data_PCOD8175486
_publ_section_title
;
Structure prediction by ZEFSAII (Michael W. Deem and Ramdas Pophale) SiO2 
 PCOD8175486
Probable space group: C M C 21
;
_chemical_formula_sum "Si O2"
_cell_formula_units_Z 48
_cell_length_a 12.929519
_cell_length_b 19.079975
_cell_length_c 8.276932
_cell_angle_alpha 90.000000
_cell_angle_beta 90.000000
_cell_angle_gamma 90.000000
_cell_volume 2041.876906
_symmetry_space_group_name_H-M "C M C 21"
_symmetry_group_IT_number 36
_symmetry_cell_setting 'orthorhombic'
loop_
_space_group_symop_operation_xyz
x,y,z
-x,-y,1/2+z
x,-y,1/2+z
-x,y,z
1/2+x,1/2+y,z
1/2-x,1/2-y,1/2+z
1/2+x,1/2-y,1/2+z
1/2-x,1/2+y,z
loop_
_atom_site_type_symbol
_atom_site_label
_atom_site_fract_x
_atom_site_fract_y
_atom_site_fract_z
Si Si1 0.116309 0.927862 0.997950
Si Si2 0.880933 0.207243 0.005787
Si Si3 0.386262 0.911763 0.805733
Si Si4 0.317393 0.569533 0.850116
Si Si5 0.274582 0.692843 0.322087
Si Si6 0.114488 0.564242 0.680914
O O1 0.160733 0.851369 0.952773
O O2 0.000000 0.934888 0.930694
O O3 0.185079 0.991575 0.926136
O O4 0.113162 0.933126 0.190305
O O5 0.853846 0.224924 0.191938
O O6 0.000000 0.230260 0.973430
O O7 0.868296 0.124219 0.974284
O O8 0.798591 0.248103 0.897254
O O9 0.500000 0.878238 0.794942
O O10 0.303161 0.859705 0.727043
O O11 0.383181 0.980967 0.699813
O O12 0.357343 0.920140 0.995736
O O13 0.201156 0.595170 0.800981
O O14 0.000000 0.593251 0.727023
#
# Coordination Sequence:
#
# PCOD8175486 Si02
#       6
#     8   8   8   8   8   8
#     4  12  24  41  70 104 139 186 236 293 351 415
#     4  12  29  50  72 102 141 188 237 293 357 428
#     4  10  21  39  65  97 137 177 221 283 346 411
#     4  12  23  44  68 105 144 185 236 289 351 422
#     4  12  25  47  71  98 135 182 237 292 356 422
#     4  10  20  37  64 102 138 174 223 280 345 402
#
# _framework density 23.507784000000001
#
# number of rings (size 3 to 8) (size 9 to 14) (size 15 to 20)
#    0.000    0.667    3.333    4.500    2.333    0.000 
#    0.000    4.167    0.000    0.000    0.000    0.000 
#    0.000    0.000    0.000    0.000    0.000    0.000 
#
# Total GULP energy -297559.480503 kJ/mol
# GULP energy per Si atom -12398.311688 kJ/mol
# Density = 2.345428 g / cm^3
# Si number density = 23.507784 Si / 1000 Ang^3
#
#
#
# Elastic Constant Matrix: (Units=GPa)
#
#
# Indices 1 2 3 4 5 6 
#
# 1 148.7522 27.8944 29.9042 0.0000 0.0000 0.0000
# 2 27.8944 70.1502 21.2403 0.0000 0.0000 0.0000
# 3 29.9042 21.2403 67.4130 0.0000 0.0000 0.0000
# 4 0.0000 0.0000 0.0000 34.6816 0.0000 0.0000
# 5 0.0000 0.0000 0.0000 0.0000 39.3871 0.0000
# 6 0.0000 0.0000 0.0000 0.0000 0.0000 30.2894
#
#
#
# Elastic Compliance Matrix: (Units=1/GPa)
#
#
# Indices 1 2 3 4 5 6 
#
# 1 0.007686 -0.002237 -0.002704 0.000000 0.000000 0.000000
# 2 -0.002237 0.016410 -0.004178 0.000000 0.000000 0.000000
# 3 -0.002704 -0.004178 0.017350 0.000000 0.000000 0.000000
# 4 0.000000 0.000000 0.000000 0.028834 0.000000 0.000000
# 5 0.000000 0.000000 0.000000 0.000000 0.025389 0.000000
# 6 0.000000 0.000000 0.000000 0.000000 0.000000 0.033015
#
#
# Mechanical properties :
#
#
# Convention : Reuss Voigt Hill
#
# Bulk Modulus (GPa) = 43.09185 49.37700 46.23442
# Shear Modulus (GPa) = 32.32941 34.69005 33.50973
#
# Velocity S-wave (km/s) = 3.71248 3.84563 3.77964
# Velocity P-wave (km/s) = 6.06196 6.38503 6.22559
#
# Compressibility (1/GPa) = 0.02320624
#
# Stress axis : x y z
#
# Youngs Moduli (GPa) = 130.10958 60.93933 57.63693
#
# Poissons Ratio (x) = 0.13634 0.15588
# Poissons Ratio (y) = 0.29109 0.24080
# Poissons Ratio (z) = 0.35188 0.25460
#
# Static dielectric constant tensor:
#      x y z
#    x 4.659680 0.000000 0.000000 
#    y 0.000000 4.025370 0.000000 
#    z 0.000000 0.000000 3.972780 
# 
# 
# High freq. dielectric constant tensor:
#      x y z
#    x 1.958430 0.000000 0.000000 
#    y 0.000000 1.912150 0.000000 
#    z 0.000000 0.000000 1.916650 
# 
# From -- ./inp_files/4091.got.cif
#   From: 2010.03.12/outbox.cif.g09.slc.cpg/sg36_3_cif.got.tgz:4091.got - 2010.04.14 02:13:53.
