data_PCOD8175847
_publ_section_title
;
Structure prediction by ZEFSAII (Michael W. Deem and Ramdas Pophale) SiO2 
 PCOD8175847
Probable space group: C M C 21
;
_chemical_formula_sum "Si O2"
_cell_formula_units_Z 64
_cell_length_a 8.917963
_cell_length_b 31.712769
_cell_length_c 10.595908
_cell_angle_alpha 90.000000
_cell_angle_beta 90.000000
_cell_angle_gamma 90.000000
_cell_volume 2996.663714
_symmetry_space_group_name_H-M "C M C 21"
_symmetry_group_IT_number 36
_symmetry_cell_setting 'orthorhombic'
loop_
_space_group_symop_operation_xyz
x,y,z
-x,-y,1/2+z
x,-y,1/2+z
-x,y,z
1/2+x,1/2+y,z
1/2-x,1/2-y,1/2+z
1/2+x,1/2-y,1/2+z
1/2-x,1/2+y,z
loop_
_atom_site_type_symbol
_atom_site_label
_atom_site_fract_x
_atom_site_fract_y
_atom_site_fract_z
Si Si1 0.666955 0.162781 0.923480
Si Si2 0.177079 0.287217 0.010420
Si Si3 0.823037 0.232066 0.769372
Si Si4 0.162240 0.426343 0.296324
Si Si5 0.171050 0.950662 0.071768
Si Si6 0.173444 0.130273 0.428959
Si Si7 0.825714 0.121369 0.140469
Si Si8 0.828533 0.537584 0.052529
O O1 0.500000 0.182873 0.937976
O O2 0.768471 0.187991 0.825801
O O3 0.654107 0.116360 0.872131
O O4 0.744811 0.158064 0.059852
O O5 0.224758 0.266524 0.875899
O O6 0.231599 0.335698 0.008558
O O7 0.000000 0.285952 0.029958
O O8 0.248257 0.261899 0.130368
O O9 0.000000 0.231921 0.749568
O O10 0.301276 0.425224 0.201274
O O11 0.190159 0.462015 0.401477
O O12 0.000000 0.433735 0.228758
O O13 0.000000 0.964727 0.056139
O O14 0.272669 0.991479 0.089236
O O15 0.220094 0.917933 0.962634
O O16 0.204271 0.136191 0.282185
O O17 0.000000 0.137220 0.464893
O O18 0.765314 0.074127 0.120894
O O19 0.000000 0.120934 0.105556
O O20 0.000000 0.543333 0.095385
#
# Coordination Sequence:
#
# PCOD8175847 Si02
#       8
#     8   8   8   8   8   8   8   8
#     4  10  21  39  65  94 124 163 209 259 318 384
#     4  11  26  45  68 100 134 175 224 273 332 396
#     4  11  25  44  68 100 135 174 219 271 332 393
#     4   9  20  38  57  82 114 150 197 248 303 370
#     4  11  23  37  58  86 118 158 203 255 314 377
#     4  10  24  43  63  91 129 170 214 266 329 391
#     4  10  21  39  63  93 128 168 213 266 321 384
#     4  10  22  39  58  86 120 160 207 258 313 377
#
# _framework density 21.357082999999999
#
# number of rings (size 3 to 8) (size 9 to 14) (size 15 to 20)
#    0.000    1.750    0.000    3.750    3.500    9.000 
#    0.000    0.000    0.000    0.000    0.000    0.000 
#    0.000    0.000    0.000    0.000    0.000    0.000 
#
# Total GULP energy -396707.584869 kJ/mol
# GULP energy per Si atom -12397.112027 kJ/mol
# Density = 2.130847 g / cm^3
# Si number density = 21.357083 Si / 1000 Ang^3
#
#
#
# Elastic Constant Matrix: (Units=GPa)
#
#
# Indices 1 2 3 4 5 6 
#
# 1 88.2965 31.5945 44.6964 0.0000 0.0000 0.0000
# 2 31.5945 56.6654 26.6850 0.0000 0.0000 0.0000
# 3 44.6964 26.6850 95.6657 0.0000 0.0000 0.0000
# 4 0.0000 0.0000 0.0000 21.2834 0.0000 0.0000
# 5 0.0000 0.0000 0.0000 0.0000 36.6515 0.0000
# 6 0.0000 0.0000 0.0000 0.0000 0.0000 20.1106
#
#
#
# Elastic Compliance Matrix: (Units=1/GPa)
#
#
# Indices 1 2 3 4 5 6 
#
# 1 0.016672 -0.006478 -0.005982 0.000000 0.000000 0.000000
# 2 -0.006478 0.022834 -0.003342 0.000000 0.000000 0.000000
# 3 -0.005982 -0.003342 0.014180 0.000000 0.000000 0.000000
# 4 0.000000 0.000000 0.000000 0.046985 0.000000 0.000000
# 5 0.000000 0.000000 0.000000 0.000000 0.027284 0.000000
# 6 0.000000 0.000000 0.000000 0.000000 0.000000 0.049725
#
#
# Mechanical properties :
#
#
# Convention : Reuss Voigt Hill
#
# Bulk Modulus (GPa) = 45.29046 49.61994 47.45520
# Shear Modulus (GPa) = 23.07914 24.78589 23.93251
#
# Velocity S-wave (km/s) = 3.29086 3.41038 3.35115
# Velocity P-wave (km/s) = 5.97428 6.22828 6.10260
#
# Compressibility (1/GPa) = 0.02207970
#
# Stress axis : x y z
#
# Youngs Moduli (GPa) = 59.98120 43.79516 70.51989
#
# Poissons Ratio (x) = 0.28372 0.42187
# Poissons Ratio (y) = 0.38859 0.23570
# Poissons Ratio (z) = 0.35882 0.14638
#
# Static dielectric constant tensor:
#      x y z
#    x 3.959180 0.000000 0.000000 
#    y 0.000000 3.770020 0.000000 
#    z 0.000000 0.000000 3.991920 
# 
# 
# High freq. dielectric constant tensor:
#      x y z
#    x 1.842790 0.000000 0.000000 
#    y 0.000000 1.836550 0.000000 
#    z 0.000000 0.000000 1.843090 
# 
# From -- ./inp_files/7132.got.cif
#   From: 2010.03.12/outbox.cif.g09.slc.cpg/sg36_4_cif.got.tgz:7132.got - 2010.04.14 02:13:53.
