data_PCOD8175802
_publ_section_title
;
Structure prediction by ZEFSAII (Michael W. Deem and Ramdas Pophale) SiO2 
 PCOD8175802
Probable space group: C M C 21
;
_chemical_formula_sum "Si O2"
_cell_formula_units_Z 64
_cell_length_a 29.815665
_cell_length_b 11.664466
_cell_length_c 8.299484
_cell_angle_alpha 90.000000
_cell_angle_beta 90.000000
_cell_angle_gamma 90.000000
_cell_volume 2886.426172
_symmetry_space_group_name_H-M "C M C 21"
_symmetry_group_IT_number 36
_symmetry_cell_setting 'orthorhombic'
loop_
_space_group_symop_operation_xyz
x,y,z
-x,-y,1/2+z
x,-y,1/2+z
-x,y,z
1/2+x,1/2+y,z
1/2-x,1/2-y,1/2+z
1/2+x,1/2-y,1/2+z
1/2-x,1/2+y,z
loop_
_atom_site_type_symbol
_atom_site_label
_atom_site_fract_x
_atom_site_fract_y
_atom_site_fract_z
Si Si1 0.204663 0.799014 0.154400
Si Si2 0.197043 0.254317 0.028709
Si Si3 0.624210 0.919652 0.126825
Si Si4 0.950473 0.183665 0.389597
Si Si5 0.591528 0.542311 0.851466
Si Si6 0.657083 0.522994 0.103014
Si Si7 0.551648 0.246290 0.524370
Si Si8 0.873750 0.339093 0.491482
O O1 0.198521 0.771801 0.340588
O O2 0.197330 0.934819 0.130671
O O3 0.253924 0.768804 0.098748
O O4 0.170331 0.730513 0.040574
O O5 0.169246 0.371487 0.044861
O O6 0.173460 0.153668 0.136636
O O7 0.580742 0.869610 0.032456
O O8 0.628171 0.889192 0.313249
O O9 0.620818 0.056414 0.115453
O O10 0.943258 0.198819 0.199563
O O11 0.916461 0.254800 0.501182
O O12 0.000000 0.221185 0.444584
O O13 0.944882 0.047953 0.417184
O O14 0.607145 0.514512 0.669426
O O15 0.642695 0.524331 0.916177
O O16 0.572543 0.669350 0.887831
O O17 0.500000 0.217968 0.480805
#
# Coordination Sequence:
#
# PCOD8175802 Si02
#       8
#     8   8   8   8   8   8   8   8
#     4  12  27  44  69  99 134 175 227 279 340 409
#     4  12  27  45  69 100 133 175 227 278 339 412
#     4  11  23  44  66  93 131 179 226 278 336 400
#     4  10  21  38  64  98 132 174 223 276 336 402
#     4  12  20  41  67  97 135 175 216 272 342 402
#     4  12  24  42  71  96 136 174 217 277 343 400
#     4  10  21  39  65  97 133 174 222 276 335 401
#     4  11  24  43  68  92 132 178 225 280 336 400
#
# _framework density 22.172747000000001
#
# number of rings (size 3 to 8) (size 9 to 14) (size 15 to 20)
#    0.000    0.750    5.000    2.625    3.500    0.500 
#    0.000    0.000    0.000    0.000    0.000    0.000 
#    0.000    0.000    0.000    0.000    0.000    0.000 
#
# Total GULP energy -396621.679439 kJ/mol
# GULP energy per Si atom -12394.427482 kJ/mol
# Density = 2.212228 g / cm^3
# Si number density = 22.172747 Si / 1000 Ang^3
#
#
#
# Elastic Constant Matrix: (Units=GPa)
#
#
# Indices 1 2 3 4 5 6 
#
# 1 135.8260 26.3421 28.5400 0.0000 0.0000 0.0000
# 2 26.3421 93.7501 13.1568 0.0000 0.0000 0.0000
# 3 28.5400 13.1568 55.1888 0.0000 0.0000 0.0000
# 4 0.0000 0.0000 0.0000 18.4031 0.0000 0.0000
# 5 0.0000 0.0000 0.0000 0.0000 27.7889 0.0000
# 6 0.0000 0.0000 0.0000 0.0000 0.0000 27.9950
#
#
#
# Elastic Compliance Matrix: (Units=1/GPa)
#
#
# Indices 1 2 3 4 5 6 
#
# 1 0.008558 -0.001845 -0.003986 0.000000 0.000000 0.000000
# 2 -0.001845 0.011434 -0.001772 0.000000 0.000000 0.000000
# 3 -0.003986 -0.001772 0.020603 0.000000 0.000000 0.000000
# 4 0.000000 0.000000 0.000000 0.054339 0.000000 0.000000
# 5 0.000000 0.000000 0.000000 0.000000 0.035986 0.000000
# 6 0.000000 0.000000 0.000000 0.000000 0.000000 0.035721
#
#
# Mechanical properties :
#
#
# Convention : Reuss Voigt Hill
#
# Bulk Modulus (GPa) = 39.38591 46.76030 43.07310
# Shear Modulus (GPa) = 26.27330 29.28581 27.77956
#
# Velocity S-wave (km/s) = 3.44603 3.63823 3.54343
# Velocity P-wave (km/s) = 5.79959 6.22766 6.01743
#
# Compressibility (1/GPa) = 0.02538979
#
# Stress axis : x y z
#
# Youngs Moduli (GPa) = 116.85415 87.46045 48.53659
#
# Poissons Ratio (x) = 0.16138 0.19345
# Poissons Ratio (y) = 0.21562 0.08598
# Poissons Ratio (z) = 0.46573 0.15494
#
# Static dielectric constant tensor:
#      x y z
#    x 4.095230 0.000000 0.000000 
#    y 0.000000 4.099900 0.000000 
#    z 0.000000 0.000000 3.961560 
# 
# 
# High freq. dielectric constant tensor:
#      x y z
#    x 1.874600 0.000000 0.000000 
#    y 0.000000 1.870110 0.000000 
#    z 0.000000 0.000000 1.881780 
# 
# From -- ./inp_files/6100.got.cif
#   From: 2010.03.12/outbox.cif.g09.slc.cpg/sg36_4_cif.got.tgz:6100.got - 2010.04.14 02:13:53.
