data_PCOD8175957
_publ_section_title
;
Structure prediction by ZEFSAII (Michael W. Deem and Ramdas Pophale) SiO2 
 PCOD8175957
Probable space group: C M C 21
;
_chemical_formula_sum "Si O2"
_cell_formula_units_Z 48
_cell_length_a 8.619622
_cell_length_b 19.830693
_cell_length_c 13.840588
_cell_angle_alpha 90.000000
_cell_angle_beta 90.000000
_cell_angle_gamma 90.000000
_cell_volume 2365.814303
_symmetry_space_group_name_H-M "C M C 21"
_symmetry_group_IT_number 36
_symmetry_cell_setting 'orthorhombic'
loop_
_space_group_symop_operation_xyz
x,y,z
-x,-y,1/2+z
x,-y,1/2+z
-x,y,z
1/2+x,1/2+y,z
1/2-x,1/2-y,1/2+z
1/2+x,1/2-y,1/2+z
1/2-x,1/2+y,z
loop_
_atom_site_type_symbol
_atom_site_label
_atom_site_fract_x
_atom_site_fract_y
_atom_site_fract_z
Si Si1 0.824505 0.557312 0.655850
Si Si2 0.681719 0.857838 0.848333
Si Si3 0.179202 0.199636 0.155362
Si Si4 0.178249 0.487371 0.366249
Si Si5 0.820910 0.822910 0.047248
Si Si6 0.822493 0.062369 0.054343
O O1 0.802248 0.556966 0.770429
O O2 0.707443 0.608230 0.605328
O O3 0.791004 0.482244 0.619256
O O4 0.000000 0.577329 0.627691
O O5 0.500000 0.852471 0.827884
O O6 0.771003 0.820223 0.763001
O O7 0.736213 0.935811 0.852380
O O8 0.721813 0.821126 0.948936
O O9 0.277480 0.262337 0.117992
O O10 0.210732 0.139506 0.080419
O O11 0.000000 0.220640 0.158014
O O12 0.286088 0.449491 0.442392
O O13 0.000000 0.488368 0.401480
O O14 0.000000 0.818728 0.018744
O O15 0.000000 0.043152 0.076486
#
# Coordination Sequence:
#
# PCOD8175957 Si02
#       6
#     8   8   8   8   8   8
#     4  11  22  40  64  92 126 165 211 261 315 376
#     4  11  22  41  67  95 126 168 214 261 320 387
#     4  11  25  44  65  94 131 172 214 266 322 380
#     4  10  22  38  64  95 127 168 211 260 317 376
#     4  12  26  43  65  95 130 172 215 264 321 382
#     4  11  23  38  63  95 126 161 209 262 313 373
#
# _framework density 20.288997999999999
#
# number of rings (size 3 to 8) (size 9 to 14) (size 15 to 20)
#    0.000    1.000    3.333    3.500    0.000    5.333 
#    0.000    3.333    0.000    0.000    0.000    0.000 
#    0.000    0.000    0.000    0.000    0.000    0.000 
#
# Total GULP energy -297761.970275 kJ/mol
# GULP energy per Si atom -12406.748761 kJ/mol
# Density = 2.024282 g / cm^3
# Si number density = 20.288998 Si / 1000 Ang^3
#
#
#
# Elastic Constant Matrix: (Units=GPa)
#
#
# Indices 1 2 3 4 5 6 
#
# 1 64.8876 24.7728 21.3457 0.0000 0.0000 0.0000
# 2 24.7728 60.5652 20.3941 0.0000 0.0000 0.0000
# 3 21.3457 20.3941 98.6226 0.0000 0.0000 0.0000
# 4 0.0000 0.0000 0.0000 32.5938 0.0000 0.0000
# 5 0.0000 0.0000 0.0000 0.0000 37.6082 0.0000
# 6 0.0000 0.0000 0.0000 0.0000 0.0000 33.0141
#
#
#
# Elastic Compliance Matrix: (Units=1/GPa)
#
#
# Indices 1 2 3 4 5 6 
#
# 1 0.018899 -0.006828 -0.002679 0.000000 0.000000 0.000000
# 2 -0.006828 0.020214 -0.002702 0.000000 0.000000 0.000000
# 3 -0.002679 -0.002702 0.011278 0.000000 0.000000 0.000000
# 4 0.000000 0.000000 0.000000 0.030681 0.000000 0.000000
# 5 0.000000 0.000000 0.000000 0.000000 0.026590 0.000000
# 6 0.000000 0.000000 0.000000 0.000000 0.000000 0.030290
#
#
# Mechanical properties :
#
#
# Convention : Reuss Voigt Hill
#
# Bulk Modulus (GPa) = 38.50081 39.67784 39.08933
# Shear Modulus (GPa) = 29.23493 31.14738 30.19116
#
# Velocity S-wave (km/s) = 3.80007 3.92240 3.86172
# Velocity P-wave (km/s) = 6.18639 6.33343 6.26034
#
# Compressibility (1/GPa) = 0.02597348
#
# Stress axis : x y z
#
# Youngs Moduli (GPa) = 52.91180 49.47055 88.66690
#
# Poissons Ratio (x) = 0.33781 0.23750
# Poissons Ratio (y) = 0.36131 0.23959
# Poissons Ratio (z) = 0.14172 0.13367
#
# Static dielectric constant tensor:
#      x y z
#    x 3.689960 0.000000 0.000000 
#    y 0.000000 3.600560 0.000000 
#    z 0.000000 0.000000 3.732610 
# 
# 
# High freq. dielectric constant tensor:
#      x y z
#    x 1.799320 0.000000 0.000000 
#    y 0.000000 1.786010 0.000000 
#    z 0.000000 0.000000 1.805720 
# 
# From -- ./inp_files/10399.got.cif
#   From: 2010.03.12/outbox.cif.g09.slc.cpg/sg36_6_cif.got.tgz:10399.got - 2010.04.14 02:13:53.
