data_PCOD8175113
_publ_section_title
;
Structure prediction by ZEFSAII (Michael W. Deem and Ramdas Pophale) SiO2 
 PCOD8175113
Probable space group: C M C 21
;
_chemical_formula_sum "Si O2"
_cell_formula_units_Z 64
_cell_length_a 8.596841
_cell_length_b 28.510034
_cell_length_c 14.208367
_cell_angle_alpha 90.000000
_cell_angle_beta 90.000000
_cell_angle_gamma 90.000000
_cell_volume 3482.417175
_symmetry_space_group_name_H-M "C M C 21"
_symmetry_group_IT_number 36
_symmetry_cell_setting 'orthorhombic'
loop_
_space_group_symop_operation_xyz
x,y,z
-x,-y,1/2+z
x,-y,1/2+z
-x,y,z
1/2+x,1/2+y,z
1/2-x,1/2-y,1/2+z
1/2+x,1/2-y,1/2+z
1/2-x,1/2+y,z
loop_
_atom_site_type_symbol
_atom_site_label
_atom_site_fract_x
_atom_site_fract_y
_atom_site_fract_z
Si Si1 0.182074 0.802646 0.646580
Si Si2 0.183280 0.947962 0.137358
Si Si3 0.817335 0.875326 0.493074
Si Si4 0.315038 0.552239 0.143643
Si Si5 0.185078 0.128674 0.782922
Si Si6 0.318794 0.124076 0.282498
Si Si7 0.683157 0.195336 0.634276
Si Si8 0.316853 0.373490 0.987084
O O1 0.224976 0.827532 0.547750
O O2 0.269843 0.827692 0.732216
O O3 0.235776 0.749229 0.639459
O O4 0.000000 0.807554 0.667738
O O5 0.232622 0.919495 0.230661
O O6 0.000000 0.953013 0.134236
O O7 0.257885 0.999917 0.140586
O O8 0.237847 0.919697 0.044761
O O9 0.751380 0.919452 0.552560
O O10 0.746279 0.874181 0.388480
O O11 0.000000 0.881474 0.482466
O O12 0.500000 0.550663 0.142908
O O13 0.265223 0.578790 0.238350
O O14 0.268870 0.172131 0.732870
O O15 0.000000 0.136907 0.778923
O O16 0.500000 0.116617 0.270426
O O17 0.276797 0.127737 0.391235
O O18 0.500000 0.190222 0.616712
O O19 0.775463 0.172250 0.547998
O O20 0.500000 0.373946 0.966914
#
# Coordination Sequence:
#
# PCOD8175113 Si02
#       8
#     8   8   8   8   8   8   8   8
#     4   9  19  36  54  73 100 136 175 214 257 306
#     4   8  16  30  52  78 100 129 171 212 249 300
#     4   8  15  29  50  71  93 125 165 208 248 292
#     4   9  17  33  54  75 101 134 173 216 258 300
#     4   9  17  31  50  74 102 132 169 210 254 304
#     4  11  22  35  52  77 107 139 175 215 262 312
#     4  10  20  34  52  76 104 133 170 215 261 308
#     4  10  20  36  56  78 105 138 176 216 259 308
#
# _framework density 18.378039999999999
#
# number of rings (size 3 to 8) (size 9 to 14) (size 15 to 20)
#    0.000    2.750    0.000    3.375    0.000    3.000 
#    0.000   10.625    0.000    0.000    0.000    0.000 
#    0.000    0.000    0.000    0.000    0.000    0.000 
#
# Total GULP energy -396748.968294 kJ/mol
# GULP energy per Si atom -12398.405259 kJ/mol
# Density = 1.833621 g / cm^3
# Si number density = 18.378040 Si / 1000 Ang^3
#
#
#
# Elastic Constant Matrix: (Units=GPa)
#
#
# Indices 1 2 3 4 5 6 
#
# 1 27.1987 20.2111 8.0803 0.0000 0.0000 0.0000
# 2 20.2111 167.5753 65.4511 0.0000 0.0000 0.0000
# 3 8.0803 65.4511 143.5594 0.0000 0.0000 0.0000
# 4 0.0000 0.0000 0.0000 12.5852 0.0000 0.0000
# 5 0.0000 0.0000 0.0000 0.0000 20.8193 0.0000
# 6 0.0000 0.0000 0.0000 0.0000 0.0000 22.2271
#
#
#
# Elastic Compliance Matrix: (Units=1/GPa)
#
#
# Indices 1 2 3 4 5 6 
#
# 1 0.040387 -0.004846 -0.000064 0.000000 0.000000 0.000000
# 2 -0.004846 0.007842 -0.003302 0.000000 0.000000 0.000000
# 3 -0.000064 -0.003302 0.008475 0.000000 0.000000 0.000000
# 4 0.000000 0.000000 0.000000 0.079458 0.000000 0.000000
# 5 0.000000 0.000000 0.000000 0.000000 0.048032 0.000000
# 6 0.000000 0.000000 0.000000 0.000000 0.000000 0.044990
#
#
# Mechanical properties :
#
#
# Convention : Reuss Voigt Hill
#
# Bulk Modulus (GPa) = 24.82697 58.42424 41.62561
# Shear Modulus (GPa) = 19.30241 27.43239 23.36740
#
# Velocity S-wave (km/s) = 3.24435 3.86770 3.56966
# Velocity P-wave (km/s) = 5.25098 7.19755 6.29990
#
# Compressibility (1/GPa) = 0.04027878
#
# Stress axis : x y z
#
# Youngs Moduli (GPa) = 24.76072 127.52160 117.99430
#
# Poissons Ratio (x) = 0.61798 0.00752
# Poissons Ratio (y) = 0.11999 0.38967
# Poissons Ratio (z) = 0.00158 0.42113
#
# Static dielectric constant tensor:
#      x y z
#    x 3.104240 0.000000 0.000000 
#    y 0.000000 3.730970 0.000000 
#    z 0.000000 0.000000 3.516010 
# 
# 
# High freq. dielectric constant tensor:
#      x y z
#    x 1.686850 0.000000 0.000000 
#    y 0.000000 1.717080 0.000000 
#    z 0.000000 0.000000 1.716580 
# 
# From -- ./inp_files/11196.got.cif
#   From: 2010.03.12/outbox.cif.g09.slc.cpg/sg36_6_cif.got.tgz:11196.got - 2010.04.14 02:13:53.
