data_PCOD8175784
_publ_section_title
;
Structure prediction by ZEFSAII (Michael W. Deem and Ramdas Pophale) SiO2 
 PCOD8175784
Probable space group: C M C 21
;
_chemical_formula_sum "Si O2"
_cell_formula_units_Z 48
_cell_length_a 13.561368
_cell_length_b 17.739565
_cell_length_c 8.659600
_cell_angle_alpha 90.000000
_cell_angle_beta 90.000000
_cell_angle_gamma 90.000000
_cell_volume 2083.263952
_symmetry_space_group_name_H-M "C M C 21"
_symmetry_group_IT_number 36
_symmetry_cell_setting 'orthorhombic'
loop_
_space_group_symop_operation_xyz
x,y,z
-x,-y,1/2+z
x,-y,1/2+z
-x,y,z
1/2+x,1/2+y,z
1/2-x,1/2-y,1/2+z
1/2+x,1/2-y,1/2+z
1/2-x,1/2+y,z
loop_
_atom_site_type_symbol
_atom_site_label
_atom_site_fract_x
_atom_site_fract_y
_atom_site_fract_z
Si Si1 0.889082 0.036171 0.615470
Si Si2 0.296301 0.583135 0.309983
Si Si3 0.388452 0.106370 0.800353
Si Si4 0.616176 0.704264 0.701669
Si Si5 0.612746 0.034910 0.479296
Si Si6 0.715935 0.744838 0.381064
O O1 0.871161 0.049695 0.435900
O O2 0.870488 0.113777 0.709072
O O3 0.000000 0.007630 0.639376
O O4 0.814558 0.968747 0.661264
O O5 0.183086 0.581980 0.366350
O O6 0.320188 0.671382 0.284478
O O7 0.500000 0.132975 0.788321
O O8 0.358806 0.054421 0.654368
O O9 0.326671 0.181704 0.798771
O O10 0.370358 0.054822 0.952062
O O11 0.500000 0.725825 0.688690
O O12 0.678927 0.738013 0.556783
O O13 0.665297 0.741890 0.855467
O O14 0.500000 0.056276 0.438050
#
# Coordination Sequence:
#
# PCOD8175784 Si02
#       6
#     8   8   8   8   8   8
#     4  10  22  41  63  88 121 161 207 254 307 377
#     4  11  22  38  63  91 123 162 205 256 310 369
#     4  10  21  39  63  91 124 161 205 256 313 376
#     4  10  23  43  65  92 129 170 212 263 321 381
#     4  10  21  38  61  89 121 159 202 249 304 373
#     4  11  23  41  65  95 130 167 209 266 327 376
#
# _framework density 23.040766999999999
#
# number of rings (size 3 to 8) (size 9 to 14) (size 15 to 20)
#    0.000    1.667    0.000    5.000    0.000    6.667 
#    0.000    3.333    0.000    1.000    0.000    0.000 
#    0.000    0.000    0.000    0.000    0.000    0.000 
#
# Total GULP energy -297491.501333 kJ/mol
# GULP energy per Si atom -12395.479222 kJ/mol
# Density = 2.298833 g / cm^3
# Si number density = 23.040767 Si / 1000 Ang^3
#
#
#
# Elastic Constant Matrix: (Units=GPa)
#
#
# Indices 1 2 3 4 5 6 
#
# 1 130.1978 63.7572 50.9560 0.0000 0.0000 0.0000
# 2 63.7572 146.3359 52.7973 0.0000 0.0000 0.0000
# 3 50.9560 52.7973 56.9716 0.0000 0.0000 0.0000
# 4 0.0000 0.0000 0.0000 32.6883 0.0000 0.0000
# 5 0.0000 0.0000 0.0000 0.0000 36.5586 0.0000
# 6 0.0000 0.0000 0.0000 0.0000 0.0000 31.8723
#
#
#
# Elastic Compliance Matrix: (Units=1/GPa)
#
#
# Indices 1 2 3 4 5 6 
#
# 1 0.012223 -0.002075 -0.009009 0.000000 0.000000 0.000000
# 2 -0.002075 0.010618 -0.007985 0.000000 0.000000 0.000000
# 3 -0.009009 -0.007985 0.033010 0.000000 0.000000 0.000000
# 4 0.000000 0.000000 0.000000 0.030592 0.000000 0.000000
# 5 0.000000 0.000000 0.000000 0.000000 0.027353 0.000000
# 6 0.000000 0.000000 0.000000 0.000000 0.000000 0.031375
#
#
# Mechanical properties :
#
#
# Convention : Reuss Voigt Hill
#
# Bulk Modulus (GPa) = 56.45326 74.28070 65.36698
# Shear Modulus (GPa) = 26.42513 31.29016 28.85765
#
# Velocity S-wave (km/s) = 3.39024 3.68915 3.54285
# Velocity P-wave (km/s) = 6.31504 7.10319 6.72067
#
# Compressibility (1/GPa) = 0.01771377
#
# Stress axis : x y z
#
# Youngs Moduli (GPa) = 81.81553 94.17626 30.29366
#
# Poissons Ratio (x) = 0.19539 0.27292
# Poissons Ratio (y) = 0.16975 0.24189
# Poissons Ratio (z) = 0.73710 0.75197
#
# Static dielectric constant tensor:
#      x y z
#    x 4.356900 0.000000 0.000000 
#    y 0.000000 4.205420 0.000000 
#    z 0.000000 0.000000 3.910330 
# 
# 
# High freq. dielectric constant tensor:
#      x y z
#    x 1.924830 0.000000 0.000000 
#    y 0.000000 1.913420 0.000000 
#    z 0.000000 0.000000 1.883740 
# 
# From -- ./inp_files/3988.got.cif
#   From: 2010.03.12/outbox.cif.g09.slc.cpg/sg36_2_cif.got.tgz:3988.got - 2010.04.14 02:13:53.
