data_PCOD8175298
_publ_section_title
;
Structure prediction by ZEFSAII (Michael W. Deem and Ramdas Pophale) SiO2 
 PCOD8175298
Probable space group: C M C 21
;
_chemical_formula_sum "Si O2"
_cell_formula_units_Z 64
_cell_length_a 23.546484
_cell_length_b 15.252106
_cell_length_c 9.112726
_cell_angle_alpha 90.000000
_cell_angle_beta 90.000000
_cell_angle_gamma 90.000000
_cell_volume 3272.684909
_symmetry_space_group_name_H-M "C M C 21"
_symmetry_group_IT_number 36
_symmetry_cell_setting 'orthorhombic'
loop_
_space_group_symop_operation_xyz
x,y,z
-x,-y,1/2+z
x,-y,1/2+z
-x,y,z
1/2+x,1/2+y,z
1/2-x,1/2-y,1/2+z
1/2+x,1/2-y,1/2+z
1/2-x,1/2+y,z
loop_
_atom_site_type_symbol
_atom_site_label
_atom_site_fract_x
_atom_site_fract_y
_atom_site_fract_z
Si Si1 0.066134 0.736728 0.408510
Si Si2 0.864732 0.076358 0.227203
Si Si3 0.255742 0.828693 0.410973
Si Si4 0.123543 0.579550 0.245874
Si Si5 0.754449 0.351301 0.749703
Si Si6 0.136243 0.096367 0.886919
Si Si7 0.376897 0.098931 0.900135
Si Si8 0.065940 0.754974 0.744941
O O1 0.082865 0.650633 0.319663
O O2 0.100170 0.818637 0.340830
O O3 0.082228 0.725229 0.579849
O O4 0.000000 0.755321 0.387883
O O5 0.798901 0.084982 0.273211
O O6 0.899928 0.158009 0.292132
O O7 0.886571 0.984824 0.292154
O O8 0.874162 0.071953 0.054635
O O9 0.252346 0.730838 0.354089
O O10 0.255930 0.816875 0.584751
O O11 0.202441 0.885046 0.354573
O O12 0.312502 0.876582 0.356601
O O13 0.188667 0.596759 0.291782
O O14 0.104805 0.485707 0.307629
O O15 0.115519 0.580060 0.071671
O O16 0.418356 0.177848 0.856561
O O17 0.000000 0.777015 0.758888
#
# Coordination Sequence:
#
# PCOD8175298 Si02
#       8
#     8   8   8   8   8   8   8   8
#     4  10  22  41  62  83 113 154 197 242 289 336
#     4  10  21  37  58  86 118 151 188 232 283 341
#     4  10  20  35  58  87 117 151 188 230 286 343
#     4  11  23  38  60  89 118 152 191 236 290 347
#     4  10  20  35  58  87 117 151 188 230 286 343
#     4  10  21  37  58  86 118 151 188 232 283 341
#     4  11  23  38  60  89 118 152 191 236 290 347
#     4  10  22  41  62  83 113 154 197 242 289 336
#
# _framework density 19.555809
#
# number of rings (size 3 to 8) (size 9 to 14) (size 15 to 20)
#    0.000    1.750    2.500    1.500    0.000    4.500 
#    0.000    0.000    0.000    0.000    0.000    0.000 
#    0.000    0.000    0.000    0.000    0.000    0.000 
#
# Total GULP energy -396962.081959 kJ/mol
# GULP energy per Si atom -12405.065061 kJ/mol
# Density = 1.951130 g / cm^3
# Si number density = 19.555809 Si / 1000 Ang^3
#
#
#
# Elastic Constant Matrix: (Units=GPa)
#
#
# Indices 1 2 3 4 5 6 
#
# 1 69.3217 14.2604 14.9068 0.0000 0.0000 0.0000
# 2 14.2604 73.9910 10.0186 0.0000 0.0000 0.0000
# 3 14.9068 10.0186 32.8304 0.0000 0.0000 0.0000
# 4 0.0000 0.0000 0.0000 40.6468 0.0000 0.0000
# 5 0.0000 0.0000 0.0000 0.0000 25.6419 0.0000
# 6 0.0000 0.0000 0.0000 0.0000 0.0000 12.4154
#
#
#
# Elastic Compliance Matrix: (Units=1/GPa)
#
#
# Indices 1 2 3 4 5 6 
#
# 1 0.016334 -0.002236 -0.006734 0.000000 0.000000 0.000000
# 2 -0.002236 0.014404 -0.003380 0.000000 0.000000 0.000000
# 3 -0.006734 -0.003380 0.034549 0.000000 0.000000 0.000000
# 4 0.000000 0.000000 0.000000 0.024602 0.000000 0.000000
# 5 0.000000 0.000000 0.000000 0.000000 0.038999 0.000000
# 6 0.000000 0.000000 0.000000 0.000000 0.000000 0.080545
#
#
# Mechanical properties :
#
#
# Convention : Reuss Voigt Hill
#
# Bulk Modulus (GPa) = 24.63935 28.27941 26.45938
# Shear Modulus (GPa) = 20.18888 24.87131 22.53009
#
# Velocity S-wave (km/s) = 3.21654 3.57012 3.39793
# Velocity P-wave (km/s) = 5.14020 5.61129 5.38090
#
# Compressibility (1/GPa) = 0.04058549
#
# Stress axis : x y z
#
# Youngs Moduli (GPa) = 61.22361 69.42604 28.94472
#
# Poissons Ratio (x) = 0.15525 0.19491
# Poissons Ratio (y) = 0.13691 0.09784
# Poissons Ratio (z) = 0.41227 0.23467
#
# Static dielectric constant tensor:
#      x y z
#    x 3.665800 0.000000 0.000000 
#    y 0.000000 3.529050 0.000000 
#    z 0.000000 0.000000 3.469260 
# 
# 
# High freq. dielectric constant tensor:
#      x y z
#    x 1.762550 0.000000 0.000000 
#    y 0.000000 1.768580 0.000000 
#    z 0.000000 0.000000 1.755420 
# 
# From -- ./inp_files/5655.got.cif
#   From: 2010.03.12/outbox.cif.g09.slc.cpg/sg36_3_cif.got.tgz:5655.got - 2010.04.14 02:13:53.
