data_PCOD8175975
_publ_section_title
;
Structure prediction by ZEFSAII (Michael W. Deem and Ramdas Pophale) SiO2 
 PCOD8175975
Probable space group: C M C 21
;
_chemical_formula_sum "Si O2"
_cell_formula_units_Z 48
_cell_length_a 18.782476
_cell_length_b 11.710205
_cell_length_c 11.576020
_cell_angle_alpha 90.000000
_cell_angle_beta 90.000000
_cell_angle_gamma 90.000000
_cell_volume 2546.106754
_symmetry_space_group_name_H-M "C M C 21"
_symmetry_group_IT_number 36
_symmetry_cell_setting 'orthorhombic'
loop_
_space_group_symop_operation_xyz
x,y,z
-x,-y,1/2+z
x,-y,1/2+z
-x,y,z
1/2+x,1/2+y,z
1/2-x,1/2-y,1/2+z
1/2+x,1/2-y,1/2+z
1/2-x,1/2+y,z
loop_
_atom_site_type_symbol
_atom_site_label
_atom_site_fract_x
_atom_site_fract_y
_atom_site_fract_z
Si Si1 0.169099 0.410520 0.116880
Si Si2 0.170750 0.656034 0.206946
Si Si3 0.582361 0.213297 0.432046
Si Si4 0.672706 0.303523 0.768170
Si Si5 0.917407 0.926791 0.584948
Si Si6 0.676398 0.642200 0.531126
O O1 0.145324 0.534846 0.158616
O O2 0.172379 0.328511 0.228717
O O3 0.244090 0.406574 0.048536
O O4 0.106901 0.374105 0.030285
O O5 0.126658 0.695017 0.317140
O O6 0.253012 0.638094 0.236359
O O7 0.159398 0.751949 0.112046
O O8 0.500000 0.191611 0.405338
O O9 0.596604 0.341411 0.477933
O O10 0.611081 0.373779 0.704210
O O11 0.662441 0.309806 0.904077
O O12 0.000000 0.951439 0.603448
O O13 0.879436 0.044056 0.556756
#
# Coordination Sequence:
#
# PCOD8175975 Si02
#       6
#     8   8   8   8   8   8
#     4  10  22  40  64  92 125 162 208 256 308 367
#     4  11  23  38  65  95 122 160 211 259 301 370
#     4  10  23  43  64  88 126 167 201 253 318 371
#     4  10  22  39  62  94 125 164 204 254 309 371
#     4  10  23  43  64  92 129 164 202 257 320 368
#     4  11  23  37  65  97 123 157 214 255 308 369
#
# _framework density 18.852312999999999
#
# number of rings (size 3 to 8) (size 9 to 14) (size 15 to 20)
#    0.000    1.667    3.333    0.000    4.667    2.000 
#    0.000    0.000    0.000    0.000    0.000    0.000 
#    0.000    0.000    0.000    0.000    0.000    0.000 
#
# Total GULP energy -297690.232960 kJ/mol
# GULP energy per Si atom -12403.759707 kJ/mol
# Density = 1.880940 g / cm^3
# Si number density = 18.852313 Si / 1000 Ang^3
#
#
#
# Elastic Constant Matrix: (Units=GPa)
#
#
# Indices 1 2 3 4 5 6 
#
# 1 80.0433 48.5156 25.2748 0.0000 0.0000 0.0000
# 2 48.5156 121.7425 51.6678 0.0000 0.0000 0.0000
# 3 25.2748 51.6678 112.6930 0.0000 0.0000 0.0000
# 4 0.0000 0.0000 0.0000 19.9108 0.0000 0.0000
# 5 0.0000 0.0000 0.0000 0.0000 29.7287 0.0000
# 6 0.0000 0.0000 0.0000 0.0000 0.0000 30.2260
#
#
#
# Elastic Compliance Matrix: (Units=1/GPa)
#
#
# Indices 1 2 3 4 5 6 
#
# 1 0.016538 -0.006228 -0.000854 0.000000 0.000000 0.000000
# 2 -0.006228 0.012544 -0.004354 0.000000 0.000000 0.000000
# 3 -0.000854 -0.004354 0.011062 0.000000 0.000000 0.000000
# 4 0.000000 0.000000 0.000000 0.050224 0.000000 0.000000
# 5 0.000000 0.000000 0.000000 0.000000 0.033638 0.000000
# 6 0.000000 0.000000 0.000000 0.000000 0.000000 0.033084
#
#
# Mechanical properties :
#
#
# Convention : Reuss Voigt Hill
#
# Bulk Modulus (GPa) = 57.90036 62.82169 60.36102
# Shear Modulus (GPa) = 26.92249 28.57447 27.74848
#
# Velocity S-wave (km/s) = 3.78309 3.89742 3.84068
# Velocity P-wave (km/s) = 7.06127 7.32452 7.19410
#
# Compressibility (1/GPa) = 0.01727105
#
# Stress axis : x y z
#
# Youngs Moduli (GPa) = 60.46757 79.71890 90.40353
#
# Poissons Ratio (x) = 0.49651 0.07717
# Poissons Ratio (y) = 0.37661 0.39365
# Poissons Ratio (z) = 0.05161 0.34713
#
# Static dielectric constant tensor:
#      x y z
#    x 3.511850 0.000000 0.000000 
#    y 0.000000 3.459980 0.000000 
#    z 0.000000 0.000000 3.501120 
# 
# 
# High freq. dielectric constant tensor:
#      x y z
#    x 1.732040 0.000000 0.000000 
#    y 0.000000 1.738880 0.000000 
#    z 0.000000 0.000000 1.740190 
# 
# From -- ./inp_files/8853.got.cif
#   From: 2010.03.12/outbox.cif.g09.slc.cpg/sg36_5_cif.got.tgz:8853.got - 2010.04.14 02:13:53.
