data_PCOD8175662
_publ_section_title
;
Structure prediction by ZEFSAII (Michael W. Deem and Ramdas Pophale) SiO2 
 PCOD8175662
Probable space group: C M C 21
;
_chemical_formula_sum "Si O2"
_cell_formula_units_Z 40
_cell_length_a 7.512129
_cell_length_b 28.846608
_cell_length_c 8.677656
_cell_angle_alpha 90.000000
_cell_angle_beta 90.000000
_cell_angle_gamma 90.000000
_cell_volume 1880.443200
_symmetry_space_group_name_H-M "C M C 21"
_symmetry_group_IT_number 36
_symmetry_cell_setting 'orthorhombic'
loop_
_space_group_symop_operation_xyz
x,y,z
-x,-y,1/2+z
x,-y,1/2+z
-x,y,z
1/2+x,1/2+y,z
1/2-x,1/2-y,1/2+z
1/2+x,1/2-y,1/2+z
1/2-x,1/2+y,z
loop_
_atom_site_type_symbol
_atom_site_label
_atom_site_fract_x
_atom_site_fract_y
_atom_site_fract_z
Si Si1 0.792664 0.215353 0.147620
Si Si2 0.295323 0.618860 0.004158
Si Si3 0.000000 0.440877 0.651807
Si Si4 0.289840 0.603540 0.649419
Si Si5 0.000000 0.460350 0.010588
Si Si6 0.200100 0.806136 0.979502
O O1 0.756402 0.173134 0.031568
O O2 0.706361 0.203526 0.314910
O O3 0.000000 0.227059 0.162400
O O4 0.697749 0.260947 0.085654
O O5 0.500000 0.607218 0.042454
O O6 0.176706 0.588606 0.118428
O O7 0.246198 0.607774 0.829227
O O8 0.000000 0.485403 0.543218
O O9 0.000000 0.454631 0.828625
O O10 0.500000 0.595234 0.622583
O O11 0.179890 0.560732 0.582395
O O12 0.214399 0.650109 0.567446
O O13 0.000000 0.821066 0.942665
#
# Coordination Sequence:
#
# PCOD8175662 Si02
#       6
#     8   8   4   8   4   8
#     4  10  21  36  56  85 121 163 208 252 304 367
#     4  10  22  42  66  92 126 165 208 260 315 374
#     4  12  26  44  68  96 126 164 210 262 317 378
#     4  10  22  42  66  92 126 165 208 260 315 374
#     4  12  26  44  68  96 126 164 210 262 317 378
#     4  10  21  36  56  85 121 163 208 252 304 367
#
# _framework density 21.271581999999999
#
# number of rings (size 3 to 8) (size 9 to 14) (size 15 to 20)
#    0.000    1.600    0.000    4.200    2.800    5.600 
#    0.000    0.000    0.000    0.000    0.000    0.000 
#    0.000    0.000    0.000    0.000    0.000    0.000 
#
# Total GULP energy -248055.546916 kJ/mol
# GULP energy per Si atom -12402.777346 kJ/mol
# Density = 2.122317 g / cm^3
# Si number density = 21.271582 Si / 1000 Ang^3
#
#
#
# Elastic Constant Matrix: (Units=GPa)
#
#
# Indices 1 2 3 4 5 6 
#
# 1 69.6299 23.1048 19.7169 0.0000 0.0000 0.0000
# 2 23.1048 78.1194 -6.2816 0.0000 0.0000 0.0000
# 3 19.7169 -6.2816 92.6972 0.0000 0.0000 0.0000
# 4 0.0000 0.0000 0.0000 43.1570 0.0000 0.0000
# 5 0.0000 0.0000 0.0000 0.0000 -10.9867 0.0000
# 6 0.0000 0.0000 0.0000 0.0000 0.0000 2.3863
#
#
#
# Elastic Compliance Matrix: (Units=1/GPa)
#
#
# Indices 1 2 3 4 5 6 
#
# 1 0.017317 -0.005448 -0.004052 0.000000 0.000000 0.000000
# 2 -0.005448 0.014585 0.002147 0.000000 0.000000 0.000000
# 3 -0.004052 0.002147 0.011795 0.000000 0.000000 0.000000
# 4 0.000000 0.000000 0.000000 0.023171 0.000000 0.000000
# 5 0.000000 0.000000 0.000000 0.000000 -0.091019 0.000000
# 6 0.000000 0.000000 0.000000 0.000000 0.000000 0.419051
#
#
# Mechanical properties :
#
#
# Convention : Reuss Voigt Hill
#
# Bulk Modulus (GPa) = 34.49357 34.83627 34.66492
# Shear Modulus (GPa) = 11.92551 20.50511 16.21531
#
# Velocity S-wave (km/s) = 2.37033 3.10815 2.76397
# Velocity P-wave (km/s) = 4.87261 5.41232 5.14954
#
# Compressibility (1/GPa) = 0.02899091
#
# Stress axis : x y z
#
# Youngs Moduli (GPa) = 57.74751 68.56481 84.77970
#
# Poissons Ratio (x) = 0.37351 0.34357
# Poissons Ratio (y) = 0.31458 -0.18202
# Poissons Ratio (z) = 0.23402 -0.14721
#
# Static dielectric constant tensor:
#      x y z
#    x 4.066990 0.000000 0.000000 
#    y 0.000000 3.761250 0.000000 
#    z 0.000000 0.000000 4.063990 
# 
# 
# High freq. dielectric constant tensor:
#      x y z
#    x 1.832290 0.000000 0.000000 
#    y 0.000000 1.831390 0.000000 
#    z 0.000000 0.000000 1.850190 
# 
# From -- ./inp_files/2454.got.cif
#   From: 2010.03.12/outbox.cif.g09.slc.cpg/sg36_2_cif.got.tgz:2454.got - 2010.04.14 02:13:53.
