data_PCOD8175520
_publ_section_title
;
Structure prediction by ZEFSAII (Michael W. Deem and Ramdas Pophale) SiO2 
 PCOD8175520
Probable space group: C M C 21
;
_chemical_formula_sum "Si O2"
_cell_formula_units_Z 52
_cell_length_a 21.969785
_cell_length_b 24.839203
_cell_length_c 5.093583
_cell_angle_alpha 90.000000
_cell_angle_beta 90.000000
_cell_angle_gamma 90.000000
_cell_volume 2779.629109
_symmetry_space_group_name_H-M "C M C 21"
_symmetry_group_IT_number 36
_symmetry_cell_setting 'orthorhombic'
loop_
_space_group_symop_operation_xyz
x,y,z
-x,-y,1/2+z
x,-y,1/2+z
-x,y,z
1/2+x,1/2+y,z
1/2-x,1/2-y,1/2+z
1/2+x,1/2-y,1/2+z
1/2-x,1/2+y,z
loop_
_atom_site_type_symbol
_atom_site_label
_atom_site_fract_x
_atom_site_fract_y
_atom_site_fract_z
Si Si1 0.881243 0.848501 0.079060
Si Si2 0.626197 0.180594 0.539931
Si Si3 0.000000 0.466205 0.508328
Si Si4 0.066767 0.635307 0.044929
Si Si5 0.754520 0.787170 0.066804
Si Si6 0.429392 0.535889 0.546718
Si Si7 0.430206 0.705134 0.074762
O O1 0.812633 0.826193 0.065067
O O2 0.885268 0.912300 0.024191
O O3 0.909953 0.839738 0.365873
O O4 0.921399 0.816910 0.866870
O O5 0.615234 0.154818 0.255609
O O6 0.696893 0.173752 0.613344
O O7 0.611595 0.243469 0.526043
O O8 0.585727 0.151113 0.753543
O O9 0.939693 0.429625 0.552911
O O10 0.000000 0.515354 0.707326
O O11 0.000000 0.661825 0.100369
O O12 0.756428 0.741576 0.288242
O O13 0.414300 0.495514 0.312028
O O14 0.500000 0.554745 0.537498
O O15 0.500000 0.721138 0.034639
#
# Coordination Sequence:
#
# PCOD8175520 Si02
#       7
#     8   8   4   8   8   8   8
#     4  12  23  41  59  89 120 165 204 244 294 372
#     4  12  21  38  56  86 126 158 199 242 293 369
#     4  10  20  38  62  86 118 156 200 252 304 368
#     4  10  22  35  59  88 118 150 200 241 317 360
#     4  12  23  42  59  83 121 171 206 236 289 362
#     4  10  21  38  62  88 117 151 197 254 310 355
#     4  12  23  34  59  88 128 156 188 246 299 362
#
# _framework density 18.707530999999999
#
# number of rings (size 3 to 8) (size 9 to 14) (size 15 to 20)
#    0.462    0.308    3.077    6.462    0.000    1.231 
#    0.000    0.000    0.000    5.538    0.000    0.000 
#    0.000    0.000    0.000    0.000    0.000    0.000 
#
# Total GULP energy -322452.877418 kJ/mol
# GULP energy per Si atom -12402.033747 kJ/mol
# Density = 1.866495 g / cm^3
# Si number density = 18.707531 Si / 1000 Ang^3
#
#
#
# Elastic Constant Matrix: (Units=GPa)
#
#
# Indices 1 2 3 4 5 6 
#
# 1 111.0807 36.1913 18.3021 0.0000 0.0000 0.0000
# 2 36.1913 98.9502 20.5051 0.0000 0.0000 0.0000
# 3 18.3021 20.5051 81.5354 0.0000 0.0000 0.0000
# 4 0.0000 0.0000 0.0000 30.6980 0.0000 0.0000
# 5 0.0000 0.0000 0.0000 0.0000 22.7978 0.0000
# 6 0.0000 0.0000 0.0000 0.0000 0.0000 26.0943
#
#
#
# Elastic Compliance Matrix: (Units=1/GPa)
#
#
# Indices 1 2 3 4 5 6 
#
# 1 0.010381 -0.003496 -0.001451 0.000000 0.000000 0.000000
# 2 -0.003496 0.011839 -0.002193 0.000000 0.000000 0.000000
# 3 -0.001451 -0.002193 0.013142 0.000000 0.000000 0.000000
# 4 0.000000 0.000000 0.000000 0.032575 0.000000 0.000000
# 5 0.000000 0.000000 0.000000 0.000000 0.043864 0.000000
# 6 0.000000 0.000000 0.000000 0.000000 0.000000 0.038323
#
#
# Mechanical properties :
#
#
# Convention : Reuss Voigt Hill
#
# Bulk Modulus (GPa) = 47.43327 49.06261 48.24794
# Shear Modulus (GPa) = 29.16643 30.35586 29.76114
#
# Velocity S-wave (km/s) = 3.95279 4.03259 3.99289
# Velocity P-wave (km/s) = 6.80022 6.92571 6.86325
#
# Compressibility (1/GPa) = 0.02108225
#
# Stress axis : x y z
#
# Youngs Moduli (GPa) = 96.33381 84.46548 76.09358
#
# Poissons Ratio (x) = 0.29530 0.11040
# Poissons Ratio (y) = 0.33679 0.16685
# Poissons Ratio (z) = 0.13977 0.18520
#
# Static dielectric constant tensor:
#      x y z
#    x 3.445370 0.000000 0.000000 
#    y 0.000000 3.275020 0.000000 
#    z 0.000000 0.000000 3.560290 
# 
# 
# High freq. dielectric constant tensor:
#      x y z
#    x 1.715570 0.000000 0.000000 
#    y 0.000000 1.712290 0.000000 
#    z 0.000000 0.000000 1.749750 
# 
# From -- ./inp_files/1377.got.cif
#   From: 2010.03.12/outbox.cif.g09.slc.cpg/sg36_1_cif.got.tgz:1377.got - 2010.04.14 02:13:53.
