data_PCOD8175875
_publ_section_title
;
Structure prediction by ZEFSAII (Michael W. Deem and Ramdas Pophale) SiO2 
 PCOD8175875
Probable space group: C M C 21
;
_chemical_formula_sum "Si O2"
_cell_formula_units_Z 64
_cell_length_a 16.942170
_cell_length_b 18.965210
_cell_length_c 10.085805
_cell_angle_alpha 90.000000
_cell_angle_beta 90.000000
_cell_angle_gamma 90.000000
_cell_volume 3240.688279
_symmetry_space_group_name_H-M "C M C 21"
_symmetry_group_IT_number 36
_symmetry_cell_setting 'orthorhombic'
loop_
_space_group_symop_operation_xyz
x,y,z
-x,-y,1/2+z
x,-y,1/2+z
-x,y,z
1/2+x,1/2+y,z
1/2-x,1/2-y,1/2+z
1/2+x,1/2-y,1/2+z
1/2-x,1/2+y,z
loop_
_atom_site_type_symbol
_atom_site_label
_atom_site_fract_x
_atom_site_fract_y
_atom_site_fract_z
Si Si1 0.336103 0.311012 0.807890
Si Si2 0.848711 0.659563 0.894485
Si Si3 0.094444 0.426708 0.143534
Si Si4 0.409852 0.908864 0.655631
Si Si5 0.909364 0.952655 0.781441
Si Si6 0.321828 0.307741 0.500311
Si Si7 0.407055 0.445090 0.495317
Si Si8 0.330153 0.843167 0.904824
O O1 0.375496 0.239683 0.863668
O O2 0.402844 0.370519 0.818382
O O3 0.306406 0.298364 0.657249
O O4 0.264878 0.339297 0.900229
O O5 0.865213 0.610819 0.768079
O O6 0.898966 0.627375 0.013576
O O7 0.756265 0.663229 0.928338
O O8 0.114891 0.509349 0.149928
O O9 0.000000 0.413237 0.139383
O O10 0.135804 0.397696 0.011313
O O11 0.500000 0.902716 0.699926
O O12 0.358524 0.866338 0.760617
O O13 0.869607 0.966060 0.637984
O O14 0.000000 0.973881 0.776036
O O15 0.866849 0.003526 0.887412
O O16 0.389198 0.363988 0.465773
O O17 0.357309 0.235993 0.440030
O O18 0.500000 0.455542 0.500701
#
# Coordination Sequence:
#
# PCOD8175875 Si02
#       8
#     8   8   8   8   8   8   8   8
#     4  10  21  40  63  88 119 158 202 249 298 358
#     4  11  22  41  63  87 122 160 199 252 302 356
#     4  11  24  41  64  92 124 163 206 251 302 364
#     4  11  24  41  60  90 128 161 202 255 304 358
#     4   9  19  37  58  84 117 150 191 242 292 350
#     4  10  21  40  63  88 119 158 202 249 298 358
#     4   9  19  37  58  84 117 150 191 242 292 350
#     4  11  22  41  63  87 122 160 199 252 302 356
#
# _framework density 19.748891
#
# number of rings (size 3 to 8) (size 9 to 14) (size 15 to 20)
#    0.000    1.750    2.500    1.500    0.000    6.000 
#    4.500    0.000    0.000    0.000    0.000    0.000 
#    0.000    0.000    0.000    0.000    0.000    0.000 
#
# Total GULP energy -396717.151574 kJ/mol
# GULP energy per Si atom -12397.410987 kJ/mol
# Density = 1.970394 g / cm^3
# Si number density = 19.748891 Si / 1000 Ang^3
#
#
#
# Elastic Constant Matrix: (Units=GPa)
#
#
# Indices 1 2 3 4 5 6 
#
# 1 33.1940 29.4860 18.1804 0.0000 0.0000 0.0000
# 2 29.4860 142.8871 63.2517 0.0000 0.0000 0.0000
# 3 18.1804 63.2517 102.1320 0.0000 0.0000 0.0000
# 4 0.0000 0.0000 0.0000 42.3713 0.0000 0.0000
# 5 0.0000 0.0000 0.0000 0.0000 14.1583 0.0000
# 6 0.0000 0.0000 0.0000 0.0000 0.0000 30.5688
#
#
#
# Elastic Compliance Matrix: (Units=1/GPa)
#
#
# Indices 1 2 3 4 5 6 
#
# 1 0.037377 -0.006569 -0.002585 0.000000 0.000000 0.000000
# 2 -0.006569 0.010796 -0.005517 0.000000 0.000000 0.000000
# 3 -0.002585 -0.005517 0.013668 0.000000 0.000000 0.000000
# 4 0.000000 0.000000 0.000000 0.023601 0.000000 0.000000
# 5 0.000000 0.000000 0.000000 0.000000 0.070630 0.000000
# 6 0.000000 0.000000 0.000000 0.000000 0.000000 0.032713
#
#
# Mechanical properties :
#
#
# Convention : Reuss Voigt Hill
#
# Bulk Modulus (GPa) = 30.76992 55.56106 43.16549
# Shear Modulus (GPa) = 21.83788 28.57267 25.20528
#
# Velocity S-wave (km/s) = 3.32893 3.80781 3.57639
# Velocity P-wave (km/s) = 5.51272 6.89401 6.24169
#
# Compressibility (1/GPa) = 0.03249927
#
# Stress axis : x y z
#
# Youngs Moduli (GPa) = 26.75463 92.62522 73.16249
#
# Poissons Ratio (x) = 0.60841 0.18916
# Poissons Ratio (y) = 0.17574 0.40364
# Poissons Ratio (z) = 0.06917 0.51101
#
# Static dielectric constant tensor:
#      x y z
#    x 3.352710 0.000000 0.000000 
#    y 0.000000 3.763540 0.000000 
#    z 0.000000 0.000000 3.973770 
# 
# 
# High freq. dielectric constant tensor:
#      x y z
#    x 1.753550 0.000000 0.000000 
#    y 0.000000 1.782340 0.000000 
#    z 0.000000 0.000000 1.782330 
# 
# From -- ./inp_files/4951.got.cif
#   From: 2010.03.12/outbox.cif.g09.slc.cpg/sg36_3_cif.got.tgz:4951.got - 2010.04.14 02:13:53.
