data_PCOD8175448
_publ_section_title
;
Structure prediction by ZEFSAII (Michael W. Deem and Ramdas Pophale) SiO2 
 PCOD8175448
Probable space group: C M C 21
;
_chemical_formula_sum "Si O2"
_cell_formula_units_Z 64
_cell_length_a 8.592726
_cell_length_b 22.365314
_cell_length_c 16.272256
_cell_angle_alpha 90.000000
_cell_angle_beta 90.000000
_cell_angle_gamma 90.000000
_cell_volume 3127.186132
_symmetry_space_group_name_H-M "C M C 21"
_symmetry_group_IT_number 36
_symmetry_cell_setting 'orthorhombic'
loop_
_space_group_symop_operation_xyz
x,y,z
-x,-y,1/2+z
x,-y,1/2+z
-x,y,z
1/2+x,1/2+y,z
1/2-x,1/2-y,1/2+z
1/2+x,1/2-y,1/2+z
1/2-x,1/2+y,z
loop_
_atom_site_type_symbol
_atom_site_label
_atom_site_fract_x
_atom_site_fract_y
_atom_site_fract_z
Si Si1 0.674291 0.787860 0.931680
Si Si2 0.181422 0.969579 0.466935
Si Si3 0.825728 0.142206 0.295301
Si Si4 0.678190 0.335777 0.091090
Si Si5 0.326529 0.211767 0.159222
Si Si6 0.323171 0.334914 0.501984
Si Si7 0.179611 0.482087 0.798618
Si Si8 0.684287 0.038163 0.624888
O O1 0.500000 0.805505 0.903789
O O2 0.802057 0.814741 0.872096
O O3 0.690702 0.715780 0.931655
O O4 0.704204 0.817292 0.019659
O O5 0.221981 0.899380 0.466525
O O6 0.000000 0.982165 0.479214
O O7 0.229156 0.992605 0.377140
O O8 0.267044 0.001632 0.543241
O O9 0.802902 0.183398 0.216514
O O10 0.703477 0.088694 0.296519
O O11 0.000000 0.116214 0.295971
O O12 0.500000 0.340828 0.059367
O O13 0.690886 0.283694 0.159499
O O14 0.732228 0.398080 0.128797
O O15 0.500000 0.194512 0.188972
O O16 0.301458 0.183174 0.070159
O O17 0.500000 0.335482 0.537136
O O18 0.237816 0.506476 0.709919
O O19 0.000000 0.497422 0.811718
O O20 0.500000 0.046157 0.622147
#
# Coordination Sequence:
#
# PCOD8175448 Si02
#       8
#     8   8   8   8   8   8   8   8
#     4  10  20  37  60  85 116 151 190 237 288 345
#     4  11  23  40  63  90 122 159 199 245 298 355
#     4  12  24  38  58  84 115 150 191 238 291 347
#     4  10  21  38  60  86 116 151 192 237 289 347
#     4  10  21  37  59  86 115 149 189 236 289 346
#     4   9  20  38  60  86 115 151 192 235 288 347
#     4  11  25  43  62  87 119 157 203 250 297 354
#     4  11  24  41  62  88 120 160 202 246 298 353
#
# _framework density 20.465684
#
# number of rings (size 3 to 8) (size 9 to 14) (size 15 to 20)
#    0.000    1.500    0.000    4.875    0.000    8.000 
#    0.000    3.750    0.000    0.000    0.000    0.000 
#    0.000    0.000    0.000    0.000    0.000    0.000 
#
# Total GULP energy -396775.155246 kJ/mol
# GULP energy per Si atom -12399.223601 kJ/mol
# Density = 2.041910 g / cm^3
# Si number density = 20.465684 Si / 1000 Ang^3
#
#
#
# Elastic Constant Matrix: (Units=GPa)
#
#
# Indices 1 2 3 4 5 6 
#
# 1 73.1921 35.5961 21.6378 0.0000 0.0000 0.0000
# 2 35.5961 146.0699 52.6442 0.0000 0.0000 0.0000
# 3 21.6378 52.6442 105.2389 0.0000 0.0000 0.0000
# 4 0.0000 0.0000 0.0000 22.5906 0.0000 0.0000
# 5 0.0000 0.0000 0.0000 0.0000 35.9022 0.0000
# 6 0.0000 0.0000 0.0000 0.0000 0.0000 33.3437
#
#
#
# Elastic Compliance Matrix: (Units=1/GPa)
#
#
# Indices 1 2 3 4 5 6 
#
# 1 0.015719 -0.003252 -0.001605 0.000000 0.000000 0.000000
# 2 -0.003252 0.009025 -0.003846 0.000000 0.000000 0.000000
# 3 -0.001605 -0.003846 0.011756 0.000000 0.000000 0.000000
# 4 0.000000 0.000000 0.000000 0.044266 0.000000 0.000000
# 5 0.000000 0.000000 0.000000 0.000000 0.027853 0.000000
# 6 0.000000 0.000000 0.000000 0.000000 0.000000 0.029991
#
#
# Mechanical properties :
#
#
# Convention : Reuss Voigt Hill
#
# Bulk Modulus (GPa) = 52.37377 60.47301 56.42339
# Shear Modulus (GPa) = 30.79198 32.67550 31.73374
#
# Velocity S-wave (km/s) = 3.88308 4.00008 3.94202
# Velocity P-wave (km/s) = 6.76395 7.13771 6.95334
#
# Compressibility (1/GPa) = 0.01909353
#
# Stress axis : x y z
#
# Youngs Moduli (GPa) = 63.61810 110.80861 85.06300
#
# Poissons Ratio (x) = 0.36036 0.13653
# Poissons Ratio (y) = 0.20689 0.32713
# Poissons Ratio (z) = 0.10211 0.42614
#
# Static dielectric constant tensor:
#      x y z
#    x 3.691440 0.000000 0.000000 
#    y 0.000000 3.884510 0.000000 
#    z 0.000000 0.000000 3.698530 
# 
# 
# High freq. dielectric constant tensor:
#      x y z
#    x 1.809250 0.000000 0.000000 
#    y 0.000000 1.812700 0.000000 
#    z 0.000000 0.000000 1.791930 
# 
# From -- ./inp_files/14089.got.cif
#   From: 2010.03.12/outbox.cif.g09.slc.cpg/sg36_8_cif.got.tgz:14089.got - 2010.04.14 02:13:53.
