data_PCOD8175360
_publ_section_title
;
Structure prediction by ZEFSAII (Michael W. Deem and Ramdas Pophale) SiO2 
 PCOD8175360
Probable space group: C M C 21
;
_chemical_formula_sum "Si O2"
_cell_formula_units_Z 64
_cell_length_a 8.613959
_cell_length_b 19.818709
_cell_length_c 19.666763
_cell_angle_alpha 90.000000
_cell_angle_beta 90.000000
_cell_angle_gamma 90.000000
_cell_volume 3357.461532
_symmetry_space_group_name_H-M "C M C 21"
_symmetry_group_IT_number 36
_symmetry_cell_setting 'orthorhombic'
loop_
_space_group_symop_operation_xyz
x,y,z
-x,-y,1/2+z
x,-y,1/2+z
-x,y,z
1/2+x,1/2+y,z
1/2-x,1/2-y,1/2+z
1/2+x,1/2-y,1/2+z
1/2-x,1/2+y,z
loop_
_atom_site_type_symbol
_atom_site_label
_atom_site_fract_x
_atom_site_fract_y
_atom_site_fract_z
Si Si1 0.818605 0.086601 0.052800
Si Si2 0.820738 0.982930 0.299976
Si Si3 0.681493 0.201116 0.968519
Si Si4 0.818941 0.970600 0.950991
Si Si5 0.179800 0.345339 0.320071
Si Si6 0.179947 0.197017 0.282899
Si Si7 0.319547 0.833610 0.926204
Si Si8 0.679789 0.914292 0.696670
O O1 0.780317 0.069742 0.130295
O O2 0.000000 0.099762 0.042698
O O3 0.727421 0.153976 0.031243
O O4 0.762732 0.024132 0.006943
O O5 0.781225 0.904520 0.286793
O O6 0.000000 0.996401 0.283298
O O7 0.778317 0.999679 0.377357
O O8 0.716355 0.029220 0.252305
O O9 0.500000 0.217385 0.969277
O O10 0.730474 0.165020 0.898241
O O11 0.773078 0.271634 0.975053
O O12 0.721892 0.902743 0.964708
O O13 0.000000 0.954280 0.958441
O O14 0.213975 0.276823 0.278318
O O15 0.000000 0.365340 0.315684
O O16 0.221582 0.168545 0.356896
O O17 0.279013 0.159757 0.225279
O O18 0.000000 0.180795 0.270545
O O19 0.500000 0.830389 0.908191
O O20 0.500000 0.916537 0.677498
#
# Coordination Sequence:
#
# PCOD8175360 Si02
#       8
#     8   8   8   8   8   8   8   8
#     4  11  23  41  62  86 118 157 198 244 298 359
#     4  11  21  36  60  88 119 155 195 244 295 349
#     4  10  20  36  58  85 119 154 191 239 291 349
#     4  10  21  37  59  87 119 155 196 244 298 350
#     4   9  19  34  57  87 118 148 187 240 291 339
#     4  10  20  37  58  84 117 153 193 242 293 346
#     4  11  21  33  57  89 119 151 192 243 293 343
#     4  12  25  40  59  86 119 159 200 242 295 359
#
# _framework density 19.06202
#
# number of rings (size 3 to 8) (size 9 to 14) (size 15 to 20)
#    0.000    1.500    2.500    4.500    0.000    4.000 
#    0.000    1.250    0.000    6.000    0.000    0.000 
#    0.000    0.000    0.000    0.000    0.000    0.000 
#
# Total GULP energy -396990.454571 kJ/mol
# GULP energy per Si atom -12405.951705 kJ/mol
# Density = 1.901863 g / cm^3
# Si number density = 19.062020 Si / 1000 Ang^3
#
#
#
# Elastic Constant Matrix: (Units=GPa)
#
#
# Indices 1 2 3 4 5 6 
#
# 1 60.6353 37.0165 12.6654 0.0000 0.0000 0.0000
# 2 37.0165 125.8766 34.1742 0.0000 0.0000 0.0000
# 3 12.6654 34.1742 74.1531 0.0000 0.0000 0.0000
# 4 0.0000 0.0000 0.0000 24.0036 0.0000 0.0000
# 5 0.0000 0.0000 0.0000 0.0000 26.9698 0.0000
# 6 0.0000 0.0000 0.0000 0.0000 0.0000 35.7311
#
#
#
# Elastic Compliance Matrix: (Units=1/GPa)
#
#
# Indices 1 2 3 4 5 6 
#
# 1 0.020143 -0.005703 -0.000812 0.000000 0.000000 0.000000
# 2 -0.005703 0.010695 -0.003955 0.000000 0.000000 0.000000
# 3 -0.000812 -0.003955 0.015447 0.000000 0.000000 0.000000
# 4 0.000000 0.000000 0.000000 0.041660 0.000000 0.000000
# 5 0.000000 0.000000 0.000000 0.000000 0.037079 0.000000
# 6 0.000000 0.000000 0.000000 0.000000 0.000000 0.027987
#
#
# Mechanical properties :
#
#
# Convention : Reuss Voigt Hill
#
# Bulk Modulus (GPa) = 39.45523 47.59747 43.52635
# Shear Modulus (GPa) = 27.41233 29.12815 28.27024
#
# Velocity S-wave (km/s) = 3.79629 3.91330 3.85524
# Velocity P-wave (km/s) = 6.32132 6.74111 6.53458
#
# Compressibility (1/GPa) = 0.02534518
#
# Stress axis : x y z
#
# Youngs Moduli (GPa) = 49.64439 93.50089 64.73760
#
# Poissons Ratio (x) = 0.53324 0.05258
# Poissons Ratio (y) = 0.28312 0.25603
# Poissons Ratio (z) = 0.04032 0.36978
#
# Static dielectric constant tensor:
#      x y z
#    x 3.417180 0.000000 0.000000 
#    y 0.000000 3.646620 0.000000 
#    z 0.000000 0.000000 3.213330 
# 
# 
# High freq. dielectric constant tensor:
#      x y z
#    x 1.747850 0.000000 0.000000 
#    y 0.000000 1.754190 0.000000 
#    z 0.000000 0.000000 1.709510 
# 
# From -- ./inp_files/13927.got.cif
#   From: 2010.03.12/outbox.cif.g09.slc.cpg/sg36_7_cif.got.tgz:13927.got - 2010.04.14 02:13:53.
