data_PCOD8175909
_publ_section_title
;
Structure prediction by ZEFSAII (Michael W. Deem and Ramdas Pophale) SiO2 
 PCOD8175909
Probable space group: C M C 21
;
_chemical_formula_sum "Si O2"
_cell_formula_units_Z 64
_cell_length_a 8.665377
_cell_length_b 24.141950
_cell_length_c 15.104917
_cell_angle_alpha 90.000000
_cell_angle_beta 90.000000
_cell_angle_gamma 90.000000
_cell_volume 3159.935016
_symmetry_space_group_name_H-M "C M C 21"
_symmetry_group_IT_number 36
_symmetry_cell_setting 'orthorhombic'
loop_
_space_group_symop_operation_xyz
x,y,z
-x,-y,1/2+z
x,-y,1/2+z
-x,y,z
1/2+x,1/2+y,z
1/2-x,1/2-y,1/2+z
1/2+x,1/2-y,1/2+z
1/2-x,1/2+y,z
loop_
_atom_site_type_symbol
_atom_site_label
_atom_site_fract_x
_atom_site_fract_y
_atom_site_fract_z
Si Si1 0.327599 0.881865 0.687660
Si Si2 0.678806 0.764108 0.416788
Si Si3 0.317965 0.006867 0.919835
Si Si4 0.317840 0.190690 0.562615
Si Si5 0.327204 0.122234 0.982109
Si Si6 0.323031 0.270287 0.720582
Si Si7 0.679479 0.506154 0.230525
Si Si8 0.682329 0.569263 0.565822
O O1 0.500000 0.898130 0.720662
O O2 0.327398 0.868752 0.585352
O O3 0.274728 0.825799 0.734455
O O4 0.206768 0.930150 0.706465
O O5 0.500000 0.760673 0.446169
O O6 0.767888 0.715259 0.467790
O O7 0.754873 0.823547 0.441530
O O8 0.697350 0.761640 0.312056
O O9 0.500000 0.003230 0.935362
O O10 0.245418 0.064480 0.956679
O O11 0.279595 0.006060 0.816755
O O12 0.244014 0.956207 0.973903
O O13 0.500000 0.182961 0.565275
O O14 0.260720 0.231474 0.641227
O O15 0.242566 0.131135 0.577841
O O16 0.500000 0.119328 0.942959
O O17 0.500000 0.286465 0.701847
O O18 0.500000 0.496410 0.250620
O O19 0.737780 0.467332 0.149946
O O20 0.500000 0.570062 0.560223
#
# Coordination Sequence:
#
# PCOD8175909 Si02
#       8
#     8   8   8   8   8   8   8   8
#     4  11  21  39  66  91 120 159 209 260 306 361
#     4  10  21  41  64  88 122 164 203 248 309 370
#     4  11  23  41  67  95 124 161 209 259 309 366
#     4  11  24  41  62  91 125 161 207 258 308 366
#     4   9  19  37  64  92 117 154 205 258 309 360
#     4  10  23  40  62  91 124 162 203 253 311 368
#     4  11  25  43  63  92 128 165 206 252 313 375
#     4  11  25  44  64  88 126 170 208 254 311 372
#
# _framework density 20.253581000000001
#
# number of rings (size 3 to 8) (size 9 to 14) (size 15 to 20)
#    0.000    1.500    2.500    1.875    3.500    2.500 
#    0.000    1.250    0.000    0.000    0.000    0.000 
#    0.000    0.000    0.000    0.000    0.000    0.000 
#
# Total GULP energy -396850.224305 kJ/mol
# GULP energy per Si atom -12401.569510 kJ/mol
# Density = 2.020748 g / cm^3
# Si number density = 20.253581 Si / 1000 Ang^3
#
#
#
# Elastic Constant Matrix: (Units=GPa)
#
#
# Indices 1 2 3 4 5 6 
#
# 1 56.2402 27.1190 25.2119 0.0000 0.0000 0.0000
# 2 27.1190 128.0874 26.1309 0.0000 0.0000 0.0000
# 3 25.2119 26.1309 86.5547 0.0000 0.0000 0.0000
# 4 0.0000 0.0000 0.0000 30.7785 0.0000 0.0000
# 5 0.0000 0.0000 0.0000 0.0000 28.4480 0.0000
# 6 0.0000 0.0000 0.0000 0.0000 0.0000 26.8672
#
#
#
# Elastic Compliance Matrix: (Units=1/GPa)
#
#
# Indices 1 2 3 4 5 6 
#
# 1 0.021867 -0.003549 -0.005298 0.000000 0.000000 0.000000
# 2 -0.003549 0.008896 -0.001652 0.000000 0.000000 0.000000
# 3 -0.005298 -0.001652 0.013595 0.000000 0.000000 0.000000
# 4 0.000000 0.000000 0.000000 0.032490 0.000000 0.000000
# 5 0.000000 0.000000 0.000000 0.000000 0.035152 0.000000
# 6 0.000000 0.000000 0.000000 0.000000 0.000000 0.037220
#
#
# Mechanical properties :
#
#
# Convention : Reuss Voigt Hill
#
# Bulk Modulus (GPa) = 42.80757 47.53400 45.17078
# Shear Modulus (GPa) = 28.08912 30.04677 29.06795
#
# Velocity S-wave (km/s) = 3.72811 3.85584 3.79251
# Velocity P-wave (km/s) = 6.30186 6.58359 6.44427
#
# Compressibility (1/GPa) = 0.02336036
#
# Stress axis : x y z
#
# Youngs Moduli (GPa) = 45.73044 112.41575 73.55468
#
# Poissons Ratio (x) = 0.39896 0.38970
# Poissons Ratio (y) = 0.16229 0.12150
# Poissons Ratio (z) = 0.24229 0.18569
#
# Static dielectric constant tensor:
#      x y z
#    x 3.633390 0.000000 0.000000 
#    y 0.000000 3.911090 0.000000 
#    z 0.000000 0.000000 3.686750 
# 
# 
# High freq. dielectric constant tensor:
#      x y z
#    x 1.778640 0.000000 0.000000 
#    y 0.000000 1.805860 0.000000 
#    z 0.000000 0.000000 1.796590 
# 
# From -- ./inp_files/11016.got.cif
#   From: 2010.03.12/outbox.cif.g09.slc.cpg/sg36_6_cif.got.tgz:11016.got - 2010.04.14 02:13:53.
