data_PCOD8175260
_publ_section_title
;
Structure prediction by ZEFSAII (Michael W. Deem and Ramdas Pophale) SiO2 
 PCOD8175260
Probable space group: C M C 21
;
_chemical_formula_sum "Si O2"
_cell_formula_units_Z 40
_cell_length_a 7.679739
_cell_length_b 29.414710
_cell_length_c 8.653478
_cell_angle_alpha 90.000000
_cell_angle_beta 90.000000
_cell_angle_gamma 90.000000
_cell_volume 1954.797277
_symmetry_space_group_name_H-M "C M C 21"
_symmetry_group_IT_number 36
_symmetry_cell_setting 'orthorhombic'
loop_
_space_group_symop_operation_xyz
x,y,z
-x,-y,1/2+z
x,-y,1/2+z
-x,y,z
1/2+x,1/2+y,z
1/2-x,1/2-y,1/2+z
1/2+x,1/2-y,1/2+z
1/2-x,1/2+y,z
loop_
_atom_site_type_symbol
_atom_site_label
_atom_site_fract_x
_atom_site_fract_y
_atom_site_fract_z
Si Si1 0.301882 0.393654 0.014500
Si Si2 0.500000 0.054232 0.023488
Si Si3 0.692586 0.876508 0.343879
Si Si4 0.292201 0.791303 0.531299
Si Si5 0.000000 0.454813 0.889397
Si Si6 0.301088 0.700077 0.381910
O O1 0.500000 0.402563 0.955629
O O2 0.309733 0.391993 0.200532
O O3 0.175813 0.433445 0.957977
O O4 0.220752 0.346604 0.947480
O O5 0.500000 0.048973 0.205863
O O6 0.327771 0.082532 0.969400
O O7 0.500000 0.006938 0.935685
O O8 0.500000 0.863853 0.278602
O O9 0.778000 0.832594 0.425585
O O10 0.500000 0.792937 0.538729
O O11 0.215272 0.744464 0.461106
O O12 0.215841 0.797634 0.699714
O O13 0.500000 0.700286 0.432795
#
# Coordination Sequence:
#
# PCOD8175260 Si02
#       6
#     8   4   8   8   4   8
#     4  11  23  39  63  93 126 165 208 254 317 373
#     4  10  22  40  70  96 120 166 210 256 323 368
#     4   9  19  38  61  91 116 160 205 250 313 368
#     4  10  20  35  57  83 118 161 211 251 313 369
#     4  12  22  44  68  90 132 160 206 268 307 380
#     4  10  22  35  51  86 121 158 208 257 305 373
#
# _framework density 20.462478999999998
#
# number of rings (size 3 to 8) (size 9 to 14) (size 15 to 20)
#    0.600    1.200    1.000    3.600    1.400    1.600 
#    0.000    5.000    0.000    0.000    0.000    0.000 
#    0.000    0.000    0.000    0.000    0.000    0.000 
#
# Total GULP energy -247947.661865 kJ/mol
# GULP energy per Si atom -12397.383093 kJ/mol
# Density = 2.041591 g / cm^3
# Si number density = 20.462479 Si / 1000 Ang^3
#
#
#
# Elastic Constant Matrix: (Units=GPa)
#
#
# Indices 1 2 3 4 5 6 
#
# 1 53.4769 21.9635 6.7221 0.0000 0.0000 0.0000
# 2 21.9635 122.0111 16.9260 0.0000 0.0000 0.0000
# 3 6.7221 16.9260 108.5588 0.0000 0.0000 0.0000
# 4 0.0000 0.0000 0.0000 44.6429 0.0000 0.0000
# 5 0.0000 0.0000 0.0000 0.0000 27.7028 0.0000
# 6 0.0000 0.0000 0.0000 0.0000 0.0000 1.6598
#
#
#
# Elastic Compliance Matrix: (Units=1/GPa)
#
#
# Indices 1 2 3 4 5 6 
#
# 1 0.020245 -0.003547 -0.000701 0.000000 0.000000 0.000000
# 2 -0.003547 0.008999 -0.001183 0.000000 0.000000 0.000000
# 3 -0.000701 -0.001183 0.009439 0.000000 0.000000 0.000000
# 4 0.000000 0.000000 0.000000 0.022400 0.000000 0.000000
# 5 0.000000 0.000000 0.000000 0.000000 0.036097 0.000000
# 6 0.000000 0.000000 0.000000 0.000000 0.000000 0.602473
#
#
# Mechanical properties :
#
#
# Convention : Reuss Voigt Hill
#
# Bulk Modulus (GPa) = 35.94447 41.69665 38.82056
# Shear Modulus (GPa) = 6.94649 30.69679 18.82164
#
# Velocity S-wave (km/s) = 1.84448 3.87738 3.03613
# Velocity P-wave (km/s) = 4.70535 6.36135 5.59496
#
# Compressibility (1/GPa) = 0.02782069
#
# Stress axis : x y z
#
# Youngs Moduli (GPa) = 49.39608 111.12764 105.93796
#
# Poissons Ratio (x) = 0.39418 0.07421
# Poissons Ratio (y) = 0.17521 0.12537
# Poissons Ratio (z) = 0.03460 0.13151
#
# Static dielectric constant tensor:
#      x y z
#    x 3.454080 0.000000 0.000000 
#    y 0.000000 3.943360 0.000000 
#    z 0.000000 0.000000 3.617370 
# 
# 
# High freq. dielectric constant tensor:
#      x y z
#    x 1.773700 0.000000 0.000000 
#    y 0.000000 1.804690 0.000000 
#    z 0.000000 0.000000 1.808500 
# 
# From -- ./inp_files/2572.got.cif
#   From: 2010.03.12/outbox.cif.g09.slc.cpg/sg36_2_cif.got.tgz:2572.got - 2010.04.14 02:13:53.
