data_PCOD8175716
_publ_section_title
;
Structure prediction by ZEFSAII (Michael W. Deem and Ramdas Pophale) SiO2 
 PCOD8175716
Probable space group: C M C 21
;
_chemical_formula_sum "Si O2"
_cell_formula_units_Z 64
_cell_length_a 8.871302
_cell_length_b 17.855273
_cell_length_c 20.141393
_cell_angle_alpha 90.000000
_cell_angle_beta 90.000000
_cell_angle_gamma 90.000000
_cell_volume 3190.386965
_symmetry_space_group_name_H-M "C M C 21"
_symmetry_group_IT_number 36
_symmetry_cell_setting 'orthorhombic'
loop_
_space_group_symop_operation_xyz
x,y,z
-x,-y,1/2+z
x,-y,1/2+z
-x,y,z
1/2+x,1/2+y,z
1/2-x,1/2-y,1/2+z
1/2+x,1/2-y,1/2+z
1/2-x,1/2+y,z
loop_
_atom_site_type_symbol
_atom_site_label
_atom_site_fract_x
_atom_site_fract_y
_atom_site_fract_z
Si Si1 0.673692 0.539861 0.078690
Si Si2 0.326149 0.469987 0.830817
Si Si3 0.824963 0.199404 0.305421
Si Si4 0.175541 0.724229 0.439367
Si Si5 0.177813 0.697159 0.058105
Si Si6 0.672451 0.562085 0.702993
Si Si7 0.675353 0.947867 0.964296
Si Si8 0.823519 0.714758 0.674449
O O1 0.500000 0.559410 0.065013
O O2 0.769129 0.615084 0.078073
O O3 0.696090 0.504416 0.150874
O O4 0.729759 0.481662 0.023962
O O5 0.500000 0.474852 0.852504
O O6 0.290342 0.388569 0.800487
O O7 0.285967 0.531275 0.775661
O O8 0.224335 0.486179 0.895127
O O9 0.730512 0.237220 0.364387
O O10 0.770555 0.236052 0.236938
O O11 0.000000 0.215647 0.318725
O O12 0.261984 0.782918 0.485293
O O13 0.212997 0.640022 0.462437
O O14 0.000000 0.741778 0.443425
O O15 0.236929 0.758395 0.109594
O O16 0.000000 0.699411 0.057094
O O17 0.500000 0.590856 0.700692
O O18 0.786013 0.628524 0.686856
O O19 0.500000 0.963752 0.976065
O O20 0.000000 0.723734 0.660934
#
# Coordination Sequence:
#
# PCOD8175716 Si02
#       8
#     8   8   8   8   8   8   8   8
#     4  11  23  40  61  84 113 150 191 237 290 344
#     4   9  18  36  60  83 112 152 194 235 282 337
#     4   9  19  37  60  85 115 154 196 237 285 339
#     4  10  21  38  61  88 119 154 192 236 285 340
#     4  12  25  40  60  85 115 151 193 241 290 343
#     4  10  22  39  60  86 115 150 192 236 285 342
#     4  10  21  37  58  87 119 151 190 233 280 337
#     4  11  23  39  60  86 118 154 192 237 287 340
#
# _framework density 20.060264
#
# number of rings (size 3 to 8) (size 9 to 14) (size 15 to 20)
#    0.000    1.750    0.000    4.125    0.000    9.000 
#    0.000    5.000    0.000    0.000    0.000    0.000 
#    0.000    0.000    0.000    0.000    0.000    0.000 
#
# Total GULP energy -397008.060887 kJ/mol
# GULP energy per Si atom -12406.501903 kJ/mol
# Density = 2.001461 g / cm^3
# Si number density = 20.060264 Si / 1000 Ang^3
#
#
#
# Elastic Constant Matrix: (Units=GPa)
#
#
# Indices 1 2 3 4 5 6 
#
# 1 89.0955 17.9970 29.4160 0.0000 0.0000 0.0000
# 2 17.9970 38.3261 -1.3591 0.0000 0.0000 0.0000
# 3 29.4160 -1.3591 65.5821 0.0000 0.0000 0.0000
# 4 0.0000 0.0000 0.0000 35.1876 0.0000 0.0000
# 5 0.0000 0.0000 0.0000 0.0000 32.3637 0.0000
# 6 0.0000 0.0000 0.0000 0.0000 0.0000 34.5546
#
#
#
# Elastic Compliance Matrix: (Units=1/GPa)
#
#
# Indices 1 2 3 4 5 6 
#
# 1 0.014956 -0.007266 -0.006859 0.000000 0.000000 0.000000
# 2 -0.007266 0.029641 0.003873 0.000000 0.000000 0.000000
# 3 -0.006859 0.003873 0.018405 0.000000 0.000000 0.000000
# 4 0.000000 0.000000 0.000000 0.028419 0.000000 0.000000
# 5 0.000000 0.000000 0.000000 0.000000 0.030899 0.000000
# 6 0.000000 0.000000 0.000000 0.000000 0.000000 0.028940
#
#
# Mechanical properties :
#
#
# Convention : Reuss Voigt Hill
#
# Bulk Modulus (GPa) = 23.53014 31.67907 27.60460
# Shear Modulus (GPa) = 26.89184 30.21784 28.55484
#
# Velocity S-wave (km/s) = 3.66533 3.88539 3.77696
# Velocity P-wave (km/s) = 5.44684 5.99621 5.72811
#
# Compressibility (1/GPa) = 0.04249869
#
# Stress axis : x y z
#
# Youngs Moduli (GPa) = 66.86151 33.73670 54.33346
#
# Poissons Ratio (x) = 0.24514 0.37267
# Poissons Ratio (y) = 0.48584 -0.21046
# Poissons Ratio (z) = 0.45861 -0.13068
#
# Static dielectric constant tensor:
#      x y z
#    x 3.666140 0.000000 0.000000 
#    y 0.000000 3.572680 0.000000 
#    z 0.000000 0.000000 3.796300 
# 
# 
# High freq. dielectric constant tensor:
#      x y z
#    x 1.785790 0.000000 0.000000 
#    y 0.000000 1.780010 0.000000 
#    z 0.000000 0.000000 1.796400 
# 
# From -- ./inp_files/15665.got.cif
#   From: 2010.03.12/outbox.cif.g09.slc.cpg/sg36_8_cif.got.tgz:15665.got - 2010.04.14 02:13:53.
