data_PCOD8175866
_publ_section_title
;
Structure prediction by ZEFSAII (Michael W. Deem and Ramdas Pophale) SiO2 
 PCOD8175866
Probable space group: C M C 21
;
_chemical_formula_sum "Si O2"
_cell_formula_units_Z 48
_cell_length_a 27.788180
_cell_length_b 8.525871
_cell_length_c 7.845296
_cell_angle_alpha 90.000000
_cell_angle_beta 90.000000
_cell_angle_gamma 90.000000
_cell_volume 1858.695274
_symmetry_space_group_name_H-M "C M C 21"
_symmetry_group_IT_number 36
_symmetry_cell_setting 'orthorhombic'
loop_
_space_group_symop_operation_xyz
x,y,z
-x,-y,1/2+z
x,-y,1/2+z
-x,y,z
1/2+x,1/2+y,z
1/2-x,1/2-y,1/2+z
1/2+x,1/2-y,1/2+z
1/2-x,1/2+y,z
loop_
_atom_site_type_symbol
_atom_site_label
_atom_site_fract_x
_atom_site_fract_y
_atom_site_fract_z
Si Si1 0.856548 0.178267 0.670160
Si Si2 0.643668 0.047823 0.685452
Si Si3 0.554691 0.566332 0.852011
Si Si4 0.302900 0.275229 0.483490
Si Si5 0.801047 0.795924 0.856001
Si Si6 0.054265 0.752991 0.698734
O O1 0.851750 0.365000 0.667971
O O2 0.911194 0.129528 0.701160
O O3 0.822066 0.117827 0.826944
O O4 0.837083 0.114404 0.487921
O O5 0.659652 0.129584 0.505853
O O6 0.679735 0.117034 0.830044
O O7 0.588891 0.104576 0.725636
O O8 0.500000 0.607197 0.797587
O O9 0.560284 0.375831 0.855859
O O10 0.568221 0.645906 0.030556
O O11 0.250807 0.205720 0.441595
O O12 0.301377 0.373366 0.664231
O O13 0.000000 0.687300 0.686761
#
# Coordination Sequence:
#
# PCOD8175866 Si02
#       6
#     8   8   8   8   8   8
#     4  12  21  43  69  96 134 166 216 279 328 384
#     4  10  23  40  67  98 128 167 215 272 333 375
#     4  10  23  42  66  93 130 177 220 266 329 396
#     4  10  21  40  61  93 130 171 210 256 324 388
#     4  10  22  38  64  91 129 172 209 256 326 389
#     4  10  22  43  65  93 133 175 220 269 324 398
#
# _framework density 25.824566999999998
#
# number of rings (size 3 to 8) (size 9 to 14) (size 15 to 20)
#    1.000    0.667    3.333    1.000    2.333    0.667 
#    0.000   10.000    0.000    0.000    0.000    0.000 
#    0.000    0.000    0.000    0.000    0.000    0.000 
#
# Total GULP energy -297359.089185 kJ/mol
# GULP energy per Si atom -12389.962049 kJ/mol
# Density = 2.576579 g / cm^3
# Si number density = 25.824567 Si / 1000 Ang^3
#
#
#
# Elastic Constant Matrix: (Units=GPa)
#
#
# Indices 1 2 3 4 5 6 
#
# 1 116.0377 8.1269 19.0556 0.0000 0.0000 0.0000
# 2 8.1269 41.0997 18.0065 0.0000 0.0000 0.0000
# 3 19.0556 18.0065 130.0279 0.0000 0.0000 0.0000
# 4 0.0000 0.0000 0.0000 21.6390 0.0000 0.0000
# 5 0.0000 0.0000 0.0000 0.0000 31.1759 0.0000
# 6 0.0000 0.0000 0.0000 0.0000 0.0000 -9.9078
#
#
#
# Elastic Compliance Matrix: (Units=1/GPa)
#
#
# Indices 1 2 3 4 5 6 
#
# 1 0.008892 -0.001264 -0.001128 0.000000 0.000000 0.000000
# 2 -0.001264 0.026082 -0.003427 0.000000 0.000000 0.000000
# 3 -0.001128 -0.003427 0.008331 0.000000 0.000000 0.000000
# 4 0.000000 0.000000 0.000000 0.046213 0.000000 0.000000
# 5 0.000000 0.000000 0.000000 0.000000 0.032076 0.000000
# 6 0.000000 0.000000 0.000000 0.000000 0.000000 -0.100930
#
#
# Mechanical properties :
#
#
# Convention : Reuss Voigt Hill
#
# Bulk Modulus (GPa) = 31.57857 41.94926 36.76391
# Shear Modulus (GPa) = 116.66900 24.71316 70.69108
#
# Velocity S-wave (km/s) = 6.72871 3.09684 5.23765
# Velocity P-wave (km/s) = 8.52186 5.39133 7.13052
#
# Compressibility (1/GPa) = 0.03166704
#
# Stress axis : x y z
#
# Youngs Moduli (GPa) = 112.46494 38.34014 120.04078
#
# Poissons Ratio (x) = 0.04846 0.13541
# Poissons Ratio (y) = 0.14216 0.41134
# Poissons Ratio (z) = 0.12686 0.13138
#
# Static dielectric constant tensor:
#      x y z
#    x 4.621370 0.000000 0.000000 
#    y 0.000000 4.827740 0.000000 
#    z 0.000000 0.000000 5.141010 
# 
# 
# High freq. dielectric constant tensor:
#      x y z
#    x 2.034760 0.000000 0.000000 
#    y 0.000000 2.011150 0.000000 
#    z 0.000000 0.000000 2.052980 
# 
# From -- ./inp_files/5989.got.cif
#   From: 2010.03.12/outbox.cif.g09.slc.cpg/sg36_3_cif.got.tgz:5989.got - 2010.04.14 02:13:53.
