data_PCOD8175430
_publ_section_title
;
Structure prediction by ZEFSAII (Michael W. Deem and Ramdas Pophale) SiO2 
 PCOD8175430
Probable space group: C M C 21
;
_chemical_formula_sum "Si O2"
_cell_formula_units_Z 64
_cell_length_a 8.997159
_cell_length_b 28.989843
_cell_length_c 12.488563
_cell_angle_alpha 90.000000
_cell_angle_beta 90.000000
_cell_angle_gamma 90.000000
_cell_volume 3257.344766
_symmetry_space_group_name_H-M "C M C 21"
_symmetry_group_IT_number 36
_symmetry_cell_setting 'orthorhombic'
loop_
_space_group_symop_operation_xyz
x,y,z
-x,-y,1/2+z
x,-y,1/2+z
-x,y,z
1/2+x,1/2+y,z
1/2-x,1/2-y,1/2+z
1/2+x,1/2-y,1/2+z
1/2-x,1/2+y,z
loop_
_atom_site_type_symbol
_atom_site_label
_atom_site_fract_x
_atom_site_fract_y
_atom_site_fract_z
Si Si1 0.826728 0.222589 0.250000
Si Si2 0.676986 0.025911 0.538383
Si Si3 0.837381 0.316035 0.935628
Si Si4 0.327512 0.563760 0.969870
Si Si5 0.323996 0.415433 0.227349
Si Si6 0.165898 0.584878 0.342724
Si Si7 0.172272 0.129123 0.154153
Si Si8 0.327340 0.820100 0.181186
O O1 0.790801 0.210334 0.372054
O O2 0.760462 0.180852 0.174528
O O3 0.759593 0.273366 0.232256
O O4 0.000000 0.226503 0.228702
O O5 0.500000 0.029763 0.550407
O O6 0.747860 0.051709 0.640098
O O7 0.731478 0.046756 0.424233
O O8 0.730024 0.973321 0.534392
O O9 0.834158 0.369885 0.914273
O O10 0.000000 0.295901 0.904337
O O11 0.804324 0.309191 0.058134
O O12 0.500000 0.549783 0.978578
O O13 0.278408 0.567966 0.846522
O O14 0.299306 0.612409 0.032395
O O15 0.500000 0.417111 0.210663
O O16 0.270005 0.363075 0.217797
O O17 0.261517 0.591131 0.235762
O O18 0.000000 0.571151 0.305934
O O19 0.000000 0.131318 0.182547
O O20 0.500000 0.829716 0.210047
#
# Coordination Sequence:
#
# PCOD8175430 Si02
#       8
#     8   8   8   8   8   8   8   8
#     4   9  19  34  56  85 114 152 199 244 294 350
#     4  11  23  40  62  87 117 153 196 245 299 357
#     4   9  17  33  54  77 109 148 189 238 291 345
#     4  10  24  42  59  86 122 159 199 243 297 356
#     4  11  24  41  62  89 122 157 200 248 298 361
#     4   9  18  34  56  82 108 141 189 242 290 345
#     4   9  19  37  58  82 116 155 195 242 293 348
#     4  10  20  37  59  84 118 157 197 246 302 356
#
# _framework density 19.647904
#
# number of rings (size 3 to 8) (size 9 to 14) (size 15 to 20)
#    0.000    2.250    1.250    0.750    1.750    4.500 
#    0.000    2.500    0.000    3.000    0.000    0.000 
#    0.000    0.000    0.000    0.000    0.000    0.000 
#
# Total GULP energy -396629.419057 kJ/mol
# GULP energy per Si atom -12394.669346 kJ/mol
# Density = 1.960318 g / cm^3
# Si number density = 19.647904 Si / 1000 Ang^3
#
#
#
# Elastic Constant Matrix: (Units=GPa)
#
#
# Indices 1 2 3 4 5 6 
#
# 1 54.0374 38.5888 40.2054 0.0000 0.0000 0.0000
# 2 38.5888 119.6354 55.3131 0.0000 0.0000 0.0000
# 3 40.2054 55.3131 129.2755 0.0000 0.0000 0.0000
# 4 0.0000 0.0000 0.0000 243.5291 0.0000 0.0000
# 5 0.0000 0.0000 0.0000 0.0000 29.1779 0.0000
# 6 0.0000 0.0000 0.0000 0.0000 0.0000 28.1905
#
#
#
# Elastic Compliance Matrix: (Units=1/GPa)
#
#
# Indices 1 2 3 4 5 6 
#
# 1 0.027198 -0.006061 -0.005865 0.000000 0.000000 0.000000
# 2 -0.006061 0.011771 -0.003151 0.000000 0.000000 0.000000
# 3 -0.005865 -0.003151 0.010908 0.000000 0.000000 0.000000
# 4 0.000000 0.000000 0.000000 0.004106 0.000000 0.000000
# 5 0.000000 0.000000 0.000000 0.000000 0.034273 0.000000
# 6 0.000000 0.000000 0.000000 0.000000 0.000000 0.035473
#
#
# Mechanical properties :
#
#
# Convention : Reuss Voigt Hill
#
# Bulk Modulus (GPa) = 50.70679 63.46254 57.08467
# Shear Modulus (GPa) = 31.16089 71.43557 51.29823
#
# Velocity S-wave (km/s) = 3.98674 6.03629 5.11522
# Velocity P-wave (km/s) = 6.85973 8.99736 8.00026
#
# Compressibility (1/GPa) = 0.01972122
#
# Stress axis : x y z
#
# Youngs Moduli (GPa) = 36.76749 84.95656 91.67611
#
# Poissons Ratio (x) = 0.51492 0.53772
# Poissons Ratio (y) = 0.22285 0.28890
# Poissons Ratio (z) = 0.21566 0.26773
#
# Static dielectric constant tensor:
#      x y z
#    x 3.529810 0.000000 0.000000 
#    y 0.000000 3.217540 0.000000 
#    z 0.000000 0.000000 3.562530 
# 
# 
# High freq. dielectric constant tensor:
#      x y z
#    x 1.753410 0.000000 0.000000 
#    y 0.000000 1.769200 0.000000 
#    z 0.000000 0.000000 1.766640 
# 
# From -- ./inp_files/7153.got.cif
#   From: 2010.03.12/outbox.cif.g09.slc.cpg/sg36_4_cif.got.tgz:7153.got - 2010.04.14 02:13:53.
