data_PCOD8175089
_publ_section_title
;
Structure prediction by ZEFSAII (Michael W. Deem and Ramdas Pophale) SiO2 
 PCOD8175089
Probable space group: C M C 21
;
_chemical_formula_sum "Si O2"
_cell_formula_units_Z 64
_cell_length_a 13.112165
_cell_length_b 24.418547
_cell_length_c 9.615897
_cell_angle_alpha 90.000000
_cell_angle_beta 90.000000
_cell_angle_gamma 90.000000
_cell_volume 3078.818068
_symmetry_space_group_name_H-M "C M C 21"
_symmetry_group_IT_number 36
_symmetry_cell_setting 'orthorhombic'
loop_
_space_group_symop_operation_xyz
x,y,z
-x,-y,1/2+z
x,-y,1/2+z
-x,y,z
1/2+x,1/2+y,z
1/2-x,1/2-y,1/2+z
1/2+x,1/2-y,1/2+z
1/2-x,1/2+y,z
loop_
_atom_site_type_symbol
_atom_site_label
_atom_site_fract_x
_atom_site_fract_y
_atom_site_fract_z
Si Si1 0.119771 0.453455 0.043980
Si Si2 0.120283 0.058110 0.382991
Si Si3 0.616382 0.212670 0.899435
Si Si4 0.117663 0.548235 0.234808
Si Si5 0.615778 0.828730 0.698744
Si Si6 0.706617 0.674367 0.400269
Si Si7 0.879522 0.043819 0.699226
Si Si8 0.765240 0.637139 0.690688
O O1 0.167939 0.503376 0.132799
O O2 0.142461 0.397264 0.123039
O O3 0.000000 0.459777 0.025790
O O4 0.170680 0.452283 0.888857
O O5 0.165424 0.116979 0.338918
O O6 0.155108 0.040554 0.537874
O O7 0.000000 0.063859 0.379925
O O8 0.156252 0.012059 0.273577
O O9 0.500000 0.194947 0.870600
O O10 0.629106 0.276679 0.863711
O O11 0.692267 0.176469 0.808348
O O12 0.645925 0.203684 0.060184
O O13 0.129208 0.607070 0.164088
O O14 0.000000 0.532095 0.255274
O O15 0.500000 0.815987 0.744960
O O16 0.685934 0.810984 0.827662
O O17 0.715606 0.672779 0.567267
O O18 0.819391 0.096632 0.760149
O O19 0.000000 0.053579 0.718817
#
# Coordination Sequence:
#
# PCOD8175089 Si02
#       8
#     8   8   8   8   8   8   8   8
#     4  10  20  33  53  84 122 156 194 238 291 359
#     4   9  19  37  61  88 121 159 199 248 300 353
#     4  11  25  43  63  88 118 155 205 255 299 357
#     4   9  19  34  53  81 118 158 192 232 292 353
#     4  10  22  40  60  86 123 160 197 248 301 356
#     4  11  22  41  63  87 117 162 207 247 298 358
#     4   9  20  37  58  88 122 155 195 243 301 362
#     4  11  23  37  62  88 121 157 200 249 307 354
#
# _framework density 20.787196000000002
#
# number of rings (size 3 to 8) (size 9 to 14) (size 15 to 20)
#    0.000    2.000    1.250    1.500    3.500    2.000 
#    0.000    0.625    0.000    0.750    0.000    0.000 
#    0.000    0.000    0.000    0.000    0.000    0.000 
#
# Total GULP energy -396853.114227 kJ/mol
# GULP energy per Si atom -12401.659820 kJ/mol
# Density = 2.073988 g / cm^3
# Si number density = 20.787196 Si / 1000 Ang^3
#
#
#
# Elastic Constant Matrix: (Units=GPa)
#
#
# Indices 1 2 3 4 5 6 
#
# 1 37.7767 47.2767 39.5552 0.0000 0.0000 0.0000
# 2 47.2767 135.2551 62.4445 0.0000 0.0000 0.0000
# 3 39.5552 62.4445 77.0743 0.0000 0.0000 0.0000
# 4 0.0000 0.0000 0.0000 31.7111 0.0000 0.0000
# 5 0.0000 0.0000 0.0000 0.0000 33.4172 0.0000
# 6 0.0000 0.0000 0.0000 0.0000 0.0000 33.7688
#
#
#
# Elastic Compliance Matrix: (Units=1/GPa)
#
#
# Indices 1 2 3 4 5 6 
#
# 1 0.067857 -0.012206 -0.024935 0.000000 0.000000 0.000000
# 2 -0.012206 0.014007 -0.005084 0.000000 0.000000 0.000000
# 3 -0.024935 -0.005084 0.029890 0.000000 0.000000 0.000000
# 4 0.000000 0.000000 0.000000 0.031535 0.000000 0.000000
# 5 0.000000 0.000000 0.000000 0.000000 0.029925 0.000000
# 6 0.000000 0.000000 0.000000 0.000000 0.000000 0.029613
#
#
# Mechanical properties :
#
#
# Convention : Reuss Voigt Hill
#
# Bulk Modulus (GPa) = 36.62591 60.96211 48.79401
# Shear Modulus (GPa) = 16.87030 26.50140 21.68585
#
# Velocity S-wave (km/s) = 2.85190 3.57443 3.23341
# Velocity P-wave (km/s) = 5.33874 6.81365 6.12079
#
# Compressibility (1/GPa) = 0.02730308
#
# Stress axis : x y z
#
# Youngs Moduli (GPa) = 14.73697 71.39190 33.45550
#
# Poissons Ratio (x) = 0.87143 0.83422
# Poissons Ratio (y) = 0.17988 0.17009
# Poissons Ratio (z) = 0.36747 0.36296
#
# Static dielectric constant tensor:
#      x y z
#    x 3.827130 0.000000 0.000000 
#    y 0.000000 3.713580 0.000000 
#    z 0.000000 0.000000 3.823870 
# 
# 
# High freq. dielectric constant tensor:
#      x y z
#    x 1.830640 0.000000 0.000000 
#    y 0.000000 1.808480 0.000000 
#    z 0.000000 0.000000 1.803030 
# 
# From -- ./inp_files/4332.got.cif
#   From: 2010.03.12/outbox.cif.g09.slc.cpg/sg36_3_cif.got.tgz:4332.got - 2010.04.14 02:13:53.
