data_PCOD8175981
_publ_section_title
;
Structure prediction by ZEFSAII (Michael W. Deem and Ramdas Pophale) SiO2 
 PCOD8175981
Probable space group: C M C 21
;
_chemical_formula_sum "Si O2"
_cell_formula_units_Z 56
_cell_length_a 20.934512
_cell_length_b 14.374672
_cell_length_c 8.554332
_cell_angle_alpha 90.000000
_cell_angle_beta 90.000000
_cell_angle_gamma 90.000000
_cell_volume 2574.227271
_symmetry_space_group_name_H-M "C M C 21"
_symmetry_group_IT_number 36
_symmetry_cell_setting 'orthorhombic'
loop_
_space_group_symop_operation_xyz
x,y,z
-x,-y,1/2+z
x,-y,1/2+z
-x,y,z
1/2+x,1/2+y,z
1/2-x,1/2-y,1/2+z
1/2+x,1/2-y,1/2+z
1/2-x,1/2+y,z
loop_
_atom_site_type_symbol
_atom_site_label
_atom_site_fract_x
_atom_site_fract_y
_atom_site_fract_z
Si Si1 0.679576 0.082759 0.264730
Si Si2 0.428950 0.506605 0.656562
Si Si3 0.387353 0.371154 0.420196
Si Si4 0.778440 0.603232 0.606414
Si Si5 0.141198 0.853199 0.979746
Si Si6 0.425778 0.213499 0.188588
Si Si7 0.202189 0.808473 0.663420
O O1 0.682941 0.087456 0.449336
O O2 0.607073 0.113222 0.221838
O O3 0.725713 0.158242 0.184383
O O4 0.701262 0.979721 0.219677
O O5 0.500000 0.522903 0.720953
O O6 0.421989 0.403357 0.582902
O O7 0.381772 0.542984 0.795998
O O8 0.415314 0.572489 0.506133
O O9 0.421447 0.283560 0.338068
O O10 0.318034 0.339888 0.486968
O O11 0.702695 0.610742 0.577052
O O12 0.801790 0.698314 0.685037
O O13 0.113721 0.755622 0.042886
O O14 0.156247 0.851135 0.796404
O O15 0.500000 0.196981 0.147679
#
# Coordination Sequence:
#
# PCOD8175981 Si02
#       7
#     8   8   8   8   8   8   8
#     4  11  25  43  69  99 135 172 221 280 340 402
#     4  11  22  38  61  97 138 181 218 262 331 416
#     4  11  22  39  64  93 135 175 224 273 335 402
#     4  11  24  41  68 101 129 169 219 283 343 392
#     4  10  22  39  65  99 131 171 213 271 337 403
#     4  11  23  44  68  91 135 186 225 274 330 400
#     4  11  23  42  67 100 134 166 222 283 340 403
#
# _framework density 21.754103000000001
#
# number of rings (size 3 to 8) (size 9 to 14) (size 15 to 20)
#    0.000    1.143    2.857    4.286    2.000    6.857 
#    0.000    4.286    0.000    0.000    0.000    0.000 
#    0.000    0.000    0.000    0.000    0.000    0.000 
#
# Total GULP energy -346949.854888 kJ/mol
# GULP energy per Si atom -12391.066246 kJ/mol
# Density = 2.170459 g / cm^3
# Si number density = 21.754103 Si / 1000 Ang^3
#
#
#
# Elastic Constant Matrix: (Units=GPa)
#
#
# Indices 1 2 3 4 5 6 
#
# 1 81.5776 21.4858 34.0593 0.0000 0.0000 0.0000
# 2 21.4858 110.7198 32.7215 0.0000 0.0000 0.0000
# 3 34.0593 32.7215 72.1906 0.0000 0.0000 0.0000
# 4 0.0000 0.0000 0.0000 19.2606 0.0000 0.0000
# 5 0.0000 0.0000 0.0000 0.0000 21.5108 0.0000
# 6 0.0000 0.0000 0.0000 0.0000 0.0000 28.3015
#
#
#
# Elastic Compliance Matrix: (Units=1/GPa)
#
#
# Indices 1 2 3 4 5 6 
#
# 1 0.015355 -0.000968 -0.006805 0.000000 0.000000 0.000000
# 2 -0.000968 0.010490 -0.004298 0.000000 0.000000 0.000000
# 3 -0.006805 -0.004298 0.019011 0.000000 0.000000 0.000000
# 4 0.000000 0.000000 0.000000 0.051920 0.000000 0.000000
# 5 0.000000 0.000000 0.000000 0.000000 0.046488 0.000000
# 6 0.000000 0.000000 0.000000 0.000000 0.000000 0.035334
#
#
# Mechanical properties :
#
#
# Convention : Reuss Voigt Hill
#
# Bulk Modulus (GPa) = 48.28023 49.00234 48.64129
# Shear Modulus (GPa) = 23.84994 25.56268 24.70631
#
# Velocity S-wave (km/s) = 3.31470 3.43165 3.37368
# Velocity P-wave (km/s) = 6.07383 6.18677 6.13056
#
# Compressibility (1/GPa) = 0.02071241
#
# Stress axis : x y z
#
# Youngs Moduli (GPa) = 65.12707 95.32993 52.60124
#
# Poissons Ratio (x) = 0.09232 0.35797
# Poissons Ratio (y) = 0.06307 0.22607
# Poissons Ratio (z) = 0.44321 0.40971
#
# Static dielectric constant tensor:
#      x y z
#    x 3.762460 0.000000 0.000000 
#    y 0.000000 4.009150 0.000000 
#    z 0.000000 0.000000 4.085560 
# 
# 
# High freq. dielectric constant tensor:
#      x y z
#    x 1.833260 0.000000 0.000000 
#    y 0.000000 1.846950 0.000000 
#    z 0.000000 0.000000 1.865750 
# 
# From -- ./inp_files/5199.got.cif
#   From: 2010.03.12/outbox.cif.g09.slc.cpg/sg36_3_cif.got.tgz:5199.got - 2010.04.14 02:13:53.
