data_PCOD8175374
_publ_section_title
;
Structure prediction by ZEFSAII (Michael W. Deem and Ramdas Pophale) SiO2 
 PCOD8175374
Probable space group: C M C 21
;
_chemical_formula_sum "Si O2"
_cell_formula_units_Z 48
_cell_length_a 7.514895
_cell_length_b 19.941879
_cell_length_c 17.371395
_cell_angle_alpha 90.000000
_cell_angle_beta 90.000000
_cell_angle_gamma 90.000000
_cell_volume 2603.296829
_symmetry_space_group_name_H-M "C M C 21"
_symmetry_group_IT_number 36
_symmetry_cell_setting 'orthorhombic'
loop_
_space_group_symop_operation_xyz
x,y,z
-x,-y,1/2+z
x,-y,1/2+z
-x,y,z
1/2+x,1/2+y,z
1/2-x,1/2-y,1/2+z
1/2+x,1/2-y,1/2+z
1/2-x,1/2+y,z
loop_
_atom_site_type_symbol
_atom_site_label
_atom_site_fract_x
_atom_site_fract_y
_atom_site_fract_z
Si Si1 0.705817 0.322740 0.657320
Si Si2 0.000000 0.355693 0.953030
Si Si3 0.000000 0.510932 0.770028
Si Si4 0.199717 0.067234 0.666878
Si Si5 0.000000 0.514214 0.946807
Si Si6 0.500000 0.852638 0.772769
Si Si7 0.293548 0.690971 0.566761
Si Si8 0.199275 0.947563 0.553504
O O1 0.500000 0.321091 0.682760
O O2 0.750312 0.264288 0.597720
O O3 0.756368 0.391068 0.613963
O O4 0.825380 0.319190 0.734205
O O5 0.000000 0.435349 0.964339
O O6 0.000000 0.335817 0.863149
O O7 0.824030 0.324325 0.991595
O O8 0.174632 0.544323 0.735120
O O9 0.000000 0.530515 0.858042
O O10 0.000000 0.431759 0.757350
O O11 0.254640 0.140367 0.636143
O O12 0.000000 0.066702 0.700255
O O13 0.217132 0.018833 0.594221
O O14 0.172738 0.551038 0.980566
O O15 0.500000 0.683955 0.542730
O O16 0.000000 0.934339 0.523229
#
# Coordination Sequence:
#
# PCOD8175374 Si02
#       8
#     8   4   4   8   4   4   8   8
#     4  11  22  38  64  87 113 158 204 243 289 352
#     4  11  23  39  59  91 123 150 194 250 300 352
#     4  11  22  36  60  88 120 156 189 240 303 353
#     4  10  20  36  59  86 112 148 199 244 286 341
#     4  11  22  36  60  88 120 156 189 240 303 353
#     4  11  23  39  59  91 123 150 194 250 300 352
#     4  11  22  38  64  87 113 158 204 243 289 352
#     4  10  20  36  59  86 112 148 199 244 286 341
#
# _framework density 18.438158999999999
#
# number of rings (size 3 to 8) (size 9 to 14) (size 15 to 20)
#    0.000    1.333    5.000    1.500    0.000    1.333 
#    0.000    5.000    0.000    0.000    0.000    0.000 
#    0.000    0.000    0.000    0.000    0.000    0.000 
#
# Total GULP energy -297673.012180 kJ/mol
# GULP energy per Si atom -12403.042174 kJ/mol
# Density = 1.839619 g / cm^3
# Si number density = 18.438159 Si / 1000 Ang^3
#
#
#
# Elastic Constant Matrix: (Units=GPa)
#
#
# Indices 1 2 3 4 5 6 
#
# 1 139.3626 31.1932 87.7010 0.0000 0.0000 0.0000
# 2 31.1932 45.7072 21.6741 0.0000 0.0000 0.0000
# 3 87.7010 21.6741 123.8804 0.0000 0.0000 0.0000
# 4 0.0000 0.0000 0.0000 26.4622 0.0000 0.0000
# 5 0.0000 0.0000 0.0000 0.0000 14.3897 0.0000
# 6 0.0000 0.0000 0.0000 0.0000 0.0000 25.4568
#
#
#
# Elastic Compliance Matrix: (Units=1/GPa)
#
#
# Indices 1 2 3 4 5 6 
#
# 1 0.014029 -0.005305 -0.009004 0.000000 0.000000 0.000000
# 2 -0.005305 0.025864 -0.000770 0.000000 0.000000 0.000000
# 3 -0.009004 -0.000770 0.014581 0.000000 0.000000 0.000000
# 4 0.000000 0.000000 0.000000 0.037790 0.000000 0.000000
# 5 0.000000 0.000000 0.000000 0.000000 0.069494 0.000000
# 6 0.000000 0.000000 0.000000 0.000000 0.000000 0.039282
#
#
# Mechanical properties :
#
#
# Convention : Reuss Voigt Hill
#
# Bulk Modulus (GPa) = 41.12244 65.56518 53.34381
# Shear Modulus (GPa) = 20.89416 24.48720 22.69068
#
# Velocity S-wave (km/s) = 3.36996 3.64823 3.51185
# Velocity P-wave (km/s) = 6.12319 7.30635 6.74078
#
# Compressibility (1/GPa) = 0.02431762
#
# Stress axis : x y z
#
# Youngs Moduli (GPa) = 71.28188 38.66449 68.58215
#
# Poissons Ratio (x) = 0.20510 0.61749
# Poissons Ratio (y) = 0.37812 0.05279
# Poissons Ratio (z) = 0.64179 0.02976
#
# Static dielectric constant tensor:
#      x y z
#    x 3.739070 0.000000 0.000000 
#    y 0.000000 3.458260 0.000000 
#    z 0.000000 0.000000 3.137600 
# 
# 
# High freq. dielectric constant tensor:
#      x y z
#    x 1.734670 0.000000 0.000000 
#    y 0.000000 1.719670 0.000000 
#    z 0.000000 0.000000 1.692410 
# 
# From -- ./inp_files/10421.got.cif
#   From: 2010.03.12/outbox.cif.g09.slc.cpg/sg36_6_cif.got.tgz:10421.got - 2010.04.14 02:13:53.
