data_PCOD8175929
_publ_section_title
;
Structure prediction by ZEFSAII (Michael W. Deem and Ramdas Pophale) SiO2 
 PCOD8175929
Probable space group: C M C 21
;
_chemical_formula_sum "Si O2"
_cell_formula_units_Z 52
_cell_length_a 7.942306
_cell_length_b 28.736855
_cell_length_c 11.641221
_cell_angle_alpha 90.000000
_cell_angle_beta 90.000000
_cell_angle_gamma 90.000000
_cell_volume 2656.956145
_symmetry_space_group_name_H-M "C M C 21"
_symmetry_group_IT_number 36
_symmetry_cell_setting 'orthorhombic'
loop_
_space_group_symop_operation_xyz
x,y,z
-x,-y,1/2+z
x,-y,1/2+z
-x,y,z
1/2+x,1/2+y,z
1/2-x,1/2-y,1/2+z
1/2+x,1/2-y,1/2+z
1/2-x,1/2+y,z
loop_
_atom_site_type_symbol
_atom_site_label
_atom_site_fract_x
_atom_site_fract_y
_atom_site_fract_z
Si Si1 0.000000 0.442332 0.512060
Si Si2 0.692292 0.391521 0.629960
Si Si3 0.192297 0.154266 0.747444
Si Si4 0.000000 0.449933 0.018648
Si Si5 0.192422 0.198158 0.990510
Si Si6 0.500000 0.910645 0.252803
Si Si7 0.186361 0.200607 0.516719
Si Si8 0.679686 0.119074 0.370697
O O1 0.171302 0.427723 0.578674
O O2 0.000000 0.496698 0.484922
O O3 0.000000 0.422056 0.385411
O O4 0.500000 0.404029 0.589324
O O5 0.741170 0.339647 0.587359
O O6 0.689056 0.392112 0.769204
O O7 0.234856 0.176376 0.868661
O O8 0.326450 0.114692 0.722783
O O9 0.223114 0.193101 0.650981
O O10 0.000000 0.134673 0.744489
O O11 0.000000 0.451485 0.157948
O O12 0.834683 0.423150 0.964820
O O13 0.000000 0.213224 0.002363
O O14 0.299577 0.244604 0.998512
O O15 0.297109 0.168194 0.434925
O O16 0.000000 0.184447 0.485178
O O17 0.500000 0.123810 0.306203
#
# Coordination Sequence:
#
# PCOD8175929 Si02
#       8
#     4   8   8   4   8   4   8   8
#     4  12  25  44  75  98 128 173 218 281 336 394
#     4  11  24  44  66  96 135 174 219 271 328 395
#     4  10  22  41  60  89 125 169 218 269 316 387
#     4  10  25  44  71 102 126 169 228 267 342 398
#     4  10  23  39  58  89 127 170 220 270 319 384
#     4  12  22  42  76  86 130 176 208 278 336 372
#     4  11  23  37  60  91 129 174 221 266 327 383
#     4  10  21  42  65  90 131 172 212 269 320 393
#
# _framework density 19.571269000000001
#
# number of rings (size 3 to 8) (size 9 to 14) (size 15 to 20)
#    0.462    0.923    3.846    0.923    7.538    0.000 
#    0.000    2.308    0.000    0.000    0.000    0.000 
#    0.000    0.000    0.000    0.000    0.000    0.000 
#
# Total GULP energy -322177.512560 kJ/mol
# GULP energy per Si atom -12391.442791 kJ/mol
# Density = 1.952672 g / cm^3
# Si number density = 19.571269 Si / 1000 Ang^3
#
#
#
# Elastic Constant Matrix: (Units=GPa)
#
#
# Indices 1 2 3 4 5 6 
#
# 1 81.3174 32.9382 28.9509 0.0000 0.0000 0.0000
# 2 32.9382 100.6562 19.8703 0.0000 0.0000 0.0000
# 3 28.9509 19.8703 99.8259 0.0000 0.0000 0.0000
# 4 0.0000 0.0000 0.0000 5.0755 0.0000 0.0000
# 5 0.0000 0.0000 0.0000 0.0000 30.2623 0.0000
# 6 0.0000 0.0000 0.0000 0.0000 0.0000 21.2032
#
#
#
# Elastic Compliance Matrix: (Units=1/GPa)
#
#
# Indices 1 2 3 4 5 6 
#
# 1 0.015318 -0.004305 -0.003585 0.000000 0.000000 0.000000
# 2 -0.004305 0.011551 -0.001051 0.000000 0.000000 0.000000
# 3 -0.003585 -0.001051 0.011266 0.000000 0.000000 0.000000
# 4 0.000000 0.000000 0.000000 0.197024 0.000000 0.000000
# 5 0.000000 0.000000 0.000000 0.000000 0.033044 0.000000
# 6 0.000000 0.000000 0.000000 0.000000 0.000000 0.047163
#
#
# Mechanical properties :
#
#
# Convention : Reuss Voigt Hill
#
# Bulk Modulus (GPa) = 49.37518 49.47980 49.42749
# Shear Modulus (GPa) = 14.70592 24.64421 19.67507
#
# Velocity S-wave (km/s) = 2.74415 3.55238 3.17409
# Velocity P-wave (km/s) = 5.94337 6.49327 6.22440
#
# Compressibility (1/GPa) = 0.02025309
#
# Stress axis : x y z
#
# Youngs Moduli (GPa) = 65.28414 86.57352 88.75916
#
# Poissons Ratio (x) = 0.37267 0.31825
# Poissons Ratio (y) = 0.28103 0.09327
# Poissons Ratio (z) = 0.23408 0.09097
#
# Static dielectric constant tensor:
#      x y z
#    x 3.614150 0.000000 0.000000 
#    y 0.000000 3.353370 0.000000 
#    z 0.000000 0.000000 3.624110 
# 
# 
# High freq. dielectric constant tensor:
#      x y z
#    x 1.765520 0.000000 0.000000 
#    y 0.000000 1.738080 0.000000 
#    z 0.000000 0.000000 1.779220 
# 
# From -- ./inp_files/6933.got.cif
#   From: 2010.03.12/outbox.cif.g09.slc.cpg/sg36_4_cif.got.tgz:6933.got - 2010.04.14 02:13:53.
