data_PCOD8175924
_publ_section_title
;
Structure prediction by ZEFSAII (Michael W. Deem and Ramdas Pophale) SiO2 
 PCOD8175924
Probable space group: C M C 21
;
_chemical_formula_sum "Si O2"
_cell_formula_units_Z 40
_cell_length_a 20.260718
_cell_length_b 9.399614
_cell_length_c 8.944146
_cell_angle_alpha 90.000000
_cell_angle_beta 90.000000
_cell_angle_gamma 90.000000
_cell_volume 1703.349358
_symmetry_space_group_name_H-M "C M C 21"
_symmetry_group_IT_number 36
_symmetry_cell_setting 'orthorhombic'
loop_
_space_group_symop_operation_xyz
x,y,z
-x,-y,1/2+z
x,-y,1/2+z
-x,y,z
1/2+x,1/2+y,z
1/2-x,1/2-y,1/2+z
1/2+x,1/2-y,1/2+z
1/2-x,1/2+y,z
loop_
_atom_site_type_symbol
_atom_site_label
_atom_site_fract_x
_atom_site_fract_y
_atom_site_fract_z
Si Si1 0.336511 0.934741 0.518690
Si Si2 0.772760 0.852212 0.997017
Si Si3 0.350398 0.474823 0.733180
Si Si4 0.424801 0.059301 0.299433
Si Si5 0.926133 0.152681 0.973455
O O1 0.276851 0.819978 0.501363
O O2 0.382795 0.896100 0.656770
O O3 0.301211 0.089896 0.526141
O O4 0.386512 0.928036 0.377700
O O5 0.820517 0.904436 0.127408
O O6 0.793523 0.899591 0.830174
O O7 0.385005 0.358557 0.626926
O O8 0.401890 0.547977 0.843690
O O9 0.500000 0.017242 0.254991
O O10 0.424472 0.185316 0.419835
O O11 0.000000 0.104694 0.010995
#
# Coordination Sequence:
#
# PCOD8175924 Si02
#       5
#     8   8   8   8   8
#     4  12  27  47  72 105 143 187 242 294 359 428
#     4  11  26  43  73 101 142 184 236 297 361 422
#     4  10  22  42  67 103 143 182 238 291 359 421
#     4  11  26  47  72 102 143 189 241 297 353 427
#     4  10  21  41  68 101 143 190 235 289 350 424
#
# _framework density 23.483145
#
# number of rings (size 3 to 8) (size 9 to 14) (size 15 to 20)
#    0.000    1.200    2.000    2.400    8.400    3.200 
#    0.000    2.000    0.000    0.000    0.000    0.000 
#    0.000    0.000    0.000    0.000    0.000    0.000 
#
# Total GULP energy -248015.051623 kJ/mol
# GULP energy per Si atom -12400.752581 kJ/mol
# Density = 2.342970 g / cm^3
# Si number density = 23.483145 Si / 1000 Ang^3
#
#
#
# Elastic Constant Matrix: (Units=GPa)
#
#
# Indices 1 2 3 4 5 6 
#
# 1 140.7964 39.4070 33.0025 0.0000 0.0000 0.0000
# 2 39.4070 71.1721 23.2191 0.0000 0.0000 0.0000
# 3 33.0025 23.2191 119.4272 0.0000 0.0000 0.0000
# 4 0.0000 0.0000 0.0000 27.4282 0.0000 0.0000
# 5 0.0000 0.0000 0.0000 0.0000 32.8696 0.0000
# 6 0.0000 0.0000 0.0000 0.0000 0.0000 35.2293
#
#
#
# Elastic Compliance Matrix: (Units=1/GPa)
#
#
# Indices 1 2 3 4 5 6 
#
# 1 0.008669 -0.004291 -0.001561 0.000000 0.000000 0.000000
# 2 -0.004291 0.017126 -0.002144 0.000000 0.000000 0.000000
# 3 -0.001561 -0.002144 0.009222 0.000000 0.000000 0.000000
# 4 0.000000 0.000000 0.000000 0.036459 0.000000 0.000000
# 5 0.000000 0.000000 0.000000 0.000000 0.030423 0.000000
# 6 0.000000 0.000000 0.000000 0.000000 0.000000 0.028385
#
#
# Mechanical properties :
#
#
# Convention : Reuss Voigt Hill
#
# Bulk Modulus (GPa) = 52.56397 58.07255 55.31826
# Shear Modulus (GPa) = 32.76160 34.82323 33.79242
#
# Velocity S-wave (km/s) = 3.73917 3.85503 3.79754
# Velocity P-wave (km/s) = 6.40891 6.67818 6.54493
#
# Compressibility (1/GPa) = 0.01902444
#
# Stress axis : x y z
#
# Youngs Moduli (GPa) = 115.34859 58.39219 108.44089
#
# Poissons Ratio (x) = 0.25054 0.16933
# Poissons Ratio (y) = 0.49493 0.23248
# Poissons Ratio (z) = 0.18012 0.12519
#
# Static dielectric constant tensor:
#      x y z
#    x 4.338810 0.000000 0.000000 
#    y 0.000000 3.998880 0.000000 
#    z 0.000000 0.000000 4.332170 
# 
# 
# High freq. dielectric constant tensor:
#      x y z
#    x 1.937930 0.000000 0.000000 
#    y 0.000000 1.914530 0.000000 
#    z 0.000000 0.000000 1.945100 
# 
# From -- ./inp_files/5459.got.cif
#   From: 2010.03.12/outbox.cif.g09.slc.cpg/sg36_3_cif.got.tgz:5459.got - 2010.04.14 02:13:53.
