data_PCOD8175401
_publ_section_title
;
Structure prediction by ZEFSAII (Michael W. Deem and Ramdas Pophale) SiO2 
 PCOD8175401
Probable space group: C M C 21
;
_chemical_formula_sum "Si O2"
_cell_formula_units_Z 64
_cell_length_a 9.213938
_cell_length_b 33.288632
_cell_length_c 10.338211
_cell_angle_alpha 90.000000
_cell_angle_beta 90.000000
_cell_angle_gamma 90.000000
_cell_volume 3170.929786
_symmetry_space_group_name_H-M "C M C 21"
_symmetry_group_IT_number 36
_symmetry_cell_setting 'orthorhombic'
loop_
_space_group_symop_operation_xyz
x,y,z
-x,-y,1/2+z
x,-y,1/2+z
-x,y,z
1/2+x,1/2+y,z
1/2-x,1/2-y,1/2+z
1/2+x,1/2-y,1/2+z
1/2-x,1/2+y,z
loop_
_atom_site_type_symbol
_atom_site_label
_atom_site_fract_x
_atom_site_fract_y
_atom_site_fract_z
Si Si1 0.328751 0.230367 0.546360
Si Si2 0.664941 0.607670 0.907428
Si Si3 0.341462 0.088711 0.562237
Si Si4 0.671054 0.287875 0.781445
Si Si5 0.839080 0.448837 0.790636
Si Si6 0.665398 0.374060 0.691930
Si Si7 0.830245 0.844330 0.155470
Si Si8 0.169002 0.537617 0.807293
O O1 0.500000 0.224557 0.523833
O O2 0.297130 0.268317 0.640369
O O3 0.254730 0.232870 0.403104
O O4 0.261780 0.195033 0.631257
O O5 0.500000 0.595029 0.880446
O O6 0.716836 0.638000 0.794649
O O7 0.754520 0.565733 0.915224
O O8 0.681561 0.633068 0.038468
O O9 0.500000 0.108241 0.591522
O O10 0.350716 0.061863 0.438524
O O11 0.219647 0.123251 0.547508
O O12 0.295292 0.058559 0.673411
O O13 0.500000 0.285312 0.812388
O O14 0.723310 0.334437 0.767224
O O15 0.749076 0.414882 0.719524
O O16 0.764753 0.492884 0.790659
O O17 0.000000 0.450702 0.727276
O O18 0.500000 0.381237 0.731612
O O19 0.000000 0.834943 0.142313
O O20 0.000000 0.534512 0.843412
#
# Coordination Sequence:
#
# PCOD8175401 Si02
#       8
#     8   8   8   8   8   8   8   8
#     4  11  24  41  66  96 127 161 203 255 304 363
#     4   9  20  37  58  84 115 154 198 243 294 354
#     4   9  18  34  53  77 110 144 187 238 287 350
#     4  10  24  44  65  92 127 165 206 252 310 369
#     4  10  21  34  54  81 110 148 190 236 294 352
#     4  10  22  40  59  82 117 157 197 246 300 356
#     4  10  20  36  61  86 114 153 196 242 298 359
#     4   9  19  34  54  80 112 148 187 238 293 349
#
# _framework density 20.183354999999999
#
# number of rings (size 3 to 8) (size 9 to 14) (size 15 to 20)
#    0.000    2.250    0.000    1.500    3.500    5.500 
#    0.000    0.000    0.000    0.000    0.000    0.000 
#    0.000    0.000    0.000    0.000    0.000    0.000 
#
# Total GULP energy -396565.438207 kJ/mol
# GULP energy per Si atom -12392.669944 kJ/mol
# Density = 2.013742 g / cm^3
# Si number density = 20.183355 Si / 1000 Ang^3
#
#
#
# Elastic Constant Matrix: (Units=GPa)
#
#
# Indices 1 2 3 4 5 6 
#
# 1 73.2507 44.3302 37.2417 0.0000 0.0000 0.0000
# 2 44.3302 100.8262 38.1058 0.0000 0.0000 0.0000
# 3 37.2417 38.1058 79.4056 0.0000 0.0000 0.0000
# 4 0.0000 0.0000 0.0000 19.4314 0.0000 0.0000
# 5 0.0000 0.0000 0.0000 0.0000 30.2481 0.0000
# 6 0.0000 0.0000 0.0000 0.0000 0.0000 31.6914
#
#
#
# Elastic Compliance Matrix: (Units=1/GPa)
#
#
# Indices 1 2 3 4 5 6 
#
# 1 0.021140 -0.006777 -0.006663 0.000000 0.000000 0.000000
# 2 -0.006777 0.014288 -0.003678 0.000000 0.000000 0.000000
# 3 -0.006663 -0.003678 0.017484 0.000000 0.000000 0.000000
# 4 0.000000 0.000000 0.000000 0.051463 0.000000 0.000000
# 5 0.000000 0.000000 0.000000 0.000000 0.033060 0.000000
# 6 0.000000 0.000000 0.000000 0.000000 0.000000 0.031554
#
#
# Mechanical properties :
#
#
# Convention : Reuss Voigt Hill
#
# Bulk Modulus (GPa) = 53.54418 54.75976 54.15197
# Shear Modulus (GPa) = 23.87203 25.19449 24.53326
#
# Velocity S-wave (km/s) = 3.44286 3.53693 3.49021
# Velocity P-wave (km/s) = 6.51082 6.62344 6.56737
#
# Compressibility (1/GPa) = 0.01867617
#
# Stress axis : x y z
#
# Youngs Moduli (GPa) = 47.30275 69.99052 57.19625
#
# Poissons Ratio (x) = 0.47430 0.38110
# Poissons Ratio (y) = 0.32055 0.21038
# Poissons Ratio (z) = 0.31518 0.25744
#
# Static dielectric constant tensor:
#      x y z
#    x 3.766920 0.000000 0.000000 
#    y 0.000000 3.829180 0.000000 
#    z 0.000000 0.000000 3.767260 
# 
# 
# High freq. dielectric constant tensor:
#      x y z
#    x 1.777780 0.000000 0.000000 
#    y 0.000000 1.791110 0.000000 
#    z 0.000000 0.000000 1.793590 
# 
# From -- ./inp_files/7095.got.cif
#   From: 2010.03.12/outbox.cif.g09.slc.cpg/sg36_4_cif.got.tgz:7095.got - 2010.04.14 02:13:53.
