data_PCOD8175431
_publ_section_title
;
Structure prediction by ZEFSAII (Michael W. Deem and Ramdas Pophale) SiO2 
 PCOD8175431
Probable space group: C M C 21
;
_chemical_formula_sum "Si O2"
_cell_formula_units_Z 64
_cell_length_a 8.838210
_cell_length_b 15.365678
_cell_length_c 23.914968
_cell_angle_alpha 90.000000
_cell_angle_beta 90.000000
_cell_angle_gamma 90.000000
_cell_volume 3247.774357
_symmetry_space_group_name_H-M "C M C 21"
_symmetry_group_IT_number 36
_symmetry_cell_setting 'orthorhombic'
loop_
_space_group_symop_operation_xyz
x,y,z
-x,-y,1/2+z
x,-y,1/2+z
-x,y,z
1/2+x,1/2+y,z
1/2-x,1/2-y,1/2+z
1/2+x,1/2-y,1/2+z
1/2-x,1/2+y,z
loop_
_atom_site_type_symbol
_atom_site_label
_atom_site_fract_x
_atom_site_fract_y
_atom_site_fract_z
Si Si1 0.675195 0.278509 0.932620
Si Si2 0.321745 0.522511 0.423848
Si Si3 0.321363 0.368927 0.503819
Si Si4 0.826139 0.027849 0.704934
Si Si5 0.177120 0.220722 0.305628
Si Si6 0.672335 0.279009 0.198786
Si Si7 0.179013 0.129767 0.128921
Si Si8 0.177801 0.463840 0.809352
O O1 0.500000 0.263978 0.945631
O O2 0.720184 0.379359 0.942550
O O3 0.769494 0.219271 0.974233
O O4 0.713800 0.250633 0.869002
O O5 0.500000 0.516047 0.411034
O O6 0.267243 0.455441 0.471304
O O7 0.230590 0.496112 0.368243
O O8 0.500000 0.367170 0.505958
O O9 0.252948 0.372553 0.566280
O O10 0.813642 0.122493 0.675915
O O11 0.000000 0.008680 0.721958
O O12 0.764282 0.955963 0.661492
O O13 0.720453 0.029761 0.759819
O O14 0.267464 0.280695 0.262496
O O15 0.229137 0.122582 0.295523
O O16 0.000000 0.226935 0.292883
O O17 0.500000 0.246335 0.198436
O O18 0.768549 0.216855 0.159441
O O19 0.000000 0.130806 0.126422
O O20 0.000000 0.445286 0.810858
#
# Coordination Sequence:
#
# PCOD8175431 Si02
#       8
#     8   8   8   8   8   8   8   8
#     4   9  20  37  58  85 117 154 192 237 299 350
#     4   9  20  39  59  83 118 159 196 234 293 359
#     4  10  22  39  62  87 113 155 207 244 286 351
#     4  10  22  39  59  84 118 158 196 238 299 358
#     4  10  20  37  59  84 122 161 191 235 302 362
#     4  11  23  37  59  91 117 151 201 249 294 349
#     4  10  22  42  62  82 117 162 199 243 299 353
#     4  11  21  34  58  90 122 152 196 246 294 348
#
# _framework density 19.705801999999998
#
# number of rings (size 3 to 8) (size 9 to 14) (size 15 to 20)
#    0.000    2.000    1.250    2.625    1.750    5.500 
#    0.000    2.500    0.000    0.000    0.000    0.000 
#    0.000    0.000    0.000    0.000    0.000    0.000 
#
# Total GULP energy -396850.149252 kJ/mol
# GULP energy per Si atom -12401.567164 kJ/mol
# Density = 1.966095 g / cm^3
# Si number density = 19.705802 Si / 1000 Ang^3
#
#
#
# Elastic Constant Matrix: (Units=GPa)
#
#
# Indices 1 2 3 4 5 6 
#
# 1 17.8167 12.1260 22.1576 0.0000 0.0000 0.0000
# 2 12.1260 109.3856 65.5456 0.0000 0.0000 0.0000
# 3 22.1576 65.5456 138.1291 0.0000 0.0000 0.0000
# 4 0.0000 0.0000 0.0000 23.8482 0.0000 0.0000
# 5 0.0000 0.0000 0.0000 0.0000 24.6372 0.0000
# 6 0.0000 0.0000 0.0000 0.0000 0.0000 29.2328
#
#
#
# Elastic Compliance Matrix: (Units=1/GPa)
#
#
# Indices 1 2 3 4 5 6 
#
# 1 0.070278 -0.001447 -0.010587 0.000000 0.000000 0.000000
# 2 -0.001447 0.012804 -0.005844 0.000000 0.000000 0.000000
# 3 -0.010587 -0.005844 0.011711 0.000000 0.000000 0.000000
# 4 0.000000 0.000000 0.000000 0.041932 0.000000 0.000000
# 5 0.000000 0.000000 0.000000 0.000000 0.040589 0.000000
# 6 0.000000 0.000000 0.000000 0.000000 0.000000 0.034208
#
#
# Mechanical properties :
#
#
# Convention : Reuss Voigt Hill
#
# Bulk Modulus (GPa) = 16.93825 51.66555 34.30190
# Shear Modulus (GPa) = 18.72964 26.57709 22.65337
#
# Velocity S-wave (km/s) = 3.08630 3.67644 3.39422
# Velocity P-wave (km/s) = 4.61677 6.65560 5.72763
#
# Compressibility (1/GPa) = 0.05903797
#
# Stress axis : x y z
#
# Youngs Moduli (GPa) = 14.22918 78.10050 85.39080
#
# Poissons Ratio (x) = 0.11300 0.90402
# Poissons Ratio (y) = 0.02059 0.49900
# Poissons Ratio (z) = 0.15064 0.45640
#
# Static dielectric constant tensor:
#      x y z
#    x 3.448250 0.000000 0.000000 
#    y 0.000000 3.553950 0.000000 
#    z 0.000000 0.000000 3.817000 
# 
# 
# High freq. dielectric constant tensor:
#      x y z
#    x 1.759020 0.000000 0.000000 
#    y 0.000000 1.772170 0.000000 
#    z 0.000000 0.000000 1.764470 
# 
# From -- ./inp_files/16672.got.cif
#   From: 2010.03.12/outbox.cif.g09.slc.cpg/sg36_9_cif.got.tgz:16672.got - 2010.04.14 02:13:53.
