data_PCOD8175718
_publ_section_title
;
Structure prediction by ZEFSAII (Michael W. Deem and Ramdas Pophale) SiO2 
 PCOD8175718
Probable space group: C M C 21
;
_chemical_formula_sum "Si O2"
_cell_formula_units_Z 48
_cell_length_a 9.066312
_cell_length_b 30.127978
_cell_length_c 8.766026
_cell_angle_alpha 90.000000
_cell_angle_beta 90.000000
_cell_angle_gamma 90.000000
_cell_volume 2394.436920
_symmetry_space_group_name_H-M "C M C 21"
_symmetry_group_IT_number 36
_symmetry_cell_setting 'orthorhombic'
loop_
_space_group_symop_operation_xyz
x,y,z
-x,-y,1/2+z
x,-y,1/2+z
-x,y,z
1/2+x,1/2+y,z
1/2-x,1/2-y,1/2+z
1/2+x,1/2-y,1/2+z
1/2-x,1/2+y,z
loop_
_atom_site_type_symbol
_atom_site_label
_atom_site_fract_x
_atom_site_fract_y
_atom_site_fract_z
Si Si1 0.669630 0.800372 0.653860
Si Si2 0.325109 0.135240 0.678338
Si Si3 0.669725 0.713416 0.840661
Si Si4 0.171155 0.034889 0.180029
Si Si5 0.828430 0.944455 0.334653
Si Si6 0.325891 0.114329 0.339016
O O1 0.500000 0.803413 0.599520
O O2 0.688348 0.763668 0.784605
O O3 0.770895 0.789035 0.511501
O O4 0.724624 0.846785 0.724655
O O5 0.500000 0.137864 0.687735
O O6 0.260223 0.182321 0.727046
O O7 0.269017 0.097829 0.793934
O O8 0.268061 0.124939 0.508502
O O9 0.500000 0.698377 0.840284
O O10 0.259273 0.067975 0.287666
O O11 0.000000 0.043524 0.211735
O O12 0.213928 0.984694 0.222876
O O13 0.214136 0.041662 0.005239
O O14 0.000000 0.931883 0.320675
O O15 0.500000 0.109993 0.340235
#
# Coordination Sequence:
#
# PCOD8175718 Si02
#       6
#     8   8   8   8   8   8
#     4  10  22  40  60  84 116 152 190 235 284 337
#     4  11  23  39  59  84 116 153 192 236 285 338
#     4  11  23  39  61  88 117 151 192 236 283 337
#     4  10  21  37  59  85 114 148 188 237 287 339
#     4  10  21  38  59  85 115 149 191 236 286 342
#     4  10  22  39  58  82 114 151 191 234 283 341
#
# _framework density 20.046467
#
# number of rings (size 3 to 8) (size 9 to 14) (size 15 to 20)
#    0.000    1.667    0.000    4.000    0.000   10.000 
#    0.000    0.000    0.000    0.000    0.000    0.000 
#    0.000    0.000    0.000    0.000    0.000    0.000 
#
# Total GULP energy -297759.965942 kJ/mol
# GULP energy per Si atom -12406.665248 kJ/mol
# Density = 2.000084 g / cm^3
# Si number density = 20.046467 Si / 1000 Ang^3
#
#
#
# Elastic Constant Matrix: (Units=GPa)
#
#
# Indices 1 2 3 4 5 6 
#
# 1 54.4941 16.5320 25.8706 0.0000 0.0000 0.0000
# 2 16.5320 58.7468 -4.4692 0.0000 0.0000 0.0000
# 3 25.8706 -4.4692 85.3270 0.0000 0.0000 0.0000
# 4 0.0000 0.0000 0.0000 41.2054 0.0000 0.0000
# 5 0.0000 0.0000 0.0000 0.0000 34.8054 0.0000
# 6 0.0000 0.0000 0.0000 0.0000 0.0000 35.5683
#
#
#
# Elastic Compliance Matrix: (Units=1/GPa)
#
#
# Indices 1 2 3 4 5 6 
#
# 1 0.024282 -0.007423 -0.007751 0.000000 0.000000 0.000000
# 2 -0.007423 0.019359 0.003265 0.000000 0.000000 0.000000
# 3 -0.007751 0.003265 0.014241 0.000000 0.000000 0.000000
# 4 0.000000 0.000000 0.000000 0.024269 0.000000 0.000000
# 5 0.000000 0.000000 0.000000 0.000000 0.028731 0.000000
# 6 0.000000 0.000000 0.000000 0.000000 0.000000 0.028115
#
#
# Mechanical properties :
#
#
# Convention : Reuss Voigt Hill
#
# Bulk Modulus (GPa) = 29.35684 30.49274 29.92479
# Shear Modulus (GPa) = 28.70751 33.02480 30.86616
#
# Velocity S-wave (km/s) = 3.78835 4.06324 3.92820
# Velocity P-wave (km/s) = 5.81478 6.10387 5.96108
#
# Compressibility (1/GPa) = 0.03406362
#
# Stress axis : x y z
#
# Youngs Moduli (GPa) = 41.18230 51.65431 70.22146
#
# Poissons Ratio (x) = 0.38343 0.54429
# Poissons Ratio (y) = 0.30569 -0.22924
# Poissons Ratio (z) = 0.31920 -0.16863
#
# Static dielectric constant tensor:
#      x y z
#    x 3.591180 0.000000 0.000000 
#    y 0.000000 3.720870 0.000000 
#    z 0.000000 0.000000 3.775890 
# 
# 
# High freq. dielectric constant tensor:
#      x y z
#    x 1.776510 0.000000 0.000000 
#    y 0.000000 1.795630 0.000000 
#    z 0.000000 0.000000 1.797450 
# 
# From -- ./inp_files/2695.got.cif
#   From: 2010.03.12/outbox.cif.g09.slc.cpg/sg36_2_cif.got.tgz:2695.got - 2010.04.14 02:13:53.
