data_PCOD8175954
_publ_section_title
;
Structure prediction by ZEFSAII (Michael W. Deem and Ramdas Pophale) SiO2 
 PCOD8175954
Probable space group: C M C 21
;
_chemical_formula_sum "Si O2"
_cell_formula_units_Z 64
_cell_length_a 8.808936
_cell_length_b 19.720544
_cell_length_c 18.652380
_cell_angle_alpha 90.000000
_cell_angle_beta 90.000000
_cell_angle_gamma 90.000000
_cell_volume 3240.235683
_symmetry_space_group_name_H-M "C M C 21"
_symmetry_group_IT_number 36
_symmetry_cell_setting 'orthorhombic'
loop_
_space_group_symop_operation_xyz
x,y,z
-x,-y,1/2+z
x,-y,1/2+z
-x,y,z
1/2+x,1/2+y,z
1/2-x,1/2-y,1/2+z
1/2+x,1/2-y,1/2+z
1/2-x,1/2+y,z
loop_
_atom_site_type_symbol
_atom_site_label
_atom_site_fract_x
_atom_site_fract_y
_atom_site_fract_z
Si Si1 0.322566 0.555053 0.970680
Si Si2 0.320869 0.060332 0.552105
Si Si3 0.178055 0.793657 0.513978
Si Si4 0.680373 0.123394 0.699439
Si Si5 0.675029 0.333532 0.948514
Si Si6 0.179312 0.521354 0.819948
Si Si7 0.680121 0.726634 0.176569
Si Si8 0.323731 0.382143 0.789723
O O1 0.500000 0.541552 0.968513
O O2 0.255095 0.528920 0.896639
O O3 0.253813 0.512193 0.036109
O O4 0.282124 0.632831 0.983509
O O5 0.500000 0.051499 0.552694
O O6 0.257950 0.086078 0.628349
O O7 0.277828 0.113981 0.491345
O O8 0.273036 0.742421 0.465545
O O9 0.233826 0.788514 0.595911
O O10 0.000000 0.776847 0.508255
O O11 0.500000 0.124831 0.695793
O O12 0.744805 0.200123 0.701541
O O13 0.736172 0.082767 0.769328
O O14 0.500000 0.343939 0.969963
O O15 0.701217 0.344779 0.864781
O O16 0.228574 0.450944 0.784124
O O17 0.000000 0.522420 0.829491
O O18 0.500000 0.727749 0.181328
O O19 0.742118 0.668040 0.228758
O O20 0.500000 0.399533 0.777054
#
# Coordination Sequence:
#
# PCOD8175954 Si02
#       8
#     8   8   8   8   8   8   8   8
#     4  11  24  40  59  90 124 156 201 251 296 355
#     4  11  21  39  65  87 115 157 199 247 300 354
#     4  10  22  40  63  86 117 159 201 244 299 360
#     4   9  20  37  61  88 115 150 201 246 290 355
#     4  11  22  37  60  90 120 151 196 248 296 354
#     4  11  23  39  61  87 118 160 200 244 297 355
#     4   9  18  38  62  84 112 153 197 240 295 354
#     4  10  22  38  61  86 117 156 195 246 301 355
#
# _framework density 19.751650000000001
#
# number of rings (size 3 to 8) (size 9 to 14) (size 15 to 20)
#    0.000    1.750    2.500    1.500    3.500    1.500 
#    0.000    2.500    0.000    0.000    0.000    0.000 
#    0.000    0.000    0.000    0.000    0.000    0.000 
#
# Total GULP energy -396917.313193 kJ/mol
# GULP energy per Si atom -12403.666037 kJ/mol
# Density = 1.970669 g / cm^3
# Si number density = 19.751650 Si / 1000 Ang^3
#
#
#
# Elastic Constant Matrix: (Units=GPa)
#
#
# Indices 1 2 3 4 5 6 
#
# 1 46.8862 34.0558 8.7601 0.0000 0.0000 0.0000
# 2 34.0558 121.2408 32.9061 0.0000 0.0000 0.0000
# 3 8.7601 32.9061 57.2630 0.0000 0.0000 0.0000
# 4 0.0000 0.0000 0.0000 44.0095 0.0000 0.0000
# 5 0.0000 0.0000 0.0000 0.0000 16.7184 0.0000
# 6 0.0000 0.0000 0.0000 0.0000 0.0000 24.0305
#
#
#
# Elastic Compliance Matrix: (Units=1/GPa)
#
#
# Indices 1 2 3 4 5 6 
#
# 1 0.026799 -0.007600 0.000268 0.000000 0.000000 0.000000
# 2 -0.007600 0.011928 -0.005692 0.000000 0.000000 0.000000
# 3 0.000268 -0.005692 0.020693 0.000000 0.000000 0.000000
# 4 0.000000 0.000000 0.000000 0.022722 0.000000 0.000000
# 5 0.000000 0.000000 0.000000 0.000000 0.059814 0.000000
# 6 0.000000 0.000000 0.000000 0.000000 0.000000 0.041614
#
#
# Mechanical properties :
#
#
# Convention : Reuss Voigt Hill
#
# Bulk Modulus (GPa) = 29.96583 41.87044 35.91813
# Shear Modulus (GPa) = 22.65093 26.92954 24.79024
#
# Velocity S-wave (km/s) = 3.39010 3.69644 3.54658
# Velocity P-wave (km/s) = 5.52521 6.28193 5.91568
#
# Compressibility (1/GPa) = 0.03337134
#
# Stress axis : x y z
#
# Youngs Moduli (GPa) = 37.31526 83.83874 48.32570
#
# Poissons Ratio (x) = 0.63720 -0.01294
# Poissons Ratio (y) = 0.28361 0.27505
# Poissons Ratio (z) = -0.00999 0.47717
#
# Static dielectric constant tensor:
#      x y z
#    x 3.386720 0.000000 0.000000 
#    y 0.000000 3.870020 0.000000 
#    z 0.000000 0.000000 3.741430 
# 
# 
# High freq. dielectric constant tensor:
#      x y z
#    x 1.746890 0.000000 0.000000 
#    y 0.000000 1.786650 0.000000 
#    z 0.000000 0.000000 1.777680 
# 
# From -- ./inp_files/13931.got.cif
#   From: 2010.03.12/outbox.cif.g09.slc.cpg/sg36_7_cif.got.tgz:13931.got - 2010.04.14 02:13:53.
