data_PCOD8175141
_publ_section_title
;
Structure prediction by ZEFSAII (Michael W. Deem and Ramdas Pophale) SiO2 
 PCOD8175141
Probable space group: C M C 21
;
_chemical_formula_sum "Si O2"
_cell_formula_units_Z 64
_cell_length_a 8.565336
_cell_length_b 22.837048
_cell_length_c 16.563063
_cell_angle_alpha 90.000000
_cell_angle_beta 90.000000
_cell_angle_gamma 90.000000
_cell_volume 3239.850888
_symmetry_space_group_name_H-M "C M C 21"
_symmetry_group_IT_number 36
_symmetry_cell_setting 'orthorhombic'
loop_
_space_group_symop_operation_xyz
x,y,z
-x,-y,1/2+z
x,-y,1/2+z
-x,y,z
1/2+x,1/2+y,z
1/2-x,1/2-y,1/2+z
1/2+x,1/2-y,1/2+z
1/2-x,1/2+y,z
loop_
_atom_site_type_symbol
_atom_site_label
_atom_site_fract_x
_atom_site_fract_y
_atom_site_fract_z
Si Si1 0.321741 0.210557 0.180320
Si Si2 0.684348 0.536571 0.689033
Si Si3 0.180633 0.157878 0.332172
Si Si4 0.682398 0.032110 0.345511
Si Si5 0.814379 0.487178 0.521233
Si Si6 0.177503 0.833806 0.230652
Si Si7 0.684437 0.143474 0.023259
Si Si8 0.317251 0.220923 0.884852
O O1 0.500000 0.194477 0.205304
O O2 0.199782 0.186028 0.244463
O O3 0.309718 0.280907 0.165352
O O4 0.266832 0.177222 0.102213
O O5 0.500000 0.529424 0.685708
O O6 0.741640 0.500219 0.767828
O O7 0.750697 0.518012 0.601946
O O8 0.737599 0.604306 0.696817
O O9 0.286679 0.101165 0.342097
O O10 0.240963 0.211248 0.389808
O O11 0.000000 0.141045 0.346783
O O12 0.500000 0.019313 0.338868
O O13 0.745057 0.012125 0.434252
O O14 0.746993 0.421576 0.524268
O O15 0.000000 0.490944 0.525544
O O16 0.284797 0.813015 0.302978
O O17 0.000000 0.840818 0.261066
O O18 0.500000 0.139144 0.011395
O O19 0.763879 0.181650 0.952997
O O20 0.500000 0.223684 0.898408
#
# Coordination Sequence:
#
# PCOD8175141 Si02
#       8
#     8   8   8   8   8   8   8   8
#     4   9  17  32  55  78 104 140 178 217 267 333
#     4  11  23  38  58  84 116 152 190 238 291 336
#     4  10  20  34  54  81 110 139 178 227 280 331
#     4  11  23  39  59  81 112 155 197 235 278 336
#     4  10  22  38  57  83 112 148 196 240 280 337
#     4   9  19  34  52  78 109 141 177 217 270 331
#     4   9  17  32  54  77 100 132 177 222 266 320
#     4   9  18  33  55  80 105 137 177 224 274 330
#
# _framework density 19.753995
#
# number of rings (size 3 to 8) (size 9 to 14) (size 15 to 20)
#    0.000    2.250    0.000    2.625    0.000    5.500 
#    0.000    3.750    0.000    0.000    0.000    0.000 
#    0.000    0.000    0.000    0.000    0.000    0.000 
#
# Total GULP energy -396440.600748 kJ/mol
# GULP energy per Si atom -12388.768773 kJ/mol
# Density = 1.970903 g / cm^3
# Si number density = 19.753995 Si / 1000 Ang^3
#
#
#
# Elastic Constant Matrix: (Units=GPa)
#
#
# Indices 1 2 3 4 5 6 
#
# 1 30.5017 19.1194 18.6341 0.0000 0.0000 0.0000
# 2 19.1194 177.4556 73.2135 0.0000 0.0000 0.0000
# 3 18.6341 73.2135 115.4420 0.0000 0.0000 0.0000
# 4 0.0000 0.0000 0.0000 33.9447 0.0000 0.0000
# 5 0.0000 0.0000 0.0000 0.0000 21.9369 0.0000
# 6 0.0000 0.0000 0.0000 0.0000 0.0000 19.4381
#
#
#
# Elastic Compliance Matrix: (Units=1/GPa)
#
#
# Indices 1 2 3 4 5 6 
#
# 1 0.036918 -0.002057 -0.004654 0.000000 0.000000 0.000000
# 2 -0.002057 0.007747 -0.004581 0.000000 0.000000 0.000000
# 3 -0.004654 -0.004581 0.012319 0.000000 0.000000 0.000000
# 4 0.000000 0.000000 0.000000 0.029460 0.000000 0.000000
# 5 0.000000 0.000000 0.000000 0.000000 0.045585 0.000000
# 6 0.000000 0.000000 0.000000 0.000000 0.000000 0.051445
#
#
# Mechanical properties :
#
#
# Convention : Reuss Voigt Hill
#
# Bulk Modulus (GPa) = 29.07109 60.59258 44.83183
# Shear Modulus (GPa) = 22.98577 29.22609 26.10593
#
# Velocity S-wave (km/s) = 3.41486 3.85060 3.63926
# Velocity P-wave (km/s) = 5.50426 7.10702 6.35636
#
# Compressibility (1/GPa) = 0.03439844
#
# Stress axis : x y z
#
# Youngs Moduli (GPa) = 27.08701 129.08444 81.17597
#
# Poissons Ratio (x) = 0.26557 0.37782
# Poissons Ratio (y) = 0.05573 0.37187
# Poissons Ratio (z) = 0.12607 0.59133
#
# Static dielectric constant tensor:
#      x y z
#    x 3.350000 0.000000 0.000000 
#    y 0.000000 4.035500 0.000000 
#    z 0.000000 0.000000 3.743130 
# 
# 
# High freq. dielectric constant tensor:
#      x y z
#    x 1.749260 0.000000 0.000000 
#    y 0.000000 1.792220 0.000000 
#    z 0.000000 0.000000 1.766320 
# 
# From -- ./inp_files/13775.got.cif
#   From: 2010.03.12/outbox.cif.g09.slc.cpg/sg36_7_cif.got.tgz:13775.got - 2010.04.14 02:13:53.
