data_PCOD8175133
_publ_section_title
;
Structure prediction by ZEFSAII (Michael W. Deem and Ramdas Pophale) SiO2 
 PCOD8175133
Probable space group: C M C 21
;
_chemical_formula_sum "Si O2"
_cell_formula_units_Z 48
_cell_length_a 16.766898
_cell_length_b 15.839974
_cell_length_c 9.716037
_cell_angle_alpha 90.000000
_cell_angle_beta 90.000000
_cell_angle_gamma 90.000000
_cell_volume 2580.455338
_symmetry_space_group_name_H-M "C M C 21"
_symmetry_group_IT_number 36
_symmetry_cell_setting 'orthorhombic'
loop_
_space_group_symop_operation_xyz
x,y,z
-x,-y,1/2+z
x,-y,1/2+z
-x,y,z
1/2+x,1/2+y,z
1/2-x,1/2-y,1/2+z
1/2+x,1/2-y,1/2+z
1/2-x,1/2+y,z
loop_
_atom_site_type_symbol
_atom_site_label
_atom_site_fract_x
_atom_site_fract_y
_atom_site_fract_z
Si Si1 0.092563 0.538471 0.580000
Si Si2 0.174999 0.001436 0.221381
Si Si3 0.273385 0.843951 0.159311
Si Si4 0.093918 0.087077 0.966961
Si Si5 0.840648 0.422687 0.794265
Si Si6 0.305603 0.746859 0.896412
O O1 0.138307 0.615417 0.656121
O O2 0.124299 0.527016 0.425254
O O3 0.110196 0.450937 0.659660
O O4 0.000000 0.560631 0.580855
O O5 0.126691 0.056468 0.112995
O O6 0.247620 0.055979 0.281371
O O7 0.207742 0.917609 0.146181
O O8 0.117408 0.977943 0.347107
O O9 0.262896 0.794464 0.302088
O O10 0.260862 0.781013 0.031668
O O11 0.000000 0.093763 0.976032
O O12 0.127510 0.179744 0.936362
O O13 0.850302 0.322457 0.815322
#
# Coordination Sequence:
#
# PCOD8175133 Si02
#       6
#     8   8   8   8   8   8
#     4  10  20  34  54  79 107 138 173 216 262 309
#     4  10  20  38  58  76 102 142 184 212 250 314
#     4   9  20  35  55  77 103 139 177 216 257 310
#     4  11  22  35  55  81 108 137 172 220 268 307
#     4  10  20  36  56  78 104 140 180 214 254 312
#     4  10  20  34  54  79 106 136 174 218 263 308
#
# _framework density 18.601368999999998
#
# number of rings (size 3 to 8) (size 9 to 14) (size 15 to 20)
#    0.000    2.000    0.000    5.000    0.000    6.000 
#    0.000    0.000    0.000    5.000    0.000    0.000 
#    0.000    0.000    0.000    0.000    0.000    0.000 
#
# Total GULP energy -297640.086184 kJ/mol
# GULP energy per Si atom -12401.670258 kJ/mol
# Density = 1.855903 g / cm^3
# Si number density = 18.601369 Si / 1000 Ang^3
#
#
#
# Elastic Constant Matrix: (Units=GPa)
#
#
# Indices 1 2 3 4 5 6 
#
# 1 104.7958 26.0116 48.0973 0.0000 0.0000 0.0000
# 2 26.0116 95.9312 47.1090 0.0000 0.0000 0.0000
# 3 48.0973 47.1090 91.1533 0.0000 0.0000 0.0000
# 4 0.0000 0.0000 0.0000 41.1160 0.0000 0.0000
# 5 0.0000 0.0000 0.0000 0.0000 28.6601 0.0000
# 6 0.0000 0.0000 0.0000 0.0000 0.0000 10.9453
#
#
#
# Elastic Compliance Matrix: (Units=1/GPa)
#
#
# Indices 1 2 3 4 5 6 
#
# 1 0.012595 -0.000203 -0.006541 0.000000 0.000000 0.000000
# 2 -0.000203 0.013973 -0.007114 0.000000 0.000000 0.000000
# 3 -0.006541 -0.007114 0.018098 0.000000 0.000000 0.000000
# 4 0.000000 0.000000 0.000000 0.024321 0.000000 0.000000
# 5 0.000000 0.000000 0.000000 0.000000 0.034892 0.000000
# 6 0.000000 0.000000 0.000000 0.000000 0.000000 0.091363
#
#
# Mechanical properties :
#
#
# Convention : Reuss Voigt Hill
#
# Bulk Modulus (GPa) = 58.99675 59.36844 59.18259
# Shear Modulus (GPa) = 21.87150 27.52178 24.69664
#
# Velocity S-wave (km/s) = 3.43271 3.85067 3.64769
# Velocity P-wave (km/s) = 6.89178 7.19414 7.04458
#
# Compressibility (1/GPa) = 0.01695009
#
# Stress axis : x y z
#
# Youngs Moduli (GPa) = 79.39851 71.56806 55.25367
#
# Poissons Ratio (x) = 0.01454 0.36140
# Poissons Ratio (y) = 0.01613 0.39308
# Poissons Ratio (z) = 0.51932 0.50914
#
# Static dielectric constant tensor:
#      x y z
#    x 3.228570 0.000000 0.000000 
#    y 0.000000 3.604230 0.000000 
#    z 0.000000 0.000000 3.604230 
# 
# 
# High freq. dielectric constant tensor:
#      x y z
#    x 1.705770 0.000000 0.000000 
#    y 0.000000 1.724500 0.000000 
#    z 0.000000 0.000000 1.736080 
# 
# From -- ./inp_files/4012.got.cif
#   From: 2010.03.12/outbox.cif.g09.slc.cpg/sg36_3_cif.got.tgz:4012.got - 2010.04.14 02:13:53.
