data_PCOD8175564
_publ_section_title
;
Structure prediction by ZEFSAII (Michael W. Deem and Ramdas Pophale) SiO2 
 PCOD8175564
Probable space group: C M C 21
;
_chemical_formula_sum "Si O2"
_cell_formula_units_Z 64
_cell_length_a 9.002494
_cell_length_b 15.302232
_cell_length_c 23.731948
_cell_angle_alpha 90.000000
_cell_angle_beta 90.000000
_cell_angle_gamma 90.000000
_cell_volume 3269.271667
_symmetry_space_group_name_H-M "C M C 21"
_symmetry_group_IT_number 36
_symmetry_cell_setting 'orthorhombic'
loop_
_space_group_symop_operation_xyz
x,y,z
-x,-y,1/2+z
x,-y,1/2+z
-x,y,z
1/2+x,1/2+y,z
1/2-x,1/2-y,1/2+z
1/2+x,1/2-y,1/2+z
1/2-x,1/2+y,z
loop_
_atom_site_type_symbol
_atom_site_label
_atom_site_fract_x
_atom_site_fract_y
_atom_site_fract_z
Si Si1 0.829971 0.899779 0.142330
Si Si2 0.824494 0.349336 0.031184
Si Si3 0.324660 0.652990 0.027150
Si Si4 0.327847 0.407098 0.406766
Si Si5 0.171216 0.904218 0.648303
Si Si6 0.324080 0.242173 0.839967
Si Si7 0.325135 0.759565 0.720628
Si Si8 0.671282 0.398110 0.920540
O O1 0.728224 0.895710 0.087677
O O2 0.778601 0.828480 0.187853
O O3 0.000000 0.883458 0.124038
O O4 0.811310 0.996089 0.169217
O O5 0.760436 0.250945 0.029952
O O6 0.000000 0.350831 0.029299
O O7 0.763623 0.401143 0.977764
O O8 0.500000 0.655115 0.024349
O O9 0.274396 0.601428 0.083175
O O10 0.265434 0.606933 0.970358
O O11 0.500000 0.378992 0.402327
O O12 0.234600 0.349606 0.363328
O O13 0.306599 0.508451 0.389910
O O14 0.275560 0.844018 0.685840
O O15 0.000000 0.872714 0.653825
O O16 0.500000 0.238858 0.835382
O O17 0.258307 0.260404 0.779266
O O18 0.270578 0.321251 0.880103
O O19 0.500000 0.763583 0.731169
O O20 0.500000 0.383643 0.936503
#
# Coordination Sequence:
#
# PCOD8175564 Si02
#       8
#     8   8   8   8   8   8   8   8
#     4  10  22  39  61  87 117 154 194 236 287 348
#     4  11  20  33  59  92 121 151 188 234 287 342
#     4   9  17  31  57  88 115 147 182 224 283 340
#     4  10  20  39  63  86 116 154 194 235 285 345
#     4  10  20  39  63  86 116 154 194 235 285 345
#     4  11  24  41  60  85 115 152 197 245 294 343
#     4  11  24  41  60  85 115 152 197 245 294 343
#     4  10  22  39  61  87 117 154 194 236 287 348
#
# _framework density 19.576226999999999
#
# number of rings (size 3 to 8) (size 9 to 14) (size 15 to 20)
#    0.000    1.750    2.500    1.875    0.000    5.000 
#    0.000    5.625    0.000    0.000    0.000    0.000 
#    0.000    0.000    0.000    0.000    0.000    0.000 
#
# Total GULP energy -396891.918516 kJ/mol
# GULP energy per Si atom -12402.872454 kJ/mol
# Density = 1.953167 g / cm^3
# Si number density = 19.576227 Si / 1000 Ang^3
#
#
#
# Elastic Constant Matrix: (Units=GPa)
#
#
# Indices 1 2 3 4 5 6 
#
# 1 55.6503 25.3932 24.3045 0.0000 0.0000 0.0000
# 2 25.3932 103.4366 14.1938 0.0000 0.0000 0.0000
# 3 24.3045 14.1938 67.2746 0.0000 0.0000 0.0000
# 4 0.0000 0.0000 0.0000 12.4348 0.0000 0.0000
# 5 0.0000 0.0000 0.0000 0.0000 35.1993 0.0000
# 6 0.0000 0.0000 0.0000 0.0000 0.0000 26.9220
#
#
#
# Elastic Compliance Matrix: (Units=1/GPa)
#
#
# Indices 1 2 3 4 5 6 
#
# 1 0.023375 -0.004716 -0.007450 0.000000 0.000000 0.000000
# 2 -0.004716 0.010908 -0.000597 0.000000 0.000000 0.000000
# 3 -0.007450 -0.000597 0.017682 0.000000 0.000000 0.000000
# 4 0.000000 0.000000 0.000000 0.080420 0.000000 0.000000
# 5 0.000000 0.000000 0.000000 0.000000 0.028410 0.000000
# 6 0.000000 0.000000 0.000000 0.000000 0.000000 0.037144
#
#
# Mechanical properties :
#
#
# Convention : Reuss Voigt Hill
#
# Bulk Modulus (GPa) = 37.82485 39.34939 38.58712
# Shear Modulus (GPa) = 21.52601 25.74256 23.63428
#
# Velocity S-wave (km/s) = 3.31962 3.63021 3.47838
# Velocity P-wave (km/s) = 5.83583 6.14130 5.99051
#
# Compressibility (1/GPa) = 0.02643764
#
# Stress axis : x y z
#
# Youngs Moduli (GPa) = 42.78099 91.67974 56.55509
#
# Poissons Ratio (x) = 0.43238 0.42132
# Poissons Ratio (y) = 0.20176 0.03379
# Poissons Ratio (z) = 0.31870 0.05478
#
# Static dielectric constant tensor:
#      x y z
#    x 3.394570 0.000000 0.000000 
#    y 0.000000 3.731130 0.000000 
#    z 0.000000 0.000000 3.577300 
# 
# 
# High freq. dielectric constant tensor:
#      x y z
#    x 1.747460 0.000000 0.000000 
#    y 0.000000 1.775740 0.000000 
#    z 0.000000 0.000000 1.758350 
# 
# From -- ./inp_files/16621.got.cif
#   From: 2010.03.12/outbox.cif.g09.slc.cpg/sg36_9_cif.got.tgz:16621.got - 2010.04.14 02:13:53.
