data_PCOD8175773
_publ_section_title
;
Structure prediction by ZEFSAII (Michael W. Deem and Ramdas Pophale) SiO2 
 PCOD8175773
Probable space group: C M C 21
;
_chemical_formula_sum "Si O2"
_cell_formula_units_Z 48
_cell_length_a 14.396601
_cell_length_b 17.432850
_cell_length_c 9.924095
_cell_angle_alpha 90.000000
_cell_angle_beta 90.000000
_cell_angle_gamma 90.000000
_cell_volume 2490.687692
_symmetry_space_group_name_H-M "C M C 21"
_symmetry_group_IT_number 36
_symmetry_cell_setting 'orthorhombic'
loop_
_space_group_symop_operation_xyz
x,y,z
-x,-y,1/2+z
x,-y,1/2+z
-x,y,z
1/2+x,1/2+y,z
1/2-x,1/2-y,1/2+z
1/2+x,1/2-y,1/2+z
1/2-x,1/2+y,z
loop_
_atom_site_type_symbol
_atom_site_label
_atom_site_fract_x
_atom_site_fract_y
_atom_site_fract_z
Si Si1 0.305187 0.661904 0.957710
Si Si2 0.000000 0.591759 0.409482
Si Si3 0.000000 0.966418 0.697235
Si Si4 0.297798 0.581474 0.229552
Si Si5 0.500000 0.033582 0.697235
Si Si6 0.194813 0.338096 0.957710
Si Si7 0.000000 0.908241 0.409482
Si Si8 0.297798 0.081474 0.729552
O O1 0.294878 0.750000 0.999570
O O2 0.411134 0.646008 0.917485
O O3 0.238137 0.644254 0.833639
O O4 0.271581 0.608615 0.080204
O O5 0.000000 0.529715 0.533297
O O6 0.088866 0.646008 0.417486
O O7 0.000000 0.550425 0.264138
O O8 0.091196 0.921930 0.748043
O O9 0.000000 0.970285 0.533297
O O10 0.000000 0.050425 0.764138
O O11 0.261863 0.644254 0.333638
O O12 0.250000 0.500000 0.258758
O O13 0.408804 0.078070 0.748043
O O14 0.228419 0.391385 0.080204
#
# Coordination Sequence:
#
# PCOD8175773 Si02
#       8
#     8   4   4   8   4   8   4   8
#     4  11  23  39  60  89 122 155 193 241 297 347
#     4  10  21  38  60  86 119 154 194 240 293 342
#     4  10  22  36  60  90 116 148 200 244 286 342
#     4  11  22  39  62  88 116 158 197 243 287 347
#     4  10  22  36  60  90 116 148 200 244 286 342
#     4  11  23  39  60  89 122 155 193 241 297 347
#     4  10  21  38  60  86 119 154 194 240 293 342
#     4  11  22  39  62  88 116 158 197 243 287 347
#
# _framework density 19.271785999999999
#
# number of rings (size 3 to 8) (size 9 to 14) (size 15 to 20)
#    0.000    1.333    3.333    2.500    4.667    0.000 
#    0.000    2.500    0.000    0.000    0.000    0.000 
#    0.000    0.000    0.000    0.000    0.000    0.000 
#
# Total GULP energy -297680.559672 kJ/mol
# GULP energy per Si atom -12403.356653 kJ/mol
# Density = 1.922792 g / cm^3
# Si number density = 19.271786 Si / 1000 Ang^3
#
#
#
# Elastic Constant Matrix: (Units=GPa)
#
#
# Indices 1 2 3 4 5 6 
#
# 1 121.3873 22.2621 42.2020 0.0000 0.0000 0.0000
# 2 22.2621 87.8320 19.9296 0.0000 0.0000 0.0000
# 3 42.2020 19.9296 69.9632 0.0000 0.0000 0.0000
# 4 0.0000 0.0000 0.0000 30.9354 0.0000 0.0000
# 5 0.0000 0.0000 0.0000 0.0000 29.3096 0.0000
# 6 0.0000 0.0000 0.0000 0.0000 0.0000 23.4567
#
#
#
# Elastic Compliance Matrix: (Units=1/GPa)
#
#
# Indices 1 2 3 4 5 6 
#
# 1 0.010565 -0.001317 -0.005998 0.000000 0.000000 0.000000
# 2 -0.001317 0.012336 -0.002720 0.000000 0.000000 0.000000
# 3 -0.005998 -0.002720 0.018686 0.000000 0.000000 0.000000
# 4 0.000000 0.000000 0.000000 0.032325 0.000000 0.000000
# 5 0.000000 0.000000 0.000000 0.000000 0.034119 0.000000
# 6 0.000000 0.000000 0.000000 0.000000 0.000000 0.042632
#
#
# Mechanical properties :
#
#
# Convention : Reuss Voigt Hill
#
# Bulk Modulus (GPa) = 46.47192 49.77443 48.12317
# Shear Modulus (GPa) = 28.10511 29.72625 28.91568
#
# Velocity S-wave (km/s) = 3.82298 3.93170 3.87772
# Velocity P-wave (km/s) = 6.60706 6.81870 6.71371
#
# Compressibility (1/GPa) = 0.02151837
#
# Stress axis : x y z
#
# Youngs Moduli (GPa) = 94.65449 81.06171 53.51681
#
# Poissons Ratio (x) = 0.10675 0.32097
# Poissons Ratio (y) = 0.12465 0.14555
# Poissons Ratio (z) = 0.56770 0.22047
#
# Static dielectric constant tensor:
#      x y z
#    x 3.706910 0.000000 0.000000 
#    y 0.000000 3.273270 0.000000 
#    z 0.000000 0.000000 3.598350 
# 
# 
# High freq. dielectric constant tensor:
#      x y z
#    x 1.763580 0.000000 0.000000 
#    y 0.000000 1.732880 0.000000 
#    z 0.000000 0.000000 1.756020 
# 
# From -- ./inp_files/4048.got.cif
#   From: 2010.03.12/outbox.cif.g09.slc.cpg/sg36_3_cif.got.tgz:4048.got - 2010.04.14 02:13:53.
