data_PCOD8175988
_publ_section_title
;
Structure prediction by ZEFSAII (Michael W. Deem and Ramdas Pophale) SiO2 
 PCOD8175988
Probable space group: C M C 21
;
_chemical_formula_sum "Si O2"
_cell_formula_units_Z 64
_cell_length_a 8.990869
_cell_length_b 9.906536
_cell_length_c 34.852371
_cell_angle_alpha 90.000000
_cell_angle_beta 90.000000
_cell_angle_gamma 90.000000
_cell_volume 3104.243786
_symmetry_space_group_name_H-M "C M C 21"
_symmetry_group_IT_number 36
_symmetry_cell_setting 'orthorhombic'
loop_
_space_group_symop_operation_xyz
x,y,z
-x,-y,1/2+z
x,-y,1/2+z
-x,y,z
1/2+x,1/2+y,z
1/2-x,1/2-y,1/2+z
1/2+x,1/2-y,1/2+z
1/2-x,1/2+y,z
loop_
_atom_site_type_symbol
_atom_site_label
_atom_site_fract_x
_atom_site_fract_y
_atom_site_fract_z
Si Si1 0.671751 0.779282 0.921510
Si Si2 0.170289 0.727026 0.842339
Si Si3 0.827915 0.978793 0.544733
Si Si4 0.672086 0.262501 0.167595
Si Si5 0.672043 0.208742 0.589214
Si Si6 0.828067 0.452287 0.465933
Si Si7 0.828545 0.034868 0.211749
Si Si8 0.169750 0.997193 0.798458
O O1 0.500000 0.737563 0.921631
O O2 0.735082 0.763477 0.879343
O O3 0.753475 0.684969 0.952042
O O4 0.694853 0.934064 0.933645
O O5 0.190028 0.842383 0.810672
O O6 0.223947 0.587408 0.824402
O O7 0.000000 0.709927 0.855322
O O8 0.805393 0.825019 0.557759
O O9 0.744652 0.003956 0.505036
O O10 0.000000 0.014211 0.539329
O O11 0.762012 0.076825 0.576964
O O12 0.500000 0.236395 0.158402
O O13 0.767650 0.237919 0.129621
O O14 0.698898 0.412887 0.182674
O O15 0.724988 0.158566 0.199909
O O16 0.500000 0.170464 0.593730
O O17 0.000000 0.424154 0.474041
O O18 0.000000 0.081953 0.211444
O O19 0.781778 0.988992 0.254329
O O20 0.000000 0.045357 0.804407
#
# Coordination Sequence:
#
# PCOD8175988 Si02
#       8
#     8   8   8   8   8   8   8   8
#     4  11  24  41  61  87 120 156 194 239 291 345
#     4  11  23  38  60  89 117 152 198 241 288 347
#     4  11  24  41  62  89 120 155 196 242 293 350
#     4  11  23  38  60  89 118 154 199 244 295 352
#     4  11  24  41  61  87 120 157 198 244 294 350
#     4  11  24  41  63  91 120 154 197 242 291 349
#     4  10  22  40  60  86 120 155 195 243 294 351
#     4  10  22  40  61  86 119 157 195 241 296 350
#
# _framework density 20.616937
#
# number of rings (size 3 to 8) (size 9 to 14) (size 15 to 20)
#    0.000    1.250    0.000    5.250    0.000   14.500 
#    0.000    0.000    0.000    0.000    0.000    0.000 
#    0.000    0.000    0.000    0.000    0.000    0.000 
#
# Total GULP energy -397084.906229 kJ/mol
# GULP energy per Si atom -12408.903320 kJ/mol
# Density = 2.057001 g / cm^3
# Si number density = 20.616937 Si / 1000 Ang^3
#
#
#
# Elastic Constant Matrix: (Units=GPa)
#
#
# Indices 1 2 3 4 5 6 
#
# 1 128.7075 47.7911 41.7902 0.0000 0.0000 0.0000
# 2 47.7911 64.0876 4.4789 0.0000 0.0000 0.0000
# 3 41.7902 4.4789 96.9021 0.0000 0.0000 0.0000
# 4 0.0000 0.0000 0.0000 34.7294 0.0000 0.0000
# 5 0.0000 0.0000 0.0000 0.0000 38.2202 0.0000
# 6 0.0000 0.0000 0.0000 0.0000 0.0000 35.0074
#
#
#
# Elastic Compliance Matrix: (Units=1/GPa)
#
#
# Indices 1 2 3 4 5 6 
#
# 1 0.012860 -0.009232 -0.005119 0.000000 0.000000 0.000000
# 2 -0.009232 0.022282 0.002951 0.000000 0.000000 0.000000
# 3 -0.005119 0.002951 0.012391 0.000000 0.000000 0.000000
# 4 0.000000 0.000000 0.000000 0.028794 0.000000 0.000000
# 5 0.000000 0.000000 0.000000 0.000000 0.026164 0.000000
# 6 0.000000 0.000000 0.000000 0.000000 0.000000 0.028565
#
#
# Mechanical properties :
#
#
# Convention : Reuss Voigt Hill
#
# Bulk Modulus (GPa) = 40.43147 53.09086 46.76116
# Shear Modulus (GPa) = 30.84524 34.63386 32.73955
#
# Velocity S-wave (km/s) = 3.87216 4.10307 3.98929
# Velocity P-wave (km/s) = 6.29641 6.94651 6.62943
#
# Compressibility (1/GPa) = 0.02473321
#
# Stress axis : x y z
#
# Youngs Moduli (GPa) = 77.76262 44.87982 80.70386
#
# Poissons Ratio (x) = 0.41432 0.41314
# Poissons Ratio (y) = 0.71789 -0.23820
# Poissons Ratio (z) = 0.39808 -0.13246
#
# Static dielectric constant tensor:
#      x y z
#    x 3.858030 0.000000 0.000000 
#    y 0.000000 3.687820 0.000000 
#    z 0.000000 0.000000 3.785390 
# 
# 
# High freq. dielectric constant tensor:
#      x y z
#    x 1.816750 0.000000 0.000000 
#    y 0.000000 1.813480 0.000000 
#    z 0.000000 0.000000 1.819390 
# 
# From -- ./inp_files/17307.got.cif
#   From: 2010.03.12/outbox.cif.g09.slc.cpg/sg36_9_cif.got.tgz:17307.got - 2010.04.14 02:13:53.
