data_PCOD8175574
_publ_section_title
;
Structure prediction by ZEFSAII (Michael W. Deem and Ramdas Pophale) SiO2 
 PCOD8175574
Probable space group: C M C 21
;
_chemical_formula_sum "Si O2"
_cell_formula_units_Z 64
_cell_length_a 16.894523
_cell_length_b 11.097953
_cell_length_c 16.475389
_cell_angle_alpha 90.000000
_cell_angle_beta 90.000000
_cell_angle_gamma 90.000000
_cell_volume 3089.046836
_symmetry_space_group_name_H-M "C M C 21"
_symmetry_group_IT_number 36
_symmetry_cell_setting 'orthorhombic'
loop_
_space_group_symop_operation_xyz
x,y,z
-x,-y,1/2+z
x,-y,1/2+z
-x,y,z
1/2+x,1/2+y,z
1/2-x,1/2-y,1/2+z
1/2+x,1/2-y,1/2+z
1/2-x,1/2+y,z
loop_
_atom_site_type_symbol
_atom_site_label
_atom_site_fract_x
_atom_site_fract_y
_atom_site_fract_z
Si Si1 0.910948 0.786768 0.505790
Si Si2 0.587528 0.077477 0.811555
Si Si3 0.656163 0.467723 0.031110
Si Si4 0.315920 0.307096 0.180294
Si Si5 0.145489 0.360558 0.151038
Si Si6 0.593892 0.247337 0.946621
Si Si7 0.405520 0.194764 0.328857
Si Si8 0.318854 0.089139 0.069048
O O1 0.859920 0.742612 0.582946
O O2 0.878619 0.739263 0.418706
O O3 0.000000 0.740303 0.516490
O O4 0.909080 0.931097 0.512428
O O5 0.500000 0.058850 0.846909
O O6 0.581815 0.138199 0.722773
O O7 0.627147 0.181865 0.865947
O O8 0.626085 0.942923 0.815576
O O9 0.640703 0.400691 0.117972
O O10 0.742268 0.530915 0.024370
O O11 0.644844 0.368973 0.959917
O O12 0.229971 0.363763 0.198126
O O13 0.366356 0.284195 0.261863
O O14 0.293041 0.181257 0.138533
O O15 0.129135 0.483922 0.105594
O O16 0.500000 0.276291 0.946971
O O17 0.615819 0.151763 0.014540
O O18 0.500000 0.205276 0.317448
#
# Coordination Sequence:
#
# PCOD8175574 Si02
#       8
#     8   8   8   8   8   8   8   8
#     4  11  23  40  62  92 128 166 206 259 319 385
#     4  10  21  39  60  89 124 159 207 264 313 369
#     4  10  22  41  63  89 129 166 208 259 320 393
#     4  10  21  40  64  90 122 163 210 261 311 381
#     4  11  21  38  62  90 124 159 207 258 317 377
#     4  10  22  40  63  93 124 165 216 261 314 386
#     4  10  22  41  65  93 125 163 214 265 321 383
#     4  10  20  39  65  88 122 161 208 263 315 374
#
# _framework density 20.718364000000001
#
# number of rings (size 3 to 8) (size 9 to 14) (size 15 to 20)
#    0.000    1.750    2.500    1.500    0.000    5.500 
#    4.500    0.000    0.000    0.000    0.000    0.000 
#    0.000    0.000    0.000    0.000    0.000    0.000 
#
# Total GULP energy -396443.759419 kJ/mol
# GULP energy per Si atom -12388.867482 kJ/mol
# Density = 2.067121 g / cm^3
# Si number density = 20.718364 Si / 1000 Ang^3
#
#
#
# Elastic Constant Matrix: (Units=GPa)
#
#
# Indices 1 2 3 4 5 6 
#
# 1 52.0899 15.4196 29.3447 0.0000 0.0000 0.0000
# 2 15.4196 127.3440 64.5481 0.0000 0.0000 0.0000
# 3 29.3447 64.5481 112.2370 0.0000 0.0000 0.0000
# 4 0.0000 0.0000 0.0000 25.7583 0.0000 0.0000
# 5 0.0000 0.0000 0.0000 0.0000 27.1166 0.0000
# 6 0.0000 0.0000 0.0000 0.0000 0.0000 27.1284
#
#
#
# Elastic Compliance Matrix: (Units=1/GPa)
#
#
# Indices 1 2 3 4 5 6 
#
# 1 0.022526 0.000364 -0.006099 0.000000 0.000000 0.000000
# 2 0.000364 0.011090 -0.006473 0.000000 0.000000 0.000000
# 3 -0.006099 -0.006473 0.014227 0.000000 0.000000 0.000000
# 4 0.000000 0.000000 0.000000 0.038822 0.000000 0.000000
# 5 0.000000 0.000000 0.000000 0.000000 0.036878 0.000000
# 6 0.000000 0.000000 0.000000 0.000000 0.000000 0.036862
#
#
# Mechanical properties :
#
#
# Convention : Reuss Voigt Hill
#
# Bulk Modulus (GPa) = 42.68646 56.69951 49.69298
# Shear Modulus (GPa) = 25.95676 28.15788 27.05732
#
# Velocity S-wave (km/s) = 3.54339 3.69057 3.61773
# Velocity P-wave (km/s) = 6.11463 6.75178 6.44109
#
# Compressibility (1/GPa) = 0.02342663
#
# Stress axis : x y z
#
# Youngs Moduli (GPa) = 44.39410 90.17431 70.29024
#
# Poissons Ratio (x) = -0.03280 0.42867
# Poissons Ratio (y) = -0.01615 0.45497
# Poissons Ratio (z) = 0.27074 0.58368
#
# Static dielectric constant tensor:
#      x y z
#    x 3.496910 0.000000 0.000000 
#    y 0.000000 3.999190 0.000000 
#    z 0.000000 0.000000 3.776240 
# 
# 
# High freq. dielectric constant tensor:
#      x y z
#    x 1.794790 0.000000 0.000000 
#    y 0.000000 1.822930 0.000000 
#    z 0.000000 0.000000 1.804580 
# 
# From -- ./inp_files/12627.got.cif
#   From: 2010.03.12/outbox.cif.g09.slc.cpg/sg36_7_cif.got.tgz:12627.got - 2010.04.14 02:13:53.
