data_PCOD8175151
_publ_section_title
;
Structure prediction by ZEFSAII (Michael W. Deem and Ramdas Pophale) SiO2 
 PCOD8175151
Probable space group: C M C 21
;
_chemical_formula_sum "Si O2"
_cell_formula_units_Z 64
_cell_length_a 13.342064
_cell_length_b 24.112970
_cell_length_c 9.776572
_cell_angle_alpha 90.000000
_cell_angle_beta 90.000000
_cell_angle_gamma 90.000000
_cell_volume 3145.287351
_symmetry_space_group_name_H-M "C M C 21"
_symmetry_group_IT_number 36
_symmetry_cell_setting 'orthorhombic'
loop_
_space_group_symop_operation_xyz
x,y,z
-x,-y,1/2+z
x,-y,1/2+z
-x,y,z
1/2+x,1/2+y,z
1/2-x,1/2-y,1/2+z
1/2+x,1/2-y,1/2+z
1/2-x,1/2+y,z
loop_
_atom_site_type_symbol
_atom_site_label
_atom_site_fract_x
_atom_site_fract_y
_atom_site_fract_z
Si Si1 0.724701 0.663321 0.572470
Si Si2 0.115352 0.950483 0.076445
Si Si3 0.778431 0.643118 0.876336
Si Si4 0.885168 0.727484 0.070333
Si Si5 0.384848 0.831107 0.846598
Si Si6 0.119489 0.449218 0.739283
Si Si7 0.385752 0.445717 0.393254
Si Si8 0.615338 0.960661 0.439863
O O1 0.683207 0.602463 0.536844
O O2 0.762805 0.668750 0.727496
O O3 0.636493 0.707719 0.547807
O O4 0.817962 0.680892 0.478360
O O5 0.128218 0.964372 0.236331
O O6 0.000000 0.936039 0.042303
O O7 0.150157 0.003505 0.988393
O O8 0.680029 0.608955 0.926002
O O9 0.869745 0.599202 0.870768
O O10 0.807133 0.691458 0.981788
O O11 0.870168 0.715639 0.231489
O O12 0.000000 0.714217 0.027050
O O13 0.500000 0.834586 0.895556
O O14 0.347367 0.888125 0.779711
O O15 0.164662 0.462860 0.590199
O O16 0.167352 0.492833 0.845534
O O17 0.000000 0.453585 0.733460
O O18 0.500000 0.429219 0.425381
O O19 0.500000 0.974811 0.451042
#
# Coordination Sequence:
#
# PCOD8175151 Si02
#       8
#     8   8   8   8   8   8   8   8
#     4  11  24  39  61  92 119 157 207 253 297 355
#     4   9  19  38  60  87 120 161 203 244 296 353
#     4  11  23  37  62  90 120 156 200 246 311 356
#     4  11  23  45  67  84 116 160 204 251 300 359
#     4  10  22  40  60  86 123 160 198 248 300 357
#     4   9  19  34  53  81 119 161 194 231 290 350
#     4   9  20  37  58  86 124 158 195 245 299 359
#     4  10  20  34  54  84 121 157 196 238 288 355
#
# _framework density 20.347902999999999
#
# number of rings (size 3 to 8) (size 9 to 14) (size 15 to 20)
#    0.000    2.000    1.250    1.500    3.500    3.500 
#    0.000    0.625    0.000    0.750    0.000    0.000 
#    0.000    0.000    0.000    0.000    0.000    0.000 
#
# Total GULP energy -396771.306649 kJ/mol
# GULP energy per Si atom -12399.103333 kJ/mol
# Density = 2.030159 g / cm^3
# Si number density = 20.347903 Si / 1000 Ang^3
#
#
#
# Elastic Constant Matrix: (Units=GPa)
#
#
# Indices 1 2 3 4 5 6 
#
# 1 84.7913 37.4860 67.9255 0.0000 0.0000 0.0000
# 2 37.4860 109.0578 53.7621 0.0000 0.0000 0.0000
# 3 67.9255 53.7621 86.8438 0.0000 0.0000 0.0000
# 4 0.0000 0.0000 0.0000 25.9578 0.0000 0.0000
# 5 0.0000 0.0000 0.0000 0.0000 26.2935 0.0000
# 6 0.0000 0.0000 0.0000 0.0000 0.0000 34.1659
#
#
#
# Elastic Compliance Matrix: (Units=1/GPa)
#
#
# Indices 1 2 3 4 5 6 
#
# 1 0.031859 0.001919 -0.026107 0.000000 0.000000 0.000000
# 2 0.001919 0.013312 -0.009742 0.000000 0.000000 0.000000
# 3 -0.026107 -0.009742 0.037966 0.000000 0.000000 0.000000
# 4 0.000000 0.000000 0.000000 0.038524 0.000000 0.000000
# 5 0.000000 0.000000 0.000000 0.000000 0.038032 0.000000
# 6 0.000000 0.000000 0.000000 0.000000 0.000000 0.029269
#
#
# Mechanical properties :
#
#
# Convention : Reuss Voigt Hill
#
# Bulk Modulus (GPa) = 65.45742 66.56003 66.00872
# Shear Modulus (GPa) = 19.09008 25.38473 22.23740
#
# Velocity S-wave (km/s) = 3.06630 3.53588 3.30943
# Velocity P-wave (km/s) = 6.69143 7.03221 6.86393
#
# Compressibility (1/GPa) = 0.01527711
#
# Stress axis : x y z
#
# Youngs Moduli (GPa) = 31.38790 75.11745 26.33937
#
# Poissons Ratio (x) = -0.14416 0.68765
# Poissons Ratio (y) = -0.06024 0.25661
# Poissons Ratio (z) = 0.81945 0.73182
#
# Static dielectric constant tensor:
#      x y z
#    x 3.639680 0.000000 0.000000 
#    y 0.000000 3.608650 0.000000 
#    z 0.000000 0.000000 3.848130 
# 
# 
# High freq. dielectric constant tensor:
#      x y z
#    x 1.795010 0.000000 0.000000 
#    y 0.000000 1.789720 0.000000 
#    z 0.000000 0.000000 1.795780 
# 
# From -- ./inp_files/4335.got.cif
#   From: 2010.03.12/outbox.cif.g09.slc.cpg/sg36_3_cif.got.tgz:4335.got - 2010.04.14 02:13:53.
