data_PCOD8175836
_publ_section_title
;
Structure prediction by ZEFSAII (Michael W. Deem and Ramdas Pophale) SiO2 
 PCOD8175836
Probable space group: C M C 21
;
_chemical_formula_sum "Si O2"
_cell_formula_units_Z 48
_cell_length_a 8.542996
_cell_length_b 18.626441
_cell_length_c 15.100353
_cell_angle_alpha 90.000000
_cell_angle_beta 90.000000
_cell_angle_gamma 90.000000
_cell_volume 2402.852897
_symmetry_space_group_name_H-M "C M C 21"
_symmetry_group_IT_number 36
_symmetry_cell_setting 'orthorhombic'
loop_
_space_group_symop_operation_xyz
x,y,z
-x,-y,1/2+z
x,-y,1/2+z
-x,y,z
1/2+x,1/2+y,z
1/2-x,1/2-y,1/2+z
1/2+x,1/2-y,1/2+z
1/2-x,1/2+y,z
loop_
_atom_site_type_symbol
_atom_site_label
_atom_site_fract_x
_atom_site_fract_y
_atom_site_fract_z
Si Si1 0.180399 0.168829 0.642790
Si Si2 0.819307 0.921321 0.801494
Si Si3 0.680692 0.678657 0.141415
Si Si4 0.679911 0.669551 0.940553
Si Si5 0.820435 0.574670 0.793033
Si Si6 0.181020 0.332444 0.956029
O O1 0.214698 0.252155 0.661836
O O2 0.285234 0.120858 0.706561
O O3 0.218239 0.147522 0.542040
O O4 0.000000 0.153209 0.663191
O O5 0.772822 0.883933 0.709078
O O6 0.715175 0.889038 0.879624
O O7 0.000000 0.907682 0.824253
O O8 0.788599 0.005176 0.792801
O O9 0.500000 0.702111 0.150287
O O10 0.712649 0.649384 0.042722
O O11 0.500000 0.654984 0.914562
O O12 0.790318 0.620759 0.881011
O O13 0.724250 0.752590 0.922875
O O14 0.000000 0.550385 0.791929
O O15 0.000000 0.335230 0.983629
#
# Coordination Sequence:
#
# PCOD8175836 Si02
#       6
#     8   8   8   8   8   8
#     4  11  22  38  62  88 115 150 192 238 287 342
#     4  11  23  39  59  85 118 155 195 237 288 346
#     4   9  20  39  63  88 114 147 189 239 288 339
#     4   9  19  38  62  87 115 147 189 239 288 341
#     4  12  25  39  56  82 119 158 196 239 288 342
#     4  10  21  39  62  88 117 149 189 238 289 342
#
# _framework density 19.976254000000001
#
# number of rings (size 3 to 8) (size 9 to 14) (size 15 to 20)
#    0.000    1.667    0.000    6.000    0.000    8.667 
#    0.000    5.000    0.000    0.000    0.000    0.000 
#    0.000    0.000    0.000    0.000    0.000    0.000 
#
# Total GULP energy -297749.815450 kJ/mol
# GULP energy per Si atom -12406.242310 kJ/mol
# Density = 1.993079 g / cm^3
# Si number density = 19.976254 Si / 1000 Ang^3
#
#
#
# Elastic Constant Matrix: (Units=GPa)
#
#
# Indices 1 2 3 4 5 6 
#
# 1 63.2715 12.4098 20.6106 0.0000 0.0000 0.0000
# 2 12.4098 90.9313 59.3780 0.0000 0.0000 0.0000
# 3 20.6106 59.3780 111.2211 0.0000 0.0000 0.0000
# 4 0.0000 0.0000 0.0000 -4.5907 0.0000 0.0000
# 5 0.0000 0.0000 0.0000 0.0000 23.6407 0.0000
# 6 0.0000 0.0000 0.0000 0.0000 0.0000 29.6071
#
#
#
# Elastic Compliance Matrix: (Units=1/GPa)
#
#
# Indices 1 2 3 4 5 6 
#
# 1 0.016830 -0.000400 -0.002905 0.000000 0.000000 0.000000
# 2 -0.000400 0.016893 -0.008944 0.000000 0.000000 0.000000
# 3 -0.002905 -0.008944 0.014305 0.000000 0.000000 0.000000
# 4 0.000000 0.000000 0.000000 -0.217830 0.000000 0.000000
# 5 0.000000 0.000000 0.000000 0.000000 0.042300 0.000000
# 6 0.000000 0.000000 0.000000 0.000000 0.000000 0.033776
#
#
# Mechanical properties :
#
#
# Convention : Reuss Voigt Hill
#
# Bulk Modulus (GPa) = 42.50241 50.02452 46.26346
# Shear Modulus (GPa) = -81.45216 21.26645 -30.09285
#
# Velocity S-wave (km/s) = -6.39242 3.26634 -3.88549
# Velocity P-wave (km/s) = 5.75859 6.27070 1.75504
#
# Compressibility (1/GPa) = 0.02352808
#
# Stress axis : x y z
#
# Youngs Moduli (GPa) = 59.41868 59.19775 69.90715
#
# Poissons Ratio (x) = 0.02366 0.20311
# Poissons Ratio (y) = 0.02374 0.62528
# Poissons Ratio (z) = 0.17264 0.52949
#
# Static dielectric constant tensor:
#      x y z
#    x 3.519120 0.000000 0.000000 
#    y 0.000000 3.483720 0.000000 
#    z 0.000000 0.000000 3.702440 
# 
# 
# High freq. dielectric constant tensor:
#      x y z
#    x 1.781380 0.000000 0.000000 
#    y 0.000000 1.771670 0.000000 
#    z 0.000000 0.000000 1.791500 
# 
# From -- ./inp_files/10372.got.cif
#   From: 2010.03.12/outbox.cif.g09.slc.cpg/sg36_6_cif.got.tgz:10372.got - 2010.04.14 02:13:53.
