data_PCOD8175937
_publ_section_title
;
Structure prediction by ZEFSAII (Michael W. Deem and Ramdas Pophale) SiO2 
 PCOD8175937
Probable space group: C M C 21
;
_chemical_formula_sum "Si O2"
_cell_formula_units_Z 28
_cell_length_a 12.471361
_cell_length_b 7.406374
_cell_length_c 13.562742
_cell_angle_alpha 90.000000
_cell_angle_beta 90.000000
_cell_angle_gamma 90.000000
_cell_volume 1252.757438
_symmetry_space_group_name_H-M "C M C 21"
_symmetry_group_IT_number 36
_symmetry_cell_setting 'orthorhombic'
loop_
_space_group_symop_operation_xyz
x,y,z
-x,-y,1/2+z
x,-y,1/2+z
-x,y,z
1/2+x,1/2+y,z
1/2-x,1/2-y,1/2+z
1/2+x,1/2-y,1/2+z
1/2-x,1/2+y,z
loop_
_atom_site_type_symbol
_atom_site_label
_atom_site_fract_x
_atom_site_fract_y
_atom_site_fract_z
Si Si1 0.000000 0.657420 0.093120
Si Si2 0.886165 0.102810 0.281863
Si Si3 0.000000 0.620289 0.418014
Si Si4 0.151346 0.487198 0.751034
Si Si5 0.000000 0.978456 0.963488
O O1 0.893145 0.613027 0.154599
O O2 0.000000 0.546850 0.991486
O O3 0.000000 0.870650 0.066278
O O4 0.888509 0.309841 0.250745
O O5 0.780125 0.005575 0.243373
O O6 0.000000 0.017411 0.240036
O O7 0.893427 0.079822 0.400875
O O8 0.106208 0.614116 0.348352
O O9 0.000000 0.805480 0.480978
#
# Coordination Sequence:
#
# PCOD8175937 Si02
#       5
#     4   8   4   8   4
#     4  11  22  47  67 107 146 181 246 288 343 431
#     4  10  21  45  69  99 136 187 228 283 360 406
#     4  11  21  45  74  98 145 188 226 297 366 395
#     4  11  22  45  74  99 147 187 227 303 348 419
#     4  10  21  44  73 101 137 183 244 277 349 430
#
# _framework density 22.350695999999999
#
# number of rings (size 3 to 8) (size 9 to 14) (size 15 to 20)
#    0.857    0.571    5.714    1.714    0.000    0.000 
#   20.571    0.000    0.000    0.000    0.000    0.000 
#    0.000    0.000    0.000    0.000    0.000    0.000 
#
# Total GULP energy -173470.774781 kJ/mol
# GULP energy per Si atom -12390.769627 kJ/mol
# Density = 2.229982 g / cm^3
# Si number density = 22.350696 Si / 1000 Ang^3
#
#
#
# Elastic Constant Matrix: (Units=GPa)
#
#
# Indices 1 2 3 4 5 6 
#
# 1 203.7976 5.8458 33.3441 0.0000 0.0000 0.0000
# 2 5.8458 48.6661 18.1383 0.0000 0.0000 0.0000
# 3 33.3441 18.1383 92.7979 0.0000 0.0000 0.0000
# 4 0.0000 0.0000 0.0000 27.2486 0.0000 0.0000
# 5 0.0000 0.0000 0.0000 0.0000 19.4684 0.0000
# 6 0.0000 0.0000 0.0000 0.0000 0.0000 29.8021
#
#
#
# Elastic Compliance Matrix: (Units=1/GPa)
#
#
# Indices 1 2 3 4 5 6 
#
# 1 0.005214 0.000078 -0.001889 0.000000 0.000000 0.000000
# 2 0.000078 0.022164 -0.004360 0.000000 0.000000 0.000000
# 3 -0.001889 -0.004360 0.012307 0.000000 0.000000 0.000000
# 4 0.000000 0.000000 0.000000 0.036699 0.000000 0.000000
# 5 0.000000 0.000000 0.000000 0.000000 0.051365 0.000000
# 6 0.000000 0.000000 0.000000 0.000000 0.000000 0.033555
#
#
# Mechanical properties :
#
#
# Convention : Reuss Voigt Hill
#
# Bulk Modulus (GPa) = 36.57310 51.10197 43.83754
# Shear Modulus (GPa) = 27.35836 34.49940 30.92888
#
# Velocity S-wave (km/s) = 3.50244 3.93306 3.72398
# Velocity P-wave (km/s) = 5.72319 6.59838 6.17631
#
# Compressibility (1/GPa) = 0.02734250
#
# Stress axis : x y z
#
# Youngs Moduli (GPa) = 191.80645 45.11842 81.25526
#
# Poissons Ratio (x) = -0.00350 0.15345
# Poissons Ratio (y) = -0.01489 0.35428
# Poissons Ratio (z) = 0.36223 0.19672
#
# Static dielectric constant tensor:
#      x y z
#    x 6.200080 0.000000 0.000000 
#    y 0.000000 3.931850 0.000000 
#    z 0.000000 0.000000 3.762330 
# 
# 
# High freq. dielectric constant tensor:
#      x y z
#    x 1.873020 0.000000 0.000000 
#    y 0.000000 1.893580 0.000000 
#    z 0.000000 0.000000 1.856420 
# 
# From -- ./inp_files/8150.got.cif
#   From: 2010.03.12/outbox.cif.g09.slc.cpg/sg36_5_cif.got.tgz:8150.got - 2010.04.14 02:13:53.
