data_PCOD8175037
_publ_section_title
;
Structure prediction by ZEFSAII (Michael W. Deem and Ramdas Pophale) SiO2 
 PCOD8175037
Probable space group: C M C 21
;
_chemical_formula_sum "Si O2"
_cell_formula_units_Z 64
_cell_length_a 9.182389
_cell_length_b 19.660947
_cell_length_c 20.087917
_cell_angle_alpha 90.000000
_cell_angle_beta 90.000000
_cell_angle_gamma 90.000000
_cell_volume 3626.561318
_symmetry_space_group_name_H-M "C M C 21"
_symmetry_group_IT_number 36
_symmetry_cell_setting 'orthorhombic'
loop_
_space_group_symop_operation_xyz
x,y,z
-x,-y,1/2+z
x,-y,1/2+z
-x,y,z
1/2+x,1/2+y,z
1/2-x,1/2-y,1/2+z
1/2+x,1/2-y,1/2+z
1/2-x,1/2+y,z
loop_
_atom_site_type_symbol
_atom_site_label
_atom_site_fract_x
_atom_site_fract_y
_atom_site_fract_z
Si Si1 0.170565 0.831276 0.920700
Si Si2 0.672732 0.569285 0.160135
Si Si3 0.670566 0.331276 0.546512
Si Si4 0.833581 0.084057 0.811424
Si Si5 0.672730 0.430716 0.807076
Si Si6 0.170022 0.325608 0.053900
Si Si7 0.329978 0.825608 0.413311
Si Si8 0.833580 0.084056 0.655788
O O1 0.234029 0.877655 0.861072
O O2 0.205132 0.753644 0.902230
O O3 0.000000 0.843789 0.931817
O O4 0.251641 0.853305 0.987872
O O5 0.500000 0.574255 0.163690
O O6 0.734039 0.622346 0.106139
O O7 0.736280 0.586988 0.233606
O O8 0.717173 0.492843 0.139586
O O9 0.500000 0.343791 0.535398
O O10 0.705131 0.253644 0.564981
O O11 0.751639 0.353306 0.479338
O O12 0.728677 0.135245 0.849437
O O13 0.817469 0.099117 0.733606
O O14 0.000000 0.095429 0.834416
O O15 0.782832 0.007158 0.827626
O O16 0.500000 0.425752 0.803519
O O17 0.228680 0.364756 0.117773
O O18 0.000000 0.339102 0.046076
O O19 0.500000 0.839099 0.421135
O O20 0.000000 0.095425 0.632795
#
# Coordination Sequence:
#
# PCOD8175037 Si02
#       8
#     8   8   8   8   8   8   8   8
#     4   9  18  33  52  71  94 127 164 200 235 276
#     4   8  15  30  52  74  92 117 161 207 237 270
#     4   9  18  33  52  71  94 127 164 200 235 276
#     4   9  18  33  52  72  95 124 158 197 239 284
#     4   8  15  30  52  74  92 117 161 207 237 270
#     4  10  20  32  48  72 101 129 157 195 241 287
#     4  10  20  32  48  72 101 129 157 195 241 287
#     4   9  18  33  52  72  95 124 158 197 239 284
#
# _framework density 17.647572
#
# number of rings (size 3 to 8) (size 9 to 14) (size 15 to 20)
#    0.000    3.000    0.000    2.250    0.000    3.500 
#    0.000    8.750    0.000    2.250    0.000    0.000 
#    0.000    0.000    0.000    0.000    0.000    0.000 
#
# Total GULP energy -396779.641185 kJ/mol
# GULP energy per Si atom -12399.363787 kJ/mol
# Density = 1.760741 g / cm^3
# Si number density = 17.647572 Si / 1000 Ang^3
#
#
#
# Elastic Constant Matrix: (Units=GPa)
#
#
# Indices 1 2 3 4 5 6 
#
# 1 46.4431 35.4132 41.4855 0.0000 0.0000 0.0000
# 2 35.4132 84.5266 69.1731 0.0000 0.0000 0.0000
# 3 41.4855 69.1731 107.4777 0.0000 0.0000 0.0000
# 4 0.0000 0.0000 0.0000 36.4739 0.0000 0.0000
# 5 0.0000 0.0000 0.0000 0.0000 26.8906 0.0000
# 6 0.0000 0.0000 0.0000 0.0000 0.0000 22.7430
#
#
#
# Elastic Compliance Matrix: (Units=1/GPa)
#
#
# Indices 1 2 3 4 5 6 
#
# 1 0.035048 -0.007633 -0.008616 0.000000 0.000000 0.000000
# 2 -0.007633 0.026658 -0.014211 0.000000 0.000000 0.000000
# 3 -0.008616 -0.014211 0.021776 0.000000 0.000000 0.000000
# 4 0.000000 0.000000 0.000000 0.027417 0.000000 0.000000
# 5 0.000000 0.000000 0.000000 0.000000 0.037188 0.000000
# 6 0.000000 0.000000 0.000000 0.000000 0.000000 0.043970
#
#
# Mechanical properties :
#
#
# Convention : Reuss Voigt Hill
#
# Bulk Modulus (GPa) = 44.32049 58.95456 51.63753
# Shear Modulus (GPa) = 19.19410 23.37987 21.28699
#
# Velocity S-wave (km/s) = 3.30151 3.64376 3.47685
# Velocity P-wave (km/s) = 6.30095 7.15414 6.74106
#
# Compressibility (1/GPa) = 0.02256293
#
# Stress axis : x y z
#
# Youngs Moduli (GPa) = 28.53239 37.51179 45.92194
#
# Poissons Ratio (x) = 0.28633 0.39564
# Poissons Ratio (y) = 0.21779 0.65260
# Poissons Ratio (z) = 0.24582 0.53308
#
# Static dielectric constant tensor:
#      x y z
#    x 3.013360 0.000000 0.000000 
#    y 0.000000 3.333570 0.000000 
#    z 0.000000 0.000000 3.509810 
# 
# 
# High freq. dielectric constant tensor:
#      x y z
#    x 1.655230 0.000000 0.000000 
#    y 0.000000 1.682070 0.000000 
#    z 0.000000 0.000000 1.689130 
# 
# From -- ./inp_files/13830.got.cif
#   From: 2010.03.12/outbox.cif.g09.slc.cpg/sg36_7_cif.got.tgz:13830.got - 2010.04.14 02:13:53.
