data_PCOD8175541
_publ_section_title
;
Structure prediction by ZEFSAII (Michael W. Deem and Ramdas Pophale) SiO2 
 PCOD8175541
Probable space group: C M C 21
;
_chemical_formula_sum "Si O2"
_cell_formula_units_Z 28
_cell_length_a 8.800401
_cell_length_b 33.080138
_cell_length_c 5.046744
_cell_angle_alpha 90.000000
_cell_angle_beta 90.000000
_cell_angle_gamma 90.000000
_cell_volume 1469.200440
_symmetry_space_group_name_H-M "C M C 21"
_symmetry_group_IT_number 36
_symmetry_cell_setting 'orthorhombic'
loop_
_space_group_symop_operation_xyz
x,y,z
-x,-y,1/2+z
x,-y,1/2+z
-x,y,z
1/2+x,1/2+y,z
1/2-x,1/2-y,1/2+z
1/2+x,1/2-y,1/2+z
1/2-x,1/2+y,z
loop_
_atom_site_type_symbol
_atom_site_label
_atom_site_fract_x
_atom_site_fract_y
_atom_site_fract_z
Si Si1 0.677690 0.731336 0.779750
Si Si2 0.500000 0.027426 0.206609
Si Si3 0.823975 0.861701 0.194621
Si Si4 0.832463 0.395253 0.694241
O O1 0.500000 0.740276 0.749392
O O2 0.770181 0.759521 0.578200
O O3 0.717326 0.685157 0.719092
O O4 0.500000 0.007770 0.918489
O O5 0.649746 0.056125 0.232435
O O6 0.726850 0.887672 0.399299
O O7 0.000000 0.869459 0.249891
O O8 0.784622 0.876227 0.900067
O O9 0.000000 0.374870 0.725854
#
# Coordination Sequence:
#
# PCOD8175541 Si02
#       4
#     8   4   8   8
#     4  11  24  39  57  83 115 161 197 246 299 341
#     4  10  20  38  64  90 120 146 192 244 294 350
#     4  11  22  39  58  84 123 153 193 246 297 347
#     4  10  22  36  62  91 108 154 199 231 293 340
#
# _framework density 19.057984000000001
#
# number of rings (size 3 to 8) (size 9 to 14) (size 15 to 20)
#    0.857    0.571    0.000    6.000    0.000   11.429 
#    0.000    0.000    0.000   17.143    0.000    0.000 
#    0.000    0.000    0.000    0.000    0.000    0.000 
#
# Total GULP energy -173629.870968 kJ/mol
# GULP energy per Si atom -12402.133641 kJ/mol
# Density = 1.901461 g / cm^3
# Si number density = 19.057984 Si / 1000 Ang^3
#
#
#
# Elastic Constant Matrix: (Units=GPa)
#
#
# Indices 1 2 3 4 5 6 
#
# 1 63.8714 48.2279 16.5922 0.0000 0.0000 0.0000
# 2 48.2279 76.8762 11.6050 0.0000 0.0000 0.0000
# 3 16.5922 11.6050 81.9288 0.0000 0.0000 0.0000
# 4 0.0000 0.0000 0.0000 42.1815 0.0000 0.0000
# 5 0.0000 0.0000 0.0000 0.0000 30.8240 0.0000
# 6 0.0000 0.0000 0.0000 0.0000 0.0000 26.8555
#
#
#
# Elastic Compliance Matrix: (Units=1/GPa)
#
#
# Indices 1 2 3 4 5 6 
#
# 1 0.030737 -0.018744 -0.003570 0.000000 0.000000 0.000000
# 2 -0.018744 0.024722 0.000294 0.000000 0.000000 0.000000
# 3 -0.003570 0.000294 0.012887 0.000000 0.000000 0.000000
# 4 0.000000 0.000000 0.000000 0.023707 0.000000 0.000000
# 5 0.000000 0.000000 0.000000 0.000000 0.032442 0.000000
# 6 0.000000 0.000000 0.000000 0.000000 0.000000 0.037236
#
#
# Mechanical properties :
#
#
# Convention : Reuss Voigt Hill
#
# Bulk Modulus (GPa) = 41.13987 41.72519 41.43253
# Shear Modulus (GPa) = 23.37838 29.72229 26.55034
#
# Velocity S-wave (km/s) = 3.50622 3.95343 3.73652
# Velocity P-wave (km/s) = 6.16644 6.54070 6.35633
#
# Compressibility (1/GPa) = 0.02430732
#
# Stress axis : x y z
#
# Youngs Moduli (GPa) = 32.53436 40.44937 77.59750
#
# Poissons Ratio (x) = 0.75817 0.27701
# Poissons Ratio (y) = 0.60981 -0.02282
# Poissons Ratio (z) = 0.11614 -0.01190
#
# Static dielectric constant tensor:
#      x y z
#    x 3.394290 0.000000 0.000000 
#    y 0.000000 3.404280 0.000000 
#    z 0.000000 0.000000 3.443520 
# 
# 
# High freq. dielectric constant tensor:
#      x y z
#    x 1.737030 0.000000 0.000000 
#    y 0.000000 1.737150 0.000000 
#    z 0.000000 0.000000 1.757700 
# 
# From -- ./inp_files/198.got.cif
#   From: 2010.03.12/outbox.cif.g09.slc.cpg/sg36_1_cif.got.tgz:198.got - 2010.04.14 02:13:53.
