data_PCOD8175873
_publ_section_title
;
Structure prediction by ZEFSAII (Michael W. Deem and Ramdas Pophale) SiO2 
 PCOD8175873
Probable space group: C M C 21
;
_chemical_formula_sum "Si O2"
_cell_formula_units_Z 48
_cell_length_a 8.776444
_cell_length_b 30.137337
_cell_length_c 8.793625
_cell_angle_alpha 90.000000
_cell_angle_beta 90.000000
_cell_angle_gamma 90.000000
_cell_volume 2325.901945
_symmetry_space_group_name_H-M "C M C 21"
_symmetry_group_IT_number 36
_symmetry_cell_setting 'orthorhombic'
loop_
_space_group_symop_operation_xyz
x,y,z
-x,-y,1/2+z
x,-y,1/2+z
-x,y,z
1/2+x,1/2+y,z
1/2-x,1/2-y,1/2+z
1/2+x,1/2-y,1/2+z
1/2-x,1/2+y,z
loop_
_atom_site_type_symbol
_atom_site_label
_atom_site_fract_x
_atom_site_fract_y
_atom_site_fract_z
Si Si1 0.824289 0.881710 0.629190
Si Si2 0.176145 0.127621 0.784967
Si Si3 0.679318 0.801368 0.795743
Si Si4 0.823933 0.783178 0.115820
Si Si5 0.823618 0.969559 0.809992
Si Si6 0.321572 0.952159 0.129196
O O1 0.765068 0.878521 0.456949
O O2 0.732139 0.848844 0.736572
O O3 0.796880 0.931661 0.684754
O O4 0.000000 0.867782 0.639448
O O5 0.200003 0.178621 0.740783
O O6 0.278413 0.097909 0.673707
O O7 0.000000 0.113160 0.768549
O O8 0.500000 0.799439 0.795146
O O9 0.742589 0.762078 0.687948
O O10 0.732174 0.794835 0.966537
O O11 0.000000 0.778480 0.070736
O O12 0.000000 0.972462 0.859738
O O13 0.773353 0.015800 0.738567
O O14 0.721248 0.959586 0.955097
O O15 0.500000 0.960619 0.151289
#
# Coordination Sequence:
#
# PCOD8175873 Si02
#       6
#     8   8   8   8   8   8
#     4  10  22  40  63  88 117 156 200 244 289 349
#     4  10  21  40  63  86 117 160 205 242 288 358
#     4  11  23  38  60  89 119 153 195 245 298 349
#     4  10  22  39  59  85 118 157 199 242 291 353
#     4  11  23  41  64  88 118 162 207 241 290 365
#     4  12  25  40  61  92 125 154 194 254 310 348
#
# _framework density 20.637153999999999
#
# number of rings (size 3 to 8) (size 9 to 14) (size 15 to 20)
#    0.000    1.333    0.000    5.500    0.000   10.667 
#    0.000    0.000    0.000    0.000    0.000    0.000 
#    0.000    0.000    0.000    0.000    0.000    0.000 
#
# Total GULP energy -297784.892974 kJ/mol
# GULP energy per Si atom -12407.703874 kJ/mol
# Density = 2.059018 g / cm^3
# Si number density = 20.637154 Si / 1000 Ang^3
#
#
#
# Elastic Constant Matrix: (Units=GPa)
#
#
# Indices 1 2 3 4 5 6 
#
# 1 59.4134 27.6991 21.0017 0.0000 0.0000 0.0000
# 2 27.6991 68.7468 -4.2160 0.0000 0.0000 0.0000
# 3 21.0017 -4.2160 86.2512 0.0000 0.0000 0.0000
# 4 0.0000 0.0000 0.0000 39.7221 0.0000 0.0000
# 5 0.0000 0.0000 0.0000 0.0000 26.0330 0.0000
# 6 0.0000 0.0000 0.0000 0.0000 0.0000 16.3843
#
#
#
# Elastic Compliance Matrix: (Units=1/GPa)
#
#
# Indices 1 2 3 4 5 6 
#
# 1 0.023663 -0.009917 -0.006246 0.000000 0.000000 0.000000
# 2 -0.009917 0.018746 0.003331 0.000000 0.000000 0.000000
# 3 -0.006246 0.003331 0.013278 0.000000 0.000000 0.000000
# 4 0.000000 0.000000 0.000000 0.025175 0.000000 0.000000
# 5 0.000000 0.000000 0.000000 0.000000 0.038413 0.000000
# 6 0.000000 0.000000 0.000000 0.000000 0.000000 0.061034
#
#
# Mechanical properties :
#
#
# Convention : Reuss Voigt Hill
#
# Bulk Modulus (GPa) = 33.30928 33.70901 33.50914
# Shear Modulus (GPa) = 23.15023 27.75633 25.45328
#
# Velocity S-wave (km/s) = 3.35292 3.67136 3.51575
# Velocity P-wave (km/s) = 5.58256 5.86016 5.72304
#
# Compressibility (1/GPa) = 0.03002166
#
# Stress axis : x y z
#
# Youngs Moduli (GPa) = 42.26059 53.34425 75.31339
#
# Poissons Ratio (x) = 0.52902 0.47044
# Poissons Ratio (y) = 0.41910 -0.25088
# Poissons Ratio (z) = 0.26398 -0.17769
#
# Static dielectric constant tensor:
#      x y z
#    x 3.677470 0.000000 0.000000 
#    y 0.000000 3.921700 0.000000 
#    z 0.000000 0.000000 3.833870 
# 
# 
# High freq. dielectric constant tensor:
#      x y z
#    x 1.800310 0.000000 0.000000 
#    y 0.000000 1.821980 0.000000 
#    z 0.000000 0.000000 1.820660 
# 
# From -- ./inp_files/2715.got.cif
#   From: 2010.03.12/outbox.cif.g09.slc.cpg/sg36_2_cif.got.tgz:2715.got - 2010.04.14 02:13:53.
