data_PCOD8175632
_publ_section_title
;
Structure prediction by ZEFSAII (Michael W. Deem and Ramdas Pophale) SiO2 
 PCOD8175632
Probable space group: C M C 21
;
_chemical_formula_sum "Si O2"
_cell_formula_units_Z 64
_cell_length_a 8.833140
_cell_length_b 24.485446
_cell_length_c 14.440406
_cell_angle_alpha 90.000000
_cell_angle_beta 90.000000
_cell_angle_gamma 90.000000
_cell_volume 3123.219710
_symmetry_space_group_name_H-M "C M C 21"
_symmetry_group_IT_number 36
_symmetry_cell_setting 'orthorhombic'
loop_
_space_group_symop_operation_xyz
x,y,z
-x,-y,1/2+z
x,-y,1/2+z
-x,y,z
1/2+x,1/2+y,z
1/2-x,1/2-y,1/2+z
1/2+x,1/2-y,1/2+z
1/2-x,1/2+y,z
loop_
_atom_site_type_symbol
_atom_site_label
_atom_site_fract_x
_atom_site_fract_y
_atom_site_fract_z
Si Si1 0.681354 0.832491 0.379110
Si Si2 0.169323 0.880264 0.722455
Si Si3 0.323543 0.953395 0.412862
Si Si4 0.332401 0.524891 0.093233
Si Si5 0.172186 0.095791 0.574543
Si Si6 0.180873 0.793696 0.571982
Si Si7 0.676984 0.926138 0.888510
Si Si8 0.821551 0.801070 0.190863
O O1 0.500000 0.828598 0.380331
O O2 0.738286 0.896106 0.370130
O O3 0.744454 0.804781 0.472508
O O4 0.746566 0.797851 0.292648
O O5 0.175945 0.942225 0.687721
O O6 0.233218 0.840909 0.643038
O O7 0.270055 0.881372 0.813989
O O8 0.000000 0.862089 0.749521
O O9 0.500000 0.954308 0.395761
O O10 0.289720 0.951358 0.522138
O O11 0.253752 0.011648 0.375996
O O12 0.500000 0.530990 0.047727
O O13 0.299654 0.462759 0.121823
O O14 0.278289 0.100722 0.485553
O O15 0.214677 0.138994 0.652523
O O16 0.000000 0.103549 0.540606
O O17 0.242987 0.738517 0.616966
O O18 0.000000 0.791750 0.560194
O O19 0.500000 0.931444 0.882930
O O20 0.000000 0.788435 0.198263
#
# Coordination Sequence:
#
# PCOD8175632 Si02
#       8
#     8   8   8   8   8   8   8   8
#     4  11  23  41  65  92 123 160 202 252 305 363
#     4  10  21  36  58  88 120 158 202 247 300 360
#     4   9  19  35  55  86 124 159 197 244 301 359
#     4   9  17  33  57  85 116 154 196 243 298 355
#     4   9  20  39  60  85 120 158 200 249 301 359
#     4  11  24  44  66  90 122 161 208 258 308 362
#     4  10  21  35  56  89 127 166 203 244 303 367
#     4  11  25  43  65  93 122 160 208 255 308 365
#
# _framework density 20.491674
#
# number of rings (size 3 to 8) (size 9 to 14) (size 15 to 20)
#    0.000    2.000    1.250    1.500    1.750    4.500 
#    0.000    1.250    0.000    0.000    0.000    0.000 
#    0.000    0.000    0.000    0.000    0.000    0.000 
#
# Total GULP energy -396604.408589 kJ/mol
# GULP energy per Si atom -12393.887768 kJ/mol
# Density = 2.044503 g / cm^3
# Si number density = 20.491674 Si / 1000 Ang^3
#
#
#
# Elastic Constant Matrix: (Units=GPa)
#
#
# Indices 1 2 3 4 5 6 
#
# 1 55.0849 28.7192 27.2591 0.0000 0.0000 0.0000
# 2 28.7192 74.7082 31.5403 0.0000 0.0000 0.0000
# 3 27.2591 31.5403 82.6799 0.0000 0.0000 0.0000
# 4 0.0000 0.0000 0.0000 26.7196 0.0000 0.0000
# 5 0.0000 0.0000 0.0000 0.0000 28.1748 0.0000
# 6 0.0000 0.0000 0.0000 0.0000 0.0000 27.9858
#
#
#
# Elastic Compliance Matrix: (Units=1/GPa)
#
#
# Indices 1 2 3 4 5 6 
#
# 1 0.024544 -0.007174 -0.005355 0.000000 0.000000 0.000000
# 2 -0.007174 0.018052 -0.004521 0.000000 0.000000 0.000000
# 3 -0.005355 -0.004521 0.015585 0.000000 0.000000 0.000000
# 4 0.000000 0.000000 0.000000 0.037426 0.000000 0.000000
# 5 0.000000 0.000000 0.000000 0.000000 0.035493 0.000000
# 6 0.000000 0.000000 0.000000 0.000000 0.000000 0.035732
#
#
# Mechanical properties :
#
#
# Convention : Reuss Voigt Hill
#
# Bulk Modulus (GPa) = 41.52812 43.05669 42.29241
# Shear Modulus (GPa) = 23.92795 24.90632 24.41714
#
# Velocity S-wave (km/s) = 3.42086 3.49009 3.45565
# Velocity P-wave (km/s) = 5.99273 6.10724 6.05026
#
# Compressibility (1/GPa) = 0.02408007
#
# Stress axis : x y z
#
# Youngs Moduli (GPa) = 40.74256 55.39520 64.16375
#
# Poissons Ratio (x) = 0.39743 0.34361
# Poissons Ratio (y) = 0.29230 0.29009
# Poissons Ratio (z) = 0.21819 0.25045
#
# Static dielectric constant tensor:
#      x y z
#    x 3.682330 0.000000 0.000000 
#    y 0.000000 3.976070 0.000000 
#    z 0.000000 0.000000 3.525570 
# 
# 
# High freq. dielectric constant tensor:
#      x y z
#    x 1.794780 0.000000 0.000000 
#    y 0.000000 1.804530 0.000000 
#    z 0.000000 0.000000 1.793780 
# 
# From -- ./inp_files/11083.got.cif
#   From: 2010.03.12/outbox.cif.g09.slc.cpg/sg36_6_cif.got.tgz:11083.got - 2010.04.14 02:13:53.
