data_PCOD8175429
_publ_section_title
;
Structure prediction by ZEFSAII (Michael W. Deem and Ramdas Pophale) SiO2 
 PCOD8175429
Probable space group: C M C 21
;
_chemical_formula_sum "Si O2"
_cell_formula_units_Z 64
_cell_length_a 8.845051
_cell_length_b 14.794977
_cell_length_c 24.288391
_cell_angle_alpha 90.000000
_cell_angle_beta 90.000000
_cell_angle_gamma 90.000000
_cell_volume 3178.435344
_symmetry_space_group_name_H-M "C M C 21"
_symmetry_group_IT_number 36
_symmetry_cell_setting 'orthorhombic'
loop_
_space_group_symop_operation_xyz
x,y,z
-x,-y,1/2+z
x,-y,1/2+z
-x,y,z
1/2+x,1/2+y,z
1/2-x,1/2-y,1/2+z
1/2+x,1/2-y,1/2+z
1/2-x,1/2+y,z
loop_
_atom_site_type_symbol
_atom_site_label
_atom_site_fract_x
_atom_site_fract_y
_atom_site_fract_z
Si Si1 0.325877 0.329308 0.716370
Si Si2 0.673567 0.123697 0.720150
Si Si3 0.679495 0.345021 0.449283
Si Si4 0.174373 0.657324 0.840726
Si Si5 0.823893 0.654208 0.323877
Si Si6 0.675140 0.488172 0.639151
Si Si7 0.821038 0.486193 0.523769
Si Si8 0.178743 0.639561 0.442901
O O1 0.500000 0.324372 0.731390
O O2 0.267922 0.226560 0.709330
O O3 0.252661 0.382496 0.768308
O O4 0.293422 0.386847 0.661543
O O5 0.500000 0.112774 0.700272
O O6 0.686070 0.096976 0.785176
O O7 0.782673 0.059681 0.685921
O O8 0.500000 0.353115 0.443690
O O9 0.760741 0.391104 0.395689
O O10 0.736798 0.396059 0.503594
O O11 0.736240 0.241309 0.455007
O O12 0.282811 0.741509 0.830790
O O13 0.000000 0.686110 0.849974
O O14 0.772317 0.606406 0.381235
O O15 0.000000 0.642168 0.315289
O O16 0.500000 0.500226 0.623518
O O17 0.779179 0.504935 0.586621
O O18 0.757067 0.570250 0.487939
O O19 0.000000 0.474546 0.517705
O O20 0.000000 0.641493 0.446708
#
# Coordination Sequence:
#
# PCOD8175429 Si02
#       8
#     8   8   8   8   8   8   8   8
#     4   9  20  38  57  79 112 149 178 215 275 335
#     4   9  19  37  59  81 108 145 182 217 267 330
#     4  10  20  37  59  84 113 145 182 226 276 325
#     4   9  17  32  55  84 116 147 179 217 271 336
#     4   9  16  30  55  85 112 139 178 224 269 323
#     4  11  24  40  56  79 110 143 187 237 277 319
#     4  11  23  40  58  78 107 146 191 231 274 331
#     4   8  18  36  57  80 110 146 177 215 273 333
#
# _framework density 20.135693
#
# number of rings (size 3 to 8) (size 9 to 14) (size 15 to 20)
#    0.000    2.500    0.000    3.375    0.000    5.500 
#    0.000   16.250    0.000    0.000    0.000    0.000 
#    0.000    0.000    0.000    0.000    0.000    0.000 
#
# Total GULP energy -396623.439705 kJ/mol
# GULP energy per Si atom -12394.482491 kJ/mol
# Density = 2.008986 g / cm^3
# Si number density = 20.135693 Si / 1000 Ang^3
#
#
#
# Elastic Constant Matrix: (Units=GPa)
#
#
# Indices 1 2 3 4 5 6 
#
# 1 49.6393 25.9741 33.0725 0.0000 0.0000 0.0000
# 2 25.9741 50.3679 18.7514 0.0000 0.0000 0.0000
# 3 33.0725 18.7514 97.8080 0.0000 0.0000 0.0000
# 4 0.0000 0.0000 0.0000 30.3648 0.0000 0.0000
# 5 0.0000 0.0000 0.0000 0.0000 38.5329 0.0000
# 6 0.0000 0.0000 0.0000 0.0000 0.0000 23.5081
#
#
#
# Elastic Compliance Matrix: (Units=1/GPa)
#
#
# Indices 1 2 3 4 5 6 
#
# 1 0.033096 -0.013893 -0.008528 0.000000 0.000000 0.000000
# 2 -0.013893 0.027211 -0.000519 0.000000 0.000000 0.000000
# 3 -0.008528 -0.000519 0.013207 0.000000 0.000000 0.000000
# 4 0.000000 0.000000 0.000000 0.032933 0.000000 0.000000
# 5 0.000000 0.000000 0.000000 0.000000 0.025952 0.000000
# 6 0.000000 0.000000 0.000000 0.000000 0.000000 0.042539
#
#
# Mechanical properties :
#
#
# Convention : Reuss Voigt Hill
#
# Bulk Modulus (GPa) = 36.18481 39.26791 37.72636
# Shear Modulus (GPa) = 21.73637 26.48230 24.10933
#
# Velocity S-wave (km/s) = 3.28913 3.63049 3.46402
# Velocity P-wave (km/s) = 5.69509 6.09245 5.89712
#
# Compressibility (1/GPa) = 0.02763590
#
# Stress axis : x y z
#
# Youngs Moduli (GPa) = 30.21487 36.74918 75.71636
#
# Poissons Ratio (x) = 0.51054 0.64568
# Poissons Ratio (y) = 0.41976 0.03932
# Poissons Ratio (z) = 0.25766 0.01908
#
# Static dielectric constant tensor:
#      x y z
#    x 3.533300 0.000000 0.000000 
#    y 0.000000 3.665510 0.000000 
#    z 0.000000 0.000000 3.919080 
# 
# 
# High freq. dielectric constant tensor:
#      x y z
#    x 1.777180 0.000000 0.000000 
#    y 0.000000 1.770190 0.000000 
#    z 0.000000 0.000000 1.791880 
# 
# From -- ./inp_files/16656.got.cif
#   From: 2010.03.12/outbox.cif.g09.slc.cpg/sg36_9_cif.got.tgz:16656.got - 2010.04.14 02:13:53.
