data_PCOD8175582
_publ_section_title
;
Structure prediction by ZEFSAII (Michael W. Deem and Ramdas Pophale) SiO2 
 PCOD8175582
Probable space group: C M C 21
;
_chemical_formula_sum "Si O2"
_cell_formula_units_Z 64
_cell_length_a 8.503100
_cell_length_b 31.507632
_cell_length_c 10.870407
_cell_angle_alpha 90.000000
_cell_angle_beta 90.000000
_cell_angle_gamma 90.000000
_cell_volume 2912.318412
_symmetry_space_group_name_H-M "C M C 21"
_symmetry_group_IT_number 36
_symmetry_cell_setting 'orthorhombic'
loop_
_space_group_symop_operation_xyz
x,y,z
-x,-y,1/2+z
x,-y,1/2+z
-x,y,z
1/2+x,1/2+y,z
1/2-x,1/2-y,1/2+z
1/2+x,1/2-y,1/2+z
1/2-x,1/2+y,z
loop_
_atom_site_type_symbol
_atom_site_label
_atom_site_fract_x
_atom_site_fract_y
_atom_site_fract_z
Si Si1 0.181092 0.826069 0.469920
Si Si2 0.685515 0.970859 0.957485
Si Si3 0.173684 0.325210 0.832586
Si Si4 0.816460 0.981264 0.695725
Si Si5 0.182698 0.257071 0.643318
Si Si6 0.824598 0.394423 0.622352
Si Si7 0.680472 0.826497 0.212937
Si Si8 0.818939 0.118298 0.519069
O O1 0.276987 0.788356 0.532646
O O2 0.248048 0.872793 0.502657
O O3 0.201115 0.820907 0.325374
O O4 0.000000 0.822886 0.508918
O O5 0.500000 0.973259 0.949222
O O6 0.751374 0.993269 0.832531
O O7 0.739463 0.922107 0.955737
O O8 0.740955 0.991796 0.084939
O O9 0.220159 0.279760 0.774879
O O10 0.166364 0.358243 0.722586
O O11 0.000000 0.323124 0.895475
O O12 0.302882 0.340917 0.929503
O O13 0.784790 0.932142 0.669307
O O14 0.000000 0.990902 0.696261
O O15 0.288892 0.215022 0.628531
O O16 0.000000 0.244894 0.634672
O O17 0.000000 0.411842 0.591873
O O18 0.500000 0.829363 0.254823
O O19 0.727590 0.869919 0.143780
O O20 0.000000 0.108772 0.546764
#
# Coordination Sequence:
#
# PCOD8175582 Si02
#       8
#     8   8   8   8   8   8   8   8
#     4  11  23  41  63  92 129 167 214 271 328 391
#     4  12  26  47  72 102 141 184 230 282 349 420
#     4   9  19  37  64  92 125 163 209 258 312 380
#     4  12  25  44  71 106 140 178 229 287 343 408
#     4  10  22  41  64  92 126 167 216 267 324 388
#     4  10  20  39  67  96 127 167 212 259 319 389
#     4  12  26  43  63  90 129 173 219 272 333 396
#     4  12  25  42  66  96 131 171 219 272 330 394
#
# _framework density 21.975618999999998
#
# number of rings (size 3 to 8) (size 9 to 14) (size 15 to 20)
#    0.000    1.000    1.250    7.125    1.750    3.500 
#    0.000    5.000    0.000    0.000    0.000    0.000 
#    0.000    0.000    0.000    0.000    0.000    0.000 
#
# Total GULP energy -396842.780648 kJ/mol
# GULP energy per Si atom -12401.336895 kJ/mol
# Density = 2.192560 g / cm^3
# Si number density = 21.975619 Si / 1000 Ang^3
#
#
#
# Elastic Constant Matrix: (Units=GPa)
#
#
# Indices 1 2 3 4 5 6 
#
# 1 135.4821 24.5772 29.4260 0.0000 0.0000 0.0000
# 2 24.5772 59.4445 28.1763 0.0000 0.0000 0.0000
# 3 29.4260 28.1763 108.4376 0.0000 0.0000 0.0000
# 4 0.0000 0.0000 0.0000 32.2932 0.0000 0.0000
# 5 0.0000 0.0000 0.0000 0.0000 37.4736 0.0000
# 6 0.0000 0.0000 0.0000 0.0000 0.0000 35.6188
#
#
#
# Elastic Compliance Matrix: (Units=1/GPa)
#
#
# Indices 1 2 3 4 5 6 
#
# 1 0.008197 -0.002663 -0.001532 0.000000 0.000000 0.000000
# 2 -0.002663 0.020050 -0.004487 0.000000 0.000000 0.000000
# 3 -0.001532 -0.004487 0.010804 0.000000 0.000000 0.000000
# 4 0.000000 0.000000 0.000000 0.030966 0.000000 0.000000
# 5 0.000000 0.000000 0.000000 0.000000 0.026685 0.000000
# 6 0.000000 0.000000 0.000000 0.000000 0.000000 0.028075
#
#
# Mechanical properties :
#
#
# Convention : Reuss Voigt Hill
#
# Bulk Modulus (GPa) = 46.11255 51.96925 49.04090
# Shear Modulus (GPa) = 33.47367 35.82275 34.64821
#
# Velocity S-wave (km/s) = 3.90708 4.04185 3.97503
# Velocity P-wave (km/s) = 6.43294 6.74403 6.59032
#
# Compressibility (1/GPa) = 0.02168607
#
# Stress axis : x y z
#
# Youngs Moduli (GPa) = 121.99716 49.87483 92.56064
#
# Poissons Ratio (x) = 0.13280 0.14185
# Poissons Ratio (y) = 0.32483 0.41535
# Poissons Ratio (z) = 0.18696 0.22380
#
# Static dielectric constant tensor:
#      x y z
#    x 3.971100 0.000000 0.000000 
#    y 0.000000 4.049840 0.000000 
#    z 0.000000 0.000000 4.083980 
# 
# 
# High freq. dielectric constant tensor:
#      x y z
#    x 1.871510 0.000000 0.000000 
#    y 0.000000 1.858180 0.000000 
#    z 0.000000 0.000000 1.867930 
# 
# From -- ./inp_files/7207.got.cif
#   From: 2010.03.12/outbox.cif.g09.slc.cpg/sg36_4_cif.got.tgz:7207.got - 2010.04.14 02:13:53.
