data_PCOD8175921
_publ_section_title
;
Structure prediction by ZEFSAII (Michael W. Deem and Ramdas Pophale) SiO2 
 PCOD8175921
Probable space group: C M C 21
;
_chemical_formula_sum "Si O2"
_cell_formula_units_Z 28
_cell_length_a 10.252447
_cell_length_b 17.925048
_cell_length_c 5.197927
_cell_angle_alpha 90.000000
_cell_angle_beta 90.000000
_cell_angle_gamma 90.000000
_cell_volume 955.252177
_symmetry_space_group_name_H-M "C M C 21"
_symmetry_group_IT_number 36
_symmetry_cell_setting 'orthorhombic'
loop_
_space_group_symop_operation_xyz
x,y,z
-x,-y,1/2+z
x,-y,1/2+z
-x,y,z
1/2+x,1/2+y,z
1/2-x,1/2-y,1/2+z
1/2+x,1/2-y,1/2+z
1/2-x,1/2+y,z
loop_
_atom_site_type_symbol
_atom_site_label
_atom_site_fract_x
_atom_site_fract_y
_atom_site_fract_z
Si Si1 0.349691 0.537404 0.875000
Si Si2 0.147262 0.172039 0.552867
Si Si3 0.000000 0.547145 0.864228
Si Si4 0.355034 0.840146 0.657699
O O1 0.282941 0.491561 0.638342
O O2 0.500000 0.513077 0.892883
O O3 0.339724 0.628295 0.827319
O O4 0.245620 0.131635 0.354782
O O5 0.000000 0.161884 0.447637
O O6 0.185745 0.258535 0.559603
O O7 0.870626 0.598915 0.921465
O O8 0.000000 0.521104 0.569877
O O9 0.500000 0.834334 0.789620
#
# Coordination Sequence:
#
# PCOD8175921 Si02
#       4
#     8   8   4   8
#     4   9  19  36  60  93 131 171 215 275 349 413
#     4  10  21  41  67 100 146 180 246 296 365 434
#     4  10  24  48  74 104 146 196 252 300 362 446
#     4   9  23  42  65 106 137 195 241 298 365 435
#
# _framework density 29.311633
#
# number of rings (size 3 to 8) (size 9 to 14) (size 15 to 20)
#    0.857    1.714    0.000    0.000    0.000    8.000 
#    0.000    5.714    0.000    0.000    0.000    0.000 
#    0.000    0.000    0.000    0.000    0.000    0.000 
#
# Total GULP energy -173501.584699 kJ/mol
# GULP energy per Si atom -12392.970336 kJ/mol
# Density = 2.924492 g / cm^3
# Si number density = 29.311633 Si / 1000 Ang^3
#
#
#
# Elastic Constant Matrix: (Units=GPa)
#
#
# Indices 1 2 3 4 5 6 
#
# 1 121.1954 -14.4046 13.3395 0.0000 0.0000 0.0000
# 2 -14.4046 186.6803 39.3157 0.0000 0.0000 0.0000
# 3 13.3395 39.3157 94.7902 0.0000 0.0000 0.0000
# 4 0.0000 0.0000 0.0000 42.4446 0.0000 0.0000
# 5 0.0000 0.0000 0.0000 0.0000 34.9550 0.0000
# 6 0.0000 0.0000 0.0000 0.0000 0.0000 25.2649
#
#
#
# Elastic Compliance Matrix: (Units=1/GPa)
#
#
# Indices 1 2 3 4 5 6 
#
# 1 0.008548 0.001000 -0.001618 0.000000 0.000000 0.000000
# 2 0.001000 0.005987 -0.002624 0.000000 0.000000 0.000000
# 3 -0.001618 -0.002624 0.011866 0.000000 0.000000 0.000000
# 4 0.000000 0.000000 0.000000 0.023560 0.000000 0.000000
# 5 0.000000 0.000000 0.000000 0.000000 0.028608 0.000000
# 6 0.000000 0.000000 0.000000 0.000000 0.000000 0.039581
#
#
# Mechanical properties :
#
#
# Convention : Reuss Voigt Hill
#
# Bulk Modulus (GPa) = 50.20697 53.24079 51.72388
# Shear Modulus (GPa) = 38.08918 44.82725 41.45822
#
# Velocity S-wave (km/s) = 3.60871 3.91491 3.76492
# Velocity P-wave (km/s) = 5.87619 6.21599 6.04847
#
# Compressibility (1/GPa) = 0.01991755
#
# Stress axis : x y z
#
# Youngs Moduli (GPa) = 116.98511 167.04206 84.27771
#
# Poissons Ratio (x) = -0.16709 0.13635
# Poissons Ratio (y) = -0.11702 0.22113
# Poissons Ratio (z) = 0.18926 0.43828
#
# Static dielectric constant tensor:
#      x y z
#    x 5.784580 0.000000 0.000000 
#    y 0.000000 5.432190 0.000000 
#    z 0.000000 0.000000 5.004800 
# 
# 
# High freq. dielectric constant tensor:
#      x y z
#    x 2.231860 0.000000 0.000000 
#    y 0.000000 2.215910 0.000000 
#    z 0.000000 0.000000 2.158580 
# 
# From -- ./inp_files/371.got.cif
#   From: 2010.03.12/outbox.cif.g09.slc.cpg/sg36_1_cif.got.tgz:371.got - 2010.04.14 02:13:53.
