data_PCOD8175797
_publ_section_title
;
Structure prediction by ZEFSAII (Michael W. Deem and Ramdas Pophale) SiO2 
 PCOD8175797
Probable space group: C M C 21
;
_chemical_formula_sum "Si O2"
_cell_formula_units_Z 48
_cell_length_a 8.973377
_cell_length_b 23.454054
_cell_length_c 11.853856
_cell_angle_alpha 90.000000
_cell_angle_beta 90.000000
_cell_angle_gamma 90.000000
_cell_volume 2494.787056
_symmetry_space_group_name_H-M "C M C 21"
_symmetry_group_IT_number 36
_symmetry_cell_setting 'orthorhombic'
loop_
_space_group_symop_operation_xyz
x,y,z
-x,-y,1/2+z
x,-y,1/2+z
-x,y,z
1/2+x,1/2+y,z
1/2-x,1/2-y,1/2+z
1/2+x,1/2-y,1/2+z
1/2-x,1/2+y,z
loop_
_atom_site_type_symbol
_atom_site_label
_atom_site_fract_x
_atom_site_fract_y
_atom_site_fract_z
Si Si1 0.824900 0.581568 0.861030
Si Si2 0.831071 0.032083 0.304922
Si Si3 0.671593 0.610478 0.093355
Si Si4 0.172870 0.297359 0.737720
Si Si5 0.173463 0.143321 0.436864
Si Si6 0.672326 0.665739 0.692142
O O1 0.781803 0.519924 0.813221
O O2 0.773942 0.629962 0.775327
O O3 0.000000 0.585193 0.875973
O O4 0.750211 0.590604 0.980875
O O5 0.810612 0.059720 0.182556
O O6 0.791901 0.078475 0.400738
O O7 0.000000 0.009820 0.320989
O O8 0.500000 0.623754 0.067829
O O9 0.744081 0.668165 0.139754
O O10 0.234150 0.312599 0.861182
O O11 0.202527 0.231454 0.715968
O O12 0.000000 0.313102 0.731986
O O13 0.222212 0.151186 0.565353
O O14 0.000000 0.157406 0.417563
O O15 0.500000 0.649414 0.711165
#
# Coordination Sequence:
#
# PCOD8175797 Si02
#       6
#     8   8   8   8   8   8
#     4  12  26  39  59  92 126 156 196 255 305 346
#     4   9  20  40  64  87 114 159 205 244 294 360
#     4  10  22  42  66  88 118 163 204 240 295 366
#     4  10  21  38  62  93 124 155 196 252 302 346
#     4   9  20  40  64  87 117 162 205 242 293 362
#     4  10  23  41  61  89 123 161 204 243 293 360
#
# _framework density 19.240119
#
# number of rings (size 3 to 8) (size 9 to 14) (size 15 to 20)
#    0.000    2.000    0.000    3.500    4.667    5.333 
#    0.000    0.000    0.000    0.000    0.000    0.000 
#    0.000    0.000    0.000    0.000    0.000    0.000 
#
# Total GULP energy -297721.982613 kJ/mol
# GULP energy per Si atom -12405.082609 kJ/mol
# Density = 1.919633 g / cm^3
# Si number density = 19.240119 Si / 1000 Ang^3
#
#
#
# Elastic Constant Matrix: (Units=GPa)
#
#
# Indices 1 2 3 4 5 6 
#
# 1 132.5114 67.5439 63.6456 0.0000 0.0000 0.0000
# 2 67.5439 98.4123 53.2245 0.0000 0.0000 0.0000
# 3 63.6456 53.2245 109.7761 0.0000 0.0000 0.0000
# 4 0.0000 0.0000 0.0000 20.2063 0.0000 0.0000
# 5 0.0000 0.0000 0.0000 0.0000 21.2027 0.0000
# 6 0.0000 0.0000 0.0000 0.0000 0.0000 32.2910
#
#
#
# Elastic Compliance Matrix: (Units=1/GPa)
#
#
# Indices 1 2 3 4 5 6 
#
# 1 0.012974 -0.006555 -0.004344 0.000000 0.000000 0.000000
# 2 -0.006555 0.017085 -0.004483 0.000000 0.000000 0.000000
# 3 -0.004344 -0.004483 0.013801 0.000000 0.000000 0.000000
# 4 0.000000 0.000000 0.000000 0.049490 0.000000 0.000000
# 5 0.000000 0.000000 0.000000 0.000000 0.047164 0.000000
# 6 0.000000 0.000000 0.000000 0.000000 0.000000 0.030968
#
#
# Mechanical properties :
#
#
# Convention : Reuss Voigt Hill
#
# Bulk Modulus (GPa) = 76.35682 78.83644 77.59663
# Shear Modulus (GPa) = 24.19990 25.15906 24.67948
#
# Velocity S-wave (km/s) = 3.55037 3.62005 3.58538
# Velocity P-wave (km/s) = 7.52192 7.65095 7.58671
#
# Compressibility (1/GPa) = 0.01309641
#
# Stress axis : x y z
#
# Youngs Moduli (GPa) = 77.07530 58.53054 72.45630
#
# Poissons Ratio (x) = 0.38370 0.31474
# Poissons Ratio (y) = 0.50526 0.32482
# Poissons Ratio (z) = 0.33480 0.26239
#
# Static dielectric constant tensor:
#      x y z
#    x 3.562720 0.000000 0.000000 
#    y 0.000000 3.491950 0.000000 
#    z 0.000000 0.000000 3.663110 
# 
# 
# High freq. dielectric constant tensor:
#      x y z
#    x 1.750290 0.000000 0.000000 
#    y 0.000000 1.754400 0.000000 
#    z 0.000000 0.000000 1.760050 
# 
# From -- ./inp_files/6735.got.cif
#   From: 2010.03.12/outbox.cif.g09.slc.cpg/sg36_4_cif.got.tgz:6735.got - 2010.04.14 02:13:53.
