data_PCOD8175676
_publ_section_title
;
Structure prediction by ZEFSAII (Michael W. Deem and Ramdas Pophale) SiO2 
 PCOD8175676
Probable space group: C M C 21
;
_chemical_formula_sum "Si O2"
_cell_formula_units_Z 48
_cell_length_a 22.604088
_cell_length_b 18.993566
_cell_length_c 4.871652
_cell_angle_alpha 90.000000
_cell_angle_beta 90.000000
_cell_angle_gamma 90.000000
_cell_volume 2091.557252
_symmetry_space_group_name_H-M "C M C 21"
_symmetry_group_IT_number 36
_symmetry_cell_setting 'orthorhombic'
loop_
_space_group_symop_operation_xyz
x,y,z
-x,-y,1/2+z
x,-y,1/2+z
-x,y,z
1/2+x,1/2+y,z
1/2-x,1/2-y,1/2+z
1/2+x,1/2-y,1/2+z
1/2-x,1/2+y,z
loop_
_atom_site_type_symbol
_atom_site_label
_atom_site_fract_x
_atom_site_fract_y
_atom_site_fract_z
Si Si1 0.378193 0.129942 0.638720
Si Si2 0.500000 0.455824 0.679177
Si Si3 0.500000 0.948866 0.150732
Si Si4 0.170448 0.706680 0.145850
Si Si5 0.372539 0.449905 0.567826
Si Si6 0.294762 0.659823 0.350919
Si Si7 0.231121 0.455421 0.158113
O O1 0.444851 0.103427 0.612596
O O2 0.364219 0.196025 0.434597
O O3 0.336063 0.063475 0.573410
O O4 0.360738 0.150706 0.946817
O O5 0.500000 0.529265 0.504417
O O6 0.439049 0.417479 0.596253
O O7 0.500000 0.984968 0.446869
O O8 0.240619 0.694098 0.182409
O O9 0.164071 0.783285 0.008059
O O10 0.361140 0.482724 0.267655
O O11 0.331892 0.383114 0.627357
O O12 0.272003 0.610596 0.595068
O O13 0.245163 0.475547 0.473219
#
# Coordination Sequence:
#
# PCOD8175676 Si02
#       7
#     8   4   4   8   8   8   8
#     4  11  24  43  63  91 127 165 211 263 320 385
#     4   8  16  34  54  78 112 142 174 224 284 336
#     4  12  24  44  74 100 128 172 220 274 342 402
#     4  11  25  41  61  87 126 171 212 261 310 379
#     4  10  21  36  59  88 117 151 195 250 304 363
#     4  11  23  40  61  86 121 165 208 245 313 382
#     4  11  21  34  56  88 121 149 191 255 310 365
#
# _framework density 22.949407999999998
#
# number of rings (size 3 to 8) (size 9 to 14) (size 15 to 20)
#    0.000    1.333    0.000    7.000    0.000    6.667 
#    0.000    1.667    0.000    2.000    0.000    0.000 
#    0.000    0.000    0.000    0.000    0.000    0.000 
#
# Total GULP energy -297560.676861 kJ/mol
# GULP energy per Si atom -12398.361536 kJ/mol
# Density = 2.289717 g / cm^3
# Si number density = 22.949408 Si / 1000 Ang^3
#
#
#
# Elastic Constant Matrix: (Units=GPa)
#
#
# Indices 1 2 3 4 5 6 
#
# 1 93.7784 28.5413 8.6970 0.0000 0.0000 0.0000
# 2 28.5413 84.5465 16.6973 0.0000 0.0000 0.0000
# 3 8.6970 16.6973 99.2434 0.0000 0.0000 0.0000
# 4 0.0000 0.0000 0.0000 31.2866 0.0000 0.0000
# 5 0.0000 0.0000 0.0000 0.0000 30.2472 0.0000
# 6 0.0000 0.0000 0.0000 0.0000 0.0000 22.2272
#
#
#
# Elastic Compliance Matrix: (Units=1/GPa)
#
#
# Indices 1 2 3 4 5 6 
#
# 1 0.011898 -0.003942 -0.000380 0.000000 0.000000 0.000000
# 2 -0.003942 0.013540 -0.001933 0.000000 0.000000 0.000000
# 3 -0.000380 -0.001933 0.010435 0.000000 0.000000 0.000000
# 4 0.000000 0.000000 0.000000 0.031963 0.000000 0.000000
# 5 0.000000 0.000000 0.000000 0.000000 0.033061 0.000000
# 6 0.000000 0.000000 0.000000 0.000000 0.000000 0.044990
#
#
# Mechanical properties :
#
#
# Convention : Reuss Voigt Hill
#
# Bulk Modulus (GPa) = 42.79838 42.82662 42.81250
# Shear Modulus (GPa) = 30.08736 31.66103 30.87420
#
# Velocity S-wave (km/s) = 3.62474 3.71833 3.67183
# Velocity P-wave (km/s) = 6.01730 6.09397 6.05575
#
# Compressibility (1/GPa) = 0.02336537
#
# Stress axis : x y z
#
# Youngs Moduli (GPa) = 84.04578 73.85451 95.83450
#
# Poissons Ratio (x) = 0.29111 0.03637
# Poissons Ratio (y) = 0.33128 0.18522
# Poissons Ratio (z) = 0.03190 0.14274
#
# Static dielectric constant tensor:
#      x y z
#    x 4.379780 0.000000 0.000000 
#    y 0.000000 3.886560 0.000000 
#    z 0.000000 0.000000 4.194190 
# 
# 
# High freq. dielectric constant tensor:
#      x y z
#    x 1.903710 0.000000 0.000000 
#    y 0.000000 1.880740 0.000000 
#    z 0.000000 0.000000 1.928060 
# 
# From -- ./inp_files/1585.got.cif
#   From: 2010.03.12/outbox.cif.g09.slc.cpg/sg36_1_cif.got.tgz:1585.got - 2010.04.14 02:13:53.
