data_PCOD8175561
_publ_section_title
;
Structure prediction by ZEFSAII (Michael W. Deem and Ramdas Pophale) SiO2 
 PCOD8175561
Probable space group: C M C 21
;
_chemical_formula_sum "Si O2"
_cell_formula_units_Z 64
_cell_length_a 18.737701
_cell_length_b 11.100011
_cell_length_c 15.784866
_cell_angle_alpha 90.000000
_cell_angle_beta 90.000000
_cell_angle_gamma 90.000000
_cell_volume 3283.073557
_symmetry_space_group_name_H-M "C M C 21"
_symmetry_group_IT_number 36
_symmetry_cell_setting 'orthorhombic'
loop_
_space_group_symop_operation_xyz
x,y,z
-x,-y,1/2+z
x,-y,1/2+z
-x,y,z
1/2+x,1/2+y,z
1/2-x,1/2-y,1/2+z
1/2+x,1/2-y,1/2+z
1/2-x,1/2+y,z
loop_
_atom_site_type_symbol
_atom_site_label
_atom_site_fract_x
_atom_site_fract_y
_atom_site_fract_z
Si Si1 0.420336 0.942761 0.194340
Si Si2 0.916735 0.072697 0.456606
Si Si3 0.080470 0.698442 0.852855
Si Si4 0.335092 0.712362 0.595979
Si Si5 0.314297 0.865159 0.057069
Si Si6 0.915923 0.296511 0.759957
Si Si7 0.695734 0.093954 0.960336
Si Si8 0.347696 0.320374 0.423543
O O1 0.500000 0.951879 0.157531
O O2 0.411840 0.822638 0.252108
O O3 0.369360 0.935253 0.114980
O O4 0.403717 0.061038 0.249891
O O5 0.898509 0.165348 0.379465
O O6 0.875495 0.111593 0.540960
O O7 0.000000 0.072997 0.477489
O O8 0.893988 0.940663 0.428287
O O9 0.129900 0.599227 0.896632
O O10 0.000000 0.670086 0.882456
O O11 0.253925 0.670456 0.614072
O O12 0.378586 0.727096 0.682327
O O13 0.328491 0.836581 0.545086
O O14 0.353704 0.752856 0.012002
O O15 0.287529 0.955947 0.983462
O O16 0.876909 0.257641 0.845905
O O17 0.000000 0.263431 0.762752
O O18 0.763893 0.150607 0.912494
#
# Coordination Sequence:
#
# PCOD8175561 Si02
#       8
#     8   8   8   8   8   8   8   8
#     4  10  22  40  63  93 123 159 207 255 309 365
#     4  10  20  40  63  84 123 165 202 245 302 374
#     4   9  20  38  62  90 117 157 206 251 301 364
#     4  10  21  39  62  90 117 159 208 247 302 370
#     4  11  22  40  63  89 128 160 204 256 305 369
#     4  11  23  41  63  91 124 158 207 260 309 362
#     4  10  20  39  62  89 122 159 207 248 308 362
#     4  11  24  39  60  94 126 161 205 254 308 372
#
# _framework density 19.493926999999999
#
# number of rings (size 3 to 8) (size 9 to 14) (size 15 to 20)
#    0.000    1.750    2.500    1.500    1.750    2.000 
#    2.250    0.000    0.000    0.000    0.000    0.000 
#    0.000    0.000    0.000    0.000    0.000    0.000 
#
# Total GULP energy -396777.025578 kJ/mol
# GULP energy per Si atom -12399.282049 kJ/mol
# Density = 1.944956 g / cm^3
# Si number density = 19.493927 Si / 1000 Ang^3
#
#
#
# Elastic Constant Matrix: (Units=GPa)
#
#
# Indices 1 2 3 4 5 6 
#
# 1 112.9568 44.6416 64.0847 0.0000 0.0000 0.0000
# 2 44.6416 89.2372 36.4733 0.0000 0.0000 0.0000
# 3 64.0847 36.4733 86.9440 0.0000 0.0000 0.0000
# 4 0.0000 0.0000 0.0000 28.0277 0.0000 0.0000
# 5 0.0000 0.0000 0.0000 0.0000 37.3708 0.0000
# 6 0.0000 0.0000 0.0000 0.0000 0.0000 32.3615
#
#
#
# Elastic Compliance Matrix: (Units=1/GPa)
#
#
# Indices 1 2 3 4 5 6 
#
# 1 0.016272 -0.003908 -0.010354 0.000000 0.000000 0.000000
# 2 -0.003908 0.014464 -0.003187 0.000000 0.000000 0.000000
# 3 -0.010354 -0.003187 0.020470 0.000000 0.000000 0.000000
# 4 0.000000 0.000000 0.000000 0.035679 0.000000 0.000000
# 5 0.000000 0.000000 0.000000 0.000000 0.026759 0.000000
# 6 0.000000 0.000000 0.000000 0.000000 0.000000 0.030901
#
#
# Mechanical properties :
#
#
# Convention : Reuss Voigt Hill
#
# Bulk Modulus (GPa) = 61.32158 64.39301 62.85730
# Shear Modulus (GPa) = 27.04473 29.14791 28.09632
#
# Velocity S-wave (km/s) = 3.72874 3.87102 3.80055
# Velocity P-wave (km/s) = 7.07553 7.28586 7.18146
#
# Compressibility (1/GPa) = 0.01630747
#
# Stress axis : x y z
#
# Youngs Moduli (GPa) = 61.45622 69.13843 48.85098
#
# Poissons Ratio (x) = 0.27020 0.50581
# Poissons Ratio (y) = 0.24018 0.15569
# Poissons Ratio (z) = 0.63633 0.22034
#
# Static dielectric constant tensor:
#      x y z
#    x 3.683580 0.000000 0.000000 
#    y 0.000000 3.578730 0.000000 
#    z 0.000000 0.000000 3.345070 
# 
# 
# High freq. dielectric constant tensor:
#      x y z
#    x 1.774230 0.000000 0.000000 
#    y 0.000000 1.761920 0.000000 
#    z 0.000000 0.000000 1.741520 
# 
# From -- ./inp_files/12620.got.cif
#   From: 2010.03.12/outbox.cif.g09.slc.cpg/sg36_7_cif.got.tgz:12620.got - 2010.04.14 02:13:53.
