data_PCOD8175009
_publ_section_title
;
Structure prediction by ZEFSAII (Michael W. Deem and Ramdas Pophale) SiO2 
 PCOD8175009
Probable space group: C M C 21
;
_chemical_formula_sum "Si O2"
_cell_formula_units_Z 52
_cell_length_a 7.819425
_cell_length_b 30.437117
_cell_length_c 10.466744
_cell_angle_alpha 90.000000
_cell_angle_beta 90.000000
_cell_angle_gamma 90.000000
_cell_volume 2491.092960
_symmetry_space_group_name_H-M "C M C 21"
_symmetry_group_IT_number 36
_symmetry_cell_setting 'orthorhombic'
loop_
_space_group_symop_operation_xyz
x,y,z
-x,-y,1/2+z
x,-y,1/2+z
-x,y,z
1/2+x,1/2+y,z
1/2-x,1/2-y,1/2+z
1/2+x,1/2-y,1/2+z
1/2-x,1/2+y,z
loop_
_atom_site_type_symbol
_atom_site_label
_atom_site_fract_x
_atom_site_fract_y
_atom_site_fract_z
Si Si1 0.307705 0.383359 0.484300
Si Si2 0.500000 0.091780 0.553605
Si Si3 0.299262 0.788479 0.551720
Si Si4 0.000000 0.483140 0.844846
Si Si5 0.191176 0.938952 0.727187
Si Si6 0.304829 0.222908 0.337424
Si Si7 0.500000 0.919434 0.340905
Si Si8 0.688670 0.366640 0.934982
O O1 0.500000 0.382869 0.426872
O O2 0.271698 0.337781 0.556119
O O3 0.287639 0.423699 0.582020
O O4 0.168265 0.391393 0.374922
O O5 0.500000 0.050481 0.460853
O O6 0.500000 0.071175 0.691960
O O7 0.667600 0.122302 0.539159
O O8 0.500000 0.788163 0.528152
O O9 0.251619 0.766321 0.689565
O O10 0.213590 0.764513 0.430546
O O11 0.170447 0.476270 0.759278
O O12 0.000000 0.532045 0.903340
O O13 0.225259 0.895893 0.811232
O O14 0.000000 0.958014 0.751012
O O15 0.500000 0.206643 0.335654
O O16 0.190976 0.184030 0.394182
O O17 0.500000 0.376328 0.992375
#
# Coordination Sequence:
#
# PCOD8175009 Si02
#       8
#     8   4   8   4   8   8   4   8
#     4  11  23  42  68  95 129 175 218 267 331 402
#     4  10  24  42  60  96 130 168 212 274 326 391
#     4  11  24  41  65  95 133 178 229 277 336 397
#     4  10  23  40  69  94 128 165 214 269 330 396
#     4   9  19  37  68  97 120 161 213 266 315 390
#     4  11  23  39  64  97 132 173 225 283 330 393
#     4  12  27  42  65  96 134 173 216 271 336 393
#     4  10  19  38  67  91 120 165 215 261 326 386
#
# _framework density 20.874369000000002
#
# number of rings (size 3 to 8) (size 9 to 14) (size 15 to 20)
#    0.000    1.538    3.077    1.385    2.154    4.308 
#    0.000    0.000    0.000    0.000    0.000    0.000 
#    0.000    0.000    0.000    0.000    0.000    0.000 
#
# Total GULP energy -322404.342255 kJ/mol
# GULP energy per Si atom -12400.167010 kJ/mol
# Density = 2.082686 g / cm^3
# Si number density = 20.874369 Si / 1000 Ang^3
#
#
#
# Elastic Constant Matrix: (Units=GPa)
#
#
# Indices 1 2 3 4 5 6 
#
# 1 142.1629 30.2174 48.0898 0.0000 0.0000 0.0000
# 2 30.2174 70.6499 29.7124 0.0000 0.0000 0.0000
# 3 48.0898 29.7124 102.9200 0.0000 0.0000 0.0000
# 4 0.0000 0.0000 0.0000 23.2811 0.0000 0.0000
# 5 0.0000 0.0000 0.0000 0.0000 19.4007 0.0000
# 6 0.0000 0.0000 0.0000 0.0000 0.0000 22.8443
#
#
#
# Elastic Compliance Matrix: (Units=1/GPa)
#
#
# Indices 1 2 3 4 5 6 
#
# 1 0.008666 -0.002280 -0.003391 0.000000 0.000000 0.000000
# 2 -0.002280 0.016710 -0.003759 0.000000 0.000000 0.000000
# 3 -0.003391 -0.003759 0.012386 0.000000 0.000000 0.000000
# 4 0.000000 0.000000 0.000000 0.042953 0.000000 0.000000
# 5 0.000000 0.000000 0.000000 0.000000 0.051544 0.000000
# 6 0.000000 0.000000 0.000000 0.000000 0.000000 0.043775
#
#
# Mechanical properties :
#
#
# Convention : Reuss Voigt Hill
#
# Bulk Modulus (GPa) = 52.90377 59.08577 55.99477
# Shear Modulus (GPa) = 24.85149 26.95275 25.90212
#
# Velocity S-wave (km/s) = 3.45414 3.59721 3.52640
# Velocity P-wave (km/s) = 6.42706 6.75426 6.59269
#
# Compressibility (1/GPa) = 0.01890225
#
# Stress axis : x y z
#
# Youngs Moduli (GPa) = 115.39443 59.84296 80.73772
#
# Poissons Ratio (x) = 0.13647 0.27377
# Poissons Ratio (y) = 0.26315 0.30347
# Poissons Ratio (z) = 0.39129 0.22493
#
# Static dielectric constant tensor:
#      x y z
#    x 4.028820 0.000000 0.000000 
#    y 0.000000 3.490610 0.000000 
#    z 0.000000 0.000000 3.587960 
# 
# 
# High freq. dielectric constant tensor:
#      x y z
#    x 1.835530 0.000000 0.000000 
#    y 0.000000 1.800490 0.000000 
#    z 0.000000 0.000000 1.801360 
# 
# From -- ./inp_files/6930.got.cif
#   From: 2010.03.12/outbox.cif.g09.slc.cpg/sg36_4_cif.got.tgz:6930.got - 2010.04.14 02:13:53.
