data_PCOD8175365
_publ_section_title
;
Structure prediction by ZEFSAII (Michael W. Deem and Ramdas Pophale) SiO2 
 PCOD8175365
Probable space group: C M C 21
;
_chemical_formula_sum "Si O2"
_cell_formula_units_Z 64
_cell_length_a 8.854551
_cell_length_b 17.702168
_cell_length_c 20.510615
_cell_angle_alpha 90.000000
_cell_angle_beta 90.000000
_cell_angle_gamma 90.000000
_cell_volume 3214.931208
_symmetry_space_group_name_H-M "C M C 21"
_symmetry_group_IT_number 36
_symmetry_cell_setting 'orthorhombic'
loop_
_space_group_symop_operation_xyz
x,y,z
-x,-y,1/2+z
x,-y,1/2+z
-x,y,z
1/2+x,1/2+y,z
1/2-x,1/2-y,1/2+z
1/2+x,1/2-y,1/2+z
1/2-x,1/2+y,z
loop_
_atom_site_type_symbol
_atom_site_label
_atom_site_fract_x
_atom_site_fract_y
_atom_site_fract_z
Si Si1 0.320544 0.917885 0.722330
Si Si2 0.175311 0.338414 0.853482
Si Si3 0.178600 0.412725 0.222738
Si Si4 0.826376 0.162167 0.844802
Si Si5 0.821248 0.328796 0.094815
Si Si6 0.321698 0.833094 0.594816
Si Si7 0.825659 0.084899 0.978022
Si Si8 0.825494 0.090188 0.476710
O O1 0.500000 0.918440 0.720216
O O2 0.264153 0.882353 0.790058
O O3 0.259275 0.867442 0.662589
O O4 0.255088 0.002592 0.716035
O O5 0.201823 0.250717 0.840814
O O6 0.274834 0.362980 0.914168
O O7 0.000000 0.356215 0.867850
O O8 0.226368 0.377681 0.290777
O O9 0.240078 0.361735 0.163315
O O10 0.000000 0.416363 0.220039
O O11 0.774684 0.132270 0.915091
O O12 0.000000 0.141254 0.831643
O O13 0.752558 0.247242 0.081541
O O14 0.000000 0.321650 0.094235
O O15 0.772038 0.385967 0.038653
O O16 0.500000 0.822703 0.596572
O O17 0.278179 0.890497 0.537772
O O18 0.000000 0.101106 0.995447
O O19 0.796646 0.997531 0.962782
O O20 0.000000 0.107658 0.490916
#
# Coordination Sequence:
#
# PCOD8175365 Si02
#       8
#     8   8   8   8   8   8   8   8
#     4   9  19  36  57  84 115 147 188 234 282 339
#     4  10  20  36  59  83 113 153 190 232 290 346
#     4  10  21  37  58  83 112 148 190 235 281 337
#     4  10  21  37  57  82 114 151 187 231 290 344
#     4  11  23  39  58  82 115 152 190 237 293 343
#     4  11  22  38  62  88 114 148 192 237 282 342
#     4  10  22  39  57  83 120 155 189 234 287 341
#     4  11  23  38  58  85 115 150 196 242 281 334
#
# _framework density 19.907112999999999
#
# number of rings (size 3 to 8) (size 9 to 14) (size 15 to 20)
#    0.000    1.750    0.000    4.125    0.000    6.000 
#    0.000    2.500    0.000    0.000    0.000    0.000 
#    0.000    0.000    0.000    0.000    0.000    0.000 
#
# Total GULP energy -396978.545966 kJ/mol
# GULP energy per Si atom -12405.579561 kJ/mol
# Density = 1.986180 g / cm^3
# Si number density = 19.907113 Si / 1000 Ang^3
#
#
#
# Elastic Constant Matrix: (Units=GPa)
#
#
# Indices 1 2 3 4 5 6 
#
# 1 44.4146 25.5179 27.0539 0.0000 0.0000 0.0000
# 2 25.5179 85.6035 23.1253 0.0000 0.0000 0.0000
# 3 27.0539 23.1253 113.6990 0.0000 0.0000 0.0000
# 4 0.0000 0.0000 0.0000 40.5339 0.0000 0.0000
# 5 0.0000 0.0000 0.0000 0.0000 26.2667 0.0000
# 6 0.0000 0.0000 0.0000 0.0000 0.0000 20.1544
#
#
#
# Elastic Compliance Matrix: (Units=1/GPa)
#
#
# Indices 1 2 3 4 5 6 
#
# 1 0.030280 -0.007491 -0.005681 0.000000 0.000000 0.000000
# 2 -0.007491 0.014214 -0.001109 0.000000 0.000000 0.000000
# 3 -0.005681 -0.001109 0.010372 0.000000 0.000000 0.000000
# 4 0.000000 0.000000 0.000000 0.024671 0.000000 0.000000
# 5 0.000000 0.000000 0.000000 0.000000 0.038071 0.000000
# 6 0.000000 0.000000 0.000000 0.000000 0.000000 0.049617
#
#
# Mechanical properties :
#
#
# Convention : Reuss Voigt Hill
#
# Bulk Modulus (GPa) = 38.01671 43.90125 40.95898
# Shear Modulus (GPa) = 24.44321 28.59232 26.51777
#
# Velocity S-wave (km/s) = 3.50789 3.79395 3.65372
# Velocity P-wave (km/s) = 5.96201 6.42596 6.19833
#
# Compressibility (1/GPa) = 0.02630422
#
# Stress axis : x y z
#
# Youngs Moduli (GPa) = 33.02534 70.35119 96.40960
#
# Poissons Ratio (x) = 0.52704 0.54772
# Poissons Ratio (y) = 0.24741 0.10687
# Poissons Ratio (z) = 0.18762 0.07799
#
# Static dielectric constant tensor:
#      x y z
#    x 3.469980 0.000000 0.000000 
#    y 0.000000 3.814600 0.000000 
#    z 0.000000 0.000000 3.755000 
# 
# 
# High freq. dielectric constant tensor:
#      x y z
#    x 1.759130 0.000000 0.000000 
#    y 0.000000 1.794430 0.000000 
#    z 0.000000 0.000000 1.791740 
# 
# From -- ./inp_files/15734.got.cif
#   From: 2010.03.12/outbox.cif.g09.slc.cpg/sg36_8_cif.got.tgz:15734.got - 2010.04.14 02:13:53.
