data_PCOD8175888
_publ_section_title
;
Structure prediction by ZEFSAII (Michael W. Deem and Ramdas Pophale) SiO2 
 PCOD8175888
Probable space group: C M C 21
;
_chemical_formula_sum "Si O2"
_cell_formula_units_Z 64
_cell_length_a 8.926860
_cell_length_b 29.933694
_cell_length_c 11.866351
_cell_angle_alpha 90.000000
_cell_angle_beta 90.000000
_cell_angle_gamma 90.000000
_cell_volume 3170.853878
_symmetry_space_group_name_H-M "C M C 21"
_symmetry_group_IT_number 36
_symmetry_cell_setting 'orthorhombic'
loop_
_space_group_symop_operation_xyz
x,y,z
-x,-y,1/2+z
x,-y,1/2+z
-x,y,z
1/2+x,1/2+y,z
1/2-x,1/2-y,1/2+z
1/2+x,1/2-y,1/2+z
1/2-x,1/2+y,z
loop_
_atom_site_type_symbol
_atom_site_label
_atom_site_fract_x
_atom_site_fract_y
_atom_site_fract_z
Si Si1 0.168312 0.825416 0.040110
Si Si2 0.828938 0.444295 0.265656
Si Si3 0.832445 0.073077 0.539687
Si Si4 0.324956 0.872121 0.449862
Si Si5 0.177593 0.124192 0.191839
Si Si6 0.173360 0.195159 0.788269
Si Si7 0.327501 0.797494 0.828489
Si Si8 0.672718 0.954370 0.828330
O O1 0.168672 0.876122 0.996819
O O2 0.228701 0.823025 0.167546
O O3 0.000000 0.805394 0.034825
O O4 0.276352 0.797756 0.958614
O O5 0.721357 0.428065 0.167463
O O6 0.789339 0.416470 0.377583
O O7 0.799543 0.496288 0.283396
O O8 0.000000 0.435150 0.230346
O O9 0.724178 0.045191 0.458443
O O10 0.000000 0.053317 0.533113
O O11 0.500000 0.867539 0.476898
O O12 0.236266 0.876655 0.565197
O O13 0.272469 0.827829 0.384306
O O14 0.231741 0.168952 0.253146
O O15 0.231835 0.079796 0.254784
O O16 0.000000 0.124248 0.191388
O O17 0.199897 0.247898 0.784355
O O18 0.000000 0.183163 0.810777
O O19 0.500000 0.811843 0.820809
O O20 0.500000 0.940262 0.821657
#
# Coordination Sequence:
#
# PCOD8175888 Si02
#       8
#     8   8   8   8   8   8   8   8
#     4  10  21  40  64  90 126 164 204 261 314 364
#     4  10  24  43  65  93 125 165 210 257 311 374
#     4  11  22  39  66  95 125 162 206 259 317 371
#     4  11  24  43  66  93 126 167 211 256 313 376
#     4  12  26  44  64  91 128 168 210 261 319 374
#     4  10  23  43  64  93 129 165 208 258 312 369
#     4  11  24  41  65  95 125 166 213 257 312 374
#     4  11  24  43  66  92 126 167 212 261 314 372
#
# _framework density 20.183838000000002
#
# number of rings (size 3 to 8) (size 9 to 14) (size 15 to 20)
#    0.000    1.250    2.500    2.625    3.500    3.500 
#    0.000    0.000    0.000    0.000    0.000    0.000 
#    0.000    0.000    0.000    0.000    0.000    0.000 
#
# Total GULP energy -396980.492819 kJ/mol
# GULP energy per Si atom -12405.640401 kJ/mol
# Density = 2.013790 g / cm^3
# Si number density = 20.183838 Si / 1000 Ang^3
#
#
#
# Elastic Constant Matrix: (Units=GPa)
#
#
# Indices 1 2 3 4 5 6 
#
# 1 135.9610 56.6142 65.1766 0.0000 0.0000 0.0000
# 2 56.6142 89.8981 36.1914 0.0000 0.0000 0.0000
# 3 65.1766 36.1914 120.0814 0.0000 0.0000 0.0000
# 4 0.0000 0.0000 0.0000 26.0993 0.0000 0.0000
# 5 0.0000 0.0000 0.0000 0.0000 41.5148 0.0000
# 6 0.0000 0.0000 0.0000 0.0000 0.0000 25.9878
#
#
#
# Elastic Compliance Matrix: (Units=1/GPa)
#
#
# Indices 1 2 3 4 5 6 
#
# 1 0.012007 -0.005620 -0.004823 0.000000 0.000000 0.000000
# 2 -0.005620 0.015290 -0.001558 0.000000 0.000000 0.000000
# 3 -0.004823 -0.001558 0.011415 0.000000 0.000000 0.000000
# 4 0.000000 0.000000 0.000000 0.038315 0.000000 0.000000
# 5 0.000000 0.000000 0.000000 0.000000 0.024088 0.000000
# 6 0.000000 0.000000 0.000000 0.000000 0.000000 0.038480
#
#
# Mechanical properties :
#
#
# Convention : Reuss Voigt Hill
#
# Bulk Modulus (GPa) = 67.98064 73.54499 70.76282
# Shear Modulus (GPa) = 29.67327 31.25092 30.46209
#
# Velocity S-wave (km/s) = 3.83841 3.93913 3.88910
# Velocity P-wave (km/s) = 7.30742 7.56344 7.43653
#
# Compressibility (1/GPa) = 0.01471007
#
# Stress axis : x y z
#
# Youngs Moduli (GPa) = 83.28142 65.40163 87.60181
#
# Poissons Ratio (x) = 0.36756 0.42255
# Poissons Ratio (y) = 0.46804 0.13648
# Poissons Ratio (z) = 0.40171 0.10189
#
# Static dielectric constant tensor:
#      x y z
#    x 3.780060 0.000000 0.000000 
#    y 0.000000 3.629690 0.000000 
#    z 0.000000 0.000000 3.711340 
# 
# 
# High freq. dielectric constant tensor:
#      x y z
#    x 1.794450 0.000000 0.000000 
#    y 0.000000 1.790920 0.000000 
#    z 0.000000 0.000000 1.799750 
# 
# From -- ./inp_files/7110.got.cif
#   From: 2010.03.12/outbox.cif.g09.slc.cpg/sg36_4_cif.got.tgz:7110.got - 2010.04.14 02:13:53.
