data_PCOD8175344
_publ_section_title
;
Structure prediction by ZEFSAII (Michael W. Deem and Ramdas Pophale) SiO2 
 PCOD8175344
Probable space group: C M C 21
;
_chemical_formula_sum "Si O2"
_cell_formula_units_Z 64
_cell_length_a 8.501628
_cell_length_b 24.704902
_cell_length_c 14.503632
_cell_angle_alpha 90.000000
_cell_angle_beta 90.000000
_cell_angle_gamma 90.000000
_cell_volume 3046.225191
_symmetry_space_group_name_H-M "C M C 21"
_symmetry_group_IT_number 36
_symmetry_cell_setting 'orthorhombic'
loop_
_space_group_symop_operation_xyz
x,y,z
-x,-y,1/2+z
x,-y,1/2+z
-x,y,z
1/2+x,1/2+y,z
1/2-x,1/2-y,1/2+z
1/2+x,1/2-y,1/2+z
1/2-x,1/2+y,z
loop_
_atom_site_type_symbol
_atom_site_label
_atom_site_fract_x
_atom_site_fract_y
_atom_site_fract_z
Si Si1 0.822497 0.772513 0.773830
Si Si2 0.323413 0.132574 0.184357
Si Si3 0.679650 0.152329 0.802263
Si Si4 0.683463 0.815794 0.503149
Si Si5 0.318173 0.452998 0.811710
Si Si6 0.317461 0.553765 0.701533
Si Si7 0.316317 0.792661 0.969749
Si Si8 0.187922 0.092282 0.506013
O O1 0.695461 0.805215 0.715142
O O2 0.804397 0.709356 0.749640
O O3 0.790639 0.784416 0.880438
O O4 0.000000 0.791836 0.752104
O O5 0.500000 0.112306 0.204623
O O6 0.202273 0.096029 0.240211
O O7 0.286583 0.135210 0.075439
O O8 0.500000 0.131458 0.800116
O O9 0.741250 0.159703 0.906375
O O10 0.790886 0.110278 0.751742
O O11 0.500000 0.800087 0.498400
O O12 0.780784 0.761225 0.530895
O O13 0.500000 0.464345 0.827883
O O14 0.237612 0.505622 0.762811
O O15 0.247286 0.437308 0.912505
O O16 0.500000 0.540798 0.696457
O O17 0.255877 0.557238 0.595376
O O18 0.500000 0.795839 0.945621
O O19 0.264735 0.848474 0.018148
O O20 0.000000 0.098689 0.503254
#
# Coordination Sequence:
#
# PCOD8175344 Si02
#       8
#     8   8   8   8   8   8   8   8
#     4  10  20  36  57  83 121 161 193 240 308 358
#     4  11  22  36  59  90 119 155 204 249 294 357
#     4   9  20  39  59  82 118 159 194 240 305 360
#     4   9  21  39  57  84 125 165 196 241 311 362
#     4  10  22  41  62  84 118 162 202 245 302 361
#     4  10  23  40  61  89 116 155 208 251 298 358
#     4  11  21  34  57  89 119 153 206 248 289 357
#     4  10  21  39  60  83 118 158 193 246 311 355
#
# _framework density 21.009609999999999
#
# number of rings (size 3 to 8) (size 9 to 14) (size 15 to 20)
#    0.000    2.000    1.250    2.625    1.750    5.500 
#    0.000    1.250    0.000    0.000    0.000    0.000 
#    0.000    0.000    0.000    0.000    0.000    0.000 
#
# Total GULP energy -396660.243625 kJ/mol
# GULP energy per Si atom -12395.632613 kJ/mol
# Density = 2.096179 g / cm^3
# Si number density = 21.009610 Si / 1000 Ang^3
#
#
#
# Elastic Constant Matrix: (Units=GPa)
#
#
# Indices 1 2 3 4 5 6 
#
# 1 29.8296 17.6854 13.4698 0.0000 0.0000 0.0000
# 2 17.6854 107.6496 64.4853 0.0000 0.0000 0.0000
# 3 13.4698 64.4853 111.6325 0.0000 0.0000 0.0000
# 4 0.0000 0.0000 0.0000 29.7350 0.0000 0.0000
# 5 0.0000 0.0000 0.0000 0.0000 22.8656 0.0000
# 6 0.0000 0.0000 0.0000 0.0000 0.0000 25.2829
#
#
#
# Elastic Compliance Matrix: (Units=1/GPa)
#
#
# Indices 1 2 3 4 5 6 
#
# 1 0.037298 -0.005248 -0.001469 0.000000 0.000000 0.000000
# 2 -0.005248 0.014943 -0.007999 0.000000 0.000000 0.000000
# 3 -0.001469 -0.007999 0.013756 0.000000 0.000000 0.000000
# 4 0.000000 0.000000 0.000000 0.033630 0.000000 0.000000
# 5 0.000000 0.000000 0.000000 0.000000 0.043734 0.000000
# 6 0.000000 0.000000 0.000000 0.000000 0.000000 0.039552
#
#
# Mechanical properties :
#
#
# Convention : Reuss Voigt Hill
#
# Bulk Modulus (GPa) = 27.34770 48.93254 38.14012
# Shear Modulus (GPa) = 22.26839 25.80811 24.03825
#
# Velocity S-wave (km/s) = 3.25917 3.50865 3.38621
# Velocity P-wave (km/s) = 5.21612 6.30518 5.78633
#
# Compressibility (1/GPa) = 0.03656614
#
# Stress axis : x y z
#
# Youngs Moduli (GPa) = 26.81081 66.92110 72.69676
#
# Poissons Ratio (x) = 0.35117 0.10681
# Poissons Ratio (y) = 0.14069 0.58148
# Poissons Ratio (z) = 0.03939 0.53528
#
# Static dielectric constant tensor:
#      x y z
#    x 3.487190 0.000000 0.000000 
#    y 0.000000 3.862040 0.000000 
#    z 0.000000 0.000000 4.090070 
# 
# 
# High freq. dielectric constant tensor:
#      x y z
#    x 1.802030 0.000000 0.000000 
#    y 0.000000 1.813690 0.000000 
#    z 0.000000 0.000000 1.829910 
# 
# From -- ./inp_files/10889.got.cif
#   From: 2010.03.12/outbox.cif.g09.slc.cpg/sg36_6_cif.got.tgz:10889.got - 2010.04.14 02:13:53.
