data_PCOD8175683
_publ_section_title
;
Structure prediction by ZEFSAII (Michael W. Deem and Ramdas Pophale) SiO2 
 PCOD8175683
Probable space group: C M C 21
;
_chemical_formula_sum "Si O2"
_cell_formula_units_Z 64
_cell_length_a 27.767045
_cell_length_b 11.442272
_cell_length_c 9.076936
_cell_angle_alpha 90.000000
_cell_angle_beta 90.000000
_cell_angle_gamma 90.000000
_cell_volume 2883.906692
_symmetry_space_group_name_H-M "C M C 21"
_symmetry_group_IT_number 36
_symmetry_cell_setting 'orthorhombic'
loop_
_space_group_symop_operation_xyz
x,y,z
-x,-y,1/2+z
x,-y,1/2+z
-x,y,z
1/2+x,1/2+y,z
1/2-x,1/2-y,1/2+z
1/2+x,1/2-y,1/2+z
1/2-x,1/2+y,z
loop_
_atom_site_type_symbol
_atom_site_label
_atom_site_fract_x
_atom_site_fract_y
_atom_site_fract_z
Si Si1 0.716369 0.998311 0.632900
Si Si2 0.909182 0.504369 0.131176
Si Si3 0.947463 0.906763 0.486835
Si Si4 0.058168 0.129839 0.311809
Si Si5 0.372180 0.161705 0.878790
Si Si6 0.927698 0.663691 0.384572
Si Si7 0.680218 0.152733 0.383209
Si Si8 0.761725 0.657816 0.880420
O O1 0.682547 0.075301 0.528857
O O2 0.750065 0.078365 0.737135
O O3 0.680901 0.926064 0.738073
O O4 0.748924 0.914918 0.529945
O O5 0.878306 0.421319 0.238219
O O6 0.941021 0.591199 0.235915
O O7 0.876398 0.585132 0.026280
O O8 0.940952 0.419443 0.025033
O O9 0.922328 0.881538 0.643697
O O10 0.954678 0.787148 0.392967
O O11 0.000000 0.955341 0.526586
O O12 0.923747 0.011404 0.393029
O O13 0.087885 0.236211 0.383641
O O14 0.000000 0.152738 0.320845
O O15 0.316728 0.207050 0.875489
O O16 0.872247 0.709062 0.386484
O O17 0.724856 0.238061 0.378287
#
# Coordination Sequence:
#
# PCOD8175683 Si02
#       8
#     8   8   8   8   8   8   8   8
#     4  10  21  38  56  77 117 158 193 227 300 356
#     4  10  21  36  65  87 120 156 190 243 307 364
#     4  10  23  44  65  86 119 161 199 242 297 356
#     4  10  23  44  65  86 119 161 199 242 297 356
#     4  11  20  39  61  90 117 156 201 243 301 358
#     4  11  20  39  61  90 117 156 201 243 301 358
#     4  11  21  36  57  84 113 156 193 241 290 346
#     4  11  21  36  57  84 113 156 193 241 290 346
#
# _framework density 22.192119999999999
#
# number of rings (size 3 to 8) (size 9 to 14) (size 15 to 20)
#    0.000    1.500    1.250    6.750    1.750    0.000 
#    4.500    3.750    0.000    0.000    0.000    0.000 
#    0.000    0.000    0.000    0.000    0.000    0.000 
#
# Total GULP energy -396523.646063 kJ/mol
# GULP energy per Si atom -12391.363939 kJ/mol
# Density = 2.214161 g / cm^3
# Si number density = 22.192120 Si / 1000 Ang^3
#
#
#
# Elastic Constant Matrix: (Units=GPa)
#
#
# Indices 1 2 3 4 5 6 
#
# 1 77.3351 49.5433 23.8660 0.0000 0.0000 0.0000
# 2 49.5433 146.1585 57.9838 0.0000 0.0000 0.0000
# 3 23.8660 57.9838 153.7969 0.0000 0.0000 0.0000
# 4 0.0000 0.0000 0.0000 83.8943 0.0000 0.0000
# 5 0.0000 0.0000 0.0000 0.0000 14.8999 0.0000
# 6 0.0000 0.0000 0.0000 0.0000 0.0000 27.8137
#
#
#
# Elastic Compliance Matrix: (Units=1/GPa)
#
#
# Indices 1 2 3 4 5 6 
#
# 1 0.016555 -0.005400 -0.000533 0.000000 0.000000 0.000000
# 2 -0.005400 0.009807 -0.002859 0.000000 0.000000 0.000000
# 3 -0.000533 -0.002859 0.007663 0.000000 0.000000 0.000000
# 4 0.000000 0.000000 0.000000 0.011920 0.000000 0.000000
# 5 0.000000 0.000000 0.000000 0.000000 0.067114 0.000000
# 6 0.000000 0.000000 0.000000 0.000000 0.000000 0.035954
#
#
# Mechanical properties :
#
#
# Convention : Reuss Voigt Hill
#
# Bulk Modulus (GPa) = 60.82953 71.11963 65.97458
# Shear Modulus (GPa) = 29.05685 41.71475 35.38580
#
# Velocity S-wave (km/s) = 3.62239 4.34027 3.99748
# Velocity P-wave (km/s) = 6.70564 7.56532 7.14841
#
# Compressibility (1/GPa) = 0.01643938
#
# Stress axis : x y z
#
# Youngs Moduli (GPa) = 60.40581 101.97132 130.50069
#
# Poissons Ratio (x) = 0.55065 0.06956
# Poissons Ratio (y) = 0.32620 0.37314
# Poissons Ratio (z) = 0.03220 0.29157
#
# Static dielectric constant tensor:
#      x y z
#    x 3.472060 0.000000 0.000000 
#    y 0.000000 4.052280 0.000000 
#    z 0.000000 0.000000 4.596720 
# 
# 
# High freq. dielectric constant tensor:
#      x y z
#    x 1.839410 0.000000 0.000000 
#    y 0.000000 1.871300 0.000000 
#    z 0.000000 0.000000 1.901350 
# 
# From -- ./inp_files/6094.got.cif
#   From: 2010.03.12/outbox.cif.g09.slc.cpg/sg36_4_cif.got.tgz:6094.got - 2010.04.14 02:13:53.
