data_PCOD8175914
_publ_section_title
;
Structure prediction by ZEFSAII (Michael W. Deem and Ramdas Pophale) SiO2 
 PCOD8175914
Probable space group: C M C 21
;
_chemical_formula_sum "Si O2"
_cell_formula_units_Z 48
_cell_length_a 8.303549
_cell_length_b 27.329810
_cell_length_c 9.986865
_cell_angle_alpha 90.000000
_cell_angle_beta 90.000000
_cell_angle_gamma 90.000000
_cell_volume 2266.363381
_symmetry_space_group_name_H-M "C M C 21"
_symmetry_group_IT_number 36
_symmetry_cell_setting 'orthorhombic'
loop_
_space_group_symop_operation_xyz
x,y,z
-x,-y,1/2+z
x,-y,1/2+z
-x,y,z
1/2+x,1/2+y,z
1/2-x,1/2-y,1/2+z
1/2+x,1/2-y,1/2+z
1/2-x,1/2+y,z
loop_
_atom_site_type_symbol
_atom_site_label
_atom_site_fract_x
_atom_site_fract_y
_atom_site_fract_z
Si Si1 0.811836 0.956965 0.918230
Si Si2 0.813045 0.644532 0.514961
Si Si3 0.809264 0.288042 0.774739
Si Si4 0.186368 0.178507 0.785953
Si Si5 0.688054 0.138572 0.055678
Si Si6 0.809549 0.468441 0.632141
O O1 0.718971 0.906611 0.943679
O O2 0.737187 0.980669 0.784605
O O3 0.000000 0.946667 0.900533
O O4 0.783485 0.993367 0.040284
O O5 0.758860 0.687746 0.415136
O O6 0.709290 0.648737 0.649339
O O7 0.000000 0.648830 0.551869
O O8 0.739374 0.233053 0.770198
O O9 0.734761 0.319734 0.652073
O O10 0.000000 0.286381 0.759361
O O11 0.278257 0.149883 0.901820
O O12 0.000000 0.180675 0.824576
O O13 0.500000 0.136969 0.083144
O O14 0.757014 0.085424 0.094176
O O15 0.000000 0.474028 0.610396
#
# Coordination Sequence:
#
# PCOD8175914 Si02
#       6
#     8   8   8   8   8   8
#     4  12  26  44  67  98 131 161 205 268 324 370
#     4  11  22  42  66  90 125 171 216 255 309 383
#     4   9  19  39  64  90 123 163 212 263 310 370
#     4  11  23  37  59  95 132 164 206 263 318 365
#     4  10  21  41  65  89 122 166 212 254 304 375
#     4  11  24  45  71  94 123 169 215 255 313 387
#
# _framework density 21.179307000000001
#
# number of rings (size 3 to 8) (size 9 to 14) (size 15 to 20)
#    0.000    1.333    1.667    4.000    2.333    1.333 
#    0.000    3.333    0.000    0.000    0.000    0.000 
#    0.000    0.000    0.000    0.000    0.000    0.000 
#
# Total GULP energy -297742.419242 kJ/mol
# GULP energy per Si atom -12405.934135 kJ/mol
# Density = 2.113110 g / cm^3
# Si number density = 21.179307 Si / 1000 Ang^3
#
#
#
# Elastic Constant Matrix: (Units=GPa)
#
#
# Indices 1 2 3 4 5 6 
#
# 1 36.4397 14.3234 4.1289 0.0000 0.0000 0.0000
# 2 14.3234 83.0788 26.3449 0.0000 0.0000 0.0000
# 3 4.1289 26.3449 118.0144 0.0000 0.0000 0.0000
# 4 0.0000 0.0000 0.0000 43.4952 0.0000 0.0000
# 5 0.0000 0.0000 0.0000 0.0000 23.9808 0.0000
# 6 0.0000 0.0000 0.0000 0.0000 0.0000 21.5224
#
#
#
# Elastic Compliance Matrix: (Units=1/GPa)
#
#
# Indices 1 2 3 4 5 6 
#
# 1 0.029439 -0.005111 0.000111 0.000000 0.000000 0.000000
# 2 -0.005111 0.013841 -0.002911 0.000000 0.000000 0.000000
# 3 0.000111 -0.002911 0.009119 0.000000 0.000000 0.000000
# 4 0.000000 0.000000 0.000000 0.022991 0.000000 0.000000
# 5 0.000000 0.000000 0.000000 0.000000 0.041700 0.000000
# 6 0.000000 0.000000 0.000000 0.000000 0.000000 0.046463
#
#
# Mechanical properties :
#
#
# Convention : Reuss Voigt Hill
#
# Bulk Modulus (GPa) = 27.33890 36.34747 31.84319
# Shear Modulus (GPa) = 26.10046 30.64874 28.37460
#
# Velocity S-wave (km/s) = 3.51430 3.80821 3.66421
# Velocity P-wave (km/s) = 5.42249 6.04448 5.74191
#
# Compressibility (1/GPa) = 0.03657791
#
# Stress axis : x y z
#
# Youngs Moduli (GPa) = 33.96872 72.24933 109.65526
#
# Poissons Ratio (x) = 0.36924 -0.01216
# Poissons Ratio (y) = 0.17360 0.31920
# Poissons Ratio (z) = -0.00377 0.21032
#
# Static dielectric constant tensor:
#      x y z
#    x 3.547710 0.000000 0.000000 
#    y 0.000000 4.072590 0.000000 
#    z 0.000000 0.000000 3.813210 
# 
# 
# High freq. dielectric constant tensor:
#      x y z
#    x 1.812110 0.000000 0.000000 
#    y 0.000000 1.839090 0.000000 
#    z 0.000000 0.000000 1.844160 
# 
# From -- ./inp_files/2678.got.cif
#   From: 2010.03.12/outbox.cif.g09.slc.cpg/sg36_2_cif.got.tgz:2678.got - 2010.04.14 02:13:53.
