data_PCOD8175467
_publ_section_title
;
Structure prediction by ZEFSAII (Michael W. Deem and Ramdas Pophale) SiO2 
 PCOD8175467
Probable space group: C M C 21
;
_chemical_formula_sum "Si O2"
_cell_formula_units_Z 64
_cell_length_a 15.471518
_cell_length_b 9.693382
_cell_length_c 21.288871
_cell_angle_alpha 90.000000
_cell_angle_beta 90.000000
_cell_angle_gamma 90.000000
_cell_volume 3192.720385
_symmetry_space_group_name_H-M "C M C 21"
_symmetry_group_IT_number 36
_symmetry_cell_setting 'orthorhombic'
loop_
_space_group_symop_operation_xyz
x,y,z
-x,-y,1/2+z
x,-y,1/2+z
-x,y,z
1/2+x,1/2+y,z
1/2-x,1/2-y,1/2+z
1/2+x,1/2-y,1/2+z
1/2-x,1/2+y,z
loop_
_atom_site_type_symbol
_atom_site_label
_atom_site_fract_x
_atom_site_fract_y
_atom_site_fract_z
Si Si1 0.600761 0.549913 0.672050
Si Si2 0.865691 0.977514 0.534011
Si Si3 0.900439 0.265026 0.202386
Si Si4 0.595589 0.706049 0.436101
Si Si5 0.241117 0.910199 0.851367
Si Si6 0.772617 0.167747 0.767952
Si Si7 0.186796 0.525806 0.975240
Si Si8 0.906961 0.319622 0.061953
O O1 0.500000 0.596070 0.672581
O O2 0.638407 0.551871 0.601559
O O3 0.610773 0.399787 0.703297
O O4 0.660173 0.658720 0.710106
O O5 0.908894 0.081556 0.485307
O O6 0.774977 0.924323 0.506662
O O7 0.920331 0.838403 0.540350
O O8 0.828963 0.332011 0.248147
O O9 0.876637 0.323821 0.133960
O O10 0.000000 0.303503 0.221240
O O11 0.500000 0.728161 0.407956
O O12 0.659181 0.673255 0.378737
O O13 0.623559 0.844251 0.472713
O O14 0.293903 0.807952 0.805701
O O15 0.303735 0.961364 0.906277
O O16 0.207365 0.040844 0.813372
O O17 0.157896 0.402032 0.019249
O O18 0.000000 0.391758 0.055798
#
# Coordination Sequence:
#
# PCOD8175467 Si02
#       8
#     8   8   8   8   8   8   8   8
#     4  10  21  39  64  92 123 161 205 250 307 373
#     4  10  20  38  63  91 121 154 197 244 301 369
#     4   9  20  39  64  90 119 159 199 243 309 376
#     4  11  23  40  62  89 123 160 202 252 309 369
#     4  11  25  41  60  86 118 158 210 249 302 357
#     4  12  22  43  63  87 120 160 210 257 298 362
#     4  11  22  39  60  88 121 159 193 249 308 362
#     4  10  20  37  61  91 119 147 193 244 296 358
#
# _framework density 20.045601000000001
#
# number of rings (size 3 to 8) (size 9 to 14) (size 15 to 20)
#    0.000    1.500    2.500    4.500    1.750    2.000 
#    2.250    1.875    0.000    0.000    0.000    0.000 
#    0.000    0.000    0.000    0.000    0.000    0.000 
#
# Total GULP energy -396761.496084 kJ/mol
# GULP energy per Si atom -12398.796753 kJ/mol
# Density = 1.999998 g / cm^3
# Si number density = 20.045601 Si / 1000 Ang^3
#
#
#
# Elastic Constant Matrix: (Units=GPa)
#
#
# Indices 1 2 3 4 5 6 
#
# 1 81.8037 18.1351 23.7929 0.0000 0.0000 0.0000
# 2 18.1351 60.4212 17.8672 0.0000 0.0000 0.0000
# 3 23.7929 17.8672 72.1660 0.0000 0.0000 0.0000
# 4 0.0000 0.0000 0.0000 35.6180 0.0000 0.0000
# 5 0.0000 0.0000 0.0000 0.0000 -2.0057 0.0000
# 6 0.0000 0.0000 0.0000 0.0000 0.0000 7.1022
#
#
#
# Elastic Compliance Matrix: (Units=1/GPa)
#
#
# Indices 1 2 3 4 5 6 
#
# 1 0.014029 -0.003068 -0.003866 0.000000 0.000000 0.000000
# 2 -0.003068 0.018529 -0.003576 0.000000 0.000000 0.000000
# 3 -0.003866 -0.003576 0.016017 0.000000 0.000000 0.000000
# 4 0.000000 0.000000 0.000000 0.028076 0.000000 0.000000
# 5 0.000000 0.000000 0.000000 0.000000 -0.498588 0.000000
# 6 0.000000 0.000000 0.000000 0.000000 0.000000 0.140801
#
#
# Mechanical properties :
#
#
# Convention : Reuss Voigt Hill
#
# Bulk Modulus (GPa) = 36.29028 37.10904 36.69966
# Shear Modulus (GPa) = -19.92558 18.44931 -0.73814
#
# Velocity S-wave (km/s) = -3.15622 3.03705 -0.60748
# Velocity P-wave (km/s) = 2.20474 5.55434 4.22561
#
# Compressibility (1/GPa) = 0.02755559
#
# Stress axis : x y z
#
# Youngs Moduli (GPa) = 71.28192 53.97045 62.43425
#
# Poissons Ratio (x) = 0.16556 0.24136
# Poissons Ratio (y) = 0.21866 0.22327
# Poissons Ratio (z) = 0.27556 0.19300
#
# Static dielectric constant tensor:
#      x y z
#    x 4.038420 0.000000 0.000000 
#    y 0.000000 3.507730 0.000000 
#    z 0.000000 0.000000 3.743340 
# 
# 
# High freq. dielectric constant tensor:
#      x y z
#    x 1.780050 0.000000 0.000000 
#    y 0.000000 1.774550 0.000000 
#    z 0.000000 0.000000 1.789960 
# 
# From -- ./inp_files/16968.got.cif
#   From: 2010.03.12/outbox.cif.g09.slc.cpg/sg36_9_cif.got.tgz:16968.got - 2010.04.14 02:13:53.
