data_PCOD8175747
_publ_section_title
;
Structure prediction by ZEFSAII (Michael W. Deem and Ramdas Pophale) SiO2 
 PCOD8175747
Probable space group: C M C 21
;
_chemical_formula_sum "Si O2"
_cell_formula_units_Z 48
_cell_length_a 24.931244
_cell_length_b 9.327928
_cell_length_c 8.751159
_cell_angle_alpha 90.000000
_cell_angle_beta 90.000000
_cell_angle_gamma 90.000000
_cell_volume 2035.141962
_symmetry_space_group_name_H-M "C M C 21"
_symmetry_group_IT_number 36
_symmetry_cell_setting 'orthorhombic'
loop_
_space_group_symop_operation_xyz
x,y,z
-x,-y,1/2+z
x,-y,1/2+z
-x,y,z
1/2+x,1/2+y,z
1/2-x,1/2-y,1/2+z
1/2+x,1/2-y,1/2+z
1/2-x,1/2+y,z
loop_
_atom_site_type_symbol
_atom_site_label
_atom_site_fract_x
_atom_site_fract_y
_atom_site_fract_z
Si Si1 0.381278 0.460819 0.111610
Si Si2 0.716273 0.176601 0.790103
Si Si3 0.260609 0.555001 0.100504
Si Si4 0.898873 0.205930 0.317026
Si Si5 0.059518 0.460684 0.459162
Si Si6 0.064976 0.297526 0.749767
O O1 0.403135 0.619928 0.157353
O O2 0.402118 0.350715 0.243582
O O3 0.317107 0.469341 0.103959
O O4 0.406272 0.412517 0.951098
O O5 0.742357 0.322107 0.728040
O O6 0.750448 0.116592 0.932380
O O7 0.656503 0.209188 0.842955
O O8 0.716199 0.060670 0.652339
O O9 0.941975 0.333908 0.328834
O O10 0.087348 0.394364 0.608258
O O11 0.084207 0.610679 0.397503
O O12 0.000000 0.501124 0.504539
O O13 0.000000 0.273341 0.741761
#
# Coordination Sequence:
#
# PCOD8175747 Si02
#       6
#     8   8   8   8   8   8
#     4  10  21  38  57  81 113 148 188 233 281 337
#     4  11  23  38  59  84 114 151 191 237 287 342
#     4  11  22  40  60  84 116 152 194 238 287 343
#     4  10  22  37  56  82 111 148 189 233 284 338
#     4   9  19  36  57  84 115 145 184 232 280 334
#     4   9  19  37  59  83 113 148 186 231 281 334
#
# _framework density 23.585578999999999
#
# number of rings (size 3 to 8) (size 9 to 14) (size 15 to 20)
#    0.000    2.000    0.000    4.000    0.000    6.000 
#    0.000    1.667    0.000    0.000    0.000    0.000 
#    0.000    0.000    0.000    0.000    0.000    0.000 
#
# Total GULP energy -297385.736473 kJ/mol
# GULP energy per Si atom -12391.072353 kJ/mol
# Density = 2.353190 g / cm^3
# Si number density = 23.585579 Si / 1000 Ang^3
#
#
#
# Elastic Constant Matrix: (Units=GPa)
#
#
# Indices 1 2 3 4 5 6 
#
# 1 35.0121 32.6680 15.4522 0.0000 0.0000 0.0000
# 2 32.6680 97.4533 20.9284 0.0000 0.0000 0.0000
# 3 15.4522 20.9284 38.5576 0.0000 0.0000 0.0000
# 4 0.0000 0.0000 0.0000 56.9200 0.0000 0.0000
# 5 0.0000 0.0000 0.0000 0.0000 19.0370 0.0000
# 6 0.0000 0.0000 0.0000 0.0000 0.0000 43.9135
#
#
#
# Elastic Compliance Matrix: (Units=1/GPa)
#
#
# Indices 1 2 3 4 5 6 
#
# 1 0.045513 -0.012836 -0.011273 0.000000 0.000000 0.000000
# 2 -0.012836 0.015235 -0.003125 0.000000 0.000000 0.000000
# 3 -0.011273 -0.003125 0.032149 0.000000 0.000000 0.000000
# 4 0.000000 0.000000 0.000000 0.017569 0.000000 0.000000
# 5 0.000000 0.000000 0.000000 0.000000 0.052529 0.000000
# 6 0.000000 0.000000 0.000000 0.000000 0.000000 0.022772
#
#
# Mechanical properties :
#
#
# Convention : Reuss Voigt Hill
#
# Bulk Modulus (GPa) = 26.02144 34.34672 30.18408
# Shear Modulus (GPa) = 19.75930 30.77238 25.26584
#
# Velocity S-wave (km/s) = 2.89757 3.61600 3.27653
# Velocity P-wave (km/s) = 4.71712 5.65934 5.20958
#
# Compressibility (1/GPa) = 0.03842985
#
# Stress axis : x y z
#
# Youngs Moduli (GPa) = 21.97166 65.63680 31.10495
#
# Poissons Ratio (x) = 0.84251 0.35063
# Poissons Ratio (y) = 0.28203 0.09722
# Poissons Ratio (z) = 0.24768 0.20514
#
# Static dielectric constant tensor:
#      x y z
#    x 3.877020 0.000000 0.000000 
#    y 0.000000 4.556390 0.000000 
#    z 0.000000 0.000000 4.208060 
# 
# 
# High freq. dielectric constant tensor:
#      x y z
#    x 1.899610 0.000000 0.000000 
#    y 0.000000 1.953750 0.000000 
#    z 0.000000 0.000000 1.930820 
# 
# From -- ./inp_files/5972.got.cif
#   From: 2010.03.12/outbox.cif.g09.slc.cpg/sg36_3_cif.got.tgz:5972.got - 2010.04.14 02:13:53.
