data_PCOD8175341
_publ_section_title
;
Structure prediction by ZEFSAII (Michael W. Deem and Ramdas Pophale) SiO2 
 PCOD8175341
Probable space group: C M C 21
;
_chemical_formula_sum "Si O2"
_cell_formula_units_Z 64
_cell_length_a 8.874903
_cell_length_b 24.567774
_cell_length_c 15.141365
_cell_angle_alpha 90.000000
_cell_angle_beta 90.000000
_cell_angle_gamma 90.000000
_cell_volume 3301.371913
_symmetry_space_group_name_H-M "C M C 21"
_symmetry_group_IT_number 36
_symmetry_cell_setting 'orthorhombic'
loop_
_space_group_symop_operation_xyz
x,y,z
-x,-y,1/2+z
x,-y,1/2+z
-x,y,z
1/2+x,1/2+y,z
1/2-x,1/2-y,1/2+z
1/2+x,1/2-y,1/2+z
1/2-x,1/2+y,z
loop_
_atom_site_type_symbol
_atom_site_label
_atom_site_fract_x
_atom_site_fract_y
_atom_site_fract_z
Si Si1 0.170756 0.250184 0.210780
Si Si2 0.326998 0.133002 0.731383
Si Si3 0.827390 0.868939 0.727902
Si Si4 0.678151 0.136150 0.530269
Si Si5 0.176724 0.635364 0.040091
Si Si6 0.673780 0.254825 0.032349
Si Si7 0.820510 0.443192 0.383416
Si Si8 0.679139 0.560653 0.389363
O O1 0.193026 0.304881 0.269318
O O2 0.190062 0.193609 0.263593
O O3 0.298248 0.251992 0.136799
O O4 0.000000 0.252545 0.169176
O O5 0.500000 0.116849 0.727539
O O6 0.263275 0.129259 0.631477
O O7 0.253659 0.090516 0.799621
O O8 0.750243 0.878122 0.633968
O O9 0.757951 0.907801 0.802915
O O10 0.000000 0.884279 0.713502
O O11 0.500000 0.131724 0.522418
O O12 0.729735 0.195234 0.492027
O O13 0.753374 0.087721 0.476497
O O14 0.223625 0.694513 0.998860
O O15 0.000000 0.635966 0.056846
O O16 0.225263 0.589113 0.971617
O O17 0.500000 0.266926 0.011227
O O18 0.734794 0.499520 0.384117
O O19 0.000000 0.451776 0.378756
O O20 0.500000 0.563272 0.394663
#
# Coordination Sequence:
#
# PCOD8175341 Si02
#       8
#     8   8   8   8   8   8   8   8
#     4   8  14  29  53  79 104 135 174 214 259 322
#     4   8  16  32  56  80 102 131 172 215 258 310
#     4   9  19  35  56  79 107 140 174 217 275 328
#     4  10  20  36  57  81 108 143 181 218 263 321
#     4   9  19  34  56  83 110 141 179 218 263 317
#     4   9  16  29  51  82 114 139 168 215 266 316
#     4  10  21  38  56  76 103 141 185 225 262 313
#     4  11  24  39  53  76 106 140 183 230 274 317
#
# _framework density 19.385881000000001
#
# number of rings (size 3 to 8) (size 9 to 14) (size 15 to 20)
#    0.000    2.750    0.000    1.875    0.000    4.000 
#    0.000   10.625    0.000    0.000    0.000    0.000 
#    0.000    0.000    0.000    0.000    0.000    0.000 
#
# Total GULP energy -396494.580664 kJ/mol
# GULP energy per Si atom -12390.455646 kJ/mol
# Density = 1.934176 g / cm^3
# Si number density = 19.385881 Si / 1000 Ang^3
#
#
#
# Elastic Constant Matrix: (Units=GPa)
#
#
# Indices 1 2 3 4 5 6 
#
# 1 48.5066 45.5754 34.2289 0.0000 0.0000 0.0000
# 2 45.5754 176.7766 79.2231 0.0000 0.0000 0.0000
# 3 34.2289 79.2231 104.7983 0.0000 0.0000 0.0000
# 4 0.0000 0.0000 0.0000 35.7206 0.0000 0.0000
# 5 0.0000 0.0000 0.0000 0.0000 21.4953 0.0000
# 6 0.0000 0.0000 0.0000 0.0000 0.0000 33.3405
#
#
#
# Elastic Compliance Matrix: (Units=1/GPa)
#
#
# Indices 1 2 3 4 5 6 
#
# 1 0.029406 -0.004956 -0.005858 0.000000 0.000000 0.000000
# 2 -0.004956 0.009391 -0.005480 0.000000 0.000000 0.000000
# 3 -0.005858 -0.005480 0.015598 0.000000 0.000000 0.000000
# 4 0.000000 0.000000 0.000000 0.027995 0.000000 0.000000
# 5 0.000000 0.000000 0.000000 0.000000 0.046522 0.000000
# 6 0.000000 0.000000 0.000000 0.000000 0.000000 0.029994
#
#
# Mechanical properties :
#
#
# Convention : Reuss Voigt Hill
#
# Bulk Modulus (GPa) = 45.85790 72.01518 58.93654
# Shear Modulus (GPa) = 25.15572 29.51490 27.33531
#
# Velocity S-wave (km/s) = 3.60617 3.90615 3.75915
# Velocity P-wave (km/s) = 6.40671 7.58768 7.02207
#
# Compressibility (1/GPa) = 0.02180649
#
# Stress axis : x y z
#
# Youngs Moduli (GPa) = 34.00675 106.49043 64.10999
#
# Poissons Ratio (x) = 0.52776 0.37555
# Poissons Ratio (y) = 0.16854 0.35133
# Poissons Ratio (z) = 0.19921 0.58358
#
# Static dielectric constant tensor:
#      x y z
#    x 3.358010 0.000000 0.000000 
#    y 0.000000 3.871150 0.000000 
#    z 0.000000 0.000000 3.467970 
# 
# 
# High freq. dielectric constant tensor:
#      x y z
#    x 1.735830 0.000000 0.000000 
#    y 0.000000 1.767910 0.000000 
#    z 0.000000 0.000000 1.735220 
# 
# From -- ./inp_files/11092.got.cif
#   From: 2010.03.12/outbox.cif.g09.slc.cpg/sg36_6_cif.got.tgz:11092.got - 2010.04.14 02:13:53.
