data_PCOD8175699
_publ_section_title
;
Structure prediction by ZEFSAII (Michael W. Deem and Ramdas Pophale) SiO2 
 PCOD8175699
Probable space group: C M C 21
;
_chemical_formula_sum "Si O2"
_cell_formula_units_Z 64
_cell_length_a 8.491834
_cell_length_b 24.030420
_cell_length_c 15.485646
_cell_angle_alpha 90.000000
_cell_angle_beta 90.000000
_cell_angle_gamma 90.000000
_cell_volume 3160.037122
_symmetry_space_group_name_H-M "C M C 21"
_symmetry_group_IT_number 36
_symmetry_cell_setting 'orthorhombic'
loop_
_space_group_symop_operation_xyz
x,y,z
-x,-y,1/2+z
x,-y,1/2+z
-x,y,z
1/2+x,1/2+y,z
1/2-x,1/2-y,1/2+z
1/2+x,1/2-y,1/2+z
1/2-x,1/2+y,z
loop_
_atom_site_type_symbol
_atom_site_label
_atom_site_fract_x
_atom_site_fract_y
_atom_site_fract_z
Si Si1 0.185465 0.385997 0.027830
Si Si2 0.687228 0.184748 0.368673
Si Si3 0.183458 0.504891 0.966821
Si Si4 0.815779 0.390428 0.710544
Si Si5 0.687666 0.690161 0.869244
Si Si6 0.683222 0.500216 0.281084
Si Si7 0.815156 0.118506 0.709815
Si Si8 0.316107 0.381590 0.529976
O O1 0.239070 0.362508 0.119866
O O2 0.000000 0.383573 0.020003
O O3 0.257067 0.347374 0.951900
O O4 0.242430 0.449463 0.015759
O O5 0.500000 0.186992 0.372236
O O6 0.743033 0.153406 0.282137
O O7 0.755292 0.247314 0.368069
O O8 0.209962 0.495343 0.865623
O O9 0.000000 0.517072 0.984244
O O10 0.287395 0.555020 0.002264
O O11 0.720186 0.447782 0.719811
O O12 0.777714 0.365610 0.616579
O O13 0.000000 0.402798 0.720331
O O14 0.500000 0.688780 0.867890
O O15 0.753151 0.657811 0.785388
O O16 0.748244 0.659031 0.955102
O O17 0.500000 0.498582 0.307350
O O18 0.731494 0.444915 0.229664
O O19 0.000000 0.126108 0.701411
O O20 0.500000 0.372677 0.546419
#
# Coordination Sequence:
#
# PCOD8175699 Si02
#       8
#     8   8   8   8   8   8   8   8
#     4  10  21  37  57  85 113 147 188 228 282 340
#     4   9  19  38  60  80 111 154 195 237 287 341
#     4  11  21  36  59  87 118 152 190 235 290 349
#     4  11  22  38  59  87 118 153 195 237 289 349
#     4   9  19  38  60  80 111 154 195 237 287 341
#     4  11  21  36  59  87 118 152 190 235 290 349
#     4  10  21  37  57  85 113 147 188 228 282 340
#     4  11  22  38  59  87 118 153 195 237 289 349
#
# _framework density 20.252928000000001
#
# number of rings (size 3 to 8) (size 9 to 14) (size 15 to 20)
#    0.000    1.750    2.500    2.250    0.000    5.000 
#    0.000    0.000    0.000    5.250    0.000    0.000 
#    0.000    0.000    0.000    0.000    0.000    0.000 
#
# Total GULP energy -396922.743863 kJ/mol
# GULP energy per Si atom -12403.835746 kJ/mol
# Density = 2.020683 g / cm^3
# Si number density = 20.252928 Si / 1000 Ang^3
#
#
#
# Elastic Constant Matrix: (Units=GPa)
#
#
# Indices 1 2 3 4 5 6 
#
# 1 22.2793 21.9460 12.2910 0.0000 0.0000 0.0000
# 2 21.9460 157.1522 74.8717 0.0000 0.0000 0.0000
# 3 12.2910 74.8717 171.0405 0.0000 0.0000 0.0000
# 4 0.0000 0.0000 0.0000 17.4862 0.0000 0.0000
# 5 0.0000 0.0000 0.0000 0.0000 35.1466 0.0000
# 6 0.0000 0.0000 0.0000 0.0000 0.0000 19.1902
#
#
#
# Elastic Compliance Matrix: (Units=1/GPa)
#
#
# Indices 1 2 3 4 5 6 
#
# 1 0.052111 -0.006941 -0.000707 0.000000 0.000000 0.000000
# 2 -0.006941 0.008964 -0.003425 0.000000 0.000000 0.000000
# 3 -0.000707 -0.003425 0.007397 0.000000 0.000000 0.000000
# 4 0.000000 0.000000 0.000000 0.057188 0.000000 0.000000
# 5 0.000000 0.000000 0.000000 0.000000 0.028452 0.000000
# 6 0.000000 0.000000 0.000000 0.000000 0.000000 0.052110
#
#
# Mechanical properties :
#
#
# Convention : Reuss Voigt Hill
#
# Bulk Modulus (GPa) = 21.58543 63.18771 42.38657
# Shear Modulus (GPa) = 20.50774 30.45548 25.48161
#
# Velocity S-wave (km/s) = 3.18556 3.88204 3.55092
# Velocity P-wave (km/s) = 4.92051 7.16663 6.14704
#
# Compressibility (1/GPa) = 0.04632754
#
# Stress axis : x y z
#
# Youngs Moduli (GPa) = 19.18965 111.55179 135.19422
#
# Poissons Ratio (x) = 0.77424 0.09552
# Poissons Ratio (y) = 0.13319 0.46309
# Poissons Ratio (z) = 0.01356 0.38211
#
# Static dielectric constant tensor:
#      x y z
#    x 3.286060 0.000000 0.000000 
#    y 0.000000 3.823600 0.000000 
#    z 0.000000 0.000000 3.883960 
# 
# 
# High freq. dielectric constant tensor:
#      x y z
#    x 1.762130 0.000000 0.000000 
#    y 0.000000 1.788990 0.000000 
#    z 0.000000 0.000000 1.806130 
# 
# From -- ./inp_files/5656.got.cif
#   From: 2010.03.12/outbox.cif.g09.slc.cpg/sg36_3_cif.got.tgz:5656.got - 2010.04.14 02:13:53.
