data_PCOD8175008
_publ_section_title
;
Structure prediction by ZEFSAII (Michael W. Deem and Ramdas Pophale) SiO2 
 PCOD8175008
Probable space group: C M C 21
;
_chemical_formula_sum "Si O2"
_cell_formula_units_Z 64
_cell_length_a 8.571535
_cell_length_b 30.564914
_cell_length_c 11.955493
_cell_angle_alpha 90.000000
_cell_angle_beta 90.000000
_cell_angle_gamma 90.000000
_cell_volume 3132.198451
_symmetry_space_group_name_H-M "C M C 21"
_symmetry_group_IT_number 36
_symmetry_cell_setting 'orthorhombic'
loop_
_space_group_symop_operation_xyz
x,y,z
-x,-y,1/2+z
x,-y,1/2+z
-x,y,z
1/2+x,1/2+y,z
1/2-x,1/2-y,1/2+z
1/2+x,1/2-y,1/2+z
1/2-x,1/2+y,z
loop_
_atom_site_type_symbol
_atom_site_label
_atom_site_fract_x
_atom_site_fract_y
_atom_site_fract_z
Si Si1 0.815575 0.621952 0.134000
Si Si2 0.820608 0.552601 0.727198
Si Si3 0.814372 0.802205 0.223770
Si Si4 0.182598 0.960206 0.765571
Si Si5 0.818191 0.706222 0.265155
Si Si6 0.316407 0.622501 0.888166
Si Si7 0.674825 0.574213 0.501111
Si Si8 0.323874 0.326759 0.980908
O O1 0.736035 0.581673 0.196020
O O2 0.749325 0.667361 0.187481
O O3 0.000000 0.618444 0.151492
O O4 0.775715 0.620770 0.003702
O O5 0.775642 0.501969 0.723082
O O6 0.717068 0.578976 0.816315
O O7 0.795308 0.570017 0.601820
O O8 0.000000 0.558547 0.760167
O O9 0.743611 0.753481 0.236573
O O10 0.754169 0.834957 0.320479
O O11 0.755772 0.820100 0.104859
O O12 0.000000 0.802402 0.228691
O O13 0.220609 0.956581 0.897546
O O14 0.000000 0.966756 0.744682
O O15 0.785940 0.698419 0.395244
O O16 0.000000 0.708984 0.243199
O O17 0.500000 0.624853 0.912234
O O18 0.500000 0.563662 0.545486
O O19 0.680422 0.622529 0.450143
O O20 0.500000 0.308257 0.971405
#
# Coordination Sequence:
#
# PCOD8175008 Si02
#       8
#     8   8   8   8   8   8   8   8
#     4  11  24  41  61  91 130 164 202 258 319 366
#     4  12  26  42  64  94 128 160 201 257 318 368
#     4   9  20  39  62  88 122 164 205 253 305 361
#     4  11  24  43  67  92 122 165 213 251 300 371
#     4  10  22  39  60  90 127 163 200 251 314 366
#     4  11  23  43  66  87 122 169 214 253 300 370
#     4  10  21  41  67  91 118 159 210 256 301 364
#     4  10  19  38  65  89 117 156 207 257 301 356
#
# _framework density 20.432932999999998
#
# number of rings (size 3 to 8) (size 9 to 14) (size 15 to 20)
#    0.000    1.500    2.500    2.250    3.500    2.000 
#    0.000    1.250    0.000    0.000    0.000    0.000 
#    0.000    0.000    0.000    0.000    0.000    0.000 
#
# Total GULP energy -396870.450158 kJ/mol
# GULP energy per Si atom -12402.201567 kJ/mol
# Density = 2.038643 g / cm^3
# Si number density = 20.432933 Si / 1000 Ang^3
#
#
#
# Elastic Constant Matrix: (Units=GPa)
#
#
# Indices 1 2 3 4 5 6 
#
# 1 38.1759 12.2272 15.1599 0.0000 0.0000 0.0000
# 2 12.2272 116.3689 33.8396 0.0000 0.0000 0.0000
# 3 15.1599 33.8396 104.1320 0.0000 0.0000 0.0000
# 4 0.0000 0.0000 0.0000 28.7495 0.0000 0.0000
# 5 0.0000 0.0000 0.0000 0.0000 35.0047 0.0000
# 6 0.0000 0.0000 0.0000 0.0000 0.0000 23.4061
#
#
#
# Elastic Compliance Matrix: (Units=1/GPa)
#
#
# Indices 1 2 3 4 5 6 
#
# 1 0.028198 -0.001954 -0.003470 0.000000 0.000000 0.000000
# 2 -0.001954 0.009626 -0.002844 0.000000 0.000000 0.000000
# 3 -0.003470 -0.002844 0.011032 0.000000 0.000000 0.000000
# 4 0.000000 0.000000 0.000000 0.034783 0.000000 0.000000
# 5 0.000000 0.000000 0.000000 0.000000 0.028568 0.000000
# 6 0.000000 0.000000 0.000000 0.000000 0.000000 0.042724
#
#
# Mechanical properties :
#
#
# Convention : Reuss Voigt Hill
#
# Bulk Modulus (GPa) = 30.93948 42.34782 36.64365
# Shear Modulus (GPa) = 27.43635 30.59541 29.01588
#
# Velocity S-wave (km/s) = 3.66833 3.87377 3.77245
# Velocity P-wave (km/s) = 5.75474 6.38580 6.07846
#
# Compressibility (1/GPa) = 0.03232116
#
# Stress axis : x y z
#
# Youngs Moduli (GPa) = 35.46306 103.89025 90.64140
#
# Poissons Ratio (x) = 0.20297 0.31455
# Poissons Ratio (y) = 0.06929 0.25775
# Poissons Ratio (z) = 0.12307 0.29542
#
# Static dielectric constant tensor:
#      x y z
#    x 3.502000 0.000000 0.000000 
#    y 0.000000 3.951920 0.000000 
#    z 0.000000 0.000000 3.687360 
# 
# 
# High freq. dielectric constant tensor:
#      x y z
#    x 1.779100 0.000000 0.000000 
#    y 0.000000 1.809650 0.000000 
#    z 0.000000 0.000000 1.807880 
# 
# From -- ./inp_files/7163.got.cif
#   From: 2010.03.12/outbox.cif.g09.slc.cpg/sg36_4_cif.got.tgz:7163.got - 2010.04.14 02:13:53.
