data_PCOD8175951
_publ_section_title
;
Structure prediction by ZEFSAII (Michael W. Deem and Ramdas Pophale) SiO2 
 PCOD8175951
Probable space group: C M C 21
;
_chemical_formula_sum "Si O2"
_cell_formula_units_Z 56
_cell_length_a 12.927118
_cell_length_b 13.842541
_cell_length_c 16.660768
_cell_angle_alpha 90.000000
_cell_angle_beta 90.000000
_cell_angle_gamma 90.000000
_cell_volume 2981.347150
_symmetry_space_group_name_H-M "C M C 21"
_symmetry_group_IT_number 36
_symmetry_cell_setting 'orthorhombic'
loop_
_space_group_symop_operation_xyz
x,y,z
-x,-y,1/2+z
x,-y,1/2+z
-x,y,z
1/2+x,1/2+y,z
1/2-x,1/2-y,1/2+z
1/2+x,1/2-y,1/2+z
1/2-x,1/2+y,z
loop_
_atom_site_type_symbol
_atom_site_label
_atom_site_fract_x
_atom_site_fract_y
_atom_site_fract_z
Si Si1 0.791969 0.156177 0.104280
Si Si2 0.619515 0.197662 0.483604
Si Si3 0.288034 0.446831 0.044653
Si Si4 0.381544 0.322012 0.775895
Si Si5 0.881052 0.996049 0.382292
Si Si6 0.883099 0.207255 0.655094
Si Si7 0.694573 0.702984 0.830513
O O1 0.864594 0.162446 0.181820
O O2 0.682984 0.206600 0.118670
O O3 0.758483 0.049218 0.081252
O O4 0.855385 0.204905 0.032255
O O5 0.500000 0.170119 0.492321
O O6 0.683967 0.107859 0.518070
O O7 0.646420 0.218253 0.390916
O O8 0.347597 0.392516 0.115484
O O9 0.364365 0.458291 0.969582
O O10 0.500000 0.292956 0.792772
O O11 0.352450 0.422634 0.817704
O O12 0.312030 0.234302 0.810063
O O13 0.000000 0.962238 0.374123
O O14 0.806109 0.904257 0.368559
O O15 0.873937 0.200854 0.750713
O O16 0.000000 0.228948 0.631207
#
# Coordination Sequence:
#
# PCOD8175951 Si02
#       7
#     8   8   8   8   8   8   8
#     4  10  22  38  60  83 116 151 193 236 290 353
#     4  11  22  37  59  85 117 157 195 240 295 350
#     4  11  22  38  56  88 119 149 195 247 285 351
#     4  10  22  40  61  86 118 152 192 243 295 347
#     4  11  21  35  60  86 115 153 193 241 291 341
#     4  10  22  38  59  85 114 150 193 242 289 340
#     4  11  21  38  61  87 117 152 199 241 287 352
#
# _framework density 18.783455
#
# number of rings (size 3 to 8) (size 9 to 14) (size 15 to 20)
#    0.000    1.429    2.857    3.000    0.000    3.429 
#    0.000    0.714    0.000    3.429    0.000    0.000 
#    0.000    0.000    0.000    0.000    0.000    0.000 
#
# Total GULP energy -347320.829458 kJ/mol
# GULP energy per Si atom -12404.315338 kJ/mol
# Density = 1.874070 g / cm^3
# Si number density = 18.783455 Si / 1000 Ang^3
#
#
#
# Elastic Constant Matrix: (Units=GPa)
#
#
# Indices 1 2 3 4 5 6 
#
# 1 114.7785 54.0200 40.7168 0.0000 0.0000 0.0000
# 2 54.0200 109.9060 37.4370 0.0000 0.0000 0.0000
# 3 40.7168 37.4370 109.2998 0.0000 0.0000 0.0000
# 4 0.0000 0.0000 0.0000 27.1256 0.0000 0.0000
# 5 0.0000 0.0000 0.0000 0.0000 21.7397 0.0000
# 6 0.0000 0.0000 0.0000 0.0000 0.0000 19.0596
#
#
#
# Elastic Compliance Matrix: (Units=1/GPa)
#
#
# Indices 1 2 3 4 5 6 
#
# 1 0.012038 -0.004969 -0.002783 0.000000 0.000000 0.000000
# 2 -0.004969 0.012352 -0.002380 0.000000 0.000000 0.000000
# 3 -0.002783 -0.002380 0.011001 0.000000 0.000000 0.000000
# 4 0.000000 0.000000 0.000000 0.036865 0.000000 0.000000
# 5 0.000000 0.000000 0.000000 0.000000 0.045999 0.000000
# 6 0.000000 0.000000 0.000000 0.000000 0.000000 0.052467
#
#
# Mechanical properties :
#
#
# Convention : Reuss Voigt Hill
#
# Bulk Modulus (GPa) = 66.10154 66.48131 66.29143
# Shear Modulus (GPa) = 25.50671 27.03901 26.27286
#
# Velocity S-wave (km/s) = 3.68901 3.79821 3.74401
# Velocity P-wave (km/s) = 7.30841 7.39632 7.35250
#
# Compressibility (1/GPa) = 0.01512824
#
# Stress axis : x y z
#
# Youngs Moduli (GPa) = 83.06890 80.96128 90.90306
#
# Poissons Ratio (x) = 0.40230 0.25294
# Poissons Ratio (y) = 0.41278 0.21631
# Poissons Ratio (z) = 0.23114 0.19265
#
# Static dielectric constant tensor:
#      x y z
#    x 3.319050 0.000000 0.000000 
#    y 0.000000 3.404750 0.000000 
#    z 0.000000 0.000000 3.730620 
# 
# 
# High freq. dielectric constant tensor:
#      x y z
#    x 1.723350 0.000000 0.000000 
#    y 0.000000 1.728120 0.000000 
#    z 0.000000 0.000000 1.750640 
# 
# From -- ./inp_files/11608.got.cif
#   From: 2010.03.12/outbox.cif.g09.slc.cpg/sg36_6_cif.got.tgz:11608.got - 2010.04.14 02:13:53.
