data_PCOD8175810
_publ_section_title
;
Structure prediction by ZEFSAII (Michael W. Deem and Ramdas Pophale) SiO2 
 PCOD8175810
Probable space group: C M C 21
;
_chemical_formula_sum "Si O2"
_cell_formula_units_Z 48
_cell_length_a 13.186458
_cell_length_b 9.453501
_cell_length_c 17.296921
_cell_angle_alpha 90.000000
_cell_angle_beta 90.000000
_cell_angle_gamma 90.000000
_cell_volume 2156.202932
_symmetry_space_group_name_H-M "C M C 21"
_symmetry_group_IT_number 36
_symmetry_cell_setting 'orthorhombic'
loop_
_space_group_symop_operation_xyz
x,y,z
-x,-y,1/2+z
x,-y,1/2+z
-x,y,z
1/2+x,1/2+y,z
1/2-x,1/2-y,1/2+z
1/2+x,1/2-y,1/2+z
1/2-x,1/2+y,z
loop_
_atom_site_type_symbol
_atom_site_label
_atom_site_fract_x
_atom_site_fract_y
_atom_site_fract_z
Si Si1 0.879427 0.252904 0.592140
Si Si2 0.387694 0.988979 0.883256
Si Si3 0.181886 0.281705 0.762740
Si Si4 0.612131 0.582904 0.894178
Si Si5 0.390019 0.712446 0.318679
Si Si6 0.748504 0.497961 0.517996
O O1 0.876408 0.246965 0.684728
O O2 0.825086 0.400836 0.568608
O O3 0.000000 0.247828 0.566960
O O4 0.814292 0.117096 0.564437
O O5 0.500000 0.944412 0.907501
O O6 0.375561 0.156890 0.877047
O O7 0.314169 0.927729 0.949661
O O8 0.361479 0.925246 0.799371
O O9 0.168163 0.155367 0.823180
O O10 0.304097 0.296464 0.752058
O O11 0.500000 0.646453 0.901311
O O12 0.613419 0.416562 0.877847
O O13 0.668192 0.606510 0.975953
O O14 0.500000 0.720352 0.276393
#
# Coordination Sequence:
#
# PCOD8175810 Si02
#       6
#     8   8   8   8   8   8
#     4  12  30  49  69 105 151 191 226 292 366 419
#     4  11  22  41  71 101 130 177 237 290 339 410
#     4  12  23  45  66 101 137 174 235 287 346 411
#     4  11  22  41  71 101 130 177 237 290 339 410
#     4  10  21  38  69 104 132 167 229 297 346 396
#     4  12  24  46  72 102 146 184 234 288 356 426
#
# _framework density 22.261354999999998
#
# number of rings (size 3 to 8) (size 9 to 14) (size 15 to 20)
#    0.000    0.667    3.333    4.500    4.667    1.333 
#    0.000    4.167    0.000    0.000    0.000    0.000 
#    0.000    0.000    0.000    0.000    0.000    0.000 
#
# Total GULP energy -297445.557485 kJ/mol
# GULP energy per Si atom -12393.564895 kJ/mol
# Density = 2.221069 g / cm^3
# Si number density = 22.261355 Si / 1000 Ang^3
#
#
#
# Elastic Constant Matrix: (Units=GPa)
#
#
# Indices 1 2 3 4 5 6 
#
# 1 175.9329 16.7380 16.3816 0.0000 0.0000 0.0000
# 2 16.7380 99.4062 7.0426 0.0000 0.0000 0.0000
# 3 16.3816 7.0426 73.2378 0.0000 0.0000 0.0000
# 4 0.0000 0.0000 0.0000 28.7698 0.0000 0.0000
# 5 0.0000 0.0000 0.0000 0.0000 31.6780 0.0000
# 6 0.0000 0.0000 0.0000 0.0000 0.0000 24.0269
#
#
#
# Elastic Compliance Matrix: (Units=1/GPa)
#
#
# Indices 1 2 3 4 5 6 
#
# 1 0.005884 -0.000904 -0.001229 0.000000 0.000000 0.000000
# 2 -0.000904 0.010268 -0.000785 0.000000 0.000000 0.000000
# 3 -0.001229 -0.000785 0.014005 0.000000 0.000000 0.000000
# 4 0.000000 0.000000 0.000000 0.034759 0.000000 0.000000
# 5 0.000000 0.000000 0.000000 0.000000 0.031568 0.000000
# 6 0.000000 0.000000 0.000000 0.000000 0.000000 0.041620
#
#
# Mechanical properties :
#
#
# Convention : Reuss Voigt Hill
#
# Bulk Modulus (GPa) = 41.11819 47.65570 44.38695
# Shear Modulus (GPa) = 32.88478 37.45593 35.17036
#
# Velocity S-wave (km/s) = 3.84762 4.10634 3.97909
# Velocity P-wave (km/s) = 6.18463 6.62847 6.41039
#
# Compressibility (1/GPa) = 0.02432013
#
# Stress axis : x y z
#
# Youngs Moduli (GPa) = 169.94007 97.39437 71.40504
#
# Poissons Ratio (x) = 0.08802 0.08778
# Poissons Ratio (y) = 0.15358 0.05607
# Poissons Ratio (z) = 0.20891 0.07647
#
# Static dielectric constant tensor:
#      x y z
#    x 4.785640 0.000000 0.000000 
#    y 0.000000 4.012580 0.000000 
#    z 0.000000 0.000000 3.659660 
# 
# 
# High freq. dielectric constant tensor:
#      x y z
#    x 1.911030 0.000000 0.000000 
#    y 0.000000 1.885030 0.000000 
#    z 0.000000 0.000000 1.840320 
# 
# From -- ./inp_files/14585.got.cif
#   From: 2010.03.12/outbox.cif.g09.slc.cpg/sg36_8_cif.got.tgz:14585.got - 2010.04.14 02:13:53.
