data_PCOD8175226
_publ_section_title
;
Structure prediction by ZEFSAII (Michael W. Deem and Ramdas Pophale) SiO2 
 PCOD8175226
Probable space group: C M C 21
;
_chemical_formula_sum "Si O2"
_cell_formula_units_Z 64
_cell_length_a 9.091249
_cell_length_b 29.151272
_cell_length_c 12.372293
_cell_angle_alpha 90.000000
_cell_angle_beta 90.000000
_cell_angle_gamma 90.000000
_cell_volume 3278.923308
_symmetry_space_group_name_H-M "C M C 21"
_symmetry_group_IT_number 36
_symmetry_cell_setting 'orthorhombic'
loop_
_space_group_symop_operation_xyz
x,y,z
-x,-y,1/2+z
x,-y,1/2+z
-x,y,z
1/2+x,1/2+y,z
1/2-x,1/2-y,1/2+z
1/2+x,1/2-y,1/2+z
1/2-x,1/2+y,z
loop_
_atom_site_type_symbol
_atom_site_label
_atom_site_fract_x
_atom_site_fract_y
_atom_site_fract_z
Si Si1 0.668214 0.347640 0.026120
Si Si2 0.164511 0.568770 0.592421
Si Si3 0.331369 0.729565 0.687556
Si Si4 0.174181 0.819407 0.621345
Si Si5 0.826076 0.977377 0.908472
Si Si6 0.171965 0.113808 0.300093
Si Si7 0.834449 0.433759 0.337320
Si Si8 0.673911 0.661198 0.878269
O O1 0.500000 0.364302 0.045252
O O2 0.779124 0.379019 0.094071
O O3 0.688999 0.296766 0.073215
O O4 0.708573 0.351291 0.899157
O O5 0.281683 0.538483 0.527938
O O6 0.161780 0.550876 0.713588
O O7 0.000000 0.566174 0.541911
O O8 0.500000 0.743823 0.704800
O O9 0.234908 0.774802 0.681156
O O10 0.278318 0.698834 0.789383
O O11 0.233895 0.863888 0.689124
O O12 0.225665 0.822269 0.497198
O O13 0.000000 0.816791 0.629217
O O14 0.766428 0.937566 0.825478
O O15 0.000000 0.983352 0.900485
O O16 0.751624 0.026180 0.896570
O O17 0.000000 0.107931 0.288150
O O18 0.752670 0.386161 0.353564
O O19 0.000000 0.429629 0.383498
O O20 0.500000 0.652650 0.873717
#
# Coordination Sequence:
#
# PCOD8175226 Si02
#       8
#     8   8   8   8   8   8   8   8
#     4   9  17  33  57  78 104 144 190 239 284 342
#     4  10  20  35  55  83 115 146 189 245 298 346
#     4  10  21  36  56  83 114 149 193 239 290 351
#     4  10  22  38  58  84 117 153 194 241 292 349
#     4  10  21  37  60  85 115 158 204 243 291 356
#     4   8  17  35  56  81 109 145 192 237 283 341
#     4  11  23  38  59  88 120 153 194 247 304 355
#     4  10  22  40  59  84 118 154 196 243 292 356
#
# _framework density 19.518602000000001
#
# number of rings (size 3 to 8) (size 9 to 14) (size 15 to 20)
#    0.000    2.250    1.250    1.875    1.750    4.000 
#    0.000    4.375    0.000    0.000    0.000    0.000 
#    0.000    0.000    0.000    0.000    0.000    0.000 
#
# Total GULP energy -396650.575203 kJ/mol
# GULP energy per Si atom -12395.330475 kJ/mol
# Density = 1.947418 g / cm^3
# Si number density = 19.518602 Si / 1000 Ang^3
#
#
#
# Elastic Constant Matrix: (Units=GPa)
#
#
# Indices 1 2 3 4 5 6 
#
# 1 47.1115 36.4351 25.3357 0.0000 0.0000 0.0000
# 2 36.4351 113.7552 47.2008 0.0000 0.0000 0.0000
# 3 25.3357 47.2008 93.6494 0.0000 0.0000 0.0000
# 4 0.0000 0.0000 0.0000 26.4850 0.0000 0.0000
# 5 0.0000 0.0000 0.0000 0.0000 22.5395 0.0000
# 6 0.0000 0.0000 0.0000 0.0000 0.0000 32.4231
#
#
#
# Elastic Compliance Matrix: (Units=1/GPa)
#
#
# Indices 1 2 3 4 5 6 
#
# 1 0.029384 -0.007730 -0.004054 0.000000 0.000000 0.000000
# 2 -0.007730 0.013149 -0.004536 0.000000 0.000000 0.000000
# 3 -0.004054 -0.004536 0.014061 0.000000 0.000000 0.000000
# 4 0.000000 0.000000 0.000000 0.037757 0.000000 0.000000
# 5 0.000000 0.000000 0.000000 0.000000 0.044367 0.000000
# 6 0.000000 0.000000 0.000000 0.000000 0.000000 0.030842
#
#
# Mechanical properties :
#
#
# Convention : Reuss Voigt Hill
#
# Bulk Modulus (GPa) = 41.74440 52.49549 47.11995
# Shear Modulus (GPa) = 23.78873 25.99247 24.89060
#
# Velocity S-wave (km/s) = 3.49488 3.65317 3.57490
# Velocity P-wave (km/s) = 6.14158 6.68937 6.42132
#
# Compressibility (1/GPa) = 0.02395531
#
# Stress axis : x y z
#
# Youngs Moduli (GPa) = 34.03197 76.05328 71.11854
#
# Poissons Ratio (x) = 0.58786 0.28829
# Poissons Ratio (y) = 0.26305 0.32259
# Poissons Ratio (z) = 0.13796 0.34498
#
# Static dielectric constant tensor:
#      x y z
#    x 3.509390 0.000000 0.000000 
#    y 0.000000 3.528570 0.000000 
#    z 0.000000 0.000000 3.834420 
# 
# 
# High freq. dielectric constant tensor:
#      x y z
#    x 1.747120 0.000000 0.000000 
#    y 0.000000 1.755930 0.000000 
#    z 0.000000 0.000000 1.761430 
# 
# From -- ./inp_files/7150.got.cif
#   From: 2010.03.12/outbox.cif.g09.slc.cpg/sg36_4_cif.got.tgz:7150.got - 2010.04.14 02:13:53.
