data_PCOD8175386
_publ_section_title
;
Structure prediction by ZEFSAII (Michael W. Deem and Ramdas Pophale) SiO2 
 PCOD8175386
Probable space group: C M C 21
;
_chemical_formula_sum "Si O2"
_cell_formula_units_Z 64
_cell_length_a 8.994550
_cell_length_b 15.276984
_cell_length_c 23.851385
_cell_angle_alpha 90.000000
_cell_angle_beta 90.000000
_cell_angle_gamma 90.000000
_cell_volume 3277.409187
_symmetry_space_group_name_H-M "C M C 21"
_symmetry_group_IT_number 36
_symmetry_cell_setting 'orthorhombic'
loop_
_space_group_symop_operation_xyz
x,y,z
-x,-y,1/2+z
x,-y,1/2+z
-x,y,z
1/2+x,1/2+y,z
1/2-x,1/2-y,1/2+z
1/2+x,1/2-y,1/2+z
1/2-x,1/2+y,z
loop_
_atom_site_type_symbol
_atom_site_label
_atom_site_fract_x
_atom_site_fract_y
_atom_site_fract_z
Si Si1 0.173392 0.780710 0.217970
Si Si2 0.322989 0.645352 0.413982
Si Si3 0.323764 0.507584 0.833968
Si Si4 0.672290 0.538031 0.093325
Si Si5 0.674364 0.707497 0.844701
Si Si6 0.671279 0.270812 0.612648
Si Si7 0.824198 0.975654 0.212196
Si Si8 0.176533 0.383673 0.032715
O O1 0.210364 0.756554 0.282245
O O2 0.251737 0.717740 0.173197
O O3 0.236238 0.877425 0.205201
O O4 0.000000 0.774711 0.206773
O O5 0.500000 0.644281 0.418186
O O6 0.260193 0.564151 0.377026
O O7 0.270562 0.736889 0.387994
O O8 0.253661 0.636935 0.474665
O O9 0.500000 0.502578 0.834348
O O10 0.275784 0.606088 0.851045
O O11 0.262606 0.485000 0.771124
O O12 0.500000 0.509480 0.086698
O O13 0.695716 0.639679 0.077258
O O14 0.725848 0.529998 0.158042
O O15 0.773196 0.479227 0.053297
O O16 0.500000 0.717679 0.858179
O O17 0.500000 0.256189 0.625667
O O18 0.733823 0.189717 0.576591
O O19 0.000000 0.971406 0.217838
O O20 0.000000 0.381051 0.025448
#
# Coordination Sequence:
#
# PCOD8175386 Si02
#       8
#     8   8   8   8   8   8   8   8
#     4   9  17  32  57  85 116 150 182 223 280 342
#     4  11  23  38  61  86 109 148 200 241 275 332
#     4   8  17  34  56  83 113 147 185 226 279 337
#     4  10  20  36  60  85 109 145 193 234 275 335
#     4   9  19  37  58  83 116 151 182 224 287 342
#     4  10  22  36  56  85 114 149 189 234 285 334
#     4   8  14  29  55  83 111 143 177 223 276 330
#     4  11  24  42  57  78 118 155 188 237 293 338
#
# _framework density 19.527619000000001
#
# number of rings (size 3 to 8) (size 9 to 14) (size 15 to 20)
#    0.000    2.500    1.250    2.250    1.750    2.500 
#    0.000    6.250    0.000    1.500    0.000    0.000 
#    0.000    0.000    0.000    0.000    0.000    0.000 
#
# Total GULP energy -396673.984344 kJ/mol
# GULP energy per Si atom -12396.062011 kJ/mol
# Density = 1.948317 g / cm^3
# Si number density = 19.527619 Si / 1000 Ang^3
#
#
#
# Elastic Constant Matrix: (Units=GPa)
#
#
# Indices 1 2 3 4 5 6 
#
# 1 45.6586 19.0967 32.5992 0.0000 0.0000 0.0000
# 2 19.0967 67.8197 26.5575 0.0000 0.0000 0.0000
# 3 32.5992 26.5575 98.6279 0.0000 0.0000 0.0000
# 4 0.0000 0.0000 0.0000 24.3048 0.0000 0.0000
# 5 0.0000 0.0000 0.0000 0.0000 29.9586 0.0000
# 6 0.0000 0.0000 0.0000 0.0000 0.0000 27.0546
#
#
#
# Elastic Compliance Matrix: (Units=1/GPa)
#
#
# Indices 1 2 3 4 5 6 
#
# 1 0.030185 -0.005134 -0.008595 0.000000 0.000000 0.000000
# 2 -0.005134 0.017356 -0.002977 0.000000 0.000000 0.000000
# 3 -0.008595 -0.002977 0.013781 0.000000 0.000000 0.000000
# 4 0.000000 0.000000 0.000000 0.041144 0.000000 0.000000
# 5 0.000000 0.000000 0.000000 0.000000 0.033379 0.000000
# 6 0.000000 0.000000 0.000000 0.000000 0.000000 0.036962
#
#
# Mechanical properties :
#
#
# Convention : Reuss Voigt Hill
#
# Bulk Modulus (GPa) = 35.82625 40.95699 38.39162
# Shear Modulus (GPa) = 23.19934 25.18714 24.19324
#
# Velocity S-wave (km/s) = 3.45052 3.59530 3.52365
# Velocity P-wave (km/s) = 5.85329 6.18501 6.02144
#
# Compressibility (1/GPa) = 0.02791249
#
# Stress axis : x y z
#
# Youngs Moduli (GPa) = 33.12861 57.61626 72.56175
#
# Poissons Ratio (x) = 0.29580 0.62364
# Poissons Ratio (y) = 0.17008 0.21598
# Poissons Ratio (z) = 0.28473 0.17150
#
# Static dielectric constant tensor:
#      x y z
#    x 3.191960 0.000000 0.000000 
#    y 0.000000 3.765510 0.000000 
#    z 0.000000 0.000000 3.751610 
# 
# 
# High freq. dielectric constant tensor:
#      x y z
#    x 1.728340 0.000000 0.000000 
#    y 0.000000 1.764630 0.000000 
#    z 0.000000 0.000000 1.762870 
# 
# From -- ./inp_files/16688.got.cif
#   From: 2010.03.12/outbox.cif.g09.slc.cpg/sg36_9_cif.got.tgz:16688.got - 2010.04.14 02:13:53.
