data_PCOD8175477
_publ_section_title
;
Structure prediction by ZEFSAII (Michael W. Deem and Ramdas Pophale) SiO2 
 PCOD8175477
Probable space group: C M C 21
;
_chemical_formula_sum "Si O2"
_cell_formula_units_Z 64
_cell_length_a 8.703316
_cell_length_b 15.395738
_cell_length_c 23.568951
_cell_angle_alpha 90.000000
_cell_angle_beta 90.000000
_cell_angle_gamma 90.000000
_cell_volume 3158.097381
_symmetry_space_group_name_H-M "C M C 21"
_symmetry_group_IT_number 36
_symmetry_cell_setting 'orthorhombic'
loop_
_space_group_symop_operation_xyz
x,y,z
-x,-y,1/2+z
x,-y,1/2+z
-x,y,z
1/2+x,1/2+y,z
1/2-x,1/2-y,1/2+z
1/2+x,1/2-y,1/2+z
1/2-x,1/2+y,z
loop_
_atom_site_type_symbol
_atom_site_label
_atom_site_fract_x
_atom_site_fract_y
_atom_site_fract_z
Si Si1 0.180315 0.376425 0.406580
Si Si2 0.325126 0.275124 0.587689
Si Si3 0.180488 0.878299 0.284952
Si Si4 0.181169 0.778822 0.716060
Si Si5 0.677433 0.708723 0.479099
Si Si6 0.176071 0.976277 0.596682
Si Si7 0.318816 0.033270 0.215293
Si Si8 0.321184 0.964283 0.984928
O O1 0.283591 0.376391 0.351186
O O2 0.224005 0.291303 0.442014
O O3 0.231078 0.459209 0.443414
O O4 0.000000 0.379433 0.391145
O O5 0.500000 0.247722 0.574258
O O6 0.279829 0.249749 0.651846
O O7 0.212596 0.225767 0.545248
O O8 0.301714 0.377075 0.578822
O O9 0.253429 0.792678 0.257880
O O10 0.251805 0.965532 0.259889
O O11 0.000000 0.877574 0.274167
O O12 0.000000 0.788348 0.724400
O O13 0.254036 0.871909 0.730074
O O14 0.500000 0.685753 0.472398
O O15 0.776470 0.627333 0.456200
O O16 0.275011 0.997903 0.652228
O O17 0.232471 0.034146 0.544652
O O18 0.000000 0.997382 0.611147
O O19 0.500000 0.035067 0.221600
O O20 0.500000 0.971370 0.997808
#
# Coordination Sequence:
#
# PCOD8175477 Si02
#       8
#     8   8   8   8   8   8   8   8
#     4  10  24  46  65  87 125 169 214 265 317 375
#     4   9  19  36  61  91 127 164 202 254 314 373
#     4  12  26  43  67  95 126 171 218 264 318 380
#     4  10  22  42  65  94 130 168 211 264 318 377
#     4  11  23  39  62  92 125 164 208 259 314 374
#     4  10  20  37  62  93 130 166 207 260 316 376
#     4  11  23  41  65  94 130 169 211 263 320 379
#     4  11  23  40  63  92 125 165 211 259 317 378
#
# _framework density 20.265364999999999
#
# number of rings (size 3 to 8) (size 9 to 14) (size 15 to 20)
#    0.000    1.500    1.250    4.500    1.750    5.500 
#    0.000    2.500    0.000    0.000    0.000    0.000 
#    0.000    0.000    0.000    0.000    0.000    0.000 
#
# Total GULP energy -396967.881769 kJ/mol
# GULP energy per Si atom -12405.246305 kJ/mol
# Density = 2.021924 g / cm^3
# Si number density = 20.265365 Si / 1000 Ang^3
#
#
#
# Elastic Constant Matrix: (Units=GPa)
#
#
# Indices 1 2 3 4 5 6 
#
# 1 121.4795 58.7349 53.1631 0.0000 0.0000 0.0000
# 2 58.7349 133.5535 68.8642 0.0000 0.0000 0.0000
# 3 53.1631 68.8642 115.4247 0.0000 0.0000 0.0000
# 4 0.0000 0.0000 0.0000 1.3049 0.0000 0.0000
# 5 0.0000 0.0000 0.0000 0.0000 35.7896 0.0000
# 6 0.0000 0.0000 0.0000 0.0000 0.0000 35.7595
#
#
#
# Elastic Compliance Matrix: (Units=1/GPa)
#
#
# Indices 1 2 3 4 5 6 
#
# 1 0.011223 -0.003279 -0.003213 0.000000 0.000000 0.000000
# 2 -0.003279 0.011773 -0.005513 0.000000 0.000000 0.000000
# 3 -0.003213 -0.005513 0.013433 0.000000 0.000000 0.000000
# 4 0.000000 0.000000 0.000000 0.766349 0.000000 0.000000
# 5 0.000000 0.000000 0.000000 0.000000 0.027941 0.000000
# 6 0.000000 0.000000 0.000000 0.000000 0.000000 0.027965
#
#
# Mechanical properties :
#
#
# Convention : Reuss Voigt Hill
#
# Bulk Modulus (GPa) = 80.52910 81.33134 80.93022
# Shear Modulus (GPa) = 5.63804 27.21716 16.42760
#
# Velocity S-wave (km/s) = 1.66977 3.66872 2.85024
# Velocity P-wave (km/s) = 6.59857 7.62669 7.13118
#
# Compressibility (1/GPa) = 0.01241787
#
# Stress axis : x y z
#
# Youngs Moduli (GPa) = 89.09958 84.94262 74.44425
#
# Poissons Ratio (x) = 0.27854 0.23918
# Poissons Ratio (y) = 0.29218 0.41044
# Poissons Ratio (z) = 0.28627 0.46832
#
# Static dielectric constant tensor:
#      x y z
#    x 3.673480 0.000000 0.000000 
#    y 0.000000 3.808010 0.000000 
#    z 0.000000 0.000000 3.608400 
# 
# 
# High freq. dielectric constant tensor:
#      x y z
#    x 1.798090 0.000000 0.000000 
#    y 0.000000 1.804260 0.000000 
#    z 0.000000 0.000000 1.786270 
# 
# From -- ./inp_files/16684.got.cif
#   From: 2010.03.12/outbox.cif.g09.slc.cpg/sg36_9_cif.got.tgz:16684.got - 2010.04.14 02:13:53.
