data_PCOD8175977
_publ_section_title
;
Structure prediction by ZEFSAII (Michael W. Deem and Ramdas Pophale) SiO2 
 PCOD8175977
Probable space group: C M C 21
;
_chemical_formula_sum "Si O2"
_cell_formula_units_Z 64
_cell_length_a 8.902453
_cell_length_b 19.486783
_cell_length_c 18.574741
_cell_angle_alpha 90.000000
_cell_angle_beta 90.000000
_cell_angle_gamma 90.000000
_cell_volume 3222.349222
_symmetry_space_group_name_H-M "C M C 21"
_symmetry_group_IT_number 36
_symmetry_cell_setting 'orthorhombic'
loop_
_space_group_symop_operation_xyz
x,y,z
-x,-y,1/2+z
x,-y,1/2+z
-x,y,z
1/2+x,1/2+y,z
1/2-x,1/2-y,1/2+z
1/2+x,1/2-y,1/2+z
1/2-x,1/2+y,z
loop_
_atom_site_type_symbol
_atom_site_label
_atom_site_fract_x
_atom_site_fract_y
_atom_site_fract_z
Si Si1 0.322195 0.872997 0.763310
Si Si2 0.171560 0.164358 0.005758
Si Si3 0.823052 0.943303 0.037118
Si Si4 0.177346 0.436495 0.614093
Si Si5 0.674443 0.231706 0.739671
Si Si6 0.827300 0.693879 0.581603
Si Si7 0.670861 0.870837 0.364028
Si Si8 0.826618 0.526173 0.388070
O O1 0.500000 0.869079 0.760904
O O2 0.261998 0.907667 0.689930
O O3 0.258752 0.796958 0.772484
O O4 0.267549 0.918014 0.830960
O O5 0.280107 0.116161 0.051449
O O6 0.191685 0.242691 0.028261
O O7 0.000000 0.139970 0.016755
O O8 0.216055 0.159289 0.922706
O O9 0.771041 0.970314 0.959683
O O10 0.000000 0.948590 0.041409
O O11 0.772918 0.865645 0.048471
O O12 0.752707 0.990053 0.099899
O O13 0.000000 0.446894 0.614523
O O14 0.500000 0.250741 0.735948
O O15 0.734987 0.214611 0.660094
O O16 0.707423 0.165737 0.788713
O O17 0.000000 0.669510 0.586681
O O18 0.500000 0.855239 0.388293
O O19 0.694684 0.951732 0.352192
O O20 0.000000 0.539706 0.408525
#
# Coordination Sequence:
#
# PCOD8175977 Si02
#       8
#     8   8   8   8   8   8   8   8
#     4  10  23  40  64  92 122 161 204 249 304 369
#     4  11  22  39  64  91 121 159 205 252 302 361
#     4  12  26  41  62  93 124 159 209 260 306 362
#     4  11  22  40  66  91 120 160 203 251 309 368
#     4  10  22  41  64  91 123 161 204 251 305 364
#     4  10  23  42  64  89 124 164 202 253 313 366
#     4  10  22  39  63  89 120 164 207 249 302 364
#     4  10  22  42  63  88 122 164 206 247 303 366
#
# _framework density 19.861287000000001
#
# number of rings (size 3 to 8) (size 9 to 14) (size 15 to 20)
#    0.000    1.500    2.500    1.875    3.500    3.000 
#    0.000    0.000    0.000    0.000    0.000    0.000 
#    0.000    0.000    0.000    0.000    0.000    0.000 
#
# Total GULP energy -397001.804189 kJ/mol
# GULP energy per Si atom -12406.306381 kJ/mol
# Density = 1.981608 g / cm^3
# Si number density = 19.861287 Si / 1000 Ang^3
#
#
#
# Elastic Constant Matrix: (Units=GPa)
#
#
# Indices 1 2 3 4 5 6 
#
# 1 66.7326 35.5575 18.8126 0.0000 0.0000 0.0000
# 2 35.5575 113.5381 31.6822 0.0000 0.0000 0.0000
# 3 18.8126 31.6822 71.3916 0.0000 0.0000 0.0000
# 4 0.0000 0.0000 0.0000 41.3128 0.0000 0.0000
# 5 0.0000 0.0000 0.0000 0.0000 19.8325 0.0000
# 6 0.0000 0.0000 0.0000 0.0000 0.0000 31.8004
#
#
#
# Elastic Compliance Matrix: (Units=1/GPa)
#
#
# Indices 1 2 3 4 5 6 
#
# 1 0.018405 -0.005034 -0.002616 0.000000 0.000000 0.000000
# 2 -0.005034 0.011429 -0.003746 0.000000 0.000000 0.000000
# 3 -0.002616 -0.003746 0.016359 0.000000 0.000000 0.000000
# 4 0.000000 0.000000 0.000000 0.024206 0.000000 0.000000
# 5 0.000000 0.000000 0.000000 0.000000 0.050422 0.000000
# 6 0.000000 0.000000 0.000000 0.000000 0.000000 0.031446
#
#
# Mechanical properties :
#
#
# Convention : Reuss Voigt Hill
#
# Bulk Modulus (GPa) = 42.73142 47.08521 44.90832
# Shear Modulus (GPa) = 27.34347 29.62979 28.48663
#
# Velocity S-wave (km/s) = 3.71445 3.86662 3.79130
# Velocity P-wave (km/s) = 6.32122 6.61005 6.46725
#
# Compressibility (1/GPa) = 0.02340198
#
# Stress axis : x y z
#
# Youngs Moduli (GPa) = 54.33325 87.49401 61.12919
#
# Poissons Ratio (x) = 0.44045 0.15991
# Poissons Ratio (y) = 0.27352 0.22897
# Poissons Ratio (z) = 0.14213 0.32772
#
# Static dielectric constant tensor:
#      x y z
#    x 3.528030 0.000000 0.000000 
#    y 0.000000 3.686120 0.000000 
#    z 0.000000 0.000000 3.717830 
# 
# 
# High freq. dielectric constant tensor:
#      x y z
#    x 1.766220 0.000000 0.000000 
#    y 0.000000 1.786910 0.000000 
#    z 0.000000 0.000000 1.779680 
# 
# From -- ./inp_files/13969.got.cif
#   From: 2010.03.12/outbox.cif.g09.slc.cpg/sg36_7_cif.got.tgz:13969.got - 2010.04.14 02:13:53.
