data_PCOD8175597
_publ_section_title
;
Structure prediction by ZEFSAII (Michael W. Deem and Ramdas Pophale) SiO2 
 PCOD8175597
Probable space group: C M C 21
;
_chemical_formula_sum "Si O2"
_cell_formula_units_Z 36
_cell_length_a 11.824616
_cell_length_b 31.949544
_cell_length_c 4.941997
_cell_angle_alpha 90.000000
_cell_angle_beta 90.000000
_cell_angle_gamma 90.000000
_cell_volume 1867.042429
_symmetry_space_group_name_H-M "C M C 21"
_symmetry_group_IT_number 36
_symmetry_cell_setting 'orthorhombic'
loop_
_space_group_symop_operation_xyz
x,y,z
-x,-y,1/2+z
x,-y,1/2+z
-x,y,z
1/2+x,1/2+y,z
1/2-x,1/2-y,1/2+z
1/2+x,1/2-y,1/2+z
1/2-x,1/2+y,z
loop_
_atom_site_type_symbol
_atom_site_label
_atom_site_fract_x
_atom_site_fract_y
_atom_site_fract_z
Si Si1 0.873183 0.104652 0.178980
Si Si2 0.000000 0.280420 0.747601
Si Si3 0.500000 0.161527 0.743229
Si Si4 0.000000 0.027882 0.030278
Si Si5 0.206944 0.768146 0.057870
Si Si6 0.249138 0.362391 0.166571
O O1 0.799054 0.104209 0.453286
O O2 0.000000 0.123846 0.228328
O O3 0.807167 0.131490 0.955812
O O4 0.888059 0.056318 0.082902
O O5 0.000000 0.319816 0.544412
O O6 0.103932 0.249464 0.730500
O O7 0.000000 0.299539 0.043807
O O8 0.386866 0.133501 0.697580
O O9 0.000000 0.012793 0.721208
O O10 0.306371 0.751037 0.257098
O O11 0.214109 0.817875 0.042623
#
# Coordination Sequence:
#
# PCOD8175597 Si02
#       6
#     8   4   4   4   8   8
#     4  10  24  38  62  93 126 145 193 240 313 366
#     4  12  22  38  51  80 102 151 216 271 302 365
#     4  12  24  38  59  74 118 163 214 245 294 349
#     4  10  20  40  68 100 128 152 182 234 310 396
#     4  12  23  38  54  76 109 158 215 263 314 336
#     4  12  22  41  55  88 119 164 203 265 296 363
#
# _framework density 19.281832000000001
#
# number of rings (size 3 to 8) (size 9 to 14) (size 15 to 20)
#    0.667    0.000    4.444    4.667    3.111    0.000 
#    0.000    0.000    0.000    0.000    0.000   15.556 
#    0.000    0.000    0.000    0.000    0.000    0.000 
#
# Total GULP energy -223099.038309 kJ/mol
# GULP energy per Si atom -12394.391017 kJ/mol
# Density = 1.923795 g / cm^3
# Si number density = 19.281832 Si / 1000 Ang^3
#
#
#
# Elastic Constant Matrix: (Units=GPa)
#
#
# Indices 1 2 3 4 5 6 
#
# 1 122.9883 15.5225 19.5223 0.0000 0.0000 0.0000
# 2 15.5225 52.2831 -0.0140 0.0000 0.0000 0.0000
# 3 19.5223 -0.0140 78.9326 0.0000 0.0000 0.0000
# 4 0.0000 0.0000 0.0000 21.8449 0.0000 0.0000
# 5 0.0000 0.0000 0.0000 0.0000 29.3244 0.0000
# 6 0.0000 0.0000 0.0000 0.0000 0.0000 21.6292
#
#
#
# Elastic Compliance Matrix: (Units=1/GPa)
#
#
# Indices 1 2 3 4 5 6 
#
# 1 0.008807 -0.002615 -0.002179 0.000000 0.000000 0.000000
# 2 -0.002615 0.019903 0.000650 0.000000 0.000000 0.000000
# 3 -0.002179 0.000650 0.013208 0.000000 0.000000 0.000000
# 4 0.000000 0.000000 0.000000 0.045777 0.000000 0.000000
# 5 0.000000 0.000000 0.000000 0.000000 0.034101 0.000000
# 6 0.000000 0.000000 0.000000 0.000000 0.000000 0.046234
#
#
# Mechanical properties :
#
#
# Convention : Reuss Voigt Hill
#
# Bulk Modulus (GPa) = 29.73450 36.02951 32.88201
# Shear Modulus (GPa) = 26.66273 29.17125 27.91699
#
# Velocity S-wave (km/s) = 3.72262 3.89381 3.80918
# Velocity P-wave (km/s) = 5.82509 6.24035 6.03629
#
# Compressibility (1/GPa) = 0.03363097
#
# Stress axis : x y z
#
# Youngs Moduli (GPa) = 113.54928 50.24298 75.71172
#
# Poissons Ratio (x) = 0.13140 0.16495
# Poissons Ratio (y) = 0.29696 -0.04924
# Poissons Ratio (z) = 0.24738 -0.03268
#
# Static dielectric constant tensor:
#      x y z
#    x 3.732800 0.000000 0.000000 
#    y 0.000000 3.136410 0.000000 
#    z 0.000000 0.000000 3.561630 
# 
# 
# High freq. dielectric constant tensor:
#      x y z
#    x 1.749530 0.000000 0.000000 
#    y 0.000000 1.709330 0.000000 
#    z 0.000000 0.000000 1.776570 
# 
# From -- ./inp_files/567.got.cif
#   From: 2010.03.12/outbox.cif.g09.slc.cpg/sg36_1_cif.got.tgz:567.got - 2010.04.14 02:13:53.
