data_PCOD8175343
_publ_section_title
;
Structure prediction by ZEFSAII (Michael W. Deem and Ramdas Pophale) SiO2 
 PCOD8175343
Probable space group: C M C 21
;
_chemical_formula_sum "Si O2"
_cell_formula_units_Z 48
_cell_length_a 8.478194
_cell_length_b 30.565875
_cell_length_c 8.867995
_cell_angle_alpha 90.000000
_cell_angle_beta 90.000000
_cell_angle_gamma 90.000000
_cell_volume 2298.082535
_symmetry_space_group_name_H-M "C M C 21"
_symmetry_group_IT_number 36
_symmetry_cell_setting 'orthorhombic'
loop_
_space_group_symop_operation_xyz
x,y,z
-x,-y,1/2+z
x,-y,1/2+z
-x,y,z
1/2+x,1/2+y,z
1/2-x,1/2-y,1/2+z
1/2+x,1/2-y,1/2+z
1/2-x,1/2+y,z
loop_
_atom_site_type_symbol
_atom_site_label
_atom_site_fract_x
_atom_site_fract_y
_atom_site_fract_z
Si Si1 0.683687 0.783565 0.338800
Si Si2 0.814820 0.298873 0.004004
Si Si3 0.312464 0.117024 0.333057
Si Si4 0.681620 0.546908 0.819454
Si Si5 0.683797 0.874437 0.492522
Si Si6 0.183840 0.469733 0.000032
O O1 0.500000 0.771338 0.331964
O O2 0.778381 0.742884 0.403109
O O3 0.753199 0.793615 0.172681
O O4 0.714105 0.824543 0.446999
O O5 0.000000 0.305427 0.015857
O O6 0.740716 0.342164 0.926705
O O7 0.500000 0.119583 0.335220
O O8 0.252757 0.072240 0.408257
O O9 0.251512 0.119097 0.161656
O O10 0.500000 0.544136 0.771853
O O11 0.718467 0.595059 0.880614
O O12 0.790686 0.537222 0.676595
O O13 0.719257 0.512017 0.949437
O O14 0.500000 0.886896 0.479311
O O15 0.000000 0.477818 0.969385
#
# Coordination Sequence:
#
# PCOD8175343 Si02
#       6
#     8   8   8   8   8   8
#     4  10  21  36  57  85 115 151 196 242 288 348
#     4  10  20  36  57  83 115 149 189 240 296 347
#     4   9  19  36  61  87 109 143 194 244 284 340
#     4  12  25  40  59  89 124 153 190 245 302 346
#     4  10  20  38  62  85 112 151 198 240 286 351
#     4  11  22  40  64  87 115 157 203 239 286 356
#
# _framework density 20.886977999999999
#
# number of rings (size 3 to 8) (size 9 to 14) (size 15 to 20)
#    0.000    1.667    0.000    5.000    0.000    6.667 
#    0.000    5.000    0.000    0.000    0.000    0.000 
#    0.000    0.000    0.000    0.000    0.000    0.000 
#
# Total GULP energy -297739.599139 kJ/mol
# GULP energy per Si atom -12405.816631 kJ/mol
# Density = 2.083944 g / cm^3
# Si number density = 20.886978 Si / 1000 Ang^3
#
#
#
# Elastic Constant Matrix: (Units=GPa)
#
#
# Indices 1 2 3 4 5 6 
#
# 1 37.7956 15.1223 6.7776 0.0000 0.0000 0.0000
# 2 15.1223 81.3634 5.2788 0.0000 0.0000 0.0000
# 3 6.7776 5.2788 98.6798 0.0000 0.0000 0.0000
# 4 0.0000 0.0000 0.0000 44.9323 0.0000 0.0000
# 5 0.0000 0.0000 0.0000 0.0000 24.2194 0.0000
# 6 0.0000 0.0000 0.0000 0.0000 0.0000 30.6424
#
#
#
# Elastic Compliance Matrix: (Units=1/GPa)
#
#
# Indices 1 2 3 4 5 6 
#
# 1 0.028866 -0.005255 -0.001701 0.000000 0.000000 0.000000
# 2 -0.005255 0.013290 -0.000350 0.000000 0.000000 0.000000
# 3 -0.001701 -0.000350 0.010269 0.000000 0.000000 0.000000
# 4 0.000000 0.000000 0.000000 0.022256 0.000000 0.000000
# 5 0.000000 0.000000 0.000000 0.000000 0.041289 0.000000
# 6 0.000000 0.000000 0.000000 0.000000 0.000000 0.032634
#
#
# Mechanical properties :
#
#
# Convention : Reuss Voigt Hill
#
# Bulk Modulus (GPa) = 26.44617 30.24402 28.34509
# Shear Modulus (GPa) = 28.43806 32.66950 30.55378
#
# Velocity S-wave (km/s) = 3.69388 3.95917 3.82883
# Velocity P-wave (km/s) = 5.55716 5.95074 5.75732
#
# Compressibility (1/GPa) = 0.03781265
#
# Stress axis : x y z
#
# Youngs Moduli (GPa) = 34.64328 75.24529 97.37691
#
# Poissons Ratio (x) = 0.39538 0.16568
# Poissons Ratio (y) = 0.18204 0.03409
# Poissons Ratio (z) = 0.05894 0.02634
#
# Static dielectric constant tensor:
#      x y z
#    x 3.418060 0.000000 0.000000 
#    y 0.000000 3.870490 0.000000 
#    z 0.000000 0.000000 4.015010 
# 
# 
# High freq. dielectric constant tensor:
#      x y z
#    x 1.785210 0.000000 0.000000 
#    y 0.000000 1.832500 0.000000 
#    z 0.000000 0.000000 1.834990 
# 
# From -- ./inp_files/2676.got.cif
#   From: 2010.03.12/outbox.cif.g09.slc.cpg/sg36_2_cif.got.tgz:2676.got - 2010.04.14 02:13:53.
