data_PCOD8175143
_publ_section_title
;
Structure prediction by ZEFSAII (Michael W. Deem and Ramdas Pophale) SiO2 
 PCOD8175143
Probable space group: C M C 21
;
_chemical_formula_sum "Si O2"
_cell_formula_units_Z 48
_cell_length_a 8.856907
_cell_length_b 30.695415
_cell_length_c 8.893292
_cell_angle_alpha 90.000000
_cell_angle_beta 90.000000
_cell_angle_gamma 90.000000
_cell_volume 2417.787600
_symmetry_space_group_name_H-M "C M C 21"
_symmetry_group_IT_number 36
_symmetry_cell_setting 'orthorhombic'
loop_
_space_group_symop_operation_xyz
x,y,z
-x,-y,1/2+z
x,-y,1/2+z
-x,y,z
1/2+x,1/2+y,z
1/2-x,1/2-y,1/2+z
1/2+x,1/2-y,1/2+z
1/2-x,1/2+y,z
loop_
_atom_site_type_symbol
_atom_site_label
_atom_site_fract_x
_atom_site_fract_y
_atom_site_fract_z
Si Si1 0.324044 0.123316 0.781850
Si Si2 0.678167 0.716731 0.288678
Si Si3 0.822748 0.636072 0.128180
Si Si4 0.677932 0.964638 0.123555
Si Si5 0.680390 0.950676 0.789964
Si Si6 0.677602 0.702937 0.630231
O O1 0.500000 0.132965 0.751258
O O2 0.280642 0.074301 0.736335
O O3 0.224231 0.154822 0.679837
O O4 0.281924 0.129046 0.955026
O O5 0.500000 0.716949 0.275218
O O6 0.741455 0.679378 0.181940
O O7 0.731375 0.709255 0.459201
O O8 0.739546 0.763190 0.237898
O O9 0.760937 0.594737 0.221334
O O10 0.000000 0.642221 0.152350
O O11 0.500000 0.969684 0.107716
O O12 0.744968 0.009434 0.190478
O O13 0.745792 0.955361 0.958447
O O14 0.500000 0.951372 0.788779
O O15 0.500000 0.709642 0.646598
#
# Coordination Sequence:
#
# PCOD8175143 Si02
#       6
#     8   8   8   8   8   8
#     4  10  20  34  54  81 111 143 181 223 267 317
#     4  11  24  40  58  81 108 139 177 220 267 321
#     4  10  20  34  54  81 111 143 181 223 267 317
#     4   9  16  27  46  74 108 144 181 222 266 311
#     4   9  16  27  46  74 108 144 181 222 266 311
#     4  11  24  40  58  81 108 139 177 220 267 321
#
# _framework density 19.85286
#
# number of rings (size 3 to 8) (size 9 to 14) (size 15 to 20)
#    0.000    2.000    0.000    4.000    0.000   12.667 
#    0.000    0.000    0.000    1.000    0.000    0.000 
#    0.000    0.000    0.000    0.000    0.000    0.000 
#
# Total GULP energy -297687.853637 kJ/mol
# GULP energy per Si atom -12403.660568 kJ/mol
# Density = 1.980767 g / cm^3
# Si number density = 19.852860 Si / 1000 Ang^3
#
#
#
# Elastic Constant Matrix: (Units=GPa)
#
#
# Indices 1 2 3 4 5 6 
#
# 1 25.4631 6.0334 20.9876 0.0000 0.0000 0.0000
# 2 6.0334 71.9588 2.7850 0.0000 0.0000 0.0000
# 3 20.9876 2.7850 97.2835 0.0000 0.0000 0.0000
# 4 0.0000 0.0000 0.0000 46.8782 0.0000 0.0000
# 5 0.0000 0.0000 0.0000 0.0000 21.3561 0.0000
# 6 0.0000 0.0000 0.0000 0.0000 0.0000 19.7988
#
#
#
# Elastic Compliance Matrix: (Units=1/GPa)
#
#
# Indices 1 2 3 4 5 6 
#
# 1 0.048722 -0.003682 -0.010406 0.000000 0.000000 0.000000
# 2 -0.003682 0.014191 0.000388 0.000000 0.000000 0.000000
# 3 -0.010406 0.000388 0.012513 0.000000 0.000000 0.000000
# 4 0.000000 0.000000 0.000000 0.021332 0.000000 0.000000
# 5 0.000000 0.000000 0.000000 0.000000 0.046825 0.000000
# 6 0.000000 0.000000 0.000000 0.000000 0.000000 0.050508
#
#
# Mechanical properties :
#
#
# Convention : Reuss Voigt Hill
#
# Bulk Modulus (GPa) = 20.82223 28.25750 24.53986
# Shear Modulus (GPa) = 21.05278 28.59992 24.82635
#
# Velocity S-wave (km/s) = 3.25997 3.79963 3.54010
# Velocity P-wave (km/s) = 4.96799 5.78913 5.39421
#
# Compressibility (1/GPa) = 0.04802560
#
# Stress axis : x y z
#
# Youngs Moduli (GPa) = 20.52476 70.46932 79.91691
#
# Poissons Ratio (x) = 0.25949 0.83158
# Poissons Ratio (y) = 0.07558 -0.03102
# Poissons Ratio (z) = 0.21357 -0.02735
#
# Static dielectric constant tensor:
#      x y z
#    x 3.169540 0.000000 0.000000 
#    y 0.000000 3.760930 0.000000 
#    z 0.000000 0.000000 3.874300 
# 
# 
# High freq. dielectric constant tensor:
#      x y z
#    x 1.727560 0.000000 0.000000 
#    y 0.000000 1.792560 0.000000 
#    z 0.000000 0.000000 1.793930 
# 
# From -- ./inp_files/2656.got.cif
#   From: 2010.03.12/outbox.cif.g09.slc.cpg/sg36_2_cif.got.tgz:2656.got - 2010.04.14 02:13:53.
