data_PCOD8175106
_publ_section_title
;
Structure prediction by ZEFSAII (Michael W. Deem and Ramdas Pophale) SiO2 
 PCOD8175106
Probable space group: C M C 21
;
_chemical_formula_sum "Si O2"
_cell_formula_units_Z 48
_cell_length_a 8.766077
_cell_length_b 24.106928
_cell_length_c 12.075217
_cell_angle_alpha 90.000000
_cell_angle_beta 90.000000
_cell_angle_gamma 90.000000
_cell_volume 2551.773341
_symmetry_space_group_name_H-M "C M C 21"
_symmetry_group_IT_number 36
_symmetry_cell_setting 'orthorhombic'
loop_
_space_group_symop_operation_xyz
x,y,z
-x,-y,1/2+z
x,-y,1/2+z
-x,y,z
1/2+x,1/2+y,z
1/2-x,1/2-y,1/2+z
1/2+x,1/2-y,1/2+z
1/2-x,1/2+y,z
loop_
_atom_site_type_symbol
_atom_site_label
_atom_site_fract_x
_atom_site_fract_y
_atom_site_fract_z
Si Si1 0.181246 0.830394 0.307020
Si Si2 0.818873 0.855485 0.061889
Si Si3 0.180742 0.707637 0.364021
Si Si4 0.820277 0.039559 0.428598
Si Si5 0.182179 0.081016 0.982942
Si Si6 0.319383 0.612278 0.226555
O O1 0.242994 0.846457 0.185596
O O2 0.239654 0.769573 0.339462
O O3 0.246415 0.874555 0.395195
O O4 0.000000 0.832596 0.306945
O O5 0.000000 0.849077 0.053555
O O6 0.745758 0.809244 0.983157
O O7 0.766520 0.916638 0.021999
O O8 0.241407 0.668902 0.265621
O O9 0.000000 0.704410 0.367111
O O10 0.770828 0.061882 0.307787
O O11 0.000000 0.033151 0.434016
O O12 0.747923 0.979241 0.451821
O O13 0.000000 0.079712 0.981238
O O14 0.240438 0.097763 0.104607
O O15 0.500000 0.621490 0.230471
#
# Coordination Sequence:
#
# PCOD8175106 Si02
#       6
#     8   8   8   8   8   8
#     4   9  19  31  47  73 104 132 162 201 247 293
#     4   9  18  34  53  75 100 129 164 206 251 295
#     4  10  20  34  51  72  99 136 170 201 245 293
#     4   8  15  27  47  75 100 124 158 201 249 292
#     4   9  17  28  48  78 106 127 157 205 251 294
#     4   9  18  32  52  77 101 130 165 204 249 293
#
# _framework density 18.810447
#
# number of rings (size 3 to 8) (size 9 to 14) (size 15 to 20)
#    0.000    3.000    0.000    1.500    4.667    0.000 
#    0.000    0.833    0.000    5.000    0.000    0.000 
#    0.000    0.000    0.000    0.000    0.000    0.000 
#
# Total GULP energy -297548.593154 kJ/mol
# GULP energy per Si atom -12397.858048 kJ/mol
# Density = 1.876763 g / cm^3
# Si number density = 18.810447 Si / 1000 Ang^3
#
#
#
# Elastic Constant Matrix: (Units=GPa)
#
#
# Indices 1 2 3 4 5 6 
#
# 1 21.6667 20.0236 19.8291 0.0000 0.0000 0.0000
# 2 20.0236 189.0163 118.2470 0.0000 0.0000 0.0000
# 3 19.8291 118.2470 201.8602 0.0000 0.0000 0.0000
# 4 0.0000 0.0000 0.0000 23.2041 0.0000 0.0000
# 5 0.0000 0.0000 0.0000 0.0000 16.4803 0.0000
# 6 0.0000 0.0000 0.0000 0.0000 0.0000 20.8914
#
#
#
# Elastic Compliance Matrix: (Units=1/GPa)
#
#
# Indices 1 2 3 4 5 6 
#
# 1 0.052278 -0.003671 -0.002985 0.000000 0.000000 0.000000
# 2 -0.003671 0.008609 -0.004682 0.000000 0.000000 0.000000
# 3 -0.002985 -0.004682 0.007990 0.000000 0.000000 0.000000
# 4 0.000000 0.000000 0.000000 0.043096 0.000000 0.000000
# 5 0.000000 0.000000 0.000000 0.000000 0.060679 0.000000
# 6 0.000000 0.000000 0.000000 0.000000 0.000000 0.047867
#
#
# Mechanical properties :
#
#
# Convention : Reuss Voigt Hill
#
# Bulk Modulus (GPa) = 21.64479 80.97141 51.30810
# Shear Modulus (GPa) = 19.33536 29.07806 24.20671
#
# Velocity S-wave (km/s) = 3.20957 3.93599 3.59120
# Velocity P-wave (km/s) = 5.02662 7.98721 6.67317
#
# Compressibility (1/GPa) = 0.04620049
#
# Stress axis : x y z
#
# Youngs Moduli (GPa) = 19.12851 116.16372 125.15759
#
# Poissons Ratio (x) = 0.42639 0.37362
# Poissons Ratio (y) = 0.07021 0.58601
# Poissons Ratio (z) = 0.05710 0.54390
#
# Static dielectric constant tensor:
#      x y z
#    x 2.891490 0.000000 0.000000 
#    y 0.000000 3.731490 0.000000 
#    z 0.000000 0.000000 3.714770 
# 
# 
# High freq. dielectric constant tensor:
#      x y z
#    x 1.672590 0.000000 0.000000 
#    y 0.000000 1.741720 0.000000 
#    z 0.000000 0.000000 1.742030 
# 
# From -- ./inp_files/6718.got.cif
#   From: 2010.03.12/outbox.cif.g09.slc.cpg/sg36_4_cif.got.tgz:6718.got - 2010.04.14 02:13:53.
