data_PCOD8175586
_publ_section_title
;
Structure prediction by ZEFSAII (Michael W. Deem and Ramdas Pophale) SiO2 
 PCOD8175586
Probable space group: C M C 21
;
_chemical_formula_sum "Si O2"
_cell_formula_units_Z 40
_cell_length_a 7.880726
_cell_length_b 28.391401
_cell_length_c 9.114108
_cell_angle_alpha 90.000000
_cell_angle_beta 90.000000
_cell_angle_gamma 90.000000
_cell_volume 2039.234746
_symmetry_space_group_name_H-M "C M C 21"
_symmetry_group_IT_number 36
_symmetry_cell_setting 'orthorhombic'
loop_
_space_group_symop_operation_xyz
x,y,z
-x,-y,1/2+z
x,-y,1/2+z
-x,y,z
1/2+x,1/2+y,z
1/2-x,1/2-y,1/2+z
1/2+x,1/2-y,1/2+z
1/2-x,1/2+y,z
loop_
_atom_site_type_symbol
_atom_site_label
_atom_site_fract_x
_atom_site_fract_y
_atom_site_fract_z
Si Si1 0.312293 0.394205 0.008480
Si Si2 0.500000 0.055681 0.880720
Si Si3 0.689706 0.860985 0.308312
Si Si4 0.298123 0.779758 0.519331
Si Si5 0.000000 0.460624 0.045961
Si Si6 0.195824 0.692205 0.339572
O O1 0.500000 0.417025 0.993260
O O2 0.304387 0.367881 0.165527
O O3 0.168745 0.434027 0.990041
O O4 0.293710 0.355226 0.881919
O O5 0.332508 0.089306 0.897794
O O6 0.500000 0.034136 0.718952
O O7 0.500000 0.014308 0.995899
O O8 0.500000 0.846202 0.252330
O O9 0.769817 0.821678 0.414213
O O10 0.500000 0.777270 0.514726
O O11 0.219775 0.731039 0.465505
O O12 0.232305 0.788829 0.684412
O O13 0.000000 0.679065 0.324271
#
# Coordination Sequence:
#
# PCOD8175586 Si02
#       6
#     8   4   8   8   4   8
#     4  11  21  37  60  84 117 154 194 240 291 341
#     4   8  18  34  64  82 112 154 186 238 301 330
#     4   8  17  37  58  84 109 149 193 236 285 347
#     4  10  21  35  55  80 113 153 197 238 288 345
#     4  10  20  40  60  90 116 152 194 244 289 356
#     4  11  22  35  52  81 117 155 194 241 288 344
#
# _framework density 19.615203000000001
#
# number of rings (size 3 to 8) (size 9 to 14) (size 15 to 20)
#    0.600    1.600    2.000    1.800    0.000    7.200 
#    0.000    4.000    0.000    0.000    0.000    0.000 
#    0.000    0.000    0.000    0.000    0.000    0.000 
#
# Total GULP energy -247903.458842 kJ/mol
# GULP energy per Si atom -12395.172942 kJ/mol
# Density = 1.957056 g / cm^3
# Si number density = 19.615203 Si / 1000 Ang^3
#
#
#
# Elastic Constant Matrix: (Units=GPa)
#
#
# Indices 1 2 3 4 5 6 
#
# 1 82.5229 5.2784 1.8425 0.0000 0.0000 0.0000
# 2 5.2784 58.3957 -5.0567 0.0000 0.0000 0.0000
# 3 1.8425 -5.0567 34.8845 0.0000 0.0000 0.0000
# 4 0.0000 0.0000 0.0000 39.0057 0.0000 0.0000
# 5 0.0000 0.0000 0.0000 0.0000 18.1931 0.0000
# 6 0.0000 0.0000 0.0000 0.0000 0.0000 0.3511
#
#
#
# Elastic Compliance Matrix: (Units=1/GPa)
#
#
# Indices 1 2 3 4 5 6 
#
# 1 0.012211 -0.001174 -0.000815 0.000000 0.000000 0.000000
# 2 -0.001174 0.017455 0.002592 0.000000 0.000000 0.000000
# 3 -0.000815 0.002592 0.029085 0.000000 0.000000 0.000000
# 4 0.000000 0.000000 0.000000 0.025637 0.000000 0.000000
# 5 0.000000 0.000000 0.000000 0.000000 0.054966 0.000000
# 6 0.000000 0.000000 0.000000 0.000000 0.000000 2.848186
#
#
# Mechanical properties :
#
#
# Convention : Reuss Voigt Hill
#
# Bulk Modulus (GPa) = 16.67874 19.99239 18.33556
# Shear Modulus (GPa) = 1.66316 23.09258 12.37787
#
# Velocity S-wave (km/s) = 0.92181 3.43487 2.51477
# Velocity P-wave (km/s) = 3.10715 5.09368 4.21900
#
# Compressibility (1/GPa) = 0.05995658
#
# Stress axis : x y z
#
# Youngs Moduli (GPa) = 81.89226 57.28966 34.38214
#
# Poissons Ratio (x) = 0.06728 0.02803
# Poissons Ratio (y) = 0.09617 -0.08913
# Poissons Ratio (z) = 0.06676 -0.14851
#
# Static dielectric constant tensor:
#      x y z
#    x 3.324400 0.000000 0.000000 
#    y 0.000000 3.448580 0.000000 
#    z 0.000000 0.000000 3.560950 
# 
# 
# High freq. dielectric constant tensor:
#      x y z
#    x 1.744300 0.000000 0.000000 
#    y 0.000000 1.753850 0.000000 
#    z 0.000000 0.000000 1.760660 
# 
# From -- ./inp_files/2571.got.cif
#   From: 2010.03.12/outbox.cif.g09.slc.cpg/sg36_2_cif.got.tgz:2571.got - 2010.04.14 02:13:53.
