data_PCOD8175363
_publ_section_title
;
Structure prediction by ZEFSAII (Michael W. Deem and Ramdas Pophale) SiO2 
 PCOD8175363
Probable space group: C M C 21
;
_chemical_formula_sum "Si O2"
_cell_formula_units_Z 64
_cell_length_a 9.015664
_cell_length_b 26.685440
_cell_length_c 12.989869
_cell_angle_alpha 90.000000
_cell_angle_beta 90.000000
_cell_angle_gamma 90.000000
_cell_volume 3125.193103
_symmetry_space_group_name_H-M "C M C 21"
_symmetry_group_IT_number 36
_symmetry_cell_setting 'orthorhombic'
loop_
_space_group_symop_operation_xyz
x,y,z
-x,-y,1/2+z
x,-y,1/2+z
-x,y,z
1/2+x,1/2+y,z
1/2-x,1/2-y,1/2+z
1/2+x,1/2-y,1/2+z
1/2-x,1/2+y,z
loop_
_atom_site_type_symbol
_atom_site_label
_atom_site_fract_x
_atom_site_fract_y
_atom_site_fract_z
Si Si1 0.834575 0.230528 0.457380
Si Si2 0.325777 0.593438 0.090256
Si Si3 0.337683 0.808134 0.631056
Si Si4 0.675898 0.553927 0.873705
Si Si5 0.169568 0.226843 0.784101
Si Si6 0.174490 0.123495 0.687474
Si Si7 0.676084 0.556531 0.311743
Si Si8 0.175998 0.627355 0.476752
O O1 0.838913 0.257472 0.565943
O O2 0.777439 0.274359 0.381645
O O3 0.721742 0.184675 0.461235
O O4 0.000000 0.211689 0.427370
O O5 0.500000 0.590769 0.080967
O O6 0.283478 0.651718 0.098652
O O7 0.273629 0.564037 0.192674
O O8 0.257106 0.569531 0.985633
O O9 0.500000 0.834222 0.628403
O O10 0.305101 0.783490 0.741720
O O11 0.500000 0.556703 0.877636
O O12 0.733027 0.591168 0.784395
O O13 0.729284 0.498234 0.846667
O O14 0.213451 0.181632 0.707904
O O15 0.000000 0.218528 0.819171
O O16 0.258499 0.106133 0.584181
O O17 0.000000 0.115051 0.668433
O O18 0.500000 0.563802 0.323942
O O19 0.760043 0.596382 0.381453
O O20 0.000000 0.622667 0.478369
#
# Coordination Sequence:
#
# PCOD8175363 Si02
#       8
#     8   8   8   8   8   8   8   8
#     4  11  22  38  59  86 119 161 207 247 295 355
#     4  10  21  38  61  93 123 154 202 253 302 366
#     4  10  21  37  56  82 119 161 194 231 294 354
#     4   9  20  38  66  96 119 153 204 257 308 363
#     4  10  20  36  58  88 124 159 196 243 302 359
#     4  10  20  39  65  92 126 164 202 253 309 365
#     4  10  22  40  65  93 120 157 204 258 311 367
#     4  12  25  40  60  90 126 165 209 256 307 365
#
# _framework density 20.478733999999999
#
# number of rings (size 3 to 8) (size 9 to 14) (size 15 to 20)
#    0.000    1.750    1.250    3.000    1.750    5.500 
#    0.000    1.875    0.000    0.000    0.000    0.000 
#    0.000    0.000    0.000    0.000    0.000    0.000 
#
# Total GULP energy -396738.676045 kJ/mol
# GULP energy per Si atom -12398.083626 kJ/mol
# Density = 2.043212 g / cm^3
# Si number density = 20.478734 Si / 1000 Ang^3
#
#
#
# Elastic Constant Matrix: (Units=GPa)
#
#
# Indices 1 2 3 4 5 6 
#
# 1 57.2141 23.9725 44.3443 0.0000 0.0000 0.0000
# 2 23.9725 100.6682 40.5875 0.0000 0.0000 0.0000
# 3 44.3443 40.5875 127.1308 0.0000 0.0000 0.0000
# 4 0.0000 0.0000 0.0000 29.4760 0.0000 0.0000
# 5 0.0000 0.0000 0.0000 0.0000 24.8350 0.0000
# 6 0.0000 0.0000 0.0000 0.0000 0.0000 21.8345
#
#
#
# Elastic Compliance Matrix: (Units=1/GPa)
#
#
# Indices 1 2 3 4 5 6 
#
# 1 0.024601 -0.002753 -0.007702 0.000000 0.000000 0.000000
# 2 -0.002753 0.011709 -0.002778 0.000000 0.000000 0.000000
# 3 -0.007702 -0.002778 0.011439 0.000000 0.000000 0.000000
# 4 0.000000 0.000000 0.000000 0.033926 0.000000 0.000000
# 5 0.000000 0.000000 0.000000 0.000000 0.040266 0.000000
# 6 0.000000 0.000000 0.000000 0.000000 0.000000 0.045799
#
#
# Mechanical properties :
#
#
# Convention : Reuss Voigt Hill
#
# Bulk Modulus (GPa) = 46.98465 55.86907 51.42686
# Shear Modulus (GPa) = 24.83831 26.96969 25.90400
#
# Velocity S-wave (km/s) = 3.48643 3.63293 3.56043
# Velocity P-wave (km/s) = 6.26098 6.70361 6.48607
#
# Compressibility (1/GPa) = 0.02128355
#
# Stress axis : x y z
#
# Youngs Moduli (GPa) = 40.64810 85.40267 87.41704
#
# Poissons Ratio (x) = 0.23511 0.67331
# Poissons Ratio (y) = 0.11190 0.24284
# Poissons Ratio (z) = 0.31308 0.23725
#
# Static dielectric constant tensor:
#      x y z
#    x 3.460700 0.000000 0.000000 
#    y 0.000000 3.628910 0.000000 
#    z 0.000000 0.000000 4.041380 
# 
# 
# High freq. dielectric constant tensor:
#      x y z
#    x 1.770760 0.000000 0.000000 
#    y 0.000000 1.797550 0.000000 
#    z 0.000000 0.000000 1.821060 
# 
# From -- ./inp_files/7188.got.cif
#   From: 2010.03.12/outbox.cif.g09.slc.cpg/sg36_4_cif.got.tgz:7188.got - 2010.04.14 02:13:53.
