data_PCOD8175371
_publ_section_title
;
Structure prediction by ZEFSAII (Michael W. Deem and Ramdas Pophale) SiO2 
 PCOD8175371
Probable space group: C M C 21
;
_chemical_formula_sum "Si O2"
_cell_formula_units_Z 64
_cell_length_a 8.932901
_cell_length_b 28.803182
_cell_length_c 12.416838
_cell_angle_alpha 90.000000
_cell_angle_beta 90.000000
_cell_angle_gamma 90.000000
_cell_volume 3194.802418
_symmetry_space_group_name_H-M "C M C 21"
_symmetry_group_IT_number 36
_symmetry_cell_setting 'orthorhombic'
loop_
_space_group_symop_operation_xyz
x,y,z
-x,-y,1/2+z
x,-y,1/2+z
-x,y,z
1/2+x,1/2+y,z
1/2-x,1/2-y,1/2+z
1/2+x,1/2-y,1/2+z
1/2-x,1/2+y,z
loop_
_atom_site_type_symbol
_atom_site_label
_atom_site_fract_x
_atom_site_fract_y
_atom_site_fract_z
Si Si1 0.834251 0.936670 0.416090
Si Si2 0.823851 0.280642 0.343786
Si Si3 0.833858 0.160834 0.012171
Si Si4 0.668458 0.069233 0.707943
Si Si5 0.323079 0.319785 0.910918
Si Si6 0.822282 0.888957 0.729402
Si Si7 0.829430 0.468895 0.622254
Si Si8 0.822557 0.162621 0.650835
O O1 0.841375 0.881444 0.428619
O O2 0.716723 0.949013 0.324485
O O3 0.779112 0.960245 0.523776
O O4 0.000000 0.955822 0.388267
O O5 0.778567 0.302507 0.459036
O O6 0.771587 0.227143 0.350742
O O7 0.745857 0.303985 0.241283
O O8 0.000000 0.286135 0.328788
O O9 0.000000 0.182877 0.024333
O O10 0.775060 0.143795 0.128465
O O11 0.500000 0.089115 0.712383
O O12 0.778607 0.109064 0.666921
O O13 0.678417 0.023898 0.635252
O O14 0.500000 0.320366 0.918010
O O15 0.269761 0.363637 0.839123
O O16 0.260032 0.322724 0.032805
O O17 0.735404 0.938199 0.721903
O O18 0.000000 0.898108 0.725652
O O19 0.000000 0.453067 0.600748
O O20 0.000000 0.166804 0.658384
#
# Coordination Sequence:
#
# PCOD8175371 Si02
#       8
#     8   8   8   8   8   8   8   8
#     4  10  20  36  59  85 114 152 199 247 295 353
#     4  11  22  37  60  87 117 155 197 244 303 360
#     4   9  18  33  57  85 112 145 192 249 292 343
#     4  11  23  39  60  87 121 159 198 250 308 358
#     4   9  22  41  60  86 122 162 201 251 304 357
#     4   9  19  39  62  84 116 158 206 250 296 354
#     4  10  22  38  58  88 124 158 198 249 305 362
#     4  11  23  41  62  88 122 157 203 252 301 363
#
# _framework density 20.032537999999999
#
# number of rings (size 3 to 8) (size 9 to 14) (size 15 to 20)
#    0.000    2.000    1.250    2.625    1.750    5.000 
#    0.000    6.875    0.000    0.000    0.000    0.000 
#    0.000    0.000    0.000    0.000    0.000    0.000 
#
# Total GULP energy -396743.323228 kJ/mol
# GULP energy per Si atom -12398.228851 kJ/mol
# Density = 1.998694 g / cm^3
# Si number density = 20.032538 Si / 1000 Ang^3
#
#
#
# Elastic Constant Matrix: (Units=GPa)
#
#
# Indices 1 2 3 4 5 6 
#
# 1 79.1303 35.9905 28.9334 0.0000 0.0000 0.0000
# 2 35.9905 90.4133 37.4716 0.0000 0.0000 0.0000
# 3 28.9334 37.4716 92.5556 0.0000 0.0000 0.0000
# 4 0.0000 0.0000 0.0000 23.2919 0.0000 0.0000
# 5 0.0000 0.0000 0.0000 0.0000 25.0263 0.0000
# 6 0.0000 0.0000 0.0000 0.0000 0.0000 26.0795
#
#
#
# Elastic Compliance Matrix: (Units=1/GPa)
#
#
# Indices 1 2 3 4 5 6 
#
# 1 0.016064 -0.005183 -0.002923 0.000000 0.000000 0.000000
# 2 -0.005183 0.014963 -0.004437 0.000000 0.000000 0.000000
# 3 -0.002923 -0.004437 0.013515 0.000000 0.000000 0.000000
# 4 0.000000 0.000000 0.000000 0.042933 0.000000 0.000000
# 5 0.000000 0.000000 0.000000 0.000000 0.039958 0.000000
# 6 0.000000 0.000000 0.000000 0.000000 0.000000 0.038344
#
#
# Mechanical properties :
#
#
# Convention : Reuss Voigt Hill
#
# Bulk Modulus (GPa) = 51.40429 51.87670 51.64049
# Shear Modulus (GPa) = 25.33592 25.52642 25.43117
#
# Velocity S-wave (km/s) = 3.56017 3.57353 3.56686
# Velocity P-wave (km/s) = 6.52808 6.55586 6.54199
#
# Compressibility (1/GPa) = 0.01945363
#
# Stress axis : x y z
#
# Youngs Moduli (GPa) = 62.25277 66.83360 73.99352
#
# Poissons Ratio (x) = 0.34639 0.21630
# Poissons Ratio (y) = 0.32264 0.32835
# Poissons Ratio (z) = 0.18198 0.29657
#
# Static dielectric constant tensor:
#      x y z
#    x 3.619500 0.000000 0.000000 
#    y 0.000000 3.712090 0.000000 
#    z 0.000000 0.000000 3.749630 
# 
# 
# High freq. dielectric constant tensor:
#      x y z
#    x 1.775590 0.000000 0.000000 
#    y 0.000000 1.776370 0.000000 
#    z 0.000000 0.000000 1.783690 
# 
# From -- ./inp_files/7243.got.cif
#   From: 2010.03.12/outbox.cif.g09.slc.cpg/sg36_4_cif.got.tgz:7243.got - 2010.04.14 02:13:53.
