data_PCOD8175185
_publ_section_title
;
Structure prediction by ZEFSAII (Michael W. Deem and Ramdas Pophale) SiO2 
 PCOD8175185
Probable space group: C M C 21
;
_chemical_formula_sum "Si O2"
_cell_formula_units_Z 64
_cell_length_a 8.712337
_cell_length_b 15.561338
_cell_length_c 23.856032
_cell_angle_alpha 90.000000
_cell_angle_beta 90.000000
_cell_angle_gamma 90.000000
_cell_volume 3234.296349
_symmetry_space_group_name_H-M "C M C 21"
_symmetry_group_IT_number 36
_symmetry_cell_setting 'orthorhombic'
loop_
_space_group_symop_operation_xyz
x,y,z
-x,-y,1/2+z
x,-y,1/2+z
-x,y,z
1/2+x,1/2+y,z
1/2-x,1/2-y,1/2+z
1/2+x,1/2-y,1/2+z
1/2-x,1/2+y,z
loop_
_atom_site_type_symbol
_atom_site_label
_atom_site_fract_x
_atom_site_fract_y
_atom_site_fract_z
Si Si1 0.822540 0.974835 0.642630
Si Si2 0.322152 0.209449 0.273753
Si Si3 0.821009 0.387012 0.463461
Si Si4 0.683219 0.458783 0.026829
Si Si5 0.182318 0.976150 0.766226
Si Si6 0.678336 0.130783 0.833601
Si Si7 0.326450 0.800157 0.647497
Si Si8 0.177215 0.772303 0.031730
O O1 0.756981 0.002361 0.703733
O O2 0.795565 0.873870 0.635265
O O3 0.000000 0.996232 0.642140
O O4 0.746972 0.021224 0.588871
O O5 0.500000 0.211570 0.290982
O O6 0.259074 0.113592 0.284893
O O7 0.229919 0.277069 0.310803
O O8 0.299242 0.239169 0.209087
O O9 0.741017 0.475638 0.480281
O O10 0.786486 0.368084 0.399198
O O11 0.746705 0.308907 0.499986
O O12 0.000000 0.397569 0.476116
O O13 0.500000 0.462329 0.028757
O O14 0.743807 0.363481 0.010407
O O15 0.000000 0.962815 0.766678
O O16 0.227094 0.052413 0.807503
O O17 0.500000 0.116623 0.820515
O O18 0.500000 0.837748 0.643820
O O19 0.300329 0.729479 0.599239
O O20 0.000000 0.768957 0.015360
#
# Coordination Sequence:
#
# PCOD8175185 Si02
#       8
#     8   8   8   8   8   8   8   8
#     4   9  18  32  54  84 119 147 180 234 291 344
#     4  10  21  37  60  90 120 154 194 241 296 353
#     4  10  22  41  59  79 113 153 195 239 285 340
#     4  10  20  34  57  86 114 146 188 235 285 346
#     4  10  21  38  60  86 120 158 196 242 296 350
#     4  11  24  40  59  84 117 160 207 248 287 346
#     4   9  17  32  58  83 113 151 188 226 281 350
#     4   9  18  34  57  82 110 147 186 227 281 343
#
# _framework density 19.787921000000001
#
# number of rings (size 3 to 8) (size 9 to 14) (size 15 to 20)
#    0.000    2.250    1.250    1.125    1.750    3.000 
#    0.000    2.500    0.000    0.000    0.000    0.000 
#    0.000    0.000    0.000    0.000    0.000    0.000 
#
# Total GULP energy -396657.543564 kJ/mol
# GULP energy per Si atom -12395.548236 kJ/mol
# Density = 1.974288 g / cm^3
# Si number density = 19.787921 Si / 1000 Ang^3
#
#
#
# Elastic Constant Matrix: (Units=GPa)
#
#
# Indices 1 2 3 4 5 6 
#
# 1 30.8136 14.7041 26.6468 0.0000 0.0000 0.0000
# 2 14.7041 105.0478 42.0400 0.0000 0.0000 0.0000
# 3 26.6468 42.0400 87.8124 0.0000 0.0000 0.0000
# 4 0.0000 0.0000 0.0000 28.8573 0.0000 0.0000
# 5 0.0000 0.0000 0.0000 0.0000 23.2138 0.0000
# 6 0.0000 0.0000 0.0000 0.0000 0.0000 29.2923
#
#
#
# Elastic Compliance Matrix: (Units=1/GPa)
#
#
# Indices 1 2 3 4 5 6 
#
# 1 0.044086 -0.001011 -0.012894 0.000000 0.000000 0.000000
# 2 -0.001011 0.011799 -0.005342 0.000000 0.000000 0.000000
# 3 -0.012894 -0.005342 0.017858 0.000000 0.000000 0.000000
# 4 0.000000 0.000000 0.000000 0.034653 0.000000 0.000000
# 5 0.000000 0.000000 0.000000 0.000000 0.043078 0.000000
# 6 0.000000 0.000000 0.000000 0.000000 0.000000 0.034139
#
#
# Mechanical properties :
#
#
# Convention : Reuss Voigt Hill
#
# Bulk Modulus (GPa) = 28.36930 43.38394 35.87662
# Shear Modulus (GPa) = 21.19938 25.62487 23.41213
#
# Velocity S-wave (km/s) = 3.27667 3.60248 3.44343
# Velocity P-wave (km/s) = 5.35567 6.26705 5.82920
#
# Compressibility (1/GPa) = 0.03524937
#
# Stress axis : x y z
#
# Youngs Moduli (GPa) = 22.68291 84.75445 55.99710
#
# Poissons Ratio (x) = 0.08567 0.72203
# Poissons Ratio (y) = 0.02293 0.29913
# Poissons Ratio (z) = 0.29247 0.45275
#
# Static dielectric constant tensor:
#      x y z
#    x 3.427100 0.000000 0.000000 
#    y 0.000000 3.617730 0.000000 
#    z 0.000000 0.000000 3.747650 
# 
# 
# High freq. dielectric constant tensor:
#      x y z
#    x 1.749760 0.000000 0.000000 
#    y 0.000000 1.772430 0.000000 
#    z 0.000000 0.000000 1.775230 
# 
# From -- ./inp_files/16539.got.cif
#   From: 2010.03.12/outbox.cif.g09.slc.cpg/sg36_9_cif.got.tgz:16539.got - 2010.04.14 02:13:53.
