data_PCOD8175698
_publ_section_title
;
Structure prediction by ZEFSAII (Michael W. Deem and Ramdas Pophale) SiO2 
 PCOD8175698
Probable space group: C M C 21
;
_chemical_formula_sum "Si O2"
_cell_formula_units_Z 64
_cell_length_a 29.129975
_cell_length_b 13.493207
_cell_length_c 8.870367
_cell_angle_alpha 90.000000
_cell_angle_beta 90.000000
_cell_angle_gamma 90.000000
_cell_volume 3486.557913
_symmetry_space_group_name_H-M "C M C 21"
_symmetry_group_IT_number 36
_symmetry_cell_setting 'orthorhombic'
loop_
_space_group_symop_operation_xyz
x,y,z
-x,-y,1/2+z
x,-y,1/2+z
-x,y,z
1/2+x,1/2+y,z
1/2-x,1/2-y,1/2+z
1/2+x,1/2-y,1/2+z
1/2-x,1/2+y,z
loop_
_atom_site_type_symbol
_atom_site_label
_atom_site_fract_x
_atom_site_fract_y
_atom_site_fract_z
Si Si1 0.134574 0.115727 0.434930
Si Si2 0.050532 0.131469 0.893757
Si Si3 0.191628 0.606651 0.182101
Si Si4 0.214488 0.415216 0.345909
Si Si5 0.551809 0.567992 0.229640
Si Si6 0.314779 0.415214 0.439958
Si Si7 0.711455 0.699871 0.231579
Si Si8 0.370305 0.280240 0.238590
O O1 0.091540 0.123294 0.321581
O O2 0.180353 0.165239 0.369622
O O3 0.117083 0.180623 0.573702
O O4 0.149512 0.003402 0.479516
O O5 0.085853 0.218211 0.850430
O O6 0.000000 0.179075 0.897804
O O7 0.054307 0.048493 0.764281
O O8 0.062558 0.081465 0.053368
O O9 0.187618 0.496854 0.249263
O O10 0.237710 0.656634 0.245001
O O11 0.147969 0.668412 0.239514
O O12 0.188318 0.606081 0.001349
O O13 0.265024 0.455995 0.390850
O O14 0.215852 0.318637 0.239109
O O15 0.500000 0.607069 0.269798
O O16 0.311849 0.338376 0.578139
O O17 0.331997 0.356169 0.295808
#
# Coordination Sequence:
#
# PCOD8175698 Si02
#       8
#     8   8   8   8   8   8   8   8
#     4  12  22  37  56  88 119 156 200 235 290 347
#     4  10  21  37  57  84 118 154 191 236 293 356
#     4  11  25  39  59  83 113 157 200 249 292 339
#     4  11  24  41  58  79 115 159 202 248 290 335
#     4  10  21  37  57  84 119 158 192 232 291 359
#     4  11  23  34  58  82 116 162 194 242 284 342
#     4  11  23  39  56  82 119 157 202 240 289 346
#     4  12  23  36  56  88 117 151 202 236 291 352
#
# _framework density 18.356214000000001
#
# number of rings (size 3 to 8) (size 9 to 14) (size 15 to 20)
#    0.000    1.000    5.000    2.250    3.500    1.500 
#    0.000    0.000    0.000    0.000    0.000    1.750 
#    0.000    0.000    0.000    0.000    0.000    0.000 
#
# Total GULP energy -396802.933651 kJ/mol
# GULP energy per Si atom -12400.091677 kJ/mol
# Density = 1.831443 g / cm^3
# Si number density = 18.356214 Si / 1000 Ang^3
#
#
#
# Elastic Constant Matrix: (Units=GPa)
#
#
# Indices 1 2 3 4 5 6 
#
# 1 94.9571 41.4545 47.7284 0.0000 0.0000 0.0000
# 2 41.4545 107.2351 38.5600 0.0000 0.0000 0.0000
# 3 47.7284 38.5600 91.4430 0.0000 0.0000 0.0000
# 4 0.0000 0.0000 0.0000 23.6833 0.0000 0.0000
# 5 0.0000 0.0000 0.0000 0.0000 31.8691 0.0000
# 6 0.0000 0.0000 0.0000 0.0000 0.0000 26.0009
#
#
#
# Elastic Compliance Matrix: (Units=1/GPa)
#
#
# Indices 1 2 3 4 5 6 
#
# 1 0.015374 -0.003604 -0.006505 0.000000 0.000000 0.000000
# 2 -0.003604 0.011837 -0.003110 0.000000 0.000000 0.000000
# 3 -0.006505 -0.003110 0.015642 0.000000 0.000000 0.000000
# 4 0.000000 0.000000 0.000000 0.042224 0.000000 0.000000
# 5 0.000000 0.000000 0.000000 0.000000 0.031378 0.000000
# 6 0.000000 0.000000 0.000000 0.000000 0.000000 0.038460
#
#
# Mechanical properties :
#
#
# Convention : Reuss Voigt Hill
#
# Bulk Modulus (GPa) = 60.91906 61.01345 60.96626
# Shear Modulus (GPa) = 26.76295 27.37014 27.06654
#
# Velocity S-wave (km/s) = 3.82249 3.86561 3.84411
# Velocity P-wave (km/s) = 7.26231 7.29621 7.27928
#
# Compressibility (1/GPa) = 0.01641522
#
# Stress axis : x y z
#
# Youngs Moduli (GPa) = 65.04520 84.48067 63.92912
#
# Poissons Ratio (x) = 0.30449 0.41583
# Poissons Ratio (y) = 0.23444 0.19884
# Poissons Ratio (z) = 0.42309 0.26276
#
# Static dielectric constant tensor:
#      x y z
#    x 3.487370 0.000000 0.000000 
#    y 0.000000 3.222770 0.000000 
#    z 0.000000 0.000000 3.449480 
# 
# 
# High freq. dielectric constant tensor:
#      x y z
#    x 1.704390 0.000000 0.000000 
#    y 0.000000 1.678680 0.000000 
#    z 0.000000 0.000000 1.726670 
# 
# From -- ./inp_files/6081.got.cif
#   From: 2010.03.12/outbox.cif.g09.slc.cpg/sg36_4_cif.got.tgz:6081.got - 2010.04.14 02:13:53.
