data_PCOD8175652
_publ_section_title
;
Structure prediction by ZEFSAII (Michael W. Deem and Ramdas Pophale) SiO2 
 PCOD8175652
Probable space group: C M C 21
;
_chemical_formula_sum "Si O2"
_cell_formula_units_Z 56
_cell_length_a 17.233888
_cell_length_b 5.066438
_cell_length_c 32.645144
_cell_angle_alpha 90.000000
_cell_angle_beta 90.000000
_cell_angle_gamma 90.000000
_cell_volume 2850.391979
_symmetry_space_group_name_H-M "C M C 21"
_symmetry_group_IT_number 36
_symmetry_cell_setting 'orthorhombic'
loop_
_space_group_symop_operation_xyz
x,y,z
-x,-y,1/2+z
x,-y,1/2+z
-x,y,z
1/2+x,1/2+y,z
1/2-x,1/2-y,1/2+z
1/2+x,1/2-y,1/2+z
1/2-x,1/2+y,z
loop_
_atom_site_type_symbol
_atom_site_label
_atom_site_fract_x
_atom_site_fract_y
_atom_site_fract_z
Si Si1 0.409846 0.560299 0.841870
Si Si2 0.090152 0.939682 0.497160
Si Si3 0.089214 0.551897 0.049547
Si Si4 0.799991 0.530622 0.623541
Si Si5 0.200009 0.469343 0.715489
Si Si6 0.089216 0.551886 0.789483
Si Si7 0.697188 0.458547 0.419516
O O1 0.500000 0.567916 0.855632
O O2 0.395253 0.338616 0.807869
O O3 0.356982 0.497628 0.880491
O O4 0.382146 0.836379 0.822461
O O5 0.117856 0.663607 0.516569
O O6 0.143021 0.002370 0.458541
O O7 0.000000 0.932042 0.483395
O O8 0.104736 0.161367 0.531161
O O9 0.131538 0.528030 0.092490
O O10 0.000000 0.499499 0.059341
O O11 0.770226 0.826850 0.616292
O O12 0.833270 0.499983 0.669515
O O13 0.270227 0.673113 0.722737
O O14 0.131537 0.527998 0.746540
O O15 0.000000 0.499522 0.779690
O O16 0.766824 0.667477 0.419515
#
# Coordination Sequence:
#
# PCOD8175652 Si02
#       7
#     8   8   8   8   8   8   8
#     4  10  22  40  58  79 111 147 180 221 276 327
#     4  10  22  40  58  79 111 147 180 221 276 327
#     4  10  21  37  59  83 107 143 187 225 267 321
#     4  10  21  36  55  81 113 147 180 220 274 326
#     4  10  21  36  55  81 113 147 180 220 274 326
#     4  10  21  37  59  83 107 143 187 225 267 321
#     4  12  25  38  57  86 112 140 184 228 269 320
#
# _framework density 19.646422000000001
#
# number of rings (size 3 to 8) (size 9 to 14) (size 15 to 20)
#    0.000    1.714    0.000    3.857    0.000    7.429 
#    0.000    5.714    0.000   10.286    0.000    0.000 
#    0.000    0.000    0.000    0.000    0.000    0.000 
#
# Total GULP energy -347348.246817 kJ/mol
# GULP energy per Si atom -12405.294529 kJ/mol
# Density = 1.960171 g / cm^3
# Si number density = 19.646422 Si / 1000 Ang^3
#
#
#
# Elastic Constant Matrix: (Units=GPa)
#
#
# Indices 1 2 3 4 5 6 
#
# 1 66.0346 11.7917 64.0574 0.0000 0.0000 0.0000
# 2 11.7917 76.1749 5.0879 0.0000 0.0000 0.0000
# 3 64.0574 5.0879 114.7099 0.0000 0.0000 0.0000
# 4 0.0000 0.0000 0.0000 24.0206 0.0000 0.0000
# 5 0.0000 0.0000 0.0000 0.0000 60.1869 0.0000
# 6 0.0000 0.0000 0.0000 0.0000 0.0000 22.8225
#
#
#
# Elastic Compliance Matrix: (Units=1/GPa)
#
#
# Indices 1 2 3 4 5 6 
#
# 1 0.034237 -0.004035 -0.018940 0.000000 0.000000 0.000000
# 2 -0.004035 0.013642 0.001648 0.000000 0.000000 0.000000
# 3 -0.018940 0.001648 0.019221 0.000000 0.000000 0.000000
# 4 0.000000 0.000000 0.000000 0.041631 0.000000 0.000000
# 5 0.000000 0.000000 0.000000 0.000000 0.016615 0.000000
# 6 0.000000 0.000000 0.000000 0.000000 0.000000 0.043816
#
#
# Mechanical properties :
#
#
# Convention : Reuss Voigt Hill
#
# Bulk Modulus (GPa) = 40.90494 46.53261 43.71878
# Shear Modulus (GPa) = 22.73090 33.13814 27.93452
#
# Velocity S-wave (km/s) = 3.40516 4.11143 3.77485
# Velocity P-wave (km/s) = 6.02710 6.80257 6.42654
#
# Compressibility (1/GPa) = 0.02444692
#
# Stress axis : x y z
#
# Youngs Moduli (GPa) = 29.20826 73.30202 52.02597
#
# Poissons Ratio (x) = 0.29576 0.98537
# Poissons Ratio (y) = 0.11785 -0.08574
# Poissons Ratio (z) = 0.55320 -0.12080
#
# Static dielectric constant tensor:
#      x y z
#    x 3.439710 0.000000 0.000000 
#    y 0.000000 3.880840 0.000000 
#    z 0.000000 0.000000 3.544190 
# 
# 
# High freq. dielectric constant tensor:
#      x y z
#    x 1.756070 0.000000 0.000000 
#    y 0.000000 1.786590 0.000000 
#    z 0.000000 0.000000 1.772470 
# 
# From -- ./inp_files/17402.got.cif
#   From: 2010.03.12/outbox.cif.g09.slc.cpg/sg36_9_cif.got.tgz:17402.got - 2010.04.14 02:13:53.
