data_PCOD8175742
_publ_section_title
;
Structure prediction by ZEFSAII (Michael W. Deem and Ramdas Pophale) SiO2 
 PCOD8175742
Probable space group: C M C 21
;
_chemical_formula_sum "Si O2"
_cell_formula_units_Z 48
_cell_length_a 25.425890
_cell_length_b 9.388213
_cell_length_c 8.904325
_cell_angle_alpha 90.000000
_cell_angle_beta 90.000000
_cell_angle_gamma 90.000000
_cell_volume 2125.495066
_symmetry_space_group_name_H-M "C M C 21"
_symmetry_group_IT_number 36
_symmetry_cell_setting 'orthorhombic'
loop_
_space_group_symop_operation_xyz
x,y,z
-x,-y,1/2+z
x,-y,1/2+z
-x,y,z
1/2+x,1/2+y,z
1/2-x,1/2-y,1/2+z
1/2+x,1/2-y,1/2+z
1/2-x,1/2+y,z
loop_
_atom_site_type_symbol
_atom_site_label
_atom_site_fract_x
_atom_site_fract_y
_atom_site_fract_z
Si Si1 0.240891 0.431287 0.205890
Si Si2 0.784731 0.179519 0.395805
Si Si3 0.058689 0.044231 0.317696
Si Si4 0.118174 0.543396 0.651749
Si Si5 0.898106 0.699761 0.942831
Si Si6 0.936386 0.803340 0.524414
O O1 0.244648 0.324111 0.346873
O O2 0.272054 0.569154 0.262252
O O3 0.180979 0.461962 0.158806
O O4 0.267394 0.368845 0.058753
O O5 0.846146 0.210502 0.403436
O O6 0.058411 0.175405 0.439681
O O7 0.084673 0.102715 0.165719
O O8 0.000000 0.001534 0.280705
O O9 0.083351 0.897035 0.381942
O O10 0.100787 0.384403 0.600252
O O11 0.092835 0.580866 0.812319
O O12 0.095857 0.655736 0.527832
O O13 0.000000 0.778244 0.530173
#
# Coordination Sequence:
#
# PCOD8175742 Si02
#       6
#     8   8   8   8   8   8
#     4  11  22  39  57  82 114 150 189 237 289 342
#     4  11  23  38  59  84 114 149 191 236 287 343
#     4   9  19  36  56  83 116 146 184 232 280 333
#     4  10  21  38  56  80 113 147 188 233 281 336
#     4  10  22  37  56  82 110 148 188 233 284 338
#     4   9  19  36  58  83 113 148 186 231 281 334
#
# _framework density 22.582974
#
# number of rings (size 3 to 8) (size 9 to 14) (size 15 to 20)
#    0.000    2.000    0.000    4.000    0.000    7.333 
#    0.000    0.000    0.000    0.000    0.000    0.000 
#    0.000    0.000    0.000    0.000    0.000    0.000 
#
# Total GULP energy -297366.351029 kJ/mol
# GULP energy per Si atom -12390.264626 kJ/mol
# Density = 2.253157 g / cm^3
# Si number density = 22.582974 Si / 1000 Ang^3
#
#
#
# Elastic Constant Matrix: (Units=GPa)
#
#
# Indices 1 2 3 4 5 6 
#
# 1 27.4418 14.6826 12.5274 0.0000 0.0000 0.0000
# 2 14.6826 70.8069 0.5919 0.0000 0.0000 0.0000
# 3 12.5274 0.5919 27.9346 0.0000 0.0000 0.0000
# 4 0.0000 0.0000 0.0000 51.0954 0.0000 0.0000
# 5 0.0000 0.0000 0.0000 0.0000 19.2076 0.0000
# 6 0.0000 0.0000 0.0000 0.0000 0.0000 35.8472
#
#
#
# Elastic Compliance Matrix: (Units=1/GPa)
#
#
# Indices 1 2 3 4 5 6 
#
# 1 0.052944 -0.010782 -0.023515 0.000000 0.000000 0.000000
# 2 -0.010782 0.016321 0.004489 0.000000 0.000000 0.000000
# 3 -0.023515 0.004489 0.046248 0.000000 0.000000 0.000000
# 4 0.000000 0.000000 0.000000 0.019571 0.000000 0.000000
# 5 0.000000 0.000000 0.000000 0.000000 0.052063 0.000000
# 6 0.000000 0.000000 0.000000 0.000000 0.000000 0.027896
#
#
# Mechanical properties :
#
#
# Convention : Reuss Voigt Hill
#
# Bulk Modulus (GPa) = 17.88941 20.19857 19.04399
# Shear Modulus (GPa) = 17.04790 27.78880 22.41835
#
# Velocity S-wave (km/s) = 2.75053 3.51168 3.15415
# Velocity P-wave (km/s) = 4.24571 5.04045 4.66005
#
# Compressibility (1/GPa) = 0.05589900
#
# Stress axis : x y z
#
# Youngs Moduli (GPa) = 18.88779 61.27014 21.62251
#
# Poissons Ratio (x) = 0.66062 0.50845
# Poissons Ratio (y) = 0.20365 -0.09707
# Poissons Ratio (z) = 0.44414 -0.27507
#
# Static dielectric constant tensor:
#      x y z
#    x 3.912440 0.000000 0.000000 
#    y 0.000000 4.354880 0.000000 
#    z 0.000000 0.000000 4.119090 
# 
# 
# High freq. dielectric constant tensor:
#      x y z
#    x 1.867260 0.000000 0.000000 
#    y 0.000000 1.901410 0.000000 
#    z 0.000000 0.000000 1.888790 
# 
# From -- ./inp_files/5960.got.cif
#   From: 2010.03.12/outbox.cif.g09.slc.cpg/sg36_3_cif.got.tgz:5960.got - 2010.04.14 02:13:53.
