data_PCOD8175007
_publ_section_title
;
Structure prediction by ZEFSAII (Michael W. Deem and Ramdas Pophale) SiO2 
 PCOD8175007
Probable space group: C M C 21
;
_chemical_formula_sum "Si O2"
_cell_formula_units_Z 36
_cell_length_a 23.498876
_cell_length_b 12.986254
_cell_length_c 5.259515
_cell_angle_alpha 90.000000
_cell_angle_beta 90.000000
_cell_angle_gamma 90.000000
_cell_volume 1605.006075
_symmetry_space_group_name_H-M "C M C 21"
_symmetry_group_IT_number 36
_symmetry_cell_setting 'orthorhombic'
loop_
_space_group_symop_operation_xyz
x,y,z
-x,-y,1/2+z
x,-y,1/2+z
-x,y,z
1/2+x,1/2+y,z
1/2-x,1/2-y,1/2+z
1/2+x,1/2-y,1/2+z
1/2-x,1/2+y,z
loop_
_atom_site_type_symbol
_atom_site_label
_atom_site_fract_x
_atom_site_fract_y
_atom_site_fract_z
Si Si1 0.434707 0.895281 0.498170
Si Si2 0.623371 0.432374 0.399694
Si Si3 0.786435 0.249482 0.922694
Si Si4 0.000000 0.062076 0.983258
Si Si5 0.111853 0.379332 0.998319
O O1 0.500000 0.927439 0.473338
O O2 0.421837 0.831844 0.754969
O O3 0.396852 0.998324 0.517719
O O4 0.414874 0.828870 0.254610
O O5 0.631350 0.515860 0.623949
O O6 0.670514 0.345448 0.431736
O O7 0.559987 0.380075 0.423750
O O8 0.760007 0.261557 0.643277
O O9 0.821518 0.353986 0.978094
O O10 0.000000 0.966528 0.782320
#
# Coordination Sequence:
#
# PCOD8175007 Si02
#       5
#     8   8   8   4   8
#     4  10  19  38  64  96 130 157 196 246 313 406
#     4  10  21  43  67  94 119 166 207 257 325 374
#     4  12  26  45  61  92 133 164 219 269 293 364
#     4   8  16  34  64  88 120 144 202 262 308 374
#     4  10  20  37  59  86 127 163 202 248 306 350
#
# _framework density 22.429821
#
# number of rings (size 3 to 8) (size 9 to 14) (size 15 to 20)
#    0.000    1.778    0.000    6.000    0.000    0.000 
#   30.000    0.000    4.889    0.000    0.000    0.000 
#    0.000    0.000    0.000    0.000    0.000    0.000 
#
# Total GULP energy -223014.384949 kJ/mol
# GULP energy per Si atom -12389.688053 kJ/mol
# Density = 2.237877 g / cm^3
# Si number density = 22.429821 Si / 1000 Ang^3
#
#
#
# Elastic Constant Matrix: (Units=GPa)
#
#
# Indices 1 2 3 4 5 6 
#
# 1 127.7156 37.4149 9.5863 0.0000 0.0000 0.0000
# 2 37.4149 38.2891 -5.1556 0.0000 0.0000 0.0000
# 3 9.5863 -5.1556 161.6958 0.0000 0.0000 0.0000
# 4 0.0000 0.0000 0.0000 17.8334 0.0000 0.0000
# 5 0.0000 0.0000 0.0000 0.0000 39.6641 0.0000
# 6 0.0000 0.0000 0.0000 0.0000 0.0000 -70.9926
#
#
#
# Elastic Compliance Matrix: (Units=1/GPa)
#
#
# Indices 1 2 3 4 5 6 
#
# 1 0.011133 -0.011015 -0.001011 0.000000 0.000000 0.000000
# 2 -0.011015 0.037128 0.001837 0.000000 0.000000 0.000000
# 3 -0.001011 0.001837 0.006303 0.000000 0.000000 0.000000
# 4 0.000000 0.000000 0.000000 0.056075 0.000000 0.000000
# 5 0.000000 0.000000 0.000000 0.000000 0.025212 0.000000
# 6 0.000000 0.000000 0.000000 0.000000 0.000000 -0.014086
#
#
# Mechanical properties :
#
#
# Convention : Reuss Voigt Hill
#
# Bulk Modulus (GPa) = 29.25248 45.71018 37.48133
# Shear Modulus (GPa) = 32.56558 16.35797 24.46178
#
# Velocity S-wave (km/s) = 3.81450 2.70348 3.30599
# Velocity P-wave (km/s) = 5.69830 5.49259 5.59639
#
# Compressibility (1/GPa) = 0.03418514
#
# Stress axis : x y z
#
# Youngs Moduli (GPa) = 89.82653 26.93421 158.65545
#
# Poissons Ratio (x) = 0.29667 0.16043
# Poissons Ratio (y) = 0.98940 -0.29142
# Poissons Ratio (z) = 0.09083 -0.04947
#
# Static dielectric constant tensor:
#      x y z
#    x 4.345480 0.000000 0.000000 
#    y 0.000000 3.409150 0.000000 
#    z 0.000000 0.000000 6.213620 
# 
# 
# High freq. dielectric constant tensor:
#      x y z
#    x 1.889160 0.000000 0.000000 
#    y 0.000000 1.831810 0.000000 
#    z 0.000000 0.000000 1.927820 
# 
# From -- ./inp_files/1286.got.cif
#   From: 2010.03.12/outbox.cif.g09.slc.cpg/sg36_1_cif.got.tgz:1286.got - 2010.04.14 02:13:53.
