data_PCOD8175566
_publ_section_title
;
Structure prediction by ZEFSAII (Michael W. Deem and Ramdas Pophale) SiO2 
 PCOD8175566
Probable space group: C M C 21
;
_chemical_formula_sum "Si O2"
_cell_formula_units_Z 56
_cell_length_a 13.620927
_cell_length_b 14.751226
_cell_length_c 13.505077
_cell_angle_alpha 90.000000
_cell_angle_beta 90.000000
_cell_angle_gamma 90.000000
_cell_volume 2713.512627
_symmetry_space_group_name_H-M "C M C 21"
_symmetry_group_IT_number 36
_symmetry_cell_setting 'orthorhombic'
loop_
_space_group_symop_operation_xyz
x,y,z
-x,-y,1/2+z
x,-y,1/2+z
-x,y,z
1/2+x,1/2+y,z
1/2-x,1/2-y,1/2+z
1/2+x,1/2-y,1/2+z
1/2-x,1/2+y,z
loop_
_atom_site_type_symbol
_atom_site_label
_atom_site_fract_x
_atom_site_fract_y
_atom_site_fract_z
Si Si1 0.716286 0.003041 0.741400
Si Si2 0.211746 0.737020 0.453659
Si Si3 0.392299 0.493824 0.112623
Si Si4 0.392187 0.293673 0.070734
Si Si5 0.261686 0.443076 0.456449
Si Si6 0.884833 0.574926 0.560711
Si Si7 0.384904 0.817721 0.759305
O O1 0.640929 0.923364 0.767492
O O2 0.812567 0.961701 0.686361
O O3 0.754039 0.053433 0.838766
O O4 0.660150 0.075398 0.671561
O O5 0.319941 0.697175 0.476740
O O6 0.220069 0.839921 0.491085
O O7 0.134694 0.673833 0.513386
O O8 0.182513 0.734995 0.338683
O O9 0.500000 0.537225 0.129407
O O10 0.395206 0.386599 0.132824
O O11 0.358217 0.506389 0.998362
O O12 0.500000 0.270484 0.028116
O O13 0.358745 0.217616 0.149802
O O14 0.164422 0.490490 0.502018
O O15 0.000000 0.556024 0.562721
O O16 0.500000 0.803707 0.783672
#
# Coordination Sequence:
#
# PCOD8175566 Si02
#       7
#     8   8   8   8   8   8   8
#     4  11  21  41  64  95 130 175 216 275 331 394
#     4  12  23  40  68  94 130 172 221 275 325 397
#     4  10  21  39  61  89 126 166 213 271 327 387
#     4  10  20  39  63  90 124 170 219 267 327 395
#     4  11  24  41  66  94 134 175 218 269 337 392
#     4  11  24  44  68  98 134 172 224 282 334 393
#     4  11  23  40  68  98 130 178 229 267 331 410
#
# _framework density 20.637457999999999
#
# number of rings (size 3 to 8) (size 9 to 14) (size 15 to 20)
#    0.000    1.143    4.286    3.429    0.000    4.000 
#    0.000    0.714    0.000    0.000    0.000    0.000 
#    0.000    0.000    0.000    0.000    0.000    0.000 
#
# Total GULP energy -347060.996960 kJ/mol
# GULP energy per Si atom -12395.035606 kJ/mol
# Density = 2.059049 g / cm^3
# Si number density = 20.637458 Si / 1000 Ang^3
#
#
#
# Elastic Constant Matrix: (Units=GPa)
#
#
# Indices 1 2 3 4 5 6 
#
# 1 163.8169 18.4323 63.1138 0.0000 0.0000 0.0000
# 2 18.4323 95.9825 23.6086 0.0000 0.0000 0.0000
# 3 63.1138 23.6086 98.6436 0.0000 0.0000 0.0000
# 4 0.0000 0.0000 0.0000 23.5109 0.0000 0.0000
# 5 0.0000 0.0000 0.0000 0.0000 26.4990 0.0000
# 6 0.0000 0.0000 0.0000 0.0000 0.0000 24.5772
#
#
#
# Elastic Compliance Matrix: (Units=1/GPa)
#
#
# Indices 1 2 3 4 5 6 
#
# 1 0.008109 -0.000299 -0.005117 0.000000 0.000000 0.000000
# 2 -0.000299 0.011081 -0.002461 0.000000 0.000000 0.000000
# 3 -0.005117 -0.002461 0.014000 0.000000 0.000000 0.000000
# 4 0.000000 0.000000 0.000000 0.042534 0.000000 0.000000
# 5 0.000000 0.000000 0.000000 0.000000 0.037737 0.000000
# 6 0.000000 0.000000 0.000000 0.000000 0.000000 0.040688
#
#
# Mechanical properties :
#
#
# Convention : Reuss Voigt Hill
#
# Bulk Modulus (GPa) = 57.34713 63.19474 60.27093
# Shear Modulus (GPa) = 28.45499 31.80330 30.12915
#
# Velocity S-wave (km/s) = 3.71725 3.92988 3.82504
# Velocity P-wave (km/s) = 6.80236 7.16099 6.98398
#
# Compressibility (1/GPa) = 0.01743767
#
# Stress axis : x y z
#
# Youngs Moduli (GPa) = 123.31307 90.24249 71.42611
#
# Poissons Ratio (x) = 0.02695 0.36549
# Poissons Ratio (y) = 0.03683 0.17578
# Poissons Ratio (z) = 0.63100 0.22209
#
# Static dielectric constant tensor:
#      x y z
#    x 3.852980 0.000000 0.000000 
#    y 0.000000 3.734300 0.000000 
#    z 0.000000 0.000000 3.749950 
# 
# 
# High freq. dielectric constant tensor:
#      x y z
#    x 1.810870 0.000000 0.000000 
#    y 0.000000 1.802900 0.000000 
#    z 0.000000 0.000000 1.798710 
# 
# From -- ./inp_files/8480.got.cif
#   From: 2010.03.12/outbox.cif.g09.slc.cpg/sg36_5_cif.got.tgz:8480.got - 2010.04.14 02:13:53.
