data_PCOD8175425
_publ_section_title
;
Structure prediction by ZEFSAII (Michael W. Deem and Ramdas Pophale) SiO2 
 PCOD8175425
Probable space group: C M C 21
;
_chemical_formula_sum "Si O2"
_cell_formula_units_Z 64
_cell_length_a 8.462279
_cell_length_b 19.881238
_cell_length_c 19.770934
_cell_angle_alpha 90.000000
_cell_angle_beta 90.000000
_cell_angle_gamma 90.000000
_cell_volume 3326.273459
_symmetry_space_group_name_H-M "C M C 21"
_symmetry_group_IT_number 36
_symmetry_cell_setting 'orthorhombic'
loop_
_space_group_symop_operation_xyz
x,y,z
-x,-y,1/2+z
x,-y,1/2+z
-x,y,z
1/2+x,1/2+y,z
1/2-x,1/2-y,1/2+z
1/2+x,1/2-y,1/2+z
1/2-x,1/2+y,z
loop_
_atom_site_type_symbol
_atom_site_label
_atom_site_fract_x
_atom_site_fract_y
_atom_site_fract_z
Si Si1 0.816562 0.823543 0.760680
Si Si2 0.818956 0.580239 0.656969
Si Si3 0.181362 0.574618 0.158708
Si Si4 0.814755 0.317924 0.402888
Si Si5 0.681530 0.425273 0.013124
Si Si6 0.815402 0.433349 0.504463
Si Si7 0.316875 0.826970 0.905469
Si Si8 0.183505 0.818436 0.259663
O O1 0.794360 0.880026 0.704108
O O2 0.726680 0.845423 0.828618
O O3 0.748590 0.753006 0.733214
O O4 0.000000 0.814737 0.777638
O O5 0.783482 0.503004 0.675527
O O6 0.786598 0.593028 0.578103
O O7 0.706540 0.626481 0.701839
O O8 0.000000 0.598908 0.671879
O O9 0.000000 0.592777 0.174404
O O10 0.222153 0.589770 0.080742
O O11 0.757468 0.375218 0.454307
O O12 0.719838 0.250689 0.420813
O O13 0.775971 0.341617 0.326899
O O14 0.000000 0.303828 0.410469
O O15 0.500000 0.422045 0.034911
O O16 0.721700 0.499335 0.985322
O O17 0.712985 0.372275 0.954483
O O18 0.000000 0.449243 0.495902
O O19 0.500000 0.842029 0.918078
O O20 0.000000 0.811010 0.277192
#
# Coordination Sequence:
#
# PCOD8175425 Si02
#       8
#     8   8   8   8   8   8   8   8
#     4  11  22  37  57  82 112 145 186 232 278 328
#     4  10  21  39  60  82 111 146 184 226 274 328
#     4   9  19  37  58  81 111 146 183 224 275 331
#     4  10  20  37  59  83 112 145 185 231 279 328
#     4  11  22  37  58  84 114 145 182 228 274 325
#     4   9  20  38  59  82 112 148 182 222 273 329
#     4  11  22  38  58  80 111 148 187 229 276 329
#     4  11  22  37  57  82 113 147 185 228 277 330
#
# _framework density 19.240750999999999
#
# number of rings (size 3 to 8) (size 9 to 14) (size 15 to 20)
#    0.000    1.750    0.000    7.500    0.000    5.500 
#    0.000    5.000    0.000    0.000    0.000    0.000 
#    0.000    0.000    0.000    0.000    0.000    0.000 
#
# Total GULP energy -396979.688314 kJ/mol
# GULP energy per Si atom -12405.615260 kJ/mol
# Density = 1.919696 g / cm^3
# Si number density = 19.240751 Si / 1000 Ang^3
#
#
#
# Elastic Constant Matrix: (Units=GPa)
#
#
# Indices 1 2 3 4 5 6 
#
# 1 74.5417 22.2588 11.8612 0.0000 0.0000 0.0000
# 2 22.2588 98.5231 70.4168 0.0000 0.0000 0.0000
# 3 11.8612 70.4168 87.8313 0.0000 0.0000 0.0000
# 4 0.0000 0.0000 0.0000 41.2381 0.0000 0.0000
# 5 0.0000 0.0000 0.0000 0.0000 31.4162 0.0000
# 6 0.0000 0.0000 0.0000 0.0000 0.0000 32.3933
#
#
#
# Elastic Compliance Matrix: (Units=1/GPa)
#
#
# Indices 1 2 3 4 5 6 
#
# 1 0.014477 -0.004387 0.001563 0.000000 0.000000 0.000000
# 2 -0.004387 0.025101 -0.019531 0.000000 0.000000 0.000000
# 3 0.001563 -0.019531 0.026833 0.000000 0.000000 0.000000
# 4 0.000000 0.000000 0.000000 0.024249 0.000000 0.000000
# 5 0.000000 0.000000 0.000000 0.000000 0.031831 0.000000
# 6 0.000000 0.000000 0.000000 0.000000 0.000000 0.030871
#
#
# Mechanical properties :
#
#
# Convention : Reuss Voigt Hill
#
# Bulk Modulus (GPa) = 46.08688 52.21885 49.15287
# Shear Modulus (GPa) = 24.35374 31.43346 27.89360
#
# Velocity S-wave (km/s) = 3.56158 4.04628 3.81164
# Velocity P-wave (km/s) = 6.39671 7.00203 6.70620
#
# Compressibility (1/GPa) = 0.02169815
#
# Stress axis : x y z
#
# Youngs Moduli (GPa) = 69.07597 39.83943 37.26700
#
# Poissons Ratio (x) = 0.17479 -0.05823
# Poissons Ratio (y) = 0.30307 0.72788
# Poissons Ratio (z) = -0.10793 0.77812
#
# Static dielectric constant tensor:
#      x y z
#    x 3.491550 0.000000 0.000000 
#    y 0.000000 3.483460 0.000000 
#    z 0.000000 0.000000 3.455930 
# 
# 
# High freq. dielectric constant tensor:
#      x y z
#    x 1.757690 0.000000 0.000000 
#    y 0.000000 1.749110 0.000000 
#    z 0.000000 0.000000 1.747240 
# 
# From -- ./inp_files/14107.got.cif
#   From: 2010.03.12/outbox.cif.g09.slc.cpg/sg36_8_cif.got.tgz:14107.got - 2010.04.14 02:13:53.
