data_PCOD8175175
_publ_section_title
;
Structure prediction by ZEFSAII (Michael W. Deem and Ramdas Pophale) SiO2 
 PCOD8175175
Probable space group: C M C 21
;
_chemical_formula_sum "Si O2"
_cell_formula_units_Z 64
_cell_length_a 9.276108
_cell_length_b 28.893143
_cell_length_c 12.392537
_cell_angle_alpha 90.000000
_cell_angle_beta 90.000000
_cell_angle_gamma 90.000000
_cell_volume 3321.397142
_symmetry_space_group_name_H-M "C M C 21"
_symmetry_group_IT_number 36
_symmetry_cell_setting 'orthorhombic'
loop_
_space_group_symop_operation_xyz
x,y,z
-x,-y,1/2+z
x,-y,1/2+z
-x,y,z
1/2+x,1/2+y,z
1/2-x,1/2-y,1/2+z
1/2+x,1/2-y,1/2+z
1/2-x,1/2+y,z
loop_
_atom_site_type_symbol
_atom_site_label
_atom_site_fract_x
_atom_site_fract_y
_atom_site_fract_z
Si Si1 0.831068 0.973589 0.934710
Si Si2 0.340919 0.225268 0.738624
Si Si3 0.657175 0.172193 0.526324
Si Si4 0.663894 0.812312 0.788262
Si Si5 0.666318 0.405565 0.123295
Si Si6 0.170798 0.583756 0.249244
Si Si7 0.167282 0.628539 0.820057
Si Si8 0.666588 0.938730 0.505331
O O1 0.753312 0.946310 0.838196
O O2 0.000000 0.976371 0.906328
O O3 0.805845 0.951375 0.052835
O O4 0.764857 0.024454 0.943486
O O5 0.500000 0.237097 0.783649
O O6 0.346742 0.211787 0.614324
O O7 0.247775 0.271145 0.732463
O O8 0.275272 0.181640 0.807683
O O9 0.500000 0.146559 0.521665
O O10 0.685846 0.197283 0.414224
O O11 0.783992 0.136248 0.547389
O O12 0.500000 0.808739 0.749310
O O13 0.723362 0.863170 0.758397
O O14 0.500000 0.399350 0.152711
O O15 0.754521 0.405857 0.235165
O O16 0.213158 0.566774 0.129476
O O17 0.000000 0.579619 0.270401
O O18 0.000000 0.628810 0.785589
O O19 0.189619 0.609915 0.941442
O O20 0.500000 0.954133 0.497271
#
# Coordination Sequence:
#
# PCOD8175175 Si02
#       8
#     8   8   8   8   8   8   8   8
#     4  11  24  39  58  87 120 151 188 241 303 356
#     4   9  19  34  55  83 115 152 192 236 291 346
#     4   9  18  35  55  78 109 148 193 240 287 340
#     4  10  20  35  58  85 114 149 193 242 288 341
#     4  10  20  34  56  84 111 144 188 241 292 344
#     4  10  22  41  63  88 117 154 202 247 288 348
#     4   9  20  39  59  82 116 156 197 242 288 344
#     4  10  23  41  62  87 116 156 203 243 291 349
#
# _framework density 19.268999999999998
#
# number of rings (size 3 to 8) (size 9 to 14) (size 15 to 20)
#    0.000    2.250    1.250    1.500    1.750    6.500 
#    0.000    1.250    0.000    0.000    0.000    0.000 
#    0.000    0.000    0.000    0.000    0.000    0.000 
#
# Total GULP energy -396669.909149 kJ/mol
# GULP energy per Si atom -12395.934661 kJ/mol
# Density = 1.922514 g / cm^3
# Si number density = 19.269000 Si / 1000 Ang^3
#
#
#
# Elastic Constant Matrix: (Units=GPa)
#
#
# Indices 1 2 3 4 5 6 
#
# 1 69.3325 46.4148 39.3157 0.0000 0.0000 0.0000
# 2 46.4148 118.2585 44.5904 0.0000 0.0000 0.0000
# 3 39.3157 44.5904 87.8112 0.0000 0.0000 0.0000
# 4 0.0000 0.0000 0.0000 22.8958 0.0000 0.0000
# 5 0.0000 0.0000 0.0000 0.0000 23.4576 0.0000
# 6 0.0000 0.0000 0.0000 0.0000 0.0000 32.4203
#
#
#
# Elastic Compliance Matrix: (Units=1/GPa)
#
#
# Indices 1 2 3 4 5 6 
#
# 1 0.022516 -0.006229 -0.006918 0.000000 0.000000 0.000000
# 2 -0.006229 0.012182 -0.003397 0.000000 0.000000 0.000000
# 3 -0.006918 -0.003397 0.016211 0.000000 0.000000 0.000000
# 4 0.000000 0.000000 0.000000 0.043676 0.000000 0.000000
# 5 0.000000 0.000000 0.000000 0.000000 0.042630 0.000000
# 6 0.000000 0.000000 0.000000 0.000000 0.000000 0.030845
#
#
# Mechanical properties :
#
#
# Convention : Reuss Voigt Hill
#
# Bulk Modulus (GPa) = 56.11542 59.56044 57.83793
# Shear Modulus (GPa) = 24.14441 25.42683 24.78562
#
# Velocity S-wave (km/s) = 3.54364 3.63653 3.59039
# Velocity P-wave (km/s) = 6.77706 6.97206 6.87525
#
# Compressibility (1/GPa) = 0.01782041
#
# Stress axis : x y z
#
# Youngs Moduli (GPa) = 44.41274 82.09099 61.68822
#
# Poissons Ratio (x) = 0.51132 0.42677
# Poissons Ratio (y) = 0.27663 0.20956
# Poissons Ratio (z) = 0.30726 0.27887
#
# Static dielectric constant tensor:
#      x y z
#    x 3.516770 0.000000 0.000000 
#    y 0.000000 3.384700 0.000000 
#    z 0.000000 0.000000 3.568580 
# 
# 
# High freq. dielectric constant tensor:
#      x y z
#    x 1.742480 0.000000 0.000000 
#    y 0.000000 1.741630 0.000000 
#    z 0.000000 0.000000 1.754590 
# 
# From -- ./inp_files/7249.got.cif
#   From: 2010.03.12/outbox.cif.g09.slc.cpg/sg36_4_cif.got.tgz:7249.got - 2010.04.14 02:13:53.
