data_PCOD8175546
_publ_section_title
;
Structure prediction by ZEFSAII (Michael W. Deem and Ramdas Pophale) SiO2 
 PCOD8175546
Probable space group: C M C 21
;
_chemical_formula_sum "Si O2"
_cell_formula_units_Z 64
_cell_length_a 8.612950
_cell_length_b 15.258199
_cell_length_c 23.450126
_cell_angle_alpha 90.000000
_cell_angle_beta 90.000000
_cell_angle_gamma 90.000000
_cell_volume 3081.771123
_symmetry_space_group_name_H-M "C M C 21"
_symmetry_group_IT_number 36
_symmetry_cell_setting 'orthorhombic'
loop_
_space_group_symop_operation_xyz
x,y,z
-x,-y,1/2+z
x,-y,1/2+z
-x,y,z
1/2+x,1/2+y,z
1/2-x,1/2-y,1/2+z
1/2+x,1/2-y,1/2+z
1/2-x,1/2+y,z
loop_
_atom_site_type_symbol
_atom_site_label
_atom_site_fract_x
_atom_site_fract_y
_atom_site_fract_z
Si Si1 0.319724 0.172006 0.583670
Si Si2 0.320074 0.853120 0.573434
Si Si3 0.819938 0.009379 0.643694
Si Si4 0.179029 0.903481 0.459444
Si Si5 0.178706 0.410096 0.963468
Si Si6 0.180685 0.504580 0.264285
Si Si7 0.678801 0.166629 0.342478
Si Si8 0.320760 0.845270 0.343463
O O1 0.500000 0.193693 0.590162
O O2 0.224213 0.259027 0.599672
O O3 0.277709 0.144209 0.519427
O O4 0.276209 0.095652 0.627435
O O5 0.500000 0.871995 0.584219
O O6 0.222307 0.929365 0.602851
O O7 0.281800 0.853579 0.506362
O O8 0.000000 0.030551 0.636509
O O9 0.782299 0.983111 0.708173
O O10 0.215925 0.864167 0.398031
O O11 0.000000 0.885504 0.473469
O O12 0.210805 0.006612 0.460076
O O13 0.209235 0.348567 0.909399
O O14 0.000000 0.442615 0.964908
O O15 0.229389 0.580673 0.308031
O O16 0.221703 0.411947 0.293008
O O17 0.000000 0.510643 0.248107
O O18 0.500000 0.189275 0.330719
O O19 0.783454 0.247621 0.321362
O O20 0.500000 0.855976 0.360567
#
# Coordination Sequence:
#
# PCOD8175546 Si02
#       8
#     8   8   8   8   8   8   8   8
#     4  11  23  41  68  98 131 167 209 262 321 381
#     4  12  25  43  67  95 130 169 213 263 318 381
#     4  12  26  44  66  94 128 168 217 267 319 380
#     4  12  23  37  63  96 131 167 209 257 314 381
#     4  10  20  38  64  93 128 168 202 251 319 380
#     4  10  23  44  66  88 124 171 214 264 320 372
#     4  10  21  40  65  94 128 164 208 258 315 376
#     4  11  23  41  65  94 128 166 210 258 316 379
#
# _framework density 20.767277
#
# number of rings (size 3 to 8) (size 9 to 14) (size 15 to 20)
#    0.000    1.000    2.500    4.875    0.000    4.500 
#    0.000    2.500    0.000    0.000    0.000    0.000 
#    0.000    0.000    0.000    0.000    0.000    0.000 
#
# Total GULP energy -397062.307714 kJ/mol
# GULP energy per Si atom -12408.197116 kJ/mol
# Density = 2.072001 g / cm^3
# Si number density = 20.767277 Si / 1000 Ang^3
#
#
#
# Elastic Constant Matrix: (Units=GPa)
#
#
# Indices 1 2 3 4 5 6 
#
# 1 65.3381 26.7506 26.8079 0.0000 0.0000 0.0000
# 2 26.7506 108.3389 7.4095 0.0000 0.0000 0.0000
# 3 26.8079 7.4095 70.1363 0.0000 0.0000 0.0000
# 4 0.0000 0.0000 0.0000 12.2487 0.0000 0.0000
# 5 0.0000 0.0000 0.0000 0.0000 29.4684 0.0000
# 6 0.0000 0.0000 0.0000 0.0000 0.0000 37.6516
#
#
#
# Elastic Compliance Matrix: (Units=1/GPa)
#
#
# Indices 1 2 3 4 5 6 
#
# 1 0.020091 -0.004468 -0.007207 0.000000 0.000000 0.000000
# 2 -0.004468 0.010291 0.000621 0.000000 0.000000 0.000000
# 3 -0.007207 0.000621 0.016947 0.000000 0.000000 0.000000
# 4 0.000000 0.000000 0.000000 0.081641 0.000000 0.000000
# 5 0.000000 0.000000 0.000000 0.000000 0.033935 0.000000
# 6 0.000000 0.000000 0.000000 0.000000 0.000000 0.026559
#
#
# Mechanical properties :
#
#
# Convention : Reuss Voigt Hill
#
# Bulk Modulus (GPa) = 39.65091 40.63881 40.14486
# Shear Modulus (GPa) = 22.72920 28.06344 25.39632
#
# Velocity S-wave (km/s) = 3.31187 3.68003 3.50079
# Velocity P-wave (km/s) = 5.81026 6.13743 5.97608
#
# Compressibility (1/GPa) = 0.02522010
#
# Stress axis : x y z
#
# Youngs Moduli (GPa) = 49.77235 97.17173 59.00656
#
# Poissons Ratio (x) = 0.43416 0.42529
# Poissons Ratio (y) = 0.22238 -0.03662
# Poissons Ratio (z) = 0.35873 -0.06030
#
# Static dielectric constant tensor:
#      x y z
#    x 3.684900 0.000000 0.000000 
#    y 0.000000 3.858000 0.000000 
#    z 0.000000 0.000000 3.711050 
# 
# 
# High freq. dielectric constant tensor:
#      x y z
#    x 1.810910 0.000000 0.000000 
#    y 0.000000 1.825490 0.000000 
#    z 0.000000 0.000000 1.808330 
# 
# From -- ./inp_files/16637.got.cif
#   From: 2010.03.12/outbox.cif.g09.slc.cpg/sg36_9_cif.got.tgz:16637.got - 2010.04.14 02:13:53.
