data_PCOD8175794
_publ_section_title
;
Structure prediction by ZEFSAII (Michael W. Deem and Ramdas Pophale) SiO2 
 PCOD8175794
Probable space group: C M C 21
;
_chemical_formula_sum "Si O2"
_cell_formula_units_Z 48
_cell_length_a 9.008423
_cell_length_b 23.651896
_cell_length_c 11.665784
_cell_angle_alpha 90.000000
_cell_angle_beta 90.000000
_cell_angle_gamma 90.000000
_cell_volume 2485.585246
_symmetry_space_group_name_H-M "C M C 21"
_symmetry_group_IT_number 36
_symmetry_cell_setting 'orthorhombic'
loop_
_space_group_symop_operation_xyz
x,y,z
-x,-y,1/2+z
x,-y,1/2+z
-x,y,z
1/2+x,1/2+y,z
1/2-x,1/2-y,1/2+z
1/2+x,1/2-y,1/2+z
1/2-x,1/2+y,z
loop_
_atom_site_type_symbol
_atom_site_label
_atom_site_fract_x
_atom_site_fract_y
_atom_site_fract_z
Si Si1 0.672715 0.292490 0.183930
Si Si2 0.672381 0.323630 0.648964
Si Si3 0.827833 0.867138 0.401634
Si Si4 0.328668 0.886902 0.052060
Si Si5 0.671063 0.962136 0.273963
Si Si6 0.673398 0.424087 0.822653
O O1 0.500000 0.293096 0.153935
O O2 0.730980 0.229124 0.188310
O O3 0.705684 0.319291 0.307694
O O4 0.755823 0.327041 0.084373
O O5 0.500000 0.306498 0.649308
O O6 0.723811 0.342988 0.523264
O O7 0.707310 0.373182 0.737191
O O8 0.733962 0.923322 0.376178
O O9 0.000000 0.884504 0.402781
O O10 0.500000 0.875849 0.024558
O O11 0.306087 0.931242 0.153670
O O12 0.250064 0.913034 0.942991
O O13 0.500000 0.974944 0.300569
O O14 0.760798 0.019948 0.265615
O O15 0.500000 0.432593 0.843254
#
# Coordination Sequence:
#
# PCOD8175794 Si02
#       6
#     8   8   8   8   8   8
#     4  10  21  38  62  90 118 155 198 243 296 355
#     4  10  23  40  59  88 122 156 195 244 296 350
#     4   9  20  40  62  86 117 156 197 239 295 356
#     4  10  22  41  63  87 120 159 199 246 297 353
#     4  10  22  40  62  89 118 154 197 247 300 351
#     4  11  24  39  60  90 123 158 198 245 296 355
#
# _framework density 19.311347000000001
#
# number of rings (size 3 to 8) (size 9 to 14) (size 15 to 20)
#    0.000    2.000    0.000    2.000    4.667    4.667 
#    0.000    0.000    0.000    0.000    0.000    0.000 
#    0.000    0.000    0.000    0.000    0.000    0.000 
#
# Total GULP energy -297751.807293 kJ/mol
# GULP energy per Si atom -12406.325304 kJ/mol
# Density = 1.926739 g / cm^3
# Si number density = 19.311347 Si / 1000 Ang^3
#
#
#
# Elastic Constant Matrix: (Units=GPa)
#
#
# Indices 1 2 3 4 5 6 
#
# 1 121.5999 79.4745 47.6844 0.0000 0.0000 0.0000
# 2 79.4745 133.6897 37.4563 0.0000 0.0000 0.0000
# 3 47.6844 37.4563 79.0767 0.0000 0.0000 0.0000
# 4 0.0000 0.0000 0.0000 18.5854 0.0000 0.0000
# 5 0.0000 0.0000 0.0000 0.0000 29.1434 0.0000
# 6 0.0000 0.0000 0.0000 0.0000 0.0000 42.4883
#
#
#
# Elastic Compliance Matrix: (Units=1/GPa)
#
#
# Indices 1 2 3 4 5 6 
#
# 1 0.015400 -0.007556 -0.005708 0.000000 0.000000 0.000000
# 2 -0.007556 0.012332 -0.001285 0.000000 0.000000 0.000000
# 3 -0.005708 -0.001285 0.016696 0.000000 0.000000 0.000000
# 4 0.000000 0.000000 0.000000 0.053806 0.000000 0.000000
# 5 0.000000 0.000000 0.000000 0.000000 0.034313 0.000000
# 6 0.000000 0.000000 0.000000 0.000000 0.000000 0.023536
#
#
# Mechanical properties :
#
#
# Convention : Reuss Voigt Hill
#
# Bulk Modulus (GPa) = 65.22461 73.73296 69.47879
# Shear Modulus (GPa) = 26.27569 29.36015 27.81792
#
# Velocity S-wave (km/s) = 3.69268 3.90341 3.79950
# Velocity P-wave (km/s) = 7.21317 7.65372 7.43671
#
# Compressibility (1/GPa) = 0.01533164
#
# Stress axis : x y z
#
# Youngs Moduli (GPa) = 64.93450 81.09182 59.89348
#
# Poissons Ratio (x) = 0.61271 0.34184
# Poissons Ratio (y) = 0.49063 0.07696
# Poissons Ratio (z) = 0.37062 0.10419
#
# Static dielectric constant tensor:
#      x y z
#    x 3.633750 0.000000 0.000000 
#    y 0.000000 3.552030 0.000000 
#    z 0.000000 0.000000 3.560890 
# 
# 
# High freq. dielectric constant tensor:
#      x y z
#    x 1.760840 0.000000 0.000000 
#    y 0.000000 1.759320 0.000000 
#    z 0.000000 0.000000 1.756460 
# 
# From -- ./inp_files/6731.got.cif
#   From: 2010.03.12/outbox.cif.g09.slc.cpg/sg36_4_cif.got.tgz:6731.got - 2010.04.14 02:13:53.
