data_PCOD8175042
_publ_section_title
;
Structure prediction by ZEFSAII (Michael W. Deem and Ramdas Pophale) SiO2 
 PCOD8175042
Probable space group: C M C 21
;
_chemical_formula_sum "Si O2"
_cell_formula_units_Z 48
_cell_length_a 21.325061
_cell_length_b 17.910544
_cell_length_c 4.798735
_cell_angle_alpha 90.000000
_cell_angle_beta 90.000000
_cell_angle_gamma 90.000000
_cell_volume 1832.845370
_symmetry_space_group_name_H-M "C M C 21"
_symmetry_group_IT_number 36
_symmetry_cell_setting 'orthorhombic'
loop_
_space_group_symop_operation_xyz
x,y,z
-x,-y,1/2+z
x,-y,1/2+z
-x,y,z
1/2+x,1/2+y,z
1/2-x,1/2-y,1/2+z
1/2+x,1/2-y,1/2+z
1/2-x,1/2+y,z
loop_
_atom_site_type_symbol
_atom_site_label
_atom_site_fract_x
_atom_site_fract_y
_atom_site_fract_z
Si Si1 0.072854 0.449952 0.078480
Si Si2 0.376195 0.335525 0.260664
Si Si3 0.072858 0.050086 0.367778
Si Si4 0.500000 0.195705 0.995892
Si Si5 0.875302 0.340922 0.666140
Si Si6 0.751145 0.196293 0.996403
Si Si7 0.500000 0.299642 0.503331
O O1 0.089060 0.476071 0.391105
O O2 0.000000 0.426807 0.037768
O O3 0.115836 0.382339 0.962202
O O4 0.384052 0.381076 0.972631
O O5 0.373623 0.247609 0.208701
O O6 0.310186 0.355368 0.407567
O O7 0.437659 0.350798 0.458844
O O8 0.000000 0.074774 0.397338
O O9 0.088697 0.976884 0.556694
O O10 0.563335 0.144945 0.959421
O O11 0.500000 0.225614 0.312848
O O12 0.500000 0.270365 0.816813
O O13 0.808453 0.360511 0.526938
O O14 0.766855 0.236968 0.286159
#
# Coordination Sequence:
#
# PCOD8175042 Si02
#       7
#     8   8   8   4   8   8   4
#     4  10  22  39  58  86 122 157 192 245 304 352
#     4  10  21  40  62  90 118 158 201 247 294 354
#     4  10  22  39  58  86 122 157 192 245 304 352
#     4  10  20  32  54  86 112 140 191 242 281 334
#     4  10  21  40  62  90 118 158 201 247 294 354
#     4  10  22  38  58  88 124 154 192 250 306 344
#     4  10  20  32  54  86 112 140 191 242 281 334
#
# _framework density 26.188790000000001
#
# number of rings (size 3 to 8) (size 9 to 14) (size 15 to 20)
#    0.000    2.000    1.667    1.000    0.000   10.667 
#    0.000    1.667    0.000    0.000    0.000    0.000 
#    0.000    0.000    0.000    0.000    0.000    0.000 
#
# Total GULP energy -297571.724448 kJ/mol
# GULP energy per Si atom -12398.821852 kJ/mol
# Density = 2.612918 g / cm^3
# Si number density = 26.188790 Si / 1000 Ang^3
#
#
#
# Elastic Constant Matrix: (Units=GPa)
#
#
# Indices 1 2 3 4 5 6 
#
# 1 170.4959 -14.1176 4.7103 0.0000 0.0000 0.0000
# 2 -14.1176 72.3203 -18.2435 0.0000 0.0000 0.0000
# 3 4.7103 -18.2435 47.5504 0.0000 0.0000 0.0000
# 4 0.0000 0.0000 0.0000 10.1785 0.0000 0.0000
# 5 0.0000 0.0000 0.0000 0.0000 35.0994 0.0000
# 6 0.0000 0.0000 0.0000 0.0000 0.0000 14.2081
#
#
#
# Elastic Compliance Matrix: (Units=1/GPa)
#
#
# Indices 1 2 3 4 5 6 
#
# 1 0.005963 0.001124 -0.000160 0.000000 0.000000 0.000000
# 2 0.001124 0.015521 0.005844 0.000000 0.000000 0.000000
# 3 -0.000160 0.005844 0.023288 0.000000 0.000000 0.000000
# 4 0.000000 0.000000 0.000000 0.098246 0.000000 0.000000
# 5 0.000000 0.000000 0.000000 0.000000 0.028491 0.000000
# 6 0.000000 0.000000 0.000000 0.000000 0.000000 0.070383
#
#
# Mechanical properties :
#
#
# Convention : Reuss Voigt Hill
#
# Bulk Modulus (GPa) = 17.12708 26.11832 21.62270
# Shear Modulus (GPa) = 20.18265 33.09835 26.64050
#
# Velocity S-wave (km/s) = 2.77909 3.55890 3.19289
# Velocity P-wave (km/s) = 4.10510 5.18483 4.67623
#
# Compressibility (1/GPa) = 0.05838706
#
# Stress axis : x y z
#
# Youngs Moduli (GPa) = 167.70923 64.42956 42.94044
#
# Poissons Ratio (x) = -0.07240 0.00685
# Poissons Ratio (y) = -0.18846 -0.25092
# Poissons Ratio (z) = 0.02675 -0.37649
#
# Static dielectric constant tensor:
#      x y z
#    x 6.190140 0.000000 0.000000 
#    y 0.000000 4.460260 0.000000 
#    z 0.000000 0.000000 4.935170 
# 
# 
# High freq. dielectric constant tensor:
#      x y z
#    x 2.031300 0.000000 0.000000 
#    y 0.000000 2.053020 0.000000 
#    z 0.000000 0.000000 2.062160 
# 
# From -- ./inp_files/1579.got.cif
#   From: 2010.03.12/outbox.cif.g09.slc.cpg/sg36_1_cif.got.tgz:1579.got - 2010.04.14 02:13:53.
