data_PCOD8175025
_publ_section_title
;
Structure prediction by ZEFSAII (Michael W. Deem and Ramdas Pophale) SiO2 
 PCOD8175025
Probable space group: C M C 21
;
_chemical_formula_sum "Si O2"
_cell_formula_units_Z 48
_cell_length_a 8.876642
_cell_length_b 24.113780
_cell_length_c 12.105203
_cell_angle_alpha 90.000000
_cell_angle_beta 90.000000
_cell_angle_gamma 90.000000
_cell_volume 2591.111346
_symmetry_space_group_name_H-M "C M C 21"
_symmetry_group_IT_number 36
_symmetry_cell_setting 'orthorhombic'
loop_
_space_group_symop_operation_xyz
x,y,z
-x,-y,1/2+z
x,-y,1/2+z
-x,y,z
1/2+x,1/2+y,z
1/2-x,1/2-y,1/2+z
1/2+x,1/2-y,1/2+z
1/2-x,1/2+y,z
loop_
_atom_site_type_symbol
_atom_site_label
_atom_site_fract_x
_atom_site_fract_y
_atom_site_fract_z
Si Si1 0.821053 0.170409 0.500000
Si Si2 0.820034 0.081454 0.323756
Si Si3 0.179705 0.040120 0.878756
Si Si4 0.321455 0.609261 0.082491
Si Si5 0.678219 0.358105 0.240338
Si Si6 0.176966 0.214118 0.945665
O O1 0.759560 0.125312 0.413084
O O2 0.752660 0.155408 0.620322
O O3 0.768776 0.230446 0.463192
O O4 0.000000 0.169736 0.503102
O O5 0.754030 0.098446 0.203960
O O6 0.000000 0.080670 0.321608
O O7 0.755542 0.020980 0.355778
O O8 0.238096 0.082329 0.783708
O O9 0.000000 0.039222 0.878339
O O10 0.237888 0.062051 0.997819
O O11 0.500000 0.605755 0.086158
O O12 0.273933 0.670123 0.039827
O O13 0.500000 0.361344 0.232041
O O14 0.723563 0.309901 0.326095
O O15 0.000000 0.226546 0.951862
#
# Coordination Sequence:
#
# PCOD8175025 Si02
#       6
#     8   8   8   8   8   8
#     4  10  20  30  45  72  97 115 148 196 229 257
#     4   9  17  25  40  67  94 115 143 189 233 264
#     4   8  14  25  42  62  90 123 145 175 231 283
#     4   8  15  27  42  62  87 118 154 184 218 270
#     4   8  16  30  45  64  93 124 150 181 228 278
#     4   9  18  33  49  63  89 129 158 179 219 276
#
# _framework density 18.52487
#
# number of rings (size 3 to 8) (size 9 to 14) (size 15 to 20)
#    0.000    3.333    0.000    2.000    4.667    0.000 
#    0.000    0.000    0.000    0.000    0.000    5.833 
#    0.000    0.000    0.000    0.000    0.000    0.000 
#
# Total GULP energy -297467.119948 kJ/mol
# GULP energy per Si atom -12394.463331 kJ/mol
# Density = 1.848271 g / cm^3
# Si number density = 18.524870 Si / 1000 Ang^3
#
#
#
# Elastic Constant Matrix: (Units=GPa)
#
#
# Indices 1 2 3 4 5 6 
#
# 1 3.8241 10.0890 10.2602 0.0000 0.0000 0.0000
# 2 10.0890 176.1259 106.0482 0.0000 0.0000 0.0000
# 3 10.2602 106.0482 191.5266 0.0000 0.0000 0.0000
# 4 0.0000 0.0000 0.0000 26.3277 0.0000 0.0000
# 5 0.0000 0.0000 0.0000 0.0000 8.3568 0.0000
# 6 0.0000 0.0000 0.0000 0.0000 0.0000 22.0244
#
#
#
# Elastic Compliance Matrix: (Units=1/GPa)
#
#
# Indices 1 2 3 4 5 6 
#
# 1 0.321647 -0.012076 -0.010545 0.000000 0.000000 0.000000
# 2 -0.012076 0.008971 -0.004320 0.000000 0.000000 0.000000
# 3 -0.010545 -0.004320 0.008178 0.000000 0.000000 0.000000
# 4 0.000000 0.000000 0.000000 0.037983 0.000000 0.000000
# 5 0.000000 0.000000 0.000000 0.000000 0.119662 0.000000
# 6 0.000000 0.000000 0.000000 0.000000 0.000000 0.045404
#
#
# Mechanical properties :
#
#
# Convention : Reuss Voigt Hill
#
# Bulk Modulus (GPa) = 3.50982 69.36350 36.43666
# Shear Modulus (GPa) = 7.23905 27.68041 17.45973
#
# Velocity S-wave (km/s) = 1.97895 3.86972 3.07335
# Velocity P-wave (km/s) = 2.66841 7.58229 5.68381
#
# Compressibility (1/GPa) = 0.28491489
#
# Stress axis : x y z
#
# Youngs Moduli (GPa) = 3.10900 111.47354 122.27669
#
# Poissons Ratio (x) = 1.34613 1.28936
# Poissons Ratio (y) = 0.03754 0.52826
# Poissons Ratio (z) = 0.03278 0.48159
#
# Static dielectric constant tensor:
#      x y z
#    x 2.626460 0.000000 0.000000 
#    y 0.000000 3.554940 0.000000 
#    z 0.000000 0.000000 4.006130 
# 
# 
# High freq. dielectric constant tensor:
#      x y z
#    x 1.636960 0.000000 0.000000 
#    y 0.000000 1.729570 0.000000 
#    z 0.000000 0.000000 1.734250 
# 
# From -- ./inp_files/6713.got.cif
#   From: 2010.03.12/outbox.cif.g09.slc.cpg/sg36_4_cif.got.tgz:6713.got - 2010.04.14 02:13:53.
