data_PCOD8175930
_publ_section_title
;
Structure prediction by ZEFSAII (Michael W. Deem and Ramdas Pophale) SiO2 
 PCOD8175930
Probable space group: C M C 21
;
_chemical_formula_sum "Si O2"
_cell_formula_units_Z 48
_cell_length_a 13.783200
_cell_length_b 11.992264
_cell_length_c 13.118836
_cell_angle_alpha 90.000000
_cell_angle_beta 90.000000
_cell_angle_gamma 90.000000
_cell_volume 2168.435664
_symmetry_space_group_name_H-M "C M C 21"
_symmetry_group_IT_number 36
_symmetry_cell_setting 'orthorhombic'
loop_
_space_group_symop_operation_xyz
x,y,z
-x,-y,1/2+z
x,-y,1/2+z
-x,y,z
1/2+x,1/2+y,z
1/2-x,1/2-y,1/2+z
1/2+x,1/2-y,1/2+z
1/2-x,1/2+y,z
loop_
_atom_site_type_symbol
_atom_site_label
_atom_site_fract_x
_atom_site_fract_y
_atom_site_fract_z
Si Si1 0.104926 0.492847 0.922930
Si Si2 0.606409 0.815093 0.274223
Si Si3 0.887367 0.741871 0.330869
Si Si4 0.695257 0.423480 0.480502
Si Si5 0.611300 0.661233 0.463422
Si Si6 0.260081 0.766233 0.637325
O O1 0.104402 0.560199 0.817197
O O2 0.119513 0.362413 0.905949
O O3 0.000000 0.513449 0.977664
O O4 0.192518 0.540065 0.987743
O O5 0.500000 0.782814 0.232722
O O6 0.638911 0.719620 0.356348
O O7 0.682187 0.819971 0.182340
O O8 0.829790 0.842397 0.385780
O O9 0.836883 0.703945 0.225585
O O10 0.000000 0.775198 0.311185
O O11 0.624613 0.528003 0.463966
O O12 0.690740 0.365508 0.592065
O O13 0.500000 0.688982 0.490367
O O14 0.682272 0.711400 0.546085
#
# Coordination Sequence:
#
# PCOD8175930 Si02
#       6
#     8   8   8   8   8   8
#     4  10  21  42  66  91 127 169 212 264 324 382
#     4  10  22  43  67  95 132 174 216 267 330 391
#     4  11  25  44  65  94 131 170 215 268 326 390
#     4  12  24  42  68  95 133 172 220 270 329 391
#     4  11  25  45  67  97 136 177 218 269 331 397
#     4  12  23  40  67 100 129 166 221 270 328 385
#
# _framework density 22.135773
#
# number of rings (size 3 to 8) (size 9 to 14) (size 15 to 20)
#    0.000    1.000    3.333    3.000    2.333    3.333 
#    0.000    2.500    0.000    0.000    0.000    0.000 
#    0.000    0.000    0.000    0.000    0.000    0.000 
#
# Total GULP energy -297426.316883 kJ/mol
# GULP energy per Si atom -12392.763203 kJ/mol
# Density = 2.208539 g / cm^3
# Si number density = 22.135773 Si / 1000 Ang^3
#
#
#
# Elastic Constant Matrix: (Units=GPa)
#
#
# Indices 1 2 3 4 5 6 
#
# 1 112.0371 17.0136 31.2923 0.0000 0.0000 0.0000
# 2 17.0136 95.2051 -0.5548 0.0000 0.0000 0.0000
# 3 31.2923 -0.5548 50.3156 0.0000 0.0000 0.0000
# 4 0.0000 0.0000 0.0000 14.4263 0.0000 0.0000
# 5 0.0000 0.0000 0.0000 0.0000 36.9443 0.0000
# 6 0.0000 0.0000 0.0000 0.0000 0.0000 36.5005
#
#
#
# Elastic Compliance Matrix: (Units=1/GPa)
#
#
# Indices 1 2 3 4 5 6 
#
# 1 0.011184 -0.002039 -0.006978 0.000000 0.000000 0.000000
# 2 -0.002039 0.010876 0.001388 0.000000 0.000000 0.000000
# 3 -0.006978 0.001388 0.024230 0.000000 0.000000 0.000000
# 4 0.000000 0.000000 0.000000 0.069318 0.000000 0.000000
# 5 0.000000 0.000000 0.000000 0.000000 0.027068 0.000000
# 6 0.000000 0.000000 0.000000 0.000000 0.000000 0.027397
#
#
# Mechanical properties :
#
#
# Convention : Reuss Voigt Hill
#
# Bulk Modulus (GPa) = 32.22528 39.22890 35.72709
# Shear Modulus (GPa) = 25.55254 31.56133 28.55694
#
# Velocity S-wave (km/s) = 3.40127 3.78008 3.59567
# Velocity P-wave (km/s) = 5.47854 6.06733 5.78044
#
# Compressibility (1/GPa) = 0.03103153
#
# Stress axis : x y z
#
# Youngs Moduli (GPa) = 89.41051 91.94414 41.27150
#
# Poissons Ratio (x) = 0.18751 0.28800
# Poissons Ratio (y) = 0.18234 -0.05729
# Poissons Ratio (z) = 0.62393 -0.12764
#
# Static dielectric constant tensor:
#      x y z
#    x 4.441650 0.000000 0.000000 
#    y 0.000000 4.184290 0.000000 
#    z 0.000000 0.000000 3.761750 
# 
# 
# High freq. dielectric constant tensor:
#      x y z
#    x 1.899540 0.000000 0.000000 
#    y 0.000000 1.872980 0.000000 
#    z 0.000000 0.000000 1.845630 
# 
# From -- ./inp_files/12097.got.cif
#   From: 2010.03.12/outbox.cif.g09.slc.cpg/sg36_7_cif.got.tgz:12097.got - 2010.04.14 02:13:53.
