data_PCOD8175230
_publ_section_title
;
Structure prediction by ZEFSAII (Michael W. Deem and Ramdas Pophale) SiO2 
 PCOD8175230
Probable space group: C M C 21
;
_chemical_formula_sum "Si O2"
_cell_formula_units_Z 48
_cell_length_a 7.549993
_cell_length_b 36.610603
_cell_length_c 9.339587
_cell_angle_alpha 90.000000
_cell_angle_beta 90.000000
_cell_angle_gamma 90.000000
_cell_volume 2581.553341
_symmetry_space_group_name_H-M "C M C 21"
_symmetry_group_IT_number 36
_symmetry_cell_setting 'orthorhombic'
loop_
_space_group_symop_operation_xyz
x,y,z
-x,-y,1/2+z
x,-y,1/2+z
-x,y,z
1/2+x,1/2+y,z
1/2-x,1/2-y,1/2+z
1/2+x,1/2-y,1/2+z
1/2-x,1/2+y,z
loop_
_atom_site_type_symbol
_atom_site_label
_atom_site_fract_x
_atom_site_fract_y
_atom_site_fract_z
Si Si1 0.000000 0.829620 0.451330
Si Si2 0.298477 0.956078 0.579571
Si Si3 0.701852 0.974633 0.901279
Si Si4 0.298330 0.206466 0.578771
Si Si5 0.000000 0.919754 0.951327
Si Si6 0.500000 0.401032 0.625732
Si Si7 0.500000 0.348564 0.126252
Si Si8 0.798108 0.274641 0.399875
O O1 0.000000 0.849169 0.297769
O O2 0.173692 0.804795 0.473257
O O3 0.000000 0.859479 0.575364
O O4 0.500000 0.942370 0.562744
O O5 0.267903 0.975819 0.731476
O O6 0.173818 0.921012 0.563940
O O7 0.247613 0.985333 0.458475
O O8 0.500000 0.964788 0.942488
O O9 0.825634 0.944248 0.972744
O O10 0.500000 0.193057 0.563197
O O11 0.250392 0.234527 0.453977
O O12 0.264546 0.226371 0.729983
O O13 0.174549 0.171167 0.564811
O O14 0.000000 0.900320 0.797174
O O15 0.000000 0.890041 0.075672
O O16 0.000000 0.284801 0.437467
#
# Coordination Sequence:
#
# PCOD8175230 Si02
#       8
#     4   8   8   8   4   4   4   8
#     4  10  22  37  51  76 109 138 172 216 263 311
#     4   9  18  33  53  77 104 134 172 215 256 303
#     4   9  18  33  53  77 104 134 172 215 256 303
#     4  10  20  35  56  79 103 132 170 216 263 313
#     4  10  21  35  51  74 106 140 174 212 256 307
#     4  10  21  35  51  74 106 140 174 212 256 307
#     4  10  22  37  51  76 109 138 172 216 263 311
#     4  10  20  35  56  79 103 132 170 216 263 313
#
# _framework density 18.593457999999998
#
# number of rings (size 3 to 8) (size 9 to 14) (size 15 to 20)
#    0.000    2.333    1.667    0.500    0.000    4.000 
#    0.000    0.000    0.000    0.000    0.000    0.000 
#    0.000    0.000    0.000    0.000    0.000    0.000 
#
# Total GULP energy -297689.822759 kJ/mol
# GULP energy per Si atom -12403.742615 kJ/mol
# Density = 1.855114 g / cm^3
# Si number density = 18.593458 Si / 1000 Ang^3
#
#
#
# Elastic Constant Matrix: (Units=GPa)
#
#
# Indices 1 2 3 4 5 6 
#
# 1 113.1673 22.5115 11.4142 0.0000 0.0000 0.0000
# 2 22.5115 41.3625 2.4135 0.0000 0.0000 0.0000
# 3 11.4142 2.4135 18.3343 0.0000 0.0000 0.0000
# 4 0.0000 0.0000 0.0000 37.9551 0.0000 0.0000
# 5 0.0000 0.0000 0.0000 0.0000 21.1555 0.0000
# 6 0.0000 0.0000 0.0000 0.0000 0.0000 24.4255
#
#
#
# Elastic Compliance Matrix: (Units=1/GPa)
#
#
# Indices 1 2 3 4 5 6 
#
# 1 0.010492 -0.005371 -0.005825 0.000000 0.000000 0.000000
# 2 -0.005371 0.027113 -0.000226 0.000000 0.000000 0.000000
# 3 -0.005825 -0.000226 0.058199 0.000000 0.000000 0.000000
# 4 0.000000 0.000000 0.000000 0.026347 0.000000 0.000000
# 5 0.000000 0.000000 0.000000 0.000000 0.047269 0.000000
# 6 0.000000 0.000000 0.000000 0.000000 0.000000 0.040941
#
#
# Mechanical properties :
#
#
# Convention : Reuss Voigt Hill
#
# Bulk Modulus (GPa) = 13.70594 27.28251 20.49422
# Shear Modulus (GPa) = 19.41572 25.80888 22.61230
#
# Velocity S-wave (km/s) = 3.23495 3.72971 3.49111
# Velocity P-wave (km/s) = 4.61959 5.76652 5.22462
#
# Compressibility (1/GPa) = 0.07296105
#
# Stress axis : x y z
#
# Youngs Moduli (GPa) = 95.30774 36.88329 17.18251
#
# Poissons Ratio (x) = 0.19808 0.10009
# Poissons Ratio (y) = 0.51185 0.00388
# Poissons Ratio (z) = 0.55518 0.00832
#
# Static dielectric constant tensor:
#      x y z
#    x 3.813840 0.000000 0.000000 
#    y 0.000000 3.126810 0.000000 
#    z 0.000000 0.000000 3.319400 
# 
# 
# High freq. dielectric constant tensor:
#      x y z
#    x 1.741670 0.000000 0.000000 
#    y 0.000000 1.702690 0.000000 
#    z 0.000000 0.000000 1.713990 
# 
# From -- ./inp_files/2770.got.cif
#   From: 2010.03.12/outbox.cif.g09.slc.cpg/sg36_2_cif.got.tgz:2770.got - 2010.04.14 02:13:53.
