data_PCOD8175438
_publ_section_title
;
Structure prediction by ZEFSAII (Michael W. Deem and Ramdas Pophale) SiO2 
 PCOD8175438
Probable space group: C M C 21
;
_chemical_formula_sum "Si O2"
_cell_formula_units_Z 64
_cell_length_a 18.209001
_cell_length_b 18.982310
_cell_length_c 9.483765
_cell_angle_alpha 90.000000
_cell_angle_beta 90.000000
_cell_angle_gamma 90.000000
_cell_volume 3278.052957
_symmetry_space_group_name_H-M "C M C 21"
_symmetry_group_IT_number 36
_symmetry_cell_setting 'orthorhombic'
loop_
_space_group_symop_operation_xyz
x,y,z
-x,-y,1/2+z
x,-y,1/2+z
-x,y,z
1/2+x,1/2+y,z
1/2-x,1/2-y,1/2+z
1/2+x,1/2-y,1/2+z
1/2-x,1/2+y,z
loop_
_atom_site_type_symbol
_atom_site_label
_atom_site_fract_x
_atom_site_fract_y
_atom_site_fract_z
Si Si1 0.580701 0.590375 0.775430
Si Si2 0.293114 0.796854 0.037730
Si Si3 0.418225 0.474523 0.984753
Si Si4 0.325972 0.273823 0.266241
Si Si5 0.415768 0.108713 0.557757
Si Si6 0.819290 0.479970 0.630743
Si Si7 0.416339 0.864784 0.732787
Si Si8 0.764233 0.058650 0.406366
O O1 0.500000 0.625113 0.765496
O O2 0.590071 0.530456 0.654094
O O3 0.590463 0.554787 0.928931
O O4 0.640379 0.649468 0.747810
O O5 0.297493 0.733627 0.925839
O O6 0.267276 0.866630 0.954425
O O7 0.242499 0.769007 0.161702
O O8 0.374005 0.817981 0.097703
O O9 0.500000 0.446457 0.939655
O O10 0.352434 0.431356 0.910828
O O11 0.385411 0.214174 0.232411
O O12 0.500000 0.113762 0.607647
O O13 0.410682 0.098277 0.387274
O O14 0.375693 0.045848 0.642636
O O15 0.870876 0.410895 0.619098
O O16 0.762577 0.466445 0.755750
O O17 0.764352 0.493929 0.502327
O O18 0.500000 0.860920 0.681791
#
# Coordination Sequence:
#
# PCOD8175438 Si02
#       8
#     8   8   8   8   8   8   8   8
#     4  10  21  38  62  88 117 152 192 245 301 352
#     4  10  22  40  59  85 117 158 201 246 291 355
#     4  10  21  38  60  89 118 150 196 249 302 352
#     4  11  21  41  59  86 116 161 200 240 296 354
#     4   9  19  37  59  85 119 154 192 243 295 344
#     4  11  19  36  59  88 120 154 195 239 300 350
#     4  10  20  37  59  87 121 157 200 243 289 354
#     4  11  21  37  59  90 120 154 194 247 298 351
#
# _framework density 19.523786000000001
#
# number of rings (size 3 to 8) (size 9 to 14) (size 15 to 20)
#    0.000    1.750    5.000    1.500    1.750    1.500 
#    2.250    0.000    0.000    1.500    0.000    0.000 
#    0.000    0.000    0.000    0.000    0.000    0.000 
#
# Total GULP energy -396502.111819 kJ/mol
# GULP energy per Si atom -12390.690994 kJ/mol
# Density = 1.947935 g / cm^3
# Si number density = 19.523786 Si / 1000 Ang^3
#
#
#
# Elastic Constant Matrix: (Units=GPa)
#
#
# Indices 1 2 3 4 5 6 
#
# 1 138.0042 31.9165 28.6001 0.0000 0.0000 0.0000
# 2 31.9165 67.2062 40.0740 0.0000 0.0000 0.0000
# 3 28.6001 40.0740 43.9284 0.0000 0.0000 0.0000
# 4 0.0000 0.0000 0.0000 31.0021 0.0000 0.0000
# 5 0.0000 0.0000 0.0000 0.0000 26.3423 0.0000
# 6 0.0000 0.0000 0.0000 0.0000 0.0000 28.6797
#
#
#
# Elastic Compliance Matrix: (Units=1/GPa)
#
#
# Indices 1 2 3 4 5 6 
#
# 1 0.008455 -0.001607 -0.004038 0.000000 0.000000 0.000000
# 2 -0.001607 0.032934 -0.028998 0.000000 0.000000 0.000000
# 3 -0.004038 -0.028998 0.051847 0.000000 0.000000 0.000000
# 4 0.000000 0.000000 0.000000 0.032256 0.000000 0.000000
# 5 0.000000 0.000000 0.000000 0.000000 0.037962 0.000000
# 6 0.000000 0.000000 0.000000 0.000000 0.000000 0.034868
#
#
# Mechanical properties :
#
#
# Convention : Reuss Voigt Hill
#
# Bulk Modulus (GPa) = 41.75555 50.03554 45.89555
# Shear Modulus (GPa) = 18.14291 27.10803 22.62547
#
# Velocity S-wave (km/s) = 3.05170 3.73025 3.40791
# Velocity P-wave (km/s) = 5.81813 6.65106 6.24849
#
# Compressibility (1/GPa) = 0.02394891
#
# Stress axis : x y z
#
# Youngs Moduli (GPa) = 118.27633 30.36416 19.28760
#
# Poissons Ratio (x) = 0.04880 0.07789
# Poissons Ratio (y) = 0.19009 0.55929
# Poissons Ratio (z) = 0.47765 0.88048
#
# Static dielectric constant tensor:
#      x y z
#    x 4.055740 0.000000 0.000000 
#    y 0.000000 3.341680 0.000000 
#    z 0.000000 0.000000 3.429140 
# 
# 
# High freq. dielectric constant tensor:
#      x y z
#    x 1.788270 0.000000 0.000000 
#    y 0.000000 1.736320 0.000000 
#    z 0.000000 0.000000 1.738720 
# 
# From -- ./inp_files/5317.got.cif
#   From: 2010.03.12/outbox.cif.g09.slc.cpg/sg36_3_cif.got.tgz:5317.got - 2010.04.14 02:13:53.
