data_PCOD8175452
_publ_section_title
;
Structure prediction by ZEFSAII (Michael W. Deem and Ramdas Pophale) SiO2 
 PCOD8175452
Probable space group: C M C 21
;
_chemical_formula_sum "Si O2"
_cell_formula_units_Z 64
_cell_length_a 19.001892
_cell_length_b 28.961571
_cell_length_c 5.326303
_cell_angle_alpha 90.000000
_cell_angle_beta 90.000000
_cell_angle_gamma 90.000000
_cell_volume 2931.195804
_symmetry_space_group_name_H-M "C M C 21"
_symmetry_group_IT_number 36
_symmetry_cell_setting 'orthorhombic'
loop_
_space_group_symop_operation_xyz
x,y,z
-x,-y,1/2+z
x,-y,1/2+z
-x,y,z
1/2+x,1/2+y,z
1/2-x,1/2-y,1/2+z
1/2+x,1/2-y,1/2+z
1/2-x,1/2+y,z
loop_
_atom_site_type_symbol
_atom_site_label
_atom_site_fract_x
_atom_site_fract_y
_atom_site_fract_z
Si Si1 0.834817 0.604361 0.279340
Si Si2 0.422668 0.158774 0.606795
Si Si3 0.327528 0.671370 0.893155
Si Si4 0.418817 0.971162 0.539301
Si Si5 0.918060 0.027683 0.402423
Si Si6 0.680189 0.806156 0.499971
Si Si7 0.183946 0.111927 0.392245
Si Si8 0.922056 0.249823 0.774387
O O1 0.901676 0.611243 0.464007
O O2 0.864627 0.572077 0.056095
O O3 0.812226 0.657627 0.226315
O O4 0.760784 0.586101 0.394590
O O5 0.500000 0.150473 0.725035
O O6 0.425152 0.205311 0.445368
O O7 0.363847 0.162846 0.812221
O O8 0.324527 0.646329 0.625788
O O9 0.396096 0.704081 0.918102
O O10 0.258610 0.705218 0.904225
O O11 0.329844 0.636051 0.123431
O O12 0.500000 0.954745 0.544789
O O13 0.401690 0.996900 0.280223
O O14 0.875808 0.074501 0.428740
O O15 0.000000 0.040458 0.410601
O O16 0.897687 0.996022 0.639615
O O17 0.636270 0.759573 0.557885
O O18 0.000000 0.240678 0.660497
#
# Coordination Sequence:
#
# PCOD8175452 Si02
#       8
#     8   8   8   8   8   8   8   8
#     4  10  22  39  58  87 121 156 209 253 313 362
#     4  10  20  37  60  86 116 158 213 263 303 362
#     4  11  25  41  64  92 133 170 208 264 331 385
#     4  10  23  39  57  85 119 156 195 241 305 372
#     4  10  22  42  69  98 128 166 212 263 318 381
#     4  10  22  38  62  88 119 166 214 268 310 380
#     4  11  24  42  64  96 128 165 211 257 319 396
#     4  10  24  40  60  92 126 167 222 267 321 384
#
# _framework density 21.834091000000001
#
# number of rings (size 3 to 8) (size 9 to 14) (size 15 to 20)
#    0.000    1.750    1.250    1.500    5.250    3.500 
#    0.000    0.000    0.000    0.000    0.000    0.000 
#    0.000    0.000    0.000    0.000    0.000    0.000 
#
# Total GULP energy -396539.540268 kJ/mol
# GULP energy per Si atom -12391.860633 kJ/mol
# Density = 2.178440 g / cm^3
# Si number density = 21.834091 Si / 1000 Ang^3
#
#
#
# Elastic Constant Matrix: (Units=GPa)
#
#
# Indices 1 2 3 4 5 6 
#
# 1 123.8362 53.7456 21.2175 0.0000 0.0000 0.0000
# 2 53.7456 67.5635 9.0837 0.0000 0.0000 0.0000
# 3 21.2175 9.0837 81.1376 0.0000 0.0000 0.0000
# 4 0.0000 0.0000 0.0000 26.2399 0.0000 0.0000
# 5 0.0000 0.0000 0.0000 0.0000 21.5948 0.0000
# 6 0.0000 0.0000 0.0000 0.0000 0.0000 31.0670
#
#
#
# Elastic Compliance Matrix: (Units=1/GPa)
#
#
# Indices 1 2 3 4 5 6 
#
# 1 0.012717 -0.009817 -0.002227 0.000000 0.000000 0.000000
# 2 -0.009817 0.022605 0.000036 0.000000 0.000000 0.000000
# 3 -0.002227 0.000036 0.012903 0.000000 0.000000 0.000000
# 4 0.000000 0.000000 0.000000 0.038110 0.000000 0.000000
# 5 0.000000 0.000000 0.000000 0.000000 0.046307 0.000000
# 6 0.000000 0.000000 0.000000 0.000000 0.000000 0.032189
#
#
# Mechanical properties :
#
#
# Convention : Reuss Voigt Hill
#
# Bulk Modulus (GPa) = 41.30326 48.95899 45.13112
# Shear Modulus (GPa) = 25.39152 28.34637 26.86894
#
# Velocity S-wave (km/s) = 3.41388 3.60705 3.51179
# Velocity P-wave (km/s) = 5.87344 6.31028 6.09577
#
# Compressibility (1/GPa) = 0.02421116
#
# Stress axis : x y z
#
# Youngs Moduli (GPa) = 78.63282 44.23739 77.50197
#
# Poissons Ratio (x) = 0.43428 0.17256
# Poissons Ratio (y) = 0.77194 -0.00282
# Poissons Ratio (z) = 0.17508 -0.00161
#
# Static dielectric constant tensor:
#      x y z
#    x 4.398750 0.000000 0.000000 
#    y 0.000000 3.634660 0.000000 
#    z 0.000000 0.000000 4.070280 
# 
# 
# High freq. dielectric constant tensor:
#      x y z
#    x 1.871220 0.000000 0.000000 
#    y 0.000000 1.842660 0.000000 
#    z 0.000000 0.000000 1.855970 
# 
# From -- ./inp_files/1238.got.cif
#   From: 2010.03.12/outbox.cif.g09.slc.cpg/sg36_1_cif.got.tgz:1238.got - 2010.04.14 02:13:53.
