data_PCOD8175220
_publ_section_title
;
Structure prediction by ZEFSAII (Michael W. Deem and Ramdas Pophale) SiO2 
 PCOD8175220
Probable space group: C M C 21
;
_chemical_formula_sum "Si O2"
_cell_formula_units_Z 48
_cell_length_a 8.547078
_cell_length_b 30.499927
_cell_length_c 9.344032
_cell_angle_alpha 90.000000
_cell_angle_beta 90.000000
_cell_angle_gamma 90.000000
_cell_volume 2435.851365
_symmetry_space_group_name_H-M "C M C 21"
_symmetry_group_IT_number 36
_symmetry_cell_setting 'orthorhombic'
loop_
_space_group_symop_operation_xyz
x,y,z
-x,-y,1/2+z
x,-y,1/2+z
-x,y,z
1/2+x,1/2+y,z
1/2-x,1/2-y,1/2+z
1/2+x,1/2-y,1/2+z
1/2-x,1/2+y,z
loop_
_atom_site_type_symbol
_atom_site_label
_atom_site_fract_x
_atom_site_fract_y
_atom_site_fract_z
Si Si1 0.683356 0.863888 0.431270
Si Si2 0.316535 0.792371 0.919665
Si Si3 0.316462 0.122562 0.248495
Si Si4 0.180648 0.462091 0.400584
Si Si5 0.319712 0.466503 0.705512
Si Si6 0.184697 0.714263 0.741867
O O1 0.500000 0.855723 0.436426
O O2 0.747084 0.860610 0.593959
O O3 0.721564 0.911488 0.364692
O O4 0.759987 0.825984 0.332771
O O5 0.500000 0.782154 0.909775
O O6 0.279156 0.841660 0.869072
O O7 0.227868 0.759816 0.814197
O O8 0.249535 0.786907 0.079979
O O9 0.500000 0.112041 0.238977
O O10 0.227290 0.077834 0.290570
O O11 0.211634 0.471267 0.566789
O O12 0.292358 0.491942 0.305903
O O13 0.000000 0.472701 0.367738
O O14 0.500000 0.464790 0.659933
O O15 0.000000 0.708810 0.734179
#
# Coordination Sequence:
#
# PCOD8175220 Si02
#       6
#     8   8   8   8   8   8
#     4   8  16  32  54  76 100 137 183 225 262 313
#     4  10  21  35  54  81 109 141 182 224 268 326
#     4   9  18  35  55  74 103 145 188 224 266 327
#     4  10  20  37  59  81 108 149 193 225 269 336
#     4  11  22  36  55  84 117 144 179 232 286 326
#     4  10  20  35  55  80 109 140 177 224 275 322
#
# _framework density 19.705635999999998
#
# number of rings (size 3 to 8) (size 9 to 14) (size 15 to 20)
#    0.000    2.333    0.000    4.000    0.000    4.000 
#    0.000    9.167    0.000    0.000    0.000    0.000 
#    0.000    0.000    0.000    0.000    0.000    0.000 
#
# Total GULP energy -297622.734613 kJ/mol
# GULP energy per Si atom -12400.947276 kJ/mol
# Density = 1.966078 g / cm^3
# Si number density = 19.705636 Si / 1000 Ang^3
#
#
#
# Elastic Constant Matrix: (Units=GPa)
#
#
# Indices 1 2 3 4 5 6 
#
# 1 38.6134 19.3669 11.3647 0.0000 0.0000 0.0000
# 2 19.3669 69.4614 19.5639 0.0000 0.0000 0.0000
# 3 11.3647 19.5639 69.8975 0.0000 0.0000 0.0000
# 4 0.0000 0.0000 0.0000 39.2292 0.0000 0.0000
# 5 0.0000 0.0000 0.0000 0.0000 23.1847 0.0000
# 6 0.0000 0.0000 0.0000 0.0000 0.0000 27.2117
#
#
#
# Elastic Compliance Matrix: (Units=1/GPa)
#
#
# Indices 1 2 3 4 5 6 
#
# 1 0.030608 -0.007743 -0.002809 0.000000 0.000000 0.000000
# 2 -0.007743 0.017587 -0.003664 0.000000 0.000000 0.000000
# 3 -0.002809 -0.003664 0.015789 0.000000 0.000000 0.000000
# 4 0.000000 0.000000 0.000000 0.025491 0.000000 0.000000
# 5 0.000000 0.000000 0.000000 0.000000 0.043132 0.000000
# 6 0.000000 0.000000 0.000000 0.000000 0.000000 0.036749
#
#
# Mechanical properties :
#
#
# Convention : Reuss Voigt Hill
#
# Bulk Modulus (GPa) = 28.12744 30.95146 29.53945
# Shear Modulus (GPa) = 23.85059 26.43691 25.14375
#
# Velocity S-wave (km/s) = 3.48277 3.66675 3.57594
# Velocity P-wave (km/s) = 5.52066 5.80239 5.66328
#
# Compressibility (1/GPa) = 0.03555248
#
# Stress axis : x y z
#
# Youngs Moduli (GPa) = 32.67118 56.85975 63.33566
#
# Poissons Ratio (x) = 0.44025 0.17794
# Poissons Ratio (y) = 0.25296 0.23204
# Poissons Ratio (z) = 0.09179 0.20831
#
# Static dielectric constant tensor:
#      x y z
#    x 3.273360 0.000000 0.000000 
#    y 0.000000 3.714610 0.000000 
#    z 0.000000 0.000000 3.692180 
# 
# 
# High freq. dielectric constant tensor:
#      x y z
#    x 1.741850 0.000000 0.000000 
#    y 0.000000 1.778640 0.000000 
#    z 0.000000 0.000000 1.764730 
# 
# From -- ./inp_files/2667.got.cif
#   From: 2010.03.12/outbox.cif.g09.slc.cpg/sg36_2_cif.got.tgz:2667.got - 2010.04.14 02:13:53.
