data_PCOD8175663
_publ_section_title
;
Structure prediction by ZEFSAII (Michael W. Deem and Ramdas Pophale) SiO2 
 PCOD8175663
Probable space group: C M C 21
;
_chemical_formula_sum "Si O2"
_cell_formula_units_Z 40
_cell_length_a 22.426925
_cell_length_b 16.198736
_cell_length_c 5.128358
_cell_angle_alpha 90.000000
_cell_angle_beta 90.000000
_cell_angle_gamma 90.000000
_cell_volume 1863.070087
_symmetry_space_group_name_H-M "C M C 21"
_symmetry_group_IT_number 36
_symmetry_cell_setting 'orthorhombic'
loop_
_space_group_symop_operation_xyz
x,y,z
-x,-y,1/2+z
x,-y,1/2+z
-x,y,z
1/2+x,1/2+y,z
1/2-x,1/2-y,1/2+z
1/2+x,1/2-y,1/2+z
1/2-x,1/2+y,z
loop_
_atom_site_type_symbol
_atom_site_label
_atom_site_fract_x
_atom_site_fract_y
_atom_site_fract_z
Si Si1 0.671663 0.054919 0.412450
Si Si2 0.066693 0.037808 0.481305
Si Si3 0.399797 0.284445 0.904908
Si Si4 0.069451 0.318668 0.903684
Si Si5 0.263742 0.300156 0.887150
O O1 0.608040 0.099476 0.452476
O O2 0.725404 0.119113 0.451491
O O3 0.676685 0.983450 0.625920
O O4 0.060443 0.136120 0.463354
O O5 0.000000 0.000332 0.496175
O O6 0.100884 0.004711 0.737986
O O7 0.415938 0.248907 0.622545
O O8 0.333111 0.319534 0.914966
O O9 0.412230 0.215592 0.121414
O O10 0.000000 0.342815 0.909704
O O11 0.251963 0.271203 0.592864
#
# Coordination Sequence:
#
# PCOD8175663 Si02
#       5
#     8   8   8   8   8
#     4  12  26  44  69 102 138 174 224 283 338 395
#     4  10  21  36  56  88 130 166 206 266 326 378
#     4  12  23  42  70  96 133 174 233 275 330 406
#     4  12  25  43  69 101 135 183 229 273 334 408
#     4  12  23  45  70  95 130 175 218 275 336 391
#
# _framework density 21.469940000000001
#
# number of rings (size 3 to 8) (size 9 to 14) (size 15 to 20)
#    0.000    0.400    4.000    5.400    0.000    4.000 
#    0.000    0.000    0.000    0.000    0.000    0.000 
#    0.000    0.000    0.000    0.000    0.000    0.000 
#
# Total GULP energy -248066.461665 kJ/mol
# GULP energy per Si atom -12403.323083 kJ/mol
# Density = 2.142107 g / cm^3
# Si number density = 21.469940 Si / 1000 Ang^3
#
#
#
# Elastic Constant Matrix: (Units=GPa)
#
#
# Indices 1 2 3 4 5 6 
#
# 1 153.0975 26.2079 17.0761 0.0000 0.0000 0.0000
# 2 26.2079 76.4276 11.6076 0.0000 0.0000 0.0000
# 3 17.0761 11.6076 106.0694 0.0000 0.0000 0.0000
# 4 0.0000 0.0000 0.0000 52.1487 0.0000 0.0000
# 5 0.0000 0.0000 0.0000 0.0000 24.2491 0.0000
# 6 0.0000 0.0000 0.0000 0.0000 0.0000 33.8346
#
#
#
# Elastic Compliance Matrix: (Units=1/GPa)
#
#
# Indices 1 2 3 4 5 6 
#
# 1 0.007019 -0.002273 -0.000881 0.000000 0.000000 0.000000
# 2 -0.002273 0.014042 -0.001171 0.000000 0.000000 0.000000
# 3 -0.000881 -0.001171 0.009698 0.000000 0.000000 0.000000
# 4 0.000000 0.000000 0.000000 0.019176 0.000000 0.000000
# 5 0.000000 0.000000 0.000000 0.000000 0.041239 0.000000
# 6 0.000000 0.000000 0.000000 0.000000 0.000000 0.029556
#
#
# Mechanical properties :
#
#
# Convention : Reuss Voigt Hill
#
# Bulk Modulus (GPa) = 45.23165 49.48642 47.35904
# Shear Modulus (GPa) = 36.56355 40.76000 38.66178
#
# Velocity S-wave (km/s) = 4.13123 4.36187 4.24812
# Velocity P-wave (km/s) = 6.62339 6.96183 6.79472
#
# Compressibility (1/GPa) = 0.02210841
#
# Stress axis : x y z
#
# Youngs Moduli (GPa) = 142.46631 71.21718 103.11639
#
# Poissons Ratio (x) = 0.16189 0.09087
# Poissons Ratio (y) = 0.32384 0.12072
# Poissons Ratio (z) = 0.12555 0.08337
#
# Static dielectric constant tensor:
#      x y z
#    x 4.011230 0.000000 0.000000 
#    y 0.000000 3.633340 0.000000 
#    z 0.000000 0.000000 4.340290 
# 
# 
# High freq. dielectric constant tensor:
#      x y z
#    x 1.842020 0.000000 0.000000 
#    y 0.000000 1.836730 0.000000 
#    z 0.000000 0.000000 1.868390 
# 
# From -- ./inp_files/1534.got.cif
#   From: 2010.03.12/outbox.cif.g09.slc.cpg/sg36_1_cif.got.tgz:1534.got - 2010.04.14 02:13:53.
