data_PCOD8175766
_publ_section_title
;
Structure prediction by ZEFSAII (Michael W. Deem and Ramdas Pophale) SiO2 
 PCOD8175766
Probable space group: C M C 21
;
_chemical_formula_sum "Si O2"
_cell_formula_units_Z 44
_cell_length_a 10.043303
_cell_length_b 10.082414
_cell_length_c 24.577831
_cell_angle_alpha 90.000000
_cell_angle_beta 90.000000
_cell_angle_gamma 90.000000
_cell_volume 2488.769325
_symmetry_space_group_name_H-M "C M C 21"
_symmetry_group_IT_number 36
_symmetry_cell_setting 'orthorhombic'
loop_
_space_group_symop_operation_xyz
x,y,z
-x,-y,1/2+z
x,-y,1/2+z
-x,y,z
1/2+x,1/2+y,z
1/2-x,1/2-y,1/2+z
1/2+x,1/2-y,1/2+z
1/2-x,1/2+y,z
loop_
_atom_site_type_symbol
_atom_site_label
_atom_site_fract_x
_atom_site_fract_y
_atom_site_fract_z
Si Si1 0.344476 0.602496 0.939160
Si Si2 0.000000 0.533737 0.320603
Si Si3 0.000000 0.397387 0.213776
Si Si4 0.500000 0.740213 0.315439
Si Si5 0.647580 0.915821 0.109870
Si Si6 0.345173 0.368403 0.565901
Si Si7 0.753446 0.147260 0.376222
O O1 0.500000 0.612439 0.925918
O O2 0.266776 0.715579 0.907132
O O3 0.285747 0.461800 0.921490
O O4 0.315484 0.617687 0.002533
O O5 0.000000 0.524320 0.254485
O O6 0.873110 0.612947 0.340468
O O7 0.000000 0.384438 0.345123
O O8 0.868298 0.400186 0.175485
O O9 0.000000 0.262102 0.249901
O O10 0.372079 0.657311 0.333097
O O11 0.500000 0.951978 0.085289
O O12 0.697965 0.778238 0.084194
O O13 0.755279 0.027782 0.098332
O O14 0.500000 0.395413 0.579775
#
# Coordination Sequence:
#
# PCOD8175766 Si02
#       7
#     8   4   4   4   8   8   8
#     4  11  22  35  58  90 118 158 192 232 288 355
#     4  10  22  39  58  86 116 152 195 238 284 354
#     4   8  20  42  59  83 115 153 195 241 299 339
#     4  10  22  39  57  89 115 147 194 247 283 341
#     4   9  20  40  59  82 117 152 190 249 284 340
#     4  10  21  38  59  86 120 151 197 237 289 344
#     4  12  21  39  61  85 123 153 191 238 291 343
#
# _framework density 17.679421000000001
#
# number of rings (size 3 to 8) (size 9 to 14) (size 15 to 20)
#    1.091    0.727    3.636    1.091    0.000    2.182 
#    3.273    0.000    2.000    0.000    0.000    0.000 
#    0.000    0.000    0.000    0.000    0.000    0.000 
#
# Total GULP energy -272720.320803 kJ/mol
# GULP energy per Si atom -12396.378218 kJ/mol
# Density = 1.763918 g / cm^3
# Si number density = 17.679421 Si / 1000 Ang^3
#
#
#
# Elastic Constant Matrix: (Units=GPa)
#
#
# Indices 1 2 3 4 5 6 
#
# 1 88.1848 23.0057 30.6520 0.0000 0.0000 0.0000
# 2 23.0057 57.4305 10.5371 0.0000 0.0000 0.0000
# 3 30.6520 10.5371 89.9114 0.0000 0.0000 0.0000
# 4 0.0000 0.0000 0.0000 18.2343 0.0000 0.0000
# 5 0.0000 0.0000 0.0000 0.0000 15.7614 0.0000
# 6 0.0000 0.0000 0.0000 0.0000 0.0000 97.0950
#
#
#
# Elastic Compliance Matrix: (Units=1/GPa)
#
#
# Indices 1 2 3 4 5 6 
#
# 1 0.014079 -0.004864 -0.004230 0.000000 0.000000 0.000000
# 2 -0.004864 0.019475 -0.000624 0.000000 0.000000 0.000000
# 3 -0.004230 -0.000624 0.012637 0.000000 0.000000 0.000000
# 4 0.000000 0.000000 0.000000 0.054842 0.000000 0.000000
# 5 0.000000 0.000000 0.000000 0.000000 0.063446 0.000000
# 6 0.000000 0.000000 0.000000 0.000000 0.000000 0.010299
#
#
# Mechanical properties :
#
#
# Convention : Reuss Voigt Hill
#
# Bulk Modulus (GPa) = 37.37491 40.43514 38.90503
# Shear Modulus (GPa) = 24.61452 37.64027 31.12740
#
# Velocity S-wave (km/s) = 3.73536 4.61916 4.20057
# Velocity P-wave (km/s) = 6.30794 7.16728 6.75130
#
# Compressibility (1/GPa) = 0.02675592
#
# Stress axis : x y z
#
# Youngs Moduli (GPa) = 71.02854 51.34734 79.13166
#
# Poissons Ratio (x) = 0.24974 0.33470
# Poissons Ratio (y) = 0.34546 0.04940
# Poissons Ratio (z) = 0.30043 0.03205
#
# Static dielectric constant tensor:
#      x y z
#    x 3.215700 0.000000 0.000000 
#    y 0.000000 3.202000 0.000000 
#    z 0.000000 0.000000 3.232630 
# 
# 
# High freq. dielectric constant tensor:
#      x y z
#    x 1.683360 0.000000 0.000000 
#    y 0.000000 1.683870 0.000000 
#    z 0.000000 0.000000 1.681330 
# 
# From -- ./inp_files/16791.got.cif
#   From: 2010.03.12/outbox.cif.g09.slc.cpg/sg36_9_cif.got.tgz:16791.got - 2010.04.14 02:13:53.
