data_PCOD8175377
_publ_section_title
;
Structure prediction by ZEFSAII (Michael W. Deem and Ramdas Pophale) SiO2 
 PCOD8175377
Probable space group: C M C 21
;
_chemical_formula_sum "Si O2"
_cell_formula_units_Z 64
_cell_length_a 8.899428
_cell_length_b 15.329591
_cell_length_c 23.912177
_cell_angle_alpha 90.000000
_cell_angle_beta 90.000000
_cell_angle_gamma 90.000000
_cell_volume 3262.208976
_symmetry_space_group_name_H-M "C M C 21"
_symmetry_group_IT_number 36
_symmetry_cell_setting 'orthorhombic'
loop_
_space_group_symop_operation_xyz
x,y,z
-x,-y,1/2+z
x,-y,1/2+z
-x,y,z
1/2+x,1/2+y,z
1/2-x,1/2-y,1/2+z
1/2+x,1/2-y,1/2+z
1/2-x,1/2+y,z
loop_
_atom_site_type_symbol
_atom_site_label
_atom_site_fract_x
_atom_site_fract_y
_atom_site_fract_z
Si Si1 0.172411 0.463085 0.340670
Si Si2 0.321822 0.369121 0.034633
Si Si3 0.172295 0.780461 0.603094
Si Si4 0.322638 0.388663 0.909244
Si Si5 0.322642 0.235543 0.828653
Si Si6 0.674053 0.042020 0.714368
Si Si7 0.672001 0.473641 0.612892
Si Si8 0.677631 0.274919 0.213031
O O1 0.269271 0.521681 0.381800
O O2 0.222296 0.362154 0.347659
O O3 0.200381 0.494322 0.276842
O O4 0.000000 0.474657 0.357696
O O5 0.500000 0.360072 0.035102
O O6 0.254330 0.280450 0.058703
O O7 0.268562 0.451934 0.070901
O O8 0.259094 0.381800 0.971995
O O9 0.185585 0.880432 0.581965
O O10 0.249759 0.780000 0.663422
O O11 0.000000 0.750528 0.608568
O O12 0.500000 0.391244 0.910082
O O13 0.266915 0.303775 0.875223
O O14 0.500000 0.240379 0.817339
O O15 0.239121 0.261211 0.771645
O O16 0.500000 0.068041 0.706719
O O17 0.777735 0.125246 0.703395
O O18 0.725412 0.971362 0.668750
O O19 0.500000 0.491708 0.630414
O O20 0.500000 0.264209 0.211199
#
# Coordination Sequence:
#
# PCOD8175377 Si02
#       8
#     8   8   8   8   8   8   8   8
#     4   9  20  37  56  83 118 151 190 239 290 347
#     4  10  22  42  61  84 118 157 199 248 296 349
#     4  11  23  38  58  87 118 156 199 245 298 353
#     4  10  22  39  62  86 115 156 202 243 292 349
#     4   9  20  39  58  83 118 157 193 238 294 354
#     4  10  20  36  59  87 122 156 193 241 297 355
#     4  10  22  38  58  85 119 156 195 242 298 353
#     4  11  21  35  58  87 120 155 193 244 299 352
#
# _framework density 19.618608999999999
#
# number of rings (size 3 to 8) (size 9 to 14) (size 15 to 20)
#    0.000    2.000    1.250    2.625    1.750    5.500 
#    0.000    0.000    0.000    0.000    0.000    0.000 
#    0.000    0.000    0.000    0.000    0.000    0.000 
#
# Total GULP energy -396858.269586 kJ/mol
# GULP energy per Si atom -12401.820925 kJ/mol
# Density = 1.957396 g / cm^3
# Si number density = 19.618609 Si / 1000 Ang^3
#
#
#
# Elastic Constant Matrix: (Units=GPa)
#
#
# Indices 1 2 3 4 5 6 
#
# 1 40.0890 17.2112 30.1041 0.0000 0.0000 0.0000
# 2 17.2112 84.7733 46.9151 0.0000 0.0000 0.0000
# 3 30.1041 46.9151 124.6559 0.0000 0.0000 0.0000
# 4 0.0000 0.0000 0.0000 25.4438 0.0000 0.0000
# 5 0.0000 0.0000 0.0000 0.0000 28.5472 0.0000
# 6 0.0000 0.0000 0.0000 0.0000 0.0000 28.2955
#
#
#
# Elastic Compliance Matrix: (Units=1/GPa)
#
#
# Indices 1 2 3 4 5 6 
#
# 1 0.030956 -0.002713 -0.006455 0.000000 0.000000 0.000000
# 2 -0.002713 0.015137 -0.005042 0.000000 0.000000 0.000000
# 3 -0.006455 -0.005042 0.011478 0.000000 0.000000 0.000000
# 4 0.000000 0.000000 0.000000 0.039302 0.000000 0.000000
# 5 0.000000 0.000000 0.000000 0.000000 0.035030 0.000000
# 6 0.000000 0.000000 0.000000 0.000000 0.000000 0.035341
#
#
# Mechanical properties :
#
#
# Convention : Reuss Voigt Hill
#
# Bulk Modulus (GPa) = 34.30180 48.66434 41.48307
# Shear Modulus (GPa) = 24.34490 26.80983 25.57736
#
# Velocity S-wave (km/s) = 3.52647 3.70070 3.61464
# Velocity P-wave (km/s) = 5.83983 6.56653 6.21381
#
# Compressibility (1/GPa) = 0.02915299
#
# Stress axis : x y z
#
# Youngs Moduli (GPa) = 32.30361 66.06249 87.11960
#
# Poissons Ratio (x) = 0.17921 0.56235
# Poissons Ratio (y) = 0.08763 0.43925
# Poissons Ratio (z) = 0.20852 0.33308
#
# Static dielectric constant tensor:
#      x y z
#    x 3.458110 0.000000 0.000000 
#    y 0.000000 3.555170 0.000000 
#    z 0.000000 0.000000 3.690320 
# 
# 
# High freq. dielectric constant tensor:
#      x y z
#    x 1.758480 0.000000 0.000000 
#    y 0.000000 1.768310 0.000000 
#    z 0.000000 0.000000 1.760310 
# 
# From -- ./inp_files/16603.got.cif
#   From: 2010.03.12/outbox.cif.g09.slc.cpg/sg36_9_cif.got.tgz:16603.got - 2010.04.14 02:13:53.
