data_PCOD8175927
_publ_section_title
;
Structure prediction by ZEFSAII (Michael W. Deem and Ramdas Pophale) SiO2 
 PCOD8175927
Probable space group: C M C 21
;
_chemical_formula_sum "Si O2"
_cell_formula_units_Z 64
_cell_length_a 26.340192
_cell_length_b 9.396774
_cell_length_c 12.317181
_cell_angle_alpha 90.000000
_cell_angle_beta 90.000000
_cell_angle_gamma 90.000000
_cell_volume 3048.660343
_symmetry_space_group_name_H-M "C M C 21"
_symmetry_group_IT_number 36
_symmetry_cell_setting 'orthorhombic'
loop_
_space_group_symop_operation_xyz
x,y,z
-x,-y,1/2+z
x,-y,1/2+z
-x,y,z
1/2+x,1/2+y,z
1/2-x,1/2-y,1/2+z
1/2+x,1/2-y,1/2+z
1/2-x,1/2+y,z
loop_
_atom_site_type_symbol
_atom_site_label
_atom_site_fract_x
_atom_site_fract_y
_atom_site_fract_z
Si Si1 0.809912 0.109230 0.169300
Si Si2 0.557632 0.778783 0.453209
Si Si3 0.871164 0.356821 0.807837
Si Si4 0.893089 0.331048 0.229098
Si Si5 0.236584 0.557036 0.361146
Si Si6 0.135324 0.826846 0.112284
Si Si7 0.771614 0.707371 0.003639
Si Si8 0.441651 0.103148 0.505279
O O1 0.842583 0.235590 0.222034
O O2 0.770892 0.039018 0.254564
O O3 0.778934 0.173497 0.069529
O O4 0.846701 0.987734 0.125224
O O5 0.500000 0.727702 0.463957
O O6 0.572133 0.774640 0.326707
O O7 0.592132 0.669138 0.520270
O O8 0.565611 0.933465 0.506806
O O9 0.877275 0.508218 0.750835
O O10 0.812235 0.343384 0.840738
O O11 0.886526 0.230646 0.726044
O O12 0.906989 0.331652 0.910931
O O13 0.925244 0.326415 0.118520
O O14 0.219469 0.403321 0.405448
O O15 0.268571 0.634650 0.454570
O O16 0.179248 0.713158 0.080268
O O17 0.500000 0.142483 0.481247
#
# Coordination Sequence:
#
# PCOD8175927 Si02
#       8
#     8   8   8   8   8   8   8   8
#     4  12  27  41  65  96 137 175 216 269 333 396
#     4  10  22  43  71 100 132 172 221 279 332 387
#     4  11  23  38  67  94 132 170 218 268 324 396
#     4  11  23  42  68 100 129 169 220 274 330 396
#     4  12  24  41  63  94 134 172 216 268 320 392
#     4  12  24  45  63  98 135 177 221 269 332 398
#     4  12  25  41  64  94 131 175 217 264 326 389
#     4  10  21  41  70 102 127 166 224 285 331 380
#
# _framework density 20.992826999999998
#
# number of rings (size 3 to 8) (size 9 to 14) (size 15 to 20)
#    0.000    0.750    3.750    4.875    3.500    1.000 
#    0.000    1.250    0.000    0.000    0.000    0.000 
#    0.000    0.000    0.000    0.000    0.000    0.000 
#
# Total GULP energy -397022.789900 kJ/mol
# GULP energy per Si atom -12406.962184 kJ/mol
# Density = 2.094505 g / cm^3
# Si number density = 20.992827 Si / 1000 Ang^3
#
#
#
# Elastic Constant Matrix: (Units=GPa)
#
#
# Indices 1 2 3 4 5 6 
#
# 1 119.5278 18.1854 57.9387 0.0000 0.0000 0.0000
# 2 18.1854 46.8313 30.1551 0.0000 0.0000 0.0000
# 3 57.9387 30.1551 123.5473 0.0000 0.0000 0.0000
# 4 0.0000 0.0000 0.0000 26.0757 0.0000 0.0000
# 5 0.0000 0.0000 0.0000 0.0000 38.6522 0.0000
# 6 0.0000 0.0000 0.0000 0.0000 0.0000 23.4217
#
#
#
# Elastic Compliance Matrix: (Units=1/GPa)
#
#
# Indices 1 2 3 4 5 6 
#
# 1 0.010876 -0.001114 -0.004829 0.000000 0.000000 0.000000
# 2 -0.001114 0.025449 -0.005689 0.000000 0.000000 0.000000
# 3 -0.004829 -0.005689 0.011747 0.000000 0.000000 0.000000
# 4 0.000000 0.000000 0.000000 0.038350 0.000000 0.000000
# 5 0.000000 0.000000 0.000000 0.000000 0.025872 0.000000
# 6 0.000000 0.000000 0.000000 0.000000 0.000000 0.042695
#
#
# Mechanical properties :
#
#
# Convention : Reuss Voigt Hill
#
# Bulk Modulus (GPa) = 40.30839 55.82943 48.06891
# Shear Modulus (GPa) = 26.80637 29.87175 28.33906
#
# Velocity S-wave (km/s) = 3.57729 3.77629 3.67814
# Velocity P-wave (km/s) = 6.02540 6.75767 6.40201
#
# Compressibility (1/GPa) = 0.02480873
#
# Stress axis : x y z
#
# Youngs Moduli (GPa) = 91.94260 39.29408 85.12776
#
# Poissons Ratio (x) = 0.04378 0.41105
# Poissons Ratio (y) = 0.10245 0.48429
# Poissons Ratio (z) = 0.44395 0.22354
#
# Static dielectric constant tensor:
#      x y z
#    x 3.783640 0.000000 0.000000 
#    y 0.000000 3.494670 0.000000 
#    z 0.000000 0.000000 3.912980 
# 
# 
# High freq. dielectric constant tensor:
#      x y z
#    x 1.823200 0.000000 0.000000 
#    y 0.000000 1.800450 0.000000 
#    z 0.000000 0.000000 1.840670 
# 
# From -- ./inp_files/9730.got.cif
#   From: 2010.03.12/outbox.cif.g09.slc.cpg/sg36_5_cif.got.tgz:9730.got - 2010.04.14 02:13:53.
