data_PCOD8175982
_publ_section_title
;
Structure prediction by ZEFSAII (Michael W. Deem and Ramdas Pophale) SiO2 
 PCOD8175982
Probable space group: C M C 21
;
_chemical_formula_sum "Si O2"
_cell_formula_units_Z 52
_cell_length_a 14.691835
_cell_length_b 18.839607
_cell_length_c 9.281447
_cell_angle_alpha 90.000000
_cell_angle_beta 90.000000
_cell_angle_gamma 90.000000
_cell_volume 2568.996842
_symmetry_space_group_name_H-M "C M C 21"
_symmetry_group_IT_number 36
_symmetry_cell_setting 'orthorhombic'
loop_
_space_group_symop_operation_xyz
x,y,z
-x,-y,1/2+z
x,-y,1/2+z
-x,y,z
1/2+x,1/2+y,z
1/2-x,1/2-y,1/2+z
1/2+x,1/2-y,1/2+z
1/2-x,1/2+y,z
loop_
_atom_site_type_symbol
_atom_site_label
_atom_site_fract_x
_atom_site_fract_y
_atom_site_fract_z
Si Si1 0.280721 0.968450 0.514870
Si Si2 0.286354 0.190337 0.684495
Si Si3 0.694954 0.318923 0.482439
Si Si4 0.607319 0.055034 0.736710
Si Si5 0.000000 0.046116 0.741468
Si Si6 0.000000 0.147452 0.982828
Si Si7 0.000000 0.113662 0.301105
Si Si8 0.649251 0.595015 0.525163
O O1 0.223953 0.896255 0.544304
O O2 0.358456 0.952890 0.398708
O O3 0.336134 0.994645 0.653411
O O4 0.208981 0.028953 0.466382
O O5 0.306578 0.266322 0.617591
O O6 0.258126 0.203827 0.849863
O O7 0.370821 0.134739 0.679916
O O8 0.208428 0.158859 0.584118
O O9 0.591633 0.317047 0.422246
O O10 0.500000 0.040893 0.725210
O O11 0.089970 0.071640 0.661060
O O12 0.000000 0.068708 0.910531
O O13 0.000000 0.963444 0.736837
O O14 0.000000 0.158936 0.155593
O O15 0.910182 0.127205 0.395442
#
# Coordination Sequence:
#
# PCOD8175982 Si02
#       8
#     8   8   8   8   4   4   4   8
#     4  10  22  39  66  93 123 160 204 253 314 374
#     4  10  24  42  64  85 126 166 211 254 313 373
#     4  11  24  42  63  91 124 166 203 260 312 374
#     4  10  22  41  66  91 122 160 212 265 306 360
#     4  11  19  39  59  91 133 156 190 253 308 373
#     4  12  24  36  64  94 126 156 212 248 308 385
#     4  11  23  31  63  97 127 156 198 241 308 384
#     4  10  22  40  60  92 128 163 199 251 315 370
#
# _framework density 20.241361999999999
#
# number of rings (size 3 to 8) (size 9 to 14) (size 15 to 20)
#    0.000    1.538    1.538    3.231    9.692    1.231 
#    0.000    0.000   13.538    0.000    0.000    0.000 
#    0.000    0.000    0.000    0.000    0.000    0.000 
#
# Total GULP energy -322272.233534 kJ/mol
# GULP energy per Si atom -12395.085905 kJ/mol
# Density = 2.019529 g / cm^3
# Si number density = 20.241362 Si / 1000 Ang^3
#
#
#
# Elastic Constant Matrix: (Units=GPa)
#
#
# Indices 1 2 3 4 5 6 
#
# 1 116.0000 22.2719 12.8156 0.0000 0.0000 0.0000
# 2 22.2719 78.2458 19.0721 0.0000 0.0000 0.0000
# 3 12.8156 19.0721 78.4697 0.0000 0.0000 0.0000
# 4 0.0000 0.0000 0.0000 35.9201 0.0000 0.0000
# 5 0.0000 0.0000 0.0000 0.0000 27.8515 0.0000
# 6 0.0000 0.0000 0.0000 0.0000 0.0000 16.2325
#
#
#
# Elastic Compliance Matrix: (Units=1/GPa)
#
#
# Indices 1 2 3 4 5 6 
#
# 1 0.009181 -0.002389 -0.000919 0.000000 0.000000 0.000000
# 2 -0.002389 0.014207 -0.003063 0.000000 0.000000 0.000000
# 3 -0.000919 -0.003063 0.013638 0.000000 0.000000 0.000000
# 4 0.000000 0.000000 0.000000 0.027840 0.000000 0.000000
# 5 0.000000 0.000000 0.000000 0.000000 0.035905 0.000000
# 6 0.000000 0.000000 0.000000 0.000000 0.000000 0.061605
#
#
# Mechanical properties :
#
#
# Convention : Reuss Voigt Hill
#
# Bulk Modulus (GPa) = 41.17862 42.33719 41.75790
# Shear Modulus (GPa) = 27.29083 30.57120 28.93101
#
# Velocity S-wave (km/s) = 3.67586 3.89052 3.78471
# Velocity P-wave (km/s) = 6.19709 6.41429 6.30662
#
# Compressibility (1/GPa) = 0.02428445
#
# Stress axis : x y z
#
# Youngs Moduli (GPa) = 108.92138 70.38841 73.32335
#
# Poissons Ratio (x) = 0.16818 0.06736
# Poissons Ratio (y) = 0.26025 0.22457
# Poissons Ratio (z) = 0.10006 0.21558
#
# Static dielectric constant tensor:
#      x y z
#    x 3.801870 0.000000 0.000000 
#    y 0.000000 3.511000 0.000000 
#    z 0.000000 0.000000 3.755980 
# 
# 
# High freq. dielectric constant tensor:
#      x y z
#    x 1.798820 0.000000 0.000000 
#    y 0.000000 1.774300 0.000000 
#    z 0.000000 0.000000 1.797700 
# 
# From -- ./inp_files/4166.got.cif
#   From: 2010.03.12/outbox.cif.g09.slc.cpg/sg36_3_cif.got.tgz:4166.got - 2010.04.14 02:13:53.
