data_PCOD8175240
_publ_section_title
;
Structure prediction by ZEFSAII (Michael W. Deem and Ramdas Pophale) SiO2 
 PCOD8175240
Probable space group: C M C 21
;
_chemical_formula_sum "Si O2"
_cell_formula_units_Z 64
_cell_length_a 8.921544
_cell_length_b 17.849474
_cell_length_c 20.595340
_cell_angle_alpha 90.000000
_cell_angle_beta 90.000000
_cell_angle_gamma 90.000000
_cell_volume 3279.702193
_symmetry_space_group_name_H-M "C M C 21"
_symmetry_group_IT_number 36
_symmetry_cell_setting 'orthorhombic'
loop_
_space_group_symop_operation_xyz
x,y,z
-x,-y,1/2+z
x,-y,1/2+z
-x,y,z
1/2+x,1/2+y,z
1/2-x,1/2-y,1/2+z
1/2+x,1/2-y,1/2+z
1/2-x,1/2+y,z
loop_
_atom_site_type_symbol
_atom_site_label
_atom_site_fract_x
_atom_site_fract_y
_atom_site_fract_z
Si Si1 0.824896 0.337298 0.764710
Si Si2 0.825497 0.581315 0.398461
Si Si3 0.678413 0.585115 0.641665
Si Si4 0.674901 0.576365 0.892453
Si Si5 0.674572 0.327588 0.518742
Si Si6 0.322192 0.416289 0.644655
Si Si7 0.177790 0.168569 0.768373
Si Si8 0.822521 0.168735 0.514040
O O1 0.790221 0.371491 0.834498
O O2 0.738437 0.384813 0.711578
O O3 0.760385 0.252991 0.764479
O O4 0.000000 0.339418 0.747892
O O5 0.774188 0.497051 0.386938
O O6 0.732726 0.616274 0.456698
O O7 0.000000 0.583649 0.416001
O O8 0.500000 0.584837 0.642821
O O9 0.739590 0.500549 0.635198
O O10 0.742440 0.621504 0.707755
O O11 0.737812 0.634099 0.581467
O O12 0.500000 0.555613 0.884697
O O13 0.730604 0.631288 0.835411
O O14 0.706786 0.615151 0.960864
O O15 0.500000 0.307510 0.522778
O O16 0.734079 0.365621 0.584791
O O17 0.763447 0.252172 0.505345
O O18 0.500000 0.417032 0.647130
O O19 0.000000 0.170941 0.766124
O O20 0.000000 0.170257 0.512822
#
# Coordination Sequence:
#
# PCOD8175240 Si02
#       8
#     8   8   8   8   8   8   8   8
#     4  10  21  37  56  80 111 146 183 229 286 339
#     4  11  23  38  56  81 115 148 183 235 290 334
#     4   9  18  33  54  81 109 139 181 229 272 320
#     4  10  20  37  61  83 107 146 190 227 274 338
#     4  10  21  37  56  82 117 150 183 232 288 333
#     4  10  20  35  56  81 111 146 184 230 280 332
#     4   9  17  32  56  81 106 140 182 226 271 324
#     4  11  22  37  59  83 110 149 194 234 275 336
#
# _framework density 19.513966
#
# number of rings (size 3 to 8) (size 9 to 14) (size 15 to 20)
#    0.000    2.000    0.000    3.750    0.000    8.000 
#    0.000    3.125    0.000    5.250    0.000    0.000 
#    0.000    0.000    0.000    0.000    0.000    0.000 
#
# Total GULP energy -396918.110224 kJ/mol
# GULP energy per Si atom -12403.690944 kJ/mol
# Density = 1.946955 g / cm^3
# Si number density = 19.513966 Si / 1000 Ang^3
#
#
#
# Elastic Constant Matrix: (Units=GPa)
#
#
# Indices 1 2 3 4 5 6 
#
# 1 28.2318 24.9318 19.1082 0.0000 0.0000 0.0000
# 2 24.9318 116.1717 18.8279 0.0000 0.0000 0.0000
# 3 19.1082 18.8279 73.1039 0.0000 0.0000 0.0000
# 4 0.0000 0.0000 0.0000 40.5575 0.0000 0.0000
# 5 0.0000 0.0000 0.0000 0.0000 6.8364 0.0000
# 6 0.0000 0.0000 0.0000 0.0000 0.0000 24.8988
#
#
#
# Elastic Compliance Matrix: (Units=1/GPa)
#
#
# Indices 1 2 3 4 5 6 
#
# 1 0.050916 -0.009152 -0.010951 0.000000 0.000000 0.000000
# 2 -0.009152 0.010628 -0.000345 0.000000 0.000000 0.000000
# 3 -0.010951 -0.000345 0.016631 0.000000 0.000000 0.000000
# 4 0.000000 0.000000 0.000000 0.024656 0.000000 0.000000
# 5 0.000000 0.000000 0.000000 0.000000 0.146277 0.000000
# 6 0.000000 0.000000 0.000000 0.000000 0.000000 0.040163
#
#
# Mechanical properties :
#
#
# Convention : Reuss Voigt Hill
#
# Bulk Modulus (GPa) = 26.82618 38.13816 32.48217
# Shear Modulus (GPa) = 14.59457 24.76782 19.68119
#
# Velocity S-wave (km/s) = 2.73775 3.56650 3.17924
# Velocity P-wave (km/s) = 4.87552 6.04536 5.49168
#
# Compressibility (1/GPa) = 0.03727702
#
# Stress axis : x y z
#
# Youngs Moduli (GPa) = 19.64029 94.09078 60.13031
#
# Poissons Ratio (x) = 0.86114 0.65851
# Poissons Ratio (y) = 0.17975 0.02075
# Poissons Ratio (z) = 0.21509 0.03246
#
# Static dielectric constant tensor:
#      x y z
#    x 3.261900 0.000000 0.000000 
#    y 0.000000 3.805850 0.000000 
#    z 0.000000 0.000000 3.783360 
# 
# 
# High freq. dielectric constant tensor:
#      x y z
#    x 1.727310 0.000000 0.000000 
#    y 0.000000 1.779000 0.000000 
#    z 0.000000 0.000000 1.779480 
# 
# From -- ./inp_files/15692.got.cif
#   From: 2010.03.12/outbox.cif.g09.slc.cpg/sg36_8_cif.got.tgz:15692.got - 2010.04.14 02:13:53.
