data_PCOD8175197
_publ_section_title
;
Structure prediction by ZEFSAII (Michael W. Deem and Ramdas Pophale) SiO2 
 PCOD8175197
Probable space group: C M C 21
;
_chemical_formula_sum "Si O2"
_cell_formula_units_Z 56
_cell_length_a 13.131751
_cell_length_b 8.844510
_cell_length_c 22.570058
_cell_angle_alpha 90.000000
_cell_angle_beta 90.000000
_cell_angle_gamma 90.000000
_cell_volume 2621.374628
_symmetry_space_group_name_H-M "C M C 21"
_symmetry_group_IT_number 36
_symmetry_cell_setting 'orthorhombic'
loop_
_space_group_symop_operation_xyz
x,y,z
-x,-y,1/2+z
x,-y,1/2+z
-x,y,z
1/2+x,1/2+y,z
1/2-x,1/2-y,1/2+z
1/2+x,1/2-y,1/2+z
1/2-x,1/2+y,z
loop_
_atom_site_type_symbol
_atom_site_label
_atom_site_fract_x
_atom_site_fract_y
_atom_site_fract_z
Si Si1 0.749308 0.943198 0.683230
Si Si2 0.303171 0.122237 0.495305
Si Si3 0.801307 0.194374 0.765085
Si Si4 0.614248 0.146637 0.837457
Si Si5 0.115498 0.321545 0.874764
Si Si6 0.619449 0.802360 0.119183
Si Si7 0.383041 0.211398 0.970302
O O1 0.817097 0.039903 0.729409
O O2 0.675464 0.050079 0.645305
O O3 0.675288 0.831801 0.720227
O O4 0.827481 0.850567 0.642366
O O5 0.328490 0.219163 0.435817
O O6 0.367008 0.193604 0.548678
O O7 0.181287 0.154627 0.502732
O O8 0.331434 0.947537 0.488192
O O9 0.684410 0.219531 0.786950
O O10 0.871605 0.193726 0.824068
O O11 0.500000 0.145039 0.812111
O O12 0.657594 0.977810 0.847811
O O13 0.619448 0.236673 0.899459
O O14 0.000000 0.346438 0.893037
O O15 0.500000 0.803198 0.135598
O O16 0.500000 0.215876 0.993132
#
# Coordination Sequence:
#
# PCOD8175197 Si02
#       7
#     8   8   8   8   8   8   8
#     4  10  25  40  62  91 121 169 222 260 307 370
#     4  11  21  40  69  93 129 164 211 264 316 382
#     4  11  19  38  61  88 128 155 204 266 319 373
#     4   9  18  34  59  87 121 166 200 242 320 391
#     4  10  20  34  59  94 123 159 203 257 328 386
#     4  11  24  46  67  89 125 172 219 267 315 369
#     4  10  21  38  63  96 131 165 201 250 319 385
#
# _framework density 21.362838
#
# number of rings (size 3 to 8) (size 9 to 14) (size 15 to 20)
#    0.000    1.714    2.857    3.000    0.000    3.429 
#    0.000    6.429    0.000    0.000    0.000    0.000 
#    0.000    0.000    0.000    0.000    0.000    0.000 
#
# Total GULP energy -347086.576979 kJ/mol
# GULP energy per Si atom -12395.949178 kJ/mol
# Density = 2.131422 g / cm^3
# Si number density = 21.362838 Si / 1000 Ang^3
#
#
#
# Elastic Constant Matrix: (Units=GPa)
#
#
# Indices 1 2 3 4 5 6 
#
# 1 130.4928 49.3789 31.3697 0.0000 0.0000 0.0000
# 2 49.3789 81.3352 29.5892 0.0000 0.0000 0.0000
# 3 31.3697 29.5892 92.8109 0.0000 0.0000 0.0000
# 4 0.0000 0.0000 0.0000 24.5881 0.0000 0.0000
# 5 0.0000 0.0000 0.0000 0.0000 24.7492 0.0000
# 6 0.0000 0.0000 0.0000 0.0000 0.0000 30.3144
#
#
#
# Elastic Compliance Matrix: (Units=1/GPa)
#
#
# Indices 1 2 3 4 5 6 
#
# 1 0.010170 -0.005570 -0.001662 0.000000 0.000000 0.000000
# 2 -0.005570 0.016958 -0.003524 0.000000 0.000000 0.000000
# 3 -0.001662 -0.003524 0.012460 0.000000 0.000000 0.000000
# 4 0.000000 0.000000 0.000000 0.040670 0.000000 0.000000
# 5 0.000000 0.000000 0.000000 0.000000 0.040405 0.000000
# 6 0.000000 0.000000 0.000000 0.000000 0.000000 0.032988
#
#
# Mechanical properties :
#
#
# Convention : Reuss Voigt Hill
#
# Bulk Modulus (GPa) = 55.31833 58.36829 56.84331
# Shear Modulus (GPa) = 27.59554 28.88373 28.23963
#
# Velocity S-wave (km/s) = 3.59800 3.68102 3.63974
# Velocity P-wave (km/s) = 6.57356 6.74153 6.65807
#
# Compressibility (1/GPa) = 0.01807719
#
# Stress axis : x y z
#
# Youngs Moduli (GPa) = 98.32423 58.96814 80.25851
#
# Poissons Ratio (x) = 0.32845 0.13337
# Poissons Ratio (y) = 0.54766 0.28282
# Poissons Ratio (z) = 0.16339 0.20780
#
# Static dielectric constant tensor:
#      x y z
#    x 3.763150 0.000000 0.000000 
#    y 0.000000 3.742860 0.000000 
#    z 0.000000 0.000000 4.019760 
# 
# 
# High freq. dielectric constant tensor:
#      x y z
#    x 1.826460 0.000000 0.000000 
#    y 0.000000 1.823010 0.000000 
#    z 0.000000 0.000000 1.845580 
# 
# From -- ./inp_files/16147.got.cif
#   From: 2010.03.12/outbox.cif.g09.slc.cpg/sg36_9_cif.got.tgz:16147.got - 2010.04.14 02:13:53.
