data_PCOD8175879
_publ_section_title
;
Structure prediction by ZEFSAII (Michael W. Deem and Ramdas Pophale) SiO2 
 PCOD8175879
Probable space group: C M C 21
;
_chemical_formula_sum "Si O2"
_cell_formula_units_Z 44
_cell_length_a 10.320467
_cell_length_b 20.666954
_cell_length_c 10.558488
_cell_angle_alpha 90.000000
_cell_angle_beta 90.000000
_cell_angle_gamma 90.000000
_cell_volume 2252.047534
_symmetry_space_group_name_H-M "C M C 21"
_symmetry_group_IT_number 36
_symmetry_cell_setting 'orthorhombic'
loop_
_space_group_symop_operation_xyz
x,y,z
-x,-y,1/2+z
x,-y,1/2+z
-x,y,z
1/2+x,1/2+y,z
1/2-x,1/2-y,1/2+z
1/2+x,1/2-y,1/2+z
1/2-x,1/2+y,z
loop_
_atom_site_type_symbol
_atom_site_label
_atom_site_fract_x
_atom_site_fract_y
_atom_site_fract_z
Si Si1 0.640859 0.818112 0.557710
Si Si2 0.000000 0.923258 0.095282
Si Si3 0.772532 0.173352 0.529189
Si Si4 0.000000 0.601824 0.876033
Si Si5 0.000000 0.542783 0.363336
Si Si6 0.000000 0.364147 0.099400
Si Si7 0.248838 0.604534 0.271160
Si Si8 0.500000 0.474392 0.813954
O O1 0.500000 0.819928 0.628106
O O2 0.671692 0.744675 0.527578
O O3 0.627509 0.859618 0.427191
O O4 0.746703 0.852155 0.645024
O O5 0.128319 0.878198 0.091772
O O6 0.000000 0.957979 0.234200
O O7 0.000000 0.972885 0.970894
O O8 0.632757 0.177221 0.598232
O O9 0.750573 0.154940 0.384648
O O10 0.000000 0.528385 0.923844
O O11 0.000000 0.594941 0.726600
O O12 0.873108 0.555965 0.278799
O O13 0.000000 0.587291 0.484759
O O14 0.375648 0.562105 0.263106
#
# Coordination Sequence:
#
# PCOD8175879 Si02
#       8
#     8   4   8   4   4   4   8   4
#     4  10  22  39  62  89 119 161 202 246 309 359
#     4  10  21  45  63  91 125 174 192 260 312 372
#     4  10  22  42  65  87 126 163 204 251 313 363
#     4  10  24  36  62  97 121 158 203 259 303 361
#     4  10  21  40  63  89 127 159 207 250 309 363
#     4  10  24  38  62  99 116 162 210 257 298 366
#     4  10  22  41  63  89 123 166 199 256 307 366
#     4  10  24  39  64  90 129 159 214 244 320 368
#
# _framework density 19.537777999999999
#
# number of rings (size 3 to 8) (size 9 to 14) (size 15 to 20)
#    0.545    1.455    1.818    0.000    7.636    3.636 
#    0.000    0.000    0.000    1.091    0.000    0.000 
#    0.000    0.000    0.000    0.000    0.000    0.000 
#
# Total GULP energy -272601.157362 kJ/mol
# GULP energy per Si atom -12390.961698 kJ/mol
# Density = 1.949331 g / cm^3
# Si number density = 19.537778 Si / 1000 Ang^3
#
#
#
# Elastic Constant Matrix: (Units=GPa)
#
#
# Indices 1 2 3 4 5 6 
#
# 1 130.3680 36.1031 22.5132 0.0000 0.0000 0.0000
# 2 36.1031 120.0324 25.6892 0.0000 0.0000 0.0000
# 3 22.5132 25.6892 54.5797 0.0000 0.0000 0.0000
# 4 0.0000 0.0000 0.0000 26.1686 0.0000 0.0000
# 5 0.0000 0.0000 0.0000 0.0000 31.7276 0.0000
# 6 0.0000 0.0000 0.0000 0.0000 0.0000 29.3978
#
#
#
# Elastic Compliance Matrix: (Units=1/GPa)
#
#
# Indices 1 2 3 4 5 6 
#
# 1 0.008692 -0.002054 -0.002618 0.000000 0.000000 0.000000
# 2 -0.002054 0.009750 -0.003742 0.000000 0.000000 0.000000
# 3 -0.002618 -0.003742 0.021163 0.000000 0.000000 0.000000
# 4 0.000000 0.000000 0.000000 0.038214 0.000000 0.000000
# 5 0.000000 0.000000 0.000000 0.000000 0.031518 0.000000
# 6 0.000000 0.000000 0.000000 0.000000 0.000000 0.034016
#
#
# Mechanical properties :
#
#
# Convention : Reuss Voigt Hill
#
# Bulk Modulus (GPa) = 43.90545 52.62125 48.26335
# Shear Modulus (GPa) = 29.80230 32.17045 30.98637
#
# Velocity S-wave (km/s) = 3.90983 4.06221 3.98675
# Velocity P-wave (km/s) = 6.55006 6.99954 6.77853
#
# Compressibility (1/GPa) = 0.02277622
#
# Stress axis : x y z
#
# Youngs Moduli (GPa) = 115.05433 102.56796 47.25224
#
# Poissons Ratio (x) = 0.21066 0.12373
# Poissons Ratio (y) = 0.23630 0.17680
# Poissons Ratio (z) = 0.30126 0.38378
#
# Static dielectric constant tensor:
#      x y z
#    x 3.882790 0.000000 0.000000 
#    y 0.000000 3.397120 0.000000 
#    z 0.000000 0.000000 3.454610 
# 
# 
# High freq. dielectric constant tensor:
#      x y z
#    x 1.767960 0.000000 0.000000 
#    y 0.000000 1.756920 0.000000 
#    z 0.000000 0.000000 1.752190 
# 
# From -- ./inp_files/7668.got.cif
#   From: 2010.03.12/outbox.cif.g09.slc.cpg/sg36_4_cif.got.tgz:7668.got - 2010.04.14 02:13:53.
