data_PCOD8175785
_publ_section_title
;
Structure prediction by ZEFSAII (Michael W. Deem and Ramdas Pophale) SiO2 
 PCOD8175785
Probable space group: C M C 21
;
_chemical_formula_sum "Si O2"
_cell_formula_units_Z 40
_cell_length_a 12.388272
_cell_length_b 17.284059
_cell_length_c 8.575183
_cell_angle_alpha 90.000000
_cell_angle_beta 90.000000
_cell_angle_gamma 90.000000
_cell_volume 1836.114961
_symmetry_space_group_name_H-M "C M C 21"
_symmetry_group_IT_number 36
_symmetry_cell_setting 'orthorhombic'
loop_
_space_group_symop_operation_xyz
x,y,z
-x,-y,1/2+z
x,-y,1/2+z
-x,y,z
1/2+x,1/2+y,z
1/2-x,1/2-y,1/2+z
1/2+x,1/2-y,1/2+z
1/2-x,1/2+y,z
loop_
_atom_site_type_symbol
_atom_site_label
_atom_site_fract_x
_atom_site_fract_y
_atom_site_fract_z
Si Si1 0.725604 0.346242 0.861030
Si Si2 0.620567 0.046634 0.215799
Si Si3 0.380011 0.105054 0.882123
Si Si4 0.000000 0.080705 0.359667
Si Si5 0.793384 0.195475 0.718123
Si Si6 0.500000 0.593783 0.726205
O O1 0.798667 0.422122 0.847441
O O2 0.605090 0.370680 0.802744
O O3 0.792691 0.287541 0.747562
O O4 0.726542 0.316959 0.036859
O O5 0.500000 0.078783 0.245670
O O6 0.622216 0.954644 0.238488
O O7 0.660846 0.065222 0.041475
O O8 0.500000 0.138922 0.906961
O O9 0.305234 0.174927 0.832004
O O10 0.000000 0.076699 0.544745
O O11 0.000000 0.990701 0.306339
O O12 0.897257 0.146445 0.774551
#
# Coordination Sequence:
#
# PCOD8175785 Si02
#       6
#     8   8   8   4   8   4
#     4  11  24  41  62  91 126 164 207 259 315 374
#     4  10  21  38  61  89 122 159 201 252 306 367
#     4  10  21  38  61  89 122 159 201 252 306 367
#     4  10  24  44  66  92 127 166 211 262 314 376
#     4  11  24  41  62  91 126 164 207 259 315 374
#     4  10  24  44  66  92 127 166 211 262 314 376
#
# _framework density 21.785128
#
# number of rings (size 3 to 8) (size 9 to 14) (size 15 to 20)
#    0.000    1.600    0.000    3.600    2.800    8.800 
#    0.000    0.000    0.000    0.000    0.000    0.000 
#    0.000    0.000    0.000    0.000    0.000    0.000 
#
# Total GULP energy -247891.186537 kJ/mol
# GULP energy per Si atom -12394.559327 kJ/mol
# Density = 2.173554 g / cm^3
# Si number density = 21.785128 Si / 1000 Ang^3
#
#
#
# Elastic Constant Matrix: (Units=GPa)
#
#
# Indices 1 2 3 4 5 6 
#
# 1 103.6429 43.6720 33.1316 0.0000 0.0000 0.0000
# 2 43.6720 80.7268 13.4424 0.0000 0.0000 0.0000
# 3 33.1316 13.4424 58.5121 0.0000 0.0000 0.0000
# 4 0.0000 0.0000 0.0000 43.5344 0.0000 0.0000
# 5 0.0000 0.0000 0.0000 0.0000 32.4148 0.0000
# 6 0.0000 0.0000 0.0000 0.0000 0.0000 41.0836
#
#
#
# Elastic Compliance Matrix: (Units=1/GPa)
#
#
# Indices 1 2 3 4 5 6 
#
# 1 0.014677 -0.006817 -0.006745 0.000000 0.000000 0.000000
# 2 -0.006817 0.016046 0.000174 0.000000 0.000000 0.000000
# 3 -0.006745 0.000174 0.020870 0.000000 0.000000 0.000000
# 4 0.000000 0.000000 0.000000 0.022970 0.000000 0.000000
# 5 0.000000 0.000000 0.000000 0.000000 0.030850 0.000000
# 6 0.000000 0.000000 0.000000 0.000000 0.000000 0.024341
#
#
# Mechanical properties :
#
#
# Convention : Reuss Voigt Hill
#
# Bulk Modulus (GPa) = 40.29469 47.04152 43.66811
# Shear Modulus (GPa) = 30.33937 33.58229 31.96083
#
# Velocity S-wave (km/s) = 3.73589 3.93048 3.83442
# Velocity P-wave (km/s) = 6.09473 6.49912 6.30017
#
# Compressibility (1/GPa) = 0.02481717
#
# Stress axis : x y z
#
# Youngs Moduli (GPa) = 68.13377 62.31911 47.91655
#
# Poissons Ratio (x) = 0.42483 0.32318
# Poissons Ratio (y) = 0.46447 -0.00832
# Poissons Ratio (z) = 0.45953 -0.01082
#
# Static dielectric constant tensor:
#      x y z
#    x 4.143090 0.000000 0.000000 
#    y 0.000000 3.922780 0.000000 
#    z 0.000000 0.000000 3.715380 
# 
# 
# High freq. dielectric constant tensor:
#      x y z
#    x 1.861460 0.000000 0.000000 
#    y 0.000000 1.861640 0.000000 
#    z 0.000000 0.000000 1.853860 
# 
# From -- ./inp_files/3074.got.cif
#   From: 2010.03.12/outbox.cif.g09.slc.cpg/sg36_2_cif.got.tgz:3074.got - 2010.04.14 02:13:53.
