data_PCOD8175735
_publ_section_title
;
Structure prediction by ZEFSAII (Michael W. Deem and Ramdas Pophale) SiO2 
 PCOD8175735
Probable space group: C M C 21
;
_chemical_formula_sum "Si O2"
_cell_formula_units_Z 52
_cell_length_a 7.556072
_cell_length_b 20.402185
_cell_length_c 16.874925
_cell_angle_alpha 90.000000
_cell_angle_beta 90.000000
_cell_angle_gamma 90.000000
_cell_volume 2601.444831
_symmetry_space_group_name_H-M "C M C 21"
_symmetry_group_IT_number 36
_symmetry_cell_setting 'orthorhombic'
loop_
_space_group_symop_operation_xyz
x,y,z
-x,-y,1/2+z
x,-y,1/2+z
-x,y,z
1/2+x,1/2+y,z
1/2-x,1/2-y,1/2+z
1/2+x,1/2-y,1/2+z
1/2-x,1/2+y,z
loop_
_atom_site_type_symbol
_atom_site_label
_atom_site_fract_x
_atom_site_fract_y
_atom_site_fract_z
Si Si1 0.200117 0.350411 0.927930
Si Si2 0.500000 0.453445 0.560798
Si Si3 0.700117 0.850411 0.536060
Si Si4 0.791614 0.370954 0.231995
Si Si5 0.000000 0.976833 0.231995
Si Si6 0.792084 0.282400 0.376430
Si Si7 0.207917 0.282400 0.087560
Si Si8 0.000000 0.046555 0.403192
O O1 0.205565 0.289695 0.865910
O O2 0.322755 0.410439 0.903747
O O3 0.000000 0.377414 0.935483
O O4 0.274666 0.319589 0.009218
O O5 0.322755 0.410439 0.560243
O O6 0.500000 0.485419 0.648023
O O7 0.500000 0.500000 0.481995
O O8 0.500000 0.877414 0.528507
O O9 0.774666 0.819589 0.454772
O O10 0.705565 0.789695 0.598079
O O11 0.682412 0.437254 0.231995
O O12 0.731036 0.328390 0.306071
O O13 0.731035 0.328390 0.157918
O O14 0.000000 0.388063 0.231995
O O15 0.000000 0.014581 0.315967
O O16 0.000000 0.271862 0.378128
O O17 0.000000 0.271862 0.085862
#
# Coordination Sequence:
#
# PCOD8175735 Si02
#       8
#     8   4   8   8   4   8   8   4
#     4  10  21  37  62  91 118 161 200 250 307 363
#     4  12  26  44  62  86 132 172 204 248 294 370
#     4  10  21  37  62  91 118 161 200 250 307 363
#     4  10  22  39  61  89 119 156 198 261 306 354
#     4  12  28  42  62  90 122 172 216 236 296 388
#     4   9  18  36  62  92 122 145 198 259 315 359
#     4   9  18  36  62  92 122 145 198 259 315 359
#     4  12  26  44  62  86 132 172 204 248 294 370
#
# _framework density 19.988892
#
# number of rings (size 3 to 8) (size 9 to 14) (size 15 to 20)
#    0.000    1.846    1.538    1.846    4.308    3.077 
#    0.000    1.538    0.000    0.000    0.000    0.000 
#    0.000    0.000    0.000    0.000    0.000    0.000 
#
# Total GULP energy -322270.714776 kJ/mol
# GULP energy per Si atom -12395.027491 kJ/mol
# Density = 1.994340 g / cm^3
# Si number density = 19.988892 Si / 1000 Ang^3
#
#
#
# Elastic Constant Matrix: (Units=GPa)
#
#
# Indices 1 2 3 4 5 6 
#
# 1 103.2979 70.9561 39.4705 0.0000 0.0000 0.0000
# 2 70.9561 147.8899 80.6983 0.0000 0.0000 0.0000
# 3 39.4705 80.6983 124.6198 0.0000 0.0000 0.0000
# 4 0.0000 0.0000 0.0000 35.2631 0.0000 0.0000
# 5 0.0000 0.0000 0.0000 0.0000 20.9160 0.0000
# 6 0.0000 0.0000 0.0000 0.0000 0.0000 44.9437
#
#
#
# Elastic Compliance Matrix: (Units=1/GPa)
#
#
# Indices 1 2 3 4 5 6 
#
# 1 0.014441 -0.006855 -0.000135 0.000000 0.000000 0.000000
# 2 -0.006855 0.013711 -0.006707 0.000000 0.000000 0.000000
# 3 -0.000135 -0.006707 0.012410 0.000000 0.000000 0.000000
# 4 0.000000 0.000000 0.000000 0.028358 0.000000 0.000000
# 5 0.000000 0.000000 0.000000 0.000000 0.047810 0.000000
# 6 0.000000 0.000000 0.000000 0.000000 0.000000 0.022250
#
#
# Mechanical properties :
#
#
# Convention : Reuss Voigt Hill
#
# Bulk Modulus (GPa) = 75.94247 84.22859 80.08553
# Shear Modulus (GPa) = 29.28007 32.53674 30.90840
#
# Velocity S-wave (km/s) = 3.83144 4.03890 3.93654
# Velocity P-wave (km/s) = 7.59263 7.99872 7.79832
#
# Compressibility (1/GPa) = 0.01316786
#
# Stress axis : x y z
#
# Youngs Moduli (GPa) = 69.24675 72.93547 80.57734
#
# Poissons Ratio (x) = 0.49998 0.01086
# Poissons Ratio (y) = 0.47470 0.54045
# Poissons Ratio (z) = 0.00933 0.48920
#
# Static dielectric constant tensor:
#      x y z
#    x 3.575730 0.000000 0.000000 
#    y 0.000000 3.630830 0.000000 
#    z 0.000000 0.000000 3.993520 
# 
# 
# High freq. dielectric constant tensor:
#      x y z
#    x 1.791340 0.000000 0.000000 
#    y 0.000000 1.775910 0.000000 
#    z 0.000000 0.000000 1.776770 
# 
# From -- ./inp_files/13655.got.cif
#   From: 2010.03.12/outbox.cif.g09.slc.cpg/sg36_7_cif.got.tgz:13655.got - 2010.04.14 02:13:53.
