data_PCOD8175267
_publ_section_title
;
Structure prediction by ZEFSAII (Michael W. Deem and Ramdas Pophale) SiO2 
 PCOD8175267
Probable space group: C M C 21
;
_chemical_formula_sum "Si O2"
_cell_formula_units_Z 64
_cell_length_a 8.924478
_cell_length_b 22.570500
_cell_length_c 16.126730
_cell_angle_alpha 90.000000
_cell_angle_beta 90.000000
_cell_angle_gamma 90.000000
_cell_volume 3248.406106
_symmetry_space_group_name_H-M "C M C 21"
_symmetry_group_IT_number 36
_symmetry_cell_setting 'orthorhombic'
loop_
_space_group_symop_operation_xyz
x,y,z
-x,-y,1/2+z
x,-y,1/2+z
-x,y,z
1/2+x,1/2+y,z
1/2-x,1/2-y,1/2+z
1/2+x,1/2-y,1/2+z
1/2-x,1/2+y,z
loop_
_atom_site_type_symbol
_atom_site_label
_atom_site_fract_x
_atom_site_fract_y
_atom_site_fract_z
Si Si1 0.672895 0.649799 0.964930
Si Si2 0.676232 0.035098 0.639130
Si Si3 0.831957 0.332970 0.146073
Si Si4 0.826330 0.836660 0.763891
Si Si5 0.674951 0.958565 0.795363
Si Si6 0.825026 0.281416 0.606350
Si Si7 0.164921 0.713525 0.830948
Si Si8 0.826026 0.473465 0.465988
O O1 0.500000 0.656929 0.990963
O O2 0.701290 0.679262 0.875852
O O3 0.715698 0.581540 0.961894
O O4 0.786130 0.684123 0.023670
O O5 0.500000 0.039957 0.652187
O O6 0.742685 0.101770 0.641186
O O7 0.739301 0.996731 0.717089
O O8 0.717855 0.007930 0.549997
O O9 0.733652 0.285750 0.095454
O O10 0.837338 0.311392 0.239292
O O11 0.000000 0.333765 0.108138
O O12 0.757291 0.896087 0.800577
O O13 0.748692 0.819260 0.678714
O O14 0.802292 0.783975 0.830415
O O15 0.000000 0.846683 0.744474
O O16 0.500000 0.946914 0.782032
O O17 0.706590 0.989078 0.883494
O O18 0.000000 0.279582 0.622246
O O19 0.000000 0.701755 0.870964
O O20 0.000000 0.453817 0.468690
#
# Coordination Sequence:
#
# PCOD8175267 Si02
#       8
#     8   8   8   8   8   8   8   8
#     4  12  24  37  56  82 111 145 190 240 288 335
#     4   9  18  34  57  82 111 149 188 231 281 334
#     4   9  18  36  59  83 112 144 184 231 280 336
#     4  10  21  38  59  84 114 147 186 232 284 337
#     4  10  20  35  57  84 115 154 195 233 280 340
#     4  11  22  37  58  83 113 148 186 230 284 344
#     4   9  19  36  57  80 110 147 182 227 287 344
#     4  10  21  37  57  82 112 150 195 236 282 346
#
# _framework density 19.701971
#
# number of rings (size 3 to 8) (size 9 to 14) (size 15 to 20)
#    0.000    2.000    0.000    4.875    0.000    7.000 
#    0.000    2.500    0.000    0.000    0.000    0.000 
#    0.000    0.000    0.000    0.000    0.000    0.000 
#
# Total GULP energy -396758.798268 kJ/mol
# GULP energy per Si atom -12398.712446 kJ/mol
# Density = 1.965713 g / cm^3
# Si number density = 19.701971 Si / 1000 Ang^3
#
#
#
# Elastic Constant Matrix: (Units=GPa)
#
#
# Indices 1 2 3 4 5 6 
#
# 1 77.3789 57.4781 27.3428 0.0000 0.0000 0.0000
# 2 57.4781 161.0624 49.8252 0.0000 0.0000 0.0000
# 3 27.3428 49.8252 88.9226 0.0000 0.0000 0.0000
# 4 0.0000 0.0000 0.0000 22.7077 0.0000 0.0000
# 5 0.0000 0.0000 0.0000 0.0000 6.5206 0.0000
# 6 0.0000 0.0000 0.0000 0.0000 0.0000 24.9522
#
#
#
# Elastic Compliance Matrix: (Units=1/GPa)
#
#
# Indices 1 2 3 4 5 6 
#
# 1 0.017978 -0.005692 -0.002339 0.000000 0.000000 0.000000
# 2 -0.005692 0.009313 -0.003468 0.000000 0.000000 0.000000
# 3 -0.002339 -0.003468 0.013908 0.000000 0.000000 0.000000
# 4 0.000000 0.000000 0.000000 0.044038 0.000000 0.000000
# 5 0.000000 0.000000 0.000000 0.000000 0.153361 0.000000
# 6 0.000000 0.000000 0.000000 0.000000 0.000000 0.040077
#
#
# Mechanical properties :
#
#
# Convention : Reuss Voigt Hill
#
# Bulk Modulus (GPa) = 54.94074 66.29512 60.61793
# Shear Modulus (GPa) = 16.24751 23.68395 19.96573
#
# Velocity S-wave (km/s) = 2.87481 3.47091 3.18683
# Velocity P-wave (km/s) = 6.24226 7.05585 6.66149
#
# Compressibility (1/GPa) = 0.01820143
#
# Stress axis : x y z
#
# Youngs Moduli (GPa) = 55.62301 107.37648 71.90125
#
# Poissons Ratio (x) = 0.61123 0.16814
# Poissons Ratio (y) = 0.31663 0.24935
# Poissons Ratio (z) = 0.13008 0.37237
#
# Static dielectric constant tensor:
#      x y z
#    x 3.477790 0.000000 0.000000 
#    y 0.000000 3.959400 0.000000 
#    z 0.000000 0.000000 3.544410 
# 
# 
# High freq. dielectric constant tensor:
#      x y z
#    x 1.749350 0.000000 0.000000 
#    y 0.000000 1.782980 0.000000 
#    z 0.000000 0.000000 1.765560 
# 
# From -- ./inp_files/11122.got.cif
#   From: 2010.03.12/outbox.cif.g09.slc.cpg/sg36_6_cif.got.tgz:11122.got - 2010.04.14 02:13:53.
