data_PCOD8175524
_publ_section_title
;
Structure prediction by ZEFSAII (Michael W. Deem and Ramdas Pophale) SiO2 
 PCOD8175524
Probable space group: C M C 21
;
_chemical_formula_sum "Si O2"
_cell_formula_units_Z 48
_cell_length_a 8.455739
_cell_length_b 14.905323
_cell_length_c 18.941147
_cell_angle_alpha 90.000000
_cell_angle_beta 90.000000
_cell_angle_gamma 90.000000
_cell_volume 2387.257330
_symmetry_space_group_name_H-M "C M C 21"
_symmetry_group_IT_number 36
_symmetry_cell_setting 'orthorhombic'
loop_
_space_group_symop_operation_xyz
x,y,z
-x,-y,1/2+z
x,-y,1/2+z
-x,y,z
1/2+x,1/2+y,z
1/2-x,1/2-y,1/2+z
1/2+x,1/2-y,1/2+z
1/2-x,1/2+y,z
loop_
_atom_site_type_symbol
_atom_site_label
_atom_site_fract_x
_atom_site_fract_y
_atom_site_fract_z
Si Si1 0.315680 0.491201 0.806730
Si Si2 0.315618 0.802378 0.823759
Si Si3 0.318564 0.257453 0.166913
Si Si4 0.182679 0.449021 0.160592
Si Si5 0.312668 0.361524 0.415427
Si Si6 0.184710 0.105838 0.072378
O O1 0.500000 0.508431 0.791357
O O2 0.288256 0.390848 0.834137
O O3 0.220260 0.504530 0.734875
O O4 0.248442 0.558583 0.865899
O O5 0.500000 0.826691 0.830976
O O6 0.280264 0.755594 0.749112
O O7 0.257712 0.733953 0.884252
O O8 0.500000 0.234861 0.149864
O O9 0.284181 0.360058 0.147274
O O10 0.209577 0.191941 0.121555
O O11 0.221082 0.519626 0.099437
O O12 0.000000 0.422715 0.157598
O O13 0.500000 0.365753 0.415546
O O14 0.247567 0.372454 0.494526
O O15 0.000000 0.082505 0.071055
#
# Coordination Sequence:
#
# PCOD8175524 Si02
#       6
#     8   8   8   8   8   8
#     4  11  21  38  63  91 121 158 205 252 301 359
#     4  10  20  38  62  89 121 156 198 248 303 361
#     4  11  22  39  64  91 123 159 202 252 303 360
#     4  12  24  39  61  91 124 162 208 252 301 360
#     4   9  21  41  62  87 123 161 197 248 308 362
#     4  11  23  41  64  91 126 162 200 250 308 364
#
# _framework density 20.106755
#
# number of rings (size 3 to 8) (size 9 to 14) (size 15 to 20)
#    0.000    1.333    3.333    3.000    0.000    2.000 
#    0.000    8.333    0.000    0.000    0.000    0.000 
#    0.000    0.000    0.000    0.000    0.000    0.000 
#
# Total GULP energy -297740.598938 kJ/mol
# GULP energy per Si atom -12405.858289 kJ/mol
# Density = 2.006099 g / cm^3
# Si number density = 20.106755 Si / 1000 Ang^3
#
#
#
# Elastic Constant Matrix: (Units=GPa)
#
#
# Indices 1 2 3 4 5 6 
#
# 1 50.6466 4.9410 18.9531 0.0000 0.0000 0.0000
# 2 4.9410 91.9326 -2.3920 0.0000 0.0000 0.0000
# 3 18.9531 -2.3920 69.7910 0.0000 0.0000 0.0000
# 4 0.0000 0.0000 0.0000 34.3298 0.0000 0.0000
# 5 0.0000 0.0000 0.0000 0.0000 17.2869 0.0000
# 6 0.0000 0.0000 0.0000 0.0000 0.0000 32.2065
#
#
#
# Elastic Compliance Matrix: (Units=1/GPa)
#
#
# Indices 1 2 3 4 5 6 
#
# 1 0.022144 -0.001348 -0.006060 0.000000 0.000000 0.000000
# 2 -0.001348 0.010969 0.000742 0.000000 0.000000 0.000000
# 3 -0.006060 0.000742 0.016000 0.000000 0.000000 0.000000
# 4 0.000000 0.000000 0.000000 0.029129 0.000000 0.000000
# 5 0.000000 0.000000 0.000000 0.000000 0.057847 0.000000
# 6 0.000000 0.000000 0.000000 0.000000 0.000000 0.031050
#
#
# Mechanical properties :
#
#
# Convention : Reuss Voigt Hill
#
# Bulk Modulus (GPa) = 27.94739 28.37491 28.16115
# Shear Modulus (GPa) = 25.98789 29.48918 27.73853
#
# Velocity S-wave (km/s) = 3.59903 3.83382 3.71828
# Velocity P-wave (km/s) = 5.58573 5.80864 5.69827
#
# Compressibility (1/GPa) = 0.03578152
#
# Stress axis : x y z
#
# Youngs Moduli (GPa) = 45.15924 91.16373 62.50168
#
# Poissons Ratio (x) = 0.12287 0.37875
# Poissons Ratio (y) = 0.06087 -0.04638
# Poissons Ratio (z) = 0.27365 -0.06764
#
# Static dielectric constant tensor:
#      x y z
#    x 3.434620 0.000000 0.000000 
#    y 0.000000 3.712400 0.000000 
#    z 0.000000 0.000000 3.807590 
# 
# 
# High freq. dielectric constant tensor:
#      x y z
#    x 1.772120 0.000000 0.000000 
#    y 0.000000 1.799610 0.000000 
#    z 0.000000 0.000000 1.781790 
# 
# From -- ./inp_files/13476.got.cif
#   From: 2010.03.12/outbox.cif.g09.slc.cpg/sg36_7_cif.got.tgz:13476.got - 2010.04.14 02:13:53.
