data_PCOD8175283
_publ_section_title
;
Structure prediction by ZEFSAII (Michael W. Deem and Ramdas Pophale) SiO2 
 PCOD8175283
Probable space group: C M C 21
;
_chemical_formula_sum "Si O2"
_cell_formula_units_Z 48
_cell_length_a 12.989651
_cell_length_b 13.763467
_cell_length_c 13.865474
_cell_angle_alpha 90.000000
_cell_angle_beta 90.000000
_cell_angle_gamma 90.000000
_cell_volume 2478.905948
_symmetry_space_group_name_H-M "C M C 21"
_symmetry_group_IT_number 36
_symmetry_cell_setting 'orthorhombic'
loop_
_space_group_symop_operation_xyz
x,y,z
-x,-y,1/2+z
x,-y,1/2+z
-x,y,z
1/2+x,1/2+y,z
1/2-x,1/2-y,1/2+z
1/2+x,1/2-y,1/2+z
1/2-x,1/2+y,z
loop_
_atom_site_type_symbol
_atom_site_label
_atom_site_fract_x
_atom_site_fract_y
_atom_site_fract_z
Si Si1 0.385058 0.960398 0.405650
Si Si2 0.227120 0.938361 0.026126
Si Si3 0.384564 0.711552 0.242492
Si Si4 0.881554 0.870499 0.544427
Si Si5 0.791640 0.260081 0.440363
Si Si6 0.387442 0.925737 0.185724
O O1 0.500000 0.991230 0.432849
O O2 0.367170 0.852610 0.451740
O O3 0.365927 0.960806 0.292792
O O4 0.308659 0.043410 0.441186
O O5 0.291440 0.960078 0.122778
O O6 0.135567 0.016232 0.018633
O O7 0.182159 0.829115 0.013624
O O8 0.500000 0.685219 0.282283
O O9 0.347995 0.638703 0.157541
O O10 0.303037 0.717782 0.330938
O O11 0.391218 0.810447 0.183272
O O12 0.821134 0.800426 0.469360
O O13 0.000000 0.843569 0.530260
O O14 0.500000 0.965265 0.149787
#
# Coordination Sequence:
#
# PCOD8175283 Si02
#       6
#     8   8   8   8   8   8
#     4   9  20  36  54  81 111 140 178 228 275 323
#     4  11  21  32  58  84 108 141 184 231 270 325
#     4   9  18  36  60  80 107 148 185 224 278 334
#     4  10  22  38  55  82 117 148 182 224 276 334
#     4  10  20  35  58  81 105 146 189 228 265 328
#     4   9  17  33  57  80 106 141 182 223 272 328
#
# _framework density 19.363381
#
# number of rings (size 3 to 8) (size 9 to 14) (size 15 to 20)
#    0.000    2.333    1.667    2.000    2.333    2.000 
#    0.000    0.000    0.000    2.000    0.000    0.000 
#    0.000    0.000    0.000    0.000    0.000    0.000 
#
# Total GULP energy -297319.972632 kJ/mol
# GULP energy per Si atom -12388.332193 kJ/mol
# Density = 1.931931 g / cm^3
# Si number density = 19.363381 Si / 1000 Ang^3
#
#
#
# Elastic Constant Matrix: (Units=GPa)
#
#
# Indices 1 2 3 4 5 6 
#
# 1 73.2991 9.0346 50.5607 0.0000 0.0000 0.0000
# 2 9.0346 56.7647 18.3369 0.0000 0.0000 0.0000
# 3 50.5607 18.3369 82.7898 0.0000 0.0000 0.0000
# 4 0.0000 0.0000 0.0000 27.6583 0.0000 0.0000
# 5 0.0000 0.0000 0.0000 0.0000 32.5722 0.0000
# 6 0.0000 0.0000 0.0000 0.0000 0.0000 13.7357
#
#
#
# Elastic Compliance Matrix: (Units=1/GPa)
#
#
# Indices 1 2 3 4 5 6 
#
# 1 0.023623 0.000970 -0.014642 0.000000 0.000000 0.000000
# 2 0.000970 0.019014 -0.004804 0.000000 0.000000 0.000000
# 3 -0.014642 -0.004804 0.022084 0.000000 0.000000 0.000000
# 4 0.000000 0.000000 0.000000 0.036156 0.000000 0.000000
# 5 0.000000 0.000000 0.000000 0.000000 0.030701 0.000000
# 6 0.000000 0.000000 0.000000 0.000000 0.000000 0.072803
#
#
# Mechanical properties :
#
#
# Convention : Reuss Voigt Hill
#
# Bulk Modulus (GPa) = 36.00928 40.96866 38.48897
# Shear Modulus (GPa) = 19.95305 23.78798 21.87051
#
# Velocity S-wave (km/s) = 3.21355 3.50880 3.36442
# Velocity P-wave (km/s) = 5.69264 6.13346 5.91716
#
# Compressibility (1/GPa) = 0.02777062
#
# Stress axis : x y z
#
# Youngs Moduli (GPa) = 42.33217 52.59293 45.28064
#
# Poissons Ratio (x) = -0.05101 0.66298
# Poissons Ratio (y) = -0.04106 0.21752
# Poissons Ratio (z) = 0.61981 0.25264
#
# Static dielectric constant tensor:
#      x y z
#    x 3.498520 0.000000 0.000000 
#    y 0.000000 3.466860 0.000000 
#    z 0.000000 0.000000 3.528180 
# 
# 
# High freq. dielectric constant tensor:
#      x y z
#    x 1.738800 0.000000 0.000000 
#    y 0.000000 1.747130 0.000000 
#    z 0.000000 0.000000 1.748940 
# 
# From -- ./inp_files/8409.got.cif
#   From: 2010.03.12/outbox.cif.g09.slc.cpg/sg36_5_cif.got.tgz:8409.got - 2010.04.14 02:13:53.
