data_PCOD8175336
_publ_section_title
;
Structure prediction by ZEFSAII (Michael W. Deem and Ramdas Pophale) SiO2 
 PCOD8175336
Probable space group: C M C 21
;
_chemical_formula_sum "Si O2"
_cell_formula_units_Z 32
_cell_length_a 8.764976
_cell_length_b 15.194791
_cell_length_c 13.590880
_cell_angle_alpha 90.000000
_cell_angle_beta 90.000000
_cell_angle_gamma 90.000000
_cell_volume 1810.060287
_symmetry_space_group_name_H-M "C M C 21"
_symmetry_group_IT_number 36
_symmetry_cell_setting 'orthorhombic'
loop_
_space_group_symop_operation_xyz
x,y,z
-x,-y,1/2+z
x,-y,1/2+z
-x,y,z
1/2+x,1/2+y,z
1/2-x,1/2-y,1/2+z
1/2+x,1/2-y,1/2+z
1/2-x,1/2+y,z
loop_
_atom_site_type_symbol
_atom_site_label
_atom_site_fract_x
_atom_site_fract_y
_atom_site_fract_z
Si Si1 0.327622 0.708111 0.315880
Si Si2 0.327588 0.484005 0.838765
Si Si3 0.320185 0.360266 0.200612
Si Si4 0.179038 0.374699 0.988551
O O1 0.500000 0.745616 0.318496
O O2 0.325238 0.607213 0.275143
O O3 0.222216 0.766330 0.245957
O O4 0.259093 0.705206 0.427339
O O5 0.500000 0.505865 0.872503
O O6 0.261298 0.563494 0.774231
O O7 0.225849 0.468148 0.937238
O O8 0.500000 0.366566 0.182708
O O9 0.234108 0.373733 0.099376
O O10 0.000000 0.360842 0.984828
#
# Coordination Sequence:
#
# PCOD8175336 Si02
#       4
#     8   8   8   8
#     4   9  19  38  56  80 111 142 182 227 268 322
#     4   8  19  38  56  78 111 143 179 225 270 323
#     4  11  20  36  60  82 108 147 181 221 279 324
#     4  10  20  36  56  82 112 142 182 227 267 321
#
# _framework density 17.678968000000001
#
# number of rings (size 3 to 8) (size 9 to 14) (size 15 to 20)
#    1.500    1.000    0.000    3.000    0.000    2.000 
#    4.500    0.000    0.000    0.000    0.000    0.000 
#    0.000    0.000    0.000    0.000    0.000    0.000 
#
# Total GULP energy -198238.364956 kJ/mol
# GULP energy per Si atom -12389.897810 kJ/mol
# Density = 1.763873 g / cm^3
# Si number density = 17.678968 Si / 1000 Ang^3
#
#
#
# Elastic Constant Matrix: (Units=GPa)
#
#
# Indices 1 2 3 4 5 6 
#
# 1 83.0513 20.8717 31.2806 0.0000 0.0000 0.0000
# 2 20.8717 43.4368 7.1867 0.0000 0.0000 0.0000
# 3 31.2806 7.1867 74.9574 0.0000 0.0000 0.0000
# 4 0.0000 0.0000 0.0000 31.8795 0.0000 0.0000
# 5 0.0000 0.0000 0.0000 0.0000 34.2343 0.0000
# 6 0.0000 0.0000 0.0000 0.0000 0.0000 25.9726
#
#
#
# Elastic Compliance Matrix: (Units=1/GPa)
#
#
# Indices 1 2 3 4 5 6 
#
# 1 0.015994 -0.006687 -0.006033 0.000000 0.000000 0.000000
# 2 -0.006687 0.026189 0.000280 0.000000 0.000000 0.000000
# 3 -0.006033 0.000280 0.015832 0.000000 0.000000 0.000000
# 4 0.000000 0.000000 0.000000 0.031368 0.000000 0.000000
# 5 0.000000 0.000000 0.000000 0.000000 0.029210 0.000000
# 6 0.000000 0.000000 0.000000 0.000000 0.000000 0.038502
#
#
# Mechanical properties :
#
#
# Convention : Reuss Voigt Hill
#
# Bulk Modulus (GPa) = 30.18109 35.56927 32.87518
# Shear Modulus (GPa) = 25.90403 27.89106 26.89755
#
# Velocity S-wave (km/s) = 3.83201 3.97626 3.90480
# Velocity P-wave (km/s) = 6.05705 6.42216 6.24227
#
# Compressibility (1/GPa) = 0.03313333
#
# Stress axis : x y z
#
# Youngs Moduli (GPa) = 62.52506 38.18428 63.16391
#
# Poissons Ratio (x) = 0.25533 0.38108
# Poissons Ratio (y) = 0.41809 -0.01766
# Poissons Ratio (z) = 0.37723 -0.01068
#
# Static dielectric constant tensor:
#      x y z
#    x 3.273590 0.000000 0.000000 
#    y 0.000000 3.305900 0.000000 
#    z 0.000000 0.000000 3.079170 
# 
# 
# High freq. dielectric constant tensor:
#      x y z
#    x 1.694900 0.000000 0.000000 
#    y 0.000000 1.665240 0.000000 
#    z 0.000000 0.000000 1.666980 
# 
# From -- ./inp_files/6396.got.cif
#   From: 2010.03.12/outbox.cif.g09.slc.cpg/sg36_4_cif.got.tgz:6396.got - 2010.04.14 02:13:53.
