data_PCOD8175498
_publ_section_title
;
Structure prediction by ZEFSAII (Michael W. Deem and Ramdas Pophale) SiO2 
 PCOD8175498
Probable space group: C M C 21
;
_chemical_formula_sum "Si O2"
_cell_formula_units_Z 64
_cell_length_a 8.818513
_cell_length_b 24.119634
_cell_length_c 14.455237
_cell_angle_alpha 90.000000
_cell_angle_beta 90.000000
_cell_angle_gamma 90.000000
_cell_volume 3074.618878
_symmetry_space_group_name_H-M "C M C 21"
_symmetry_group_IT_number 36
_symmetry_cell_setting 'orthorhombic'
loop_
_space_group_symop_operation_xyz
x,y,z
-x,-y,1/2+z
x,-y,1/2+z
-x,y,z
1/2+x,1/2+y,z
1/2-x,1/2-y,1/2+z
1/2+x,1/2-y,1/2+z
1/2-x,1/2+y,z
loop_
_atom_site_type_symbol
_atom_site_label
_atom_site_fract_x
_atom_site_fract_y
_atom_site_fract_z
Si Si1 0.679172 0.438582 0.790880
Si Si2 0.323056 0.018544 0.462537
Si Si3 0.323581 0.408116 0.482574
Si Si4 0.674365 0.190020 0.888171
Si Si5 0.326156 0.162141 0.688076
Si Si6 0.321569 0.139361 0.154952
Si Si7 0.324851 0.253277 0.063795
Si Si8 0.322591 0.038169 0.675670
O O1 0.500000 0.439630 0.802115
O O2 0.759320 0.436054 0.891094
O O3 0.730254 0.380499 0.744728
O O4 0.730454 0.491748 0.730759
O O5 0.500000 0.008641 0.445679
O O6 0.286624 0.035780 0.566818
O O7 0.229246 0.964005 0.433004
O O8 0.500000 0.409509 0.509225
O O9 0.290995 0.358031 0.413502
O O10 0.220749 0.403646 0.574106
O O11 0.500000 0.170827 0.907064
O O12 0.699427 0.201057 0.779037
O O13 0.709113 0.243187 0.953991
O O14 0.500000 0.156554 0.661525
O O15 0.252753 0.190869 0.598869
O O16 0.266192 0.099691 0.706610
O O17 0.500000 0.136494 0.173781
O O18 0.266893 0.200325 0.123022
O O19 0.500000 0.261369 0.082173
O O20 0.500000 0.028613 0.696530
#
# Coordination Sequence:
#
# PCOD8175498 Si02
#       8
#     8   8   8   8   8   8   8   8
#     4  12  24  37  59  91 122 152 198 254 303 348
#     4  11  22  37  57  81 120 166 201 232 293 373
#     4  11  20  32  56  89 118 146 194 250 293 334
#     4   9  19  37  60  85 116 157 199 239 300 366
#     4  10  21  39  62  87 116 153 201 250 296 352
#     4  10  20  38  60  81 113 155 195 235 294 364
#     4   9  20  38  60  85 114 152 195 241 297 358
#     4  10  22  40  62  87 119 163 203 239 300 371
#
# _framework density 20.815588999999999
#
# number of rings (size 3 to 8) (size 9 to 14) (size 15 to 20)
#    0.000    1.750    1.250    4.500    0.000    5.000 
#    2.250    0.000    0.000    0.000    0.000    0.000 
#    0.000    0.000    0.000    0.000    0.000    0.000 
#
# Total GULP energy -396737.409188 kJ/mol
# GULP energy per Si atom -12398.044037 kJ/mol
# Density = 2.076821 g / cm^3
# Si number density = 20.815589 Si / 1000 Ang^3
#
#
#
# Elastic Constant Matrix: (Units=GPa)
#
#
# Indices 1 2 3 4 5 6 
#
# 1 77.7403 19.9743 26.6168 0.0000 0.0000 0.0000
# 2 19.9743 44.1032 2.8252 0.0000 0.0000 0.0000
# 3 26.6168 2.8252 79.3094 0.0000 0.0000 0.0000
# 4 0.0000 0.0000 0.0000 26.0134 0.0000 0.0000
# 5 0.0000 0.0000 0.0000 0.0000 28.0495 0.0000
# 6 0.0000 0.0000 0.0000 0.0000 0.0000 29.7800
#
#
#
# Elastic Compliance Matrix: (Units=1/GPa)
#
#
# Indices 1 2 3 4 5 6 
#
# 1 0.016507 -0.007137 -0.005286 0.000000 0.000000 0.000000
# 2 -0.007137 0.025812 0.001476 0.000000 0.000000 0.000000
# 3 -0.005286 0.001476 0.014330 0.000000 0.000000 0.000000
# 4 0.000000 0.000000 0.000000 0.038442 0.000000 0.000000
# 5 0.000000 0.000000 0.000000 0.000000 0.035651 0.000000
# 6 0.000000 0.000000 0.000000 0.000000 0.000000 0.033580
#
#
# Mechanical properties :
#
#
# Convention : Reuss Voigt Hill
#
# Bulk Modulus (GPa) = 28.77290 33.33172 31.05231
# Shear Modulus (GPa) = 25.27797 26.88437 26.08117
#
# Velocity S-wave (km/s) = 3.48857 3.59771 3.54356
# Velocity P-wave (km/s) = 5.48449 5.77111 5.62962
#
# Compressibility (1/GPa) = 0.03475492
#
# Stress axis : x y z
#
# Youngs Moduli (GPa) = 60.58087 38.74159 69.78300
#
# Poissons Ratio (x) = 0.27651 0.36884
# Poissons Ratio (y) = 0.43239 -0.10299
# Poissons Ratio (z) = 0.32020 -0.05718
#
# Static dielectric constant tensor:
#      x y z
#    x 3.583550 0.000000 0.000000 
#    y 0.000000 3.691880 0.000000 
#    z 0.000000 0.000000 3.886620 
# 
# 
# High freq. dielectric constant tensor:
#      x y z
#    x 1.806440 0.000000 0.000000 
#    y 0.000000 1.796510 0.000000 
#    z 0.000000 0.000000 1.819760 
# 
# From -- ./inp_files/10924.got.cif
#   From: 2010.03.12/outbox.cif.g09.slc.cpg/sg36_6_cif.got.tgz:10924.got - 2010.04.14 02:13:53.
