data_PCOD8175765
_publ_section_title
;
Structure prediction by ZEFSAII (Michael W. Deem and Ramdas Pophale) SiO2 
 PCOD8175765
Probable space group: C M C 21
;
_chemical_formula_sum "Si O2"
_cell_formula_units_Z 64
_cell_length_a 9.016565
_cell_length_b 30.118382
_cell_length_c 12.056219
_cell_angle_alpha 90.000000
_cell_angle_beta 90.000000
_cell_angle_gamma 90.000000
_cell_volume 3274.039264
_symmetry_space_group_name_H-M "C M C 21"
_symmetry_group_IT_number 36
_symmetry_cell_setting 'orthorhombic'
loop_
_space_group_symop_operation_xyz
x,y,z
-x,-y,1/2+z
x,-y,1/2+z
-x,y,z
1/2+x,1/2+y,z
1/2-x,1/2-y,1/2+z
1/2+x,1/2-y,1/2+z
1/2-x,1/2+y,z
loop_
_atom_site_type_symbol
_atom_site_label
_atom_site_fract_x
_atom_site_fract_y
_atom_site_fract_z
Si Si1 0.174052 0.122633 0.062350
Si Si2 0.167476 0.170250 0.413720
Si Si3 0.829985 0.452897 0.704963
Si Si4 0.825306 0.117746 0.805292
Si Si5 0.831907 0.069431 0.417112
Si Si6 0.670597 0.947024 0.143835
Si Si7 0.323952 0.697061 0.649005
Si Si8 0.176290 0.210037 0.192221
O O1 0.255150 0.083550 0.127419
O O2 0.222309 0.170879 0.107605
O O3 0.000000 0.115064 0.079441
O O4 0.219785 0.120517 0.933673
O O5 0.172372 0.119661 0.374012
O O6 0.242144 0.177654 0.533411
O O7 0.240415 0.198477 0.314603
O O8 0.000000 0.186549 0.427085
O O9 0.754292 0.458742 0.825206
O O10 0.813771 0.500171 0.646879
O O11 0.000000 0.439380 0.723309
O O12 0.742083 0.075861 0.751639
O O13 0.773835 0.163527 0.746237
O O14 0.000000 0.110433 0.788882
O O15 0.755959 0.068812 0.535720
O O16 0.000000 0.051714 0.427955
O O17 0.500000 0.932430 0.136335
O O18 0.500000 0.701685 0.650068
O O19 0.252804 0.744869 0.658802
O O20 0.000000 0.215852 0.192440
#
# Coordination Sequence:
#
# PCOD8175765 Si02
#       8
#     8   8   8   8   8   8   8   8
#     4  10  22  41  63  88 120 160 208 254 298 359
#     4   9  18  37  61  82 113 152 195 250 301 348
#     4  11  25  42  61  90 128 162 197 249 312 365
#     4  10  22  41  63  88 120 160 208 254 298 359
#     4  11  21  41  69  90 117 158 207 256 299 354
#     4  11  25  42  61  90 128 162 197 249 312 365
#     4  10  21  38  59  86 119 155 198 250 304 357
#     4  10  21  38  59  86 119 155 198 250 304 357
#
# _framework density 19.547719000000001
#
# number of rings (size 3 to 8) (size 9 to 14) (size 15 to 20)
#    0.000    1.750    2.500    1.125    3.500    3.500 
#    0.000    0.000    0.000    0.000    0.000    0.000 
#    0.000    0.000    0.000    0.000    0.000    0.000 
#
# Total GULP energy -396807.339753 kJ/mol
# GULP energy per Si atom -12400.229367 kJ/mol
# Density = 1.950323 g / cm^3
# Si number density = 19.547719 Si / 1000 Ang^3
#
#
#
# Elastic Constant Matrix: (Units=GPa)
#
#
# Indices 1 2 3 4 5 6 
#
# 1 71.9464 40.4697 47.9942 0.0000 0.0000 0.0000
# 2 40.4697 97.4014 38.6399 0.0000 0.0000 0.0000
# 3 47.9942 38.6399 136.1979 0.0000 0.0000 0.0000
# 4 0.0000 0.0000 0.0000 29.0286 0.0000 0.0000
# 5 0.0000 0.0000 0.0000 0.0000 20.1848 0.0000
# 6 0.0000 0.0000 0.0000 0.0000 0.0000 33.5878
#
#
#
# Elastic Compliance Matrix: (Units=1/GPa)
#
#
# Indices 1 2 3 4 5 6 
#
# 1 0.021417 -0.006654 -0.005659 0.000000 0.000000 0.000000
# 2 -0.006654 0.013636 -0.001524 0.000000 0.000000 0.000000
# 3 -0.005659 -0.001524 0.009769 0.000000 0.000000 0.000000
# 4 0.000000 0.000000 0.000000 0.034449 0.000000 0.000000
# 5 0.000000 0.000000 0.000000 0.000000 0.049542 0.000000
# 6 0.000000 0.000000 0.000000 0.000000 0.000000 0.029773
#
#
# Mechanical properties :
#
#
# Convention : Reuss Voigt Hill
#
# Bulk Modulus (GPa) = 58.31565 62.19478 60.25521
# Shear Modulus (GPa) = 26.04496 28.45636 27.25066
#
# Velocity S-wave (km/s) = 3.65414 3.81955 3.73776
# Velocity P-wave (km/s) = 6.90658 7.16505 7.03700
#
# Compressibility (1/GPa) = 0.01714806
#
# Stress axis : x y z
#
# Youngs Moduli (GPa) = 46.69145 73.33602 102.36549
#
# Poissons Ratio (x) = 0.48795 0.57933
# Poissons Ratio (y) = 0.31066 0.15600
# Poissons Ratio (z) = 0.26425 0.11176
#
# Static dielectric constant tensor:
#      x y z
#    x 3.463300 0.000000 0.000000 
#    y 0.000000 3.521020 0.000000 
#    z 0.000000 0.000000 3.818910 
# 
# 
# High freq. dielectric constant tensor:
#      x y z
#    x 1.745730 0.000000 0.000000 
#    y 0.000000 1.764870 0.000000 
#    z 0.000000 0.000000 1.779520 
# 
# From -- ./inp_files/7100.got.cif
#   From: 2010.03.12/outbox.cif.g09.slc.cpg/sg36_4_cif.got.tgz:7100.got - 2010.04.14 02:13:53.
