data_PCOD8175816
_publ_section_title
;
Structure prediction by ZEFSAII (Michael W. Deem and Ramdas Pophale) SiO2 
 PCOD8175816
Probable space group: C M C 21
;
_chemical_formula_sum "Si O2"
_cell_formula_units_Z 48
_cell_length_a 8.569214
_cell_length_b 30.081143
_cell_length_c 9.239765
_cell_angle_alpha 90.000000
_cell_angle_beta 90.000000
_cell_angle_gamma 90.000000
_cell_volume 2381.750410
_symmetry_space_group_name_H-M "C M C 21"
_symmetry_group_IT_number 36
_symmetry_cell_setting 'orthorhombic'
loop_
_space_group_symop_operation_xyz
x,y,z
-x,-y,1/2+z
x,-y,1/2+z
-x,y,z
1/2+x,1/2+y,z
1/2-x,1/2-y,1/2+z
1/2+x,1/2-y,1/2+z
1/2-x,1/2+y,z
loop_
_atom_site_type_symbol
_atom_site_label
_atom_site_fract_x
_atom_site_fract_y
_atom_site_fract_z
Si Si1 0.180090 0.629550 0.906950
Si Si2 0.318510 0.132844 0.576412
Si Si3 0.679109 0.458070 0.069954
Si Si4 0.319104 0.707587 0.068096
Si Si5 0.318768 0.712459 0.401436
Si Si6 0.178581 0.471088 0.373090
O O1 0.229439 0.641533 0.742864
O O2 0.211382 0.577668 0.939093
O O3 0.000000 0.641715 0.933116
O O4 0.286306 0.657276 0.017494
O O5 0.500000 0.120958 0.566736
O O6 0.222276 0.091153 0.512757
O O7 0.283228 0.176128 0.483625
O O8 0.500000 0.459263 0.118569
O O9 0.790314 0.470558 0.202617
O O10 0.706435 0.493413 0.943597
O O11 0.500000 0.719462 0.047704
O O12 0.268557 0.713132 0.234207
O O13 0.215350 0.739598 0.968893
O O14 0.500000 0.700660 0.418693
O O15 0.000000 0.485260 0.398576
#
# Coordination Sequence:
#
# PCOD8175816 Si02
#       6
#     8   8   8   8   8   8
#     4   9  20  38  60  84 111 146 189 234 280 336
#     4  10  21  39  61  85 114 150 192 235 286 346
#     4  11  22  37  59  88 119 153 195 243 293 343
#     4  11  24  39  58  85 115 148 187 232 284 341
#     4  11  24  40  58  84 116 148 188 235 282 338
#     4  10  21  39  60  84 117 157 197 239 291 348
#
# _framework density 20.153244999999998
#
# number of rings (size 3 to 8) (size 9 to 14) (size 15 to 20)
#    0.000    1.667    0.000    5.500    0.000   12.000 
#    0.000    3.333    0.000    0.000    0.000    0.000 
#    0.000    0.000    0.000    0.000    0.000    0.000 
#
# Total GULP energy -297758.210171 kJ/mol
# GULP energy per Si atom -12406.592090 kJ/mol
# Density = 2.010738 g / cm^3
# Si number density = 20.153245 Si / 1000 Ang^3
#
#
#
# Elastic Constant Matrix: (Units=GPa)
#
#
# Indices 1 2 3 4 5 6 
#
# 1 69.8266 18.8743 20.5370 0.0000 0.0000 0.0000
# 2 18.8743 68.2852 5.7678 0.0000 0.0000 0.0000
# 3 20.5370 5.7678 41.7089 0.0000 0.0000 0.0000
# 4 0.0000 0.0000 0.0000 38.7078 0.0000 0.0000
# 5 0.0000 0.0000 0.0000 0.0000 31.1731 0.0000
# 6 0.0000 0.0000 0.0000 0.0000 0.0000 36.4361
#
#
#
# Elastic Compliance Matrix: (Units=1/GPa)
#
#
# Indices 1 2 3 4 5 6 
#
# 1 0.017888 -0.004250 -0.008220 0.000000 0.000000 0.000000
# 2 -0.004250 0.015827 -0.000096 0.000000 0.000000 0.000000
# 3 -0.008220 -0.000096 0.028036 0.000000 0.000000 0.000000
# 4 0.000000 0.000000 0.000000 0.025835 0.000000 0.000000
# 5 0.000000 0.000000 0.000000 0.000000 0.032079 0.000000
# 6 0.000000 0.000000 0.000000 0.000000 0.000000 0.027445
#
#
# Mechanical properties :
#
#
# Convention : Reuss Voigt Hill
#
# Bulk Modulus (GPa) = 27.30797 30.01989 28.66393
# Shear Modulus (GPa) = 27.10787 30.23952 28.67370
#
# Velocity S-wave (km/s) = 3.67152 3.87780 3.77607
# Velocity P-wave (km/s) = 5.61721 5.91422 5.76762
#
# Compressibility (1/GPa) = 0.03661935
#
# Stress axis : x y z
#
# Youngs Moduli (GPa) = 55.90484 63.18209 35.66796
#
# Poissons Ratio (x) = 0.26852 0.29319
# Poissons Ratio (y) = 0.23759 0.00343
# Poissons Ratio (z) = 0.45953 0.00607
#
# Static dielectric constant tensor:
#      x y z
#    x 3.539180 0.000000 0.000000 
#    y 0.000000 3.698250 0.000000 
#    z 0.000000 0.000000 3.532490 
# 
# 
# High freq. dielectric constant tensor:
#      x y z
#    x 1.791750 0.000000 0.000000 
#    y 0.000000 1.796330 0.000000 
#    z 0.000000 0.000000 1.778670 
# 
# From -- ./inp_files/2641.got.cif
#   From: 2010.03.12/outbox.cif.g09.slc.cpg/sg36_2_cif.got.tgz:2641.got - 2010.04.14 02:13:53.
