data_PCOD8175823
_publ_section_title
;
Structure prediction by ZEFSAII (Michael W. Deem and Ramdas Pophale) SiO2 
 PCOD8175823
Probable space group: C M C 21
;
_chemical_formula_sum "Si O2"
_cell_formula_units_Z 64
_cell_length_a 8.898819
_cell_length_b 23.878579
_cell_length_c 15.181857
_cell_angle_alpha 90.000000
_cell_angle_beta 90.000000
_cell_angle_gamma 90.000000
_cell_volume 3226.010291
_symmetry_space_group_name_H-M "C M C 21"
_symmetry_group_IT_number 36
_symmetry_cell_setting 'orthorhombic'
loop_
_space_group_symop_operation_xyz
x,y,z
-x,-y,1/2+z
x,-y,1/2+z
-x,y,z
1/2+x,1/2+y,z
1/2-x,1/2-y,1/2+z
1/2+x,1/2-y,1/2+z
1/2-x,1/2+y,z
loop_
_atom_site_type_symbol
_atom_site_label
_atom_site_fract_x
_atom_site_fract_y
_atom_site_fract_z
Si Si1 0.674274 0.486832 0.627700
Si Si2 0.822224 0.126305 0.877580
Si Si3 0.675264 0.878465 0.558191
Si Si4 0.169643 0.220095 0.132867
Si Si5 0.677749 0.495318 0.328114
Si Si6 0.322740 0.197407 0.478750
Si Si7 0.174707 0.922667 0.981704
Si Si8 0.829515 0.267134 0.326233
O O1 0.500000 0.468426 0.622139
O O2 0.778380 0.440475 0.584675
O O3 0.728181 0.492278 0.728510
O O4 0.699057 0.543839 0.573134
O O5 0.751835 0.173134 0.814784
O O6 0.000000 0.128310 0.869175
O O7 0.756206 0.065386 0.853277
O O8 0.770576 0.142352 0.975036
O O9 0.500000 0.877248 0.537539
O O10 0.719689 0.833377 0.632120
O O11 0.224719 0.268448 0.066020
O O12 0.177369 0.240833 0.231188
O O13 0.000000 0.201578 0.108641
O O14 0.500000 0.492328 0.335722
O O15 0.736703 0.541484 0.397850
O O16 0.500000 0.195841 0.466531
O O17 0.265447 0.134294 0.488545
O O18 0.252717 0.226142 0.393504
O O19 0.000000 0.908729 0.967449
O O20 0.000000 0.275797 0.358593
#
# Coordination Sequence:
#
# PCOD8175823 Si02
#       8
#     8   8   8   8   8   8   8   8
#     4  10  21  40  64  88 120 162 202 247 304 361
#     4  11  21  40  66  91 122 160 203 254 309 365
#     4  12  24  39  63  93 122 157 207 259 303 359
#     4  10  24  44  64  86 123 168 203 248 312 371
#     4   9  20  38  62  90 117 157 203 241 296 364
#     4  11  24  42  62  88 125 166 203 249 311 368
#     4  10  21  39  61  87 121 160 204 248 295 360
#     4  11  24  42  64  93 122 160 209 256 308 366
#
# _framework density 19.838746
#
# number of rings (size 3 to 8) (size 9 to 14) (size 15 to 20)
#    0.000    1.500    2.500    2.250    3.500    2.000 
#    0.000    1.250    0.000    0.000    0.000    0.000 
#    0.000    0.000    0.000    0.000    0.000    0.000 
#
# Total GULP energy -396874.967475 kJ/mol
# GULP energy per Si atom -12402.342734 kJ/mol
# Density = 1.979359 g / cm^3
# Si number density = 19.838746 Si / 1000 Ang^3
#
#
#
# Elastic Constant Matrix: (Units=GPa)
#
#
# Indices 1 2 3 4 5 6 
#
# 1 82.2063 50.0995 27.3788 0.0000 0.0000 0.0000
# 2 50.0995 107.4695 13.9884 0.0000 0.0000 0.0000
# 3 27.3788 13.9884 86.3490 0.0000 0.0000 0.0000
# 4 0.0000 0.0000 0.0000 25.2670 0.0000 0.0000
# 5 0.0000 0.0000 0.0000 0.0000 21.5258 0.0000
# 6 0.0000 0.0000 0.0000 0.0000 0.0000 36.0751
#
#
#
# Elastic Compliance Matrix: (Units=1/GPa)
#
#
# Indices 1 2 3 4 5 6 
#
# 1 0.018620 -0.008082 -0.004595 0.000000 0.000000 0.000000
# 2 -0.008082 0.013014 0.000454 0.000000 0.000000 0.000000
# 3 -0.004595 0.000454 0.012964 0.000000 0.000000 0.000000
# 4 0.000000 0.000000 0.000000 0.039577 0.000000 0.000000
# 5 0.000000 0.000000 0.000000 0.000000 0.046456 0.000000
# 6 0.000000 0.000000 0.000000 0.000000 0.000000 0.027720
#
#
# Mechanical properties :
#
#
# Convention : Reuss Voigt Hill
#
# Bulk Modulus (GPa) = 49.62010 50.99535 50.30772
# Shear Modulus (GPa) = 26.38327 28.87745 27.63036
#
# Velocity S-wave (km/s) = 3.65072 3.81938 3.73600
# Velocity P-wave (km/s) = 6.54495 6.72391 6.63503
#
# Compressibility (1/GPa) = 0.02015313
#
# Stress axis : x y z
#
# Youngs Moduli (GPa) = 53.70446 76.84284 77.13598
#
# Poissons Ratio (x) = 0.62107 0.35441
# Poissons Ratio (y) = 0.43406 -0.03506
# Poissons Ratio (z) = 0.24675 -0.03492
#
# Static dielectric constant tensor:
#      x y z
#    x 3.530190 0.000000 0.000000 
#    y 0.000000 3.748350 0.000000 
#    z 0.000000 0.000000 3.846490 
# 
# 
# High freq. dielectric constant tensor:
#      x y z
#    x 1.759380 0.000000 0.000000 
#    y 0.000000 1.787180 0.000000 
#    z 0.000000 0.000000 1.781080 
# 
# From -- ./inp_files/11063.got.cif
#   From: 2010.03.12/outbox.cif.g09.slc.cpg/sg36_6_cif.got.tgz:11063.got - 2010.04.14 02:13:53.
