data_PCOD8175967
_publ_section_title
;
Structure prediction by ZEFSAII (Michael W. Deem and Ramdas Pophale) SiO2 
 PCOD8175967
Probable space group: C M C 21
;
_chemical_formula_sum "Si O2"
_cell_formula_units_Z 40
_cell_length_a 20.200438
_cell_length_b 8.199152
_cell_length_c 11.217562
_cell_angle_alpha 90.000000
_cell_angle_beta 90.000000
_cell_angle_gamma 90.000000
_cell_volume 1857.925102
_symmetry_space_group_name_H-M "C M C 21"
_symmetry_group_IT_number 36
_symmetry_cell_setting 'orthorhombic'
loop_
_space_group_symop_operation_xyz
x,y,z
-x,-y,1/2+z
x,-y,1/2+z
-x,y,z
1/2+x,1/2+y,z
1/2-x,1/2-y,1/2+z
1/2+x,1/2-y,1/2+z
1/2-x,1/2+y,z
loop_
_atom_site_type_symbol
_atom_site_label
_atom_site_fract_x
_atom_site_fract_y
_atom_site_fract_z
Si Si1 0.643634 0.670991 0.734780
Si Si2 0.426024 0.453875 0.908810
Si Si3 0.576115 0.129784 0.024344
Si Si4 0.316627 0.874199 0.962296
Si Si5 0.696877 0.451787 0.554897
O O1 0.590502 0.538486 0.783003
O O2 0.608605 0.791815 0.642074
O O3 0.677492 0.780078 0.836823
O O4 0.701435 0.558194 0.675593
O O5 0.500000 0.504026 0.946333
O O6 0.419542 0.256067 0.912394
O O7 0.376751 0.522321 0.006622
O O8 0.500000 0.082674 0.051307
O O9 0.615103 0.966750 0.989405
O O10 0.299044 0.743922 0.067924
O O11 0.254617 0.997485 0.961552
#
# Coordination Sequence:
#
# PCOD8175967 Si02
#       5
#     8   8   8   8   8
#     4  10  22  41  66  88 123 167 204 255 319 367
#     4   9  19  37  61  89 120 156 201 249 301 365
#     4  10  22  40  63  95 129 161 207 256 302 368
#     4  11  24  41  63  91 125 163 210 260 307 368
#     4  10  22  39  61  91 122 159 206 256 306 368
#
# _framework density 21.529392999999999
#
# number of rings (size 3 to 8) (size 9 to 14) (size 15 to 20)
#    0.000    2.000    0.000    3.000    0.000   12.800 
#    0.000    2.000    0.000    0.000    0.000    0.000 
#    0.000    0.000    0.000    0.000    0.000    0.000 
#
# Total GULP energy -247785.604401 kJ/mol
# GULP energy per Si atom -12389.280220 kJ/mol
# Density = 2.148039 g / cm^3
# Si number density = 21.529393 Si / 1000 Ang^3
#
#
#
# Elastic Constant Matrix: (Units=GPa)
#
#
# Indices 1 2 3 4 5 6 
#
# 1 112.2390 46.9727 24.0690 0.0000 0.0000 0.0000
# 2 46.9727 132.3622 43.2668 0.0000 0.0000 0.0000
# 3 24.0690 43.2668 83.7228 0.0000 0.0000 0.0000
# 4 0.0000 0.0000 0.0000 36.5997 0.0000 0.0000
# 5 0.0000 0.0000 0.0000 0.0000 28.3404 0.0000
# 6 0.0000 0.0000 0.0000 0.0000 0.0000 39.7517
#
#
#
# Elastic Compliance Matrix: (Units=1/GPa)
#
#
# Indices 1 2 3 4 5 6 
#
# 1 0.010584 -0.003323 -0.001326 0.000000 0.000000 0.000000
# 2 -0.003323 0.010134 -0.004282 0.000000 0.000000 0.000000
# 3 -0.001326 -0.004282 0.014538 0.000000 0.000000 0.000000
# 4 0.000000 0.000000 0.000000 0.027323 0.000000 0.000000
# 5 0.000000 0.000000 0.000000 0.000000 0.035285 0.000000
# 6 0.000000 0.000000 0.000000 0.000000 0.000000 0.025156
#
#
# Mechanical properties :
#
#
# Convention : Reuss Voigt Hill
#
# Bulk Modulus (GPa) = 57.48519 61.88233 59.68376
# Shear Modulus (GPa) = 34.08787 35.20605 34.64696
#
# Velocity S-wave (km/s) = 3.98341 4.04822 4.01594
# Velocity P-wave (km/s) = 6.92210 7.11733 7.02039
#
# Compressibility (1/GPa) = 0.01739578
#
# Stress axis : x y z
#
# Youngs Moduli (GPa) = 94.47786 98.67877 68.78505
#
# Poissons Ratio (x) = 0.32790 0.09119
# Poissons Ratio (y) = 0.31394 0.29452
# Poissons Ratio (z) = 0.12524 0.42252
#
# Static dielectric constant tensor:
#      x y z
#    x 3.986600 0.000000 0.000000 
#    y 0.000000 4.327030 0.000000 
#    z 0.000000 0.000000 3.923410 
# 
# 
# High freq. dielectric constant tensor:
#      x y z
#    x 1.854730 0.000000 0.000000 
#    y 0.000000 1.857840 0.000000 
#    z 0.000000 0.000000 1.820320 
# 
# From -- ./inp_files/8776.got.cif
#   From: 2010.03.12/outbox.cif.g09.slc.cpg/sg36_5_cif.got.tgz:8776.got - 2010.04.14 02:13:53.
