data_PCOD8175346
_publ_section_title
;
Structure prediction by ZEFSAII (Michael W. Deem and Ramdas Pophale) SiO2 
 PCOD8175346
Probable space group: C M C 21
;
_chemical_formula_sum "Si O2"
_cell_formula_units_Z 44
_cell_length_a 10.527716
_cell_length_b 14.370208
_cell_length_c 16.547080
_cell_angle_alpha 90.000000
_cell_angle_beta 90.000000
_cell_angle_gamma 90.000000
_cell_volume 2503.332753
_symmetry_space_group_name_H-M "C M C 21"
_symmetry_group_IT_number 36
_symmetry_cell_setting 'orthorhombic'
loop_
_space_group_symop_operation_xyz
x,y,z
-x,-y,1/2+z
x,-y,1/2+z
-x,y,z
1/2+x,1/2+y,z
1/2-x,1/2-y,1/2+z
1/2+x,1/2-y,1/2+z
1/2-x,1/2+y,z
loop_
_atom_site_type_symbol
_atom_site_label
_atom_site_fract_x
_atom_site_fract_y
_atom_site_fract_z
Si Si1 0.205904 0.467389 0.893920
Si Si2 0.500000 0.920383 0.597881
Si Si3 0.245690 0.358863 0.504019
Si Si4 0.500000 0.894635 0.007120
Si Si5 0.139163 0.207377 0.393978
Si Si6 0.000000 0.493316 0.262669
Si Si7 0.500000 0.782715 0.253510
Si Si8 0.000000 0.804525 0.584122
O O1 0.319131 0.397541 0.871565
O O2 0.126808 0.497139 0.815587
O O3 0.256227 0.558662 0.939096
O O4 0.123235 0.405172 0.953169
O O5 0.625069 0.870057 0.563311
O O6 0.500000 0.028097 0.575758
O O7 0.500000 0.924485 0.695561
O O8 0.232292 0.262591 0.454488
O O9 0.373859 0.359812 0.556900
O O10 0.500000 0.794938 0.044699
O O11 0.125153 0.262943 0.308738
O O12 0.000000 0.201167 0.435855
O O13 0.000000 0.389703 0.224341
O O14 0.500000 0.709773 0.180048
#
# Coordination Sequence:
#
# PCOD8175346 Si02
#       8
#     8   4   8   4   8   4   4   4
#     4  10  20  36  57  87 110 147 209 242 286 350
#     4  10  21  36  58  86 115 154 198 241 294 352
#     4  11  22  39  60  89 118 158 204 244 298 361
#     4   9  18  33  55  79 104 144 196 241 268 341
#     4  10  20  37  60  80 116 159 199 233 296 371
#     4  11  20  36  65  85 113 155 206 257 279 359
#     4  10  22  38  54  87 118 158 192 243 313 356
#     4  12  23  35  58  91 124 147 194 260 306 344
#
# _framework density 17.576568000000002
#
# number of rings (size 3 to 8) (size 9 to 14) (size 15 to 20)
#    0.545    1.091    5.455    0.545    3.818    0.000 
#    0.000    0.000    0.000    0.000    7.091    0.000 
#    0.000    0.000    0.000    0.000    0.000    0.000 
#
# Total GULP energy -272650.631480 kJ/mol
# GULP energy per Si atom -12393.210522 kJ/mol
# Density = 1.753656 g / cm^3
# Si number density = 17.576568 Si / 1000 Ang^3
#
#
#
# Elastic Constant Matrix: (Units=GPa)
#
#
# Indices 1 2 3 4 5 6 
#
# 1 99.4485 40.0579 38.9913 0.0000 0.0000 0.0000
# 2 40.0579 86.8753 31.5016 0.0000 0.0000 0.0000
# 3 38.9913 31.5016 105.9099 0.0000 0.0000 0.0000
# 4 0.0000 0.0000 0.0000 27.4695 0.0000 0.0000
# 5 0.0000 0.0000 0.0000 0.0000 13.7786 0.0000
# 6 0.0000 0.0000 0.0000 0.0000 0.0000 28.4037
#
#
#
# Elastic Compliance Matrix: (Units=1/GPa)
#
#
# Indices 1 2 3 4 5 6 
#
# 1 0.013397 -0.004919 -0.003469 0.000000 0.000000 0.000000
# 2 -0.004919 0.014709 -0.002564 0.000000 0.000000 0.000000
# 3 -0.003469 -0.002564 0.011482 0.000000 0.000000 0.000000
# 4 0.000000 0.000000 0.000000 0.036404 0.000000 0.000000
# 5 0.000000 0.000000 0.000000 0.000000 0.072576 0.000000
# 6 0.000000 0.000000 0.000000 0.000000 0.000000 0.035207
#
#
# Mechanical properties :
#
#
# Convention : Reuss Voigt Hill
#
# Bulk Modulus (GPa) = 56.55144 57.03727 56.79436
# Shear Modulus (GPa) = 23.63245 26.04256 24.83751
#
# Velocity S-wave (km/s) = 3.67078 3.85341 3.76320
# Velocity P-wave (km/s) = 7.08593 7.23323 7.15996
#
# Compressibility (1/GPa) = 0.01768302
#
# Stress axis : x y z
#
# Youngs Moduli (GPa) = 74.64287 67.98669 87.09526
#
# Poissons Ratio (x) = 0.33446 0.30213
# Poissons Ratio (y) = 0.36720 0.22330
# Poissons Ratio (z) = 0.25893 0.17430
#
# Static dielectric constant tensor:
#      x y z
#    x 3.180840 0.000000 0.000000 
#    y 0.000000 3.109770 0.000000 
#    z 0.000000 0.000000 3.190500 
# 
# 
# High freq. dielectric constant tensor:
#      x y z
#    x 1.668810 0.000000 0.000000 
#    y 0.000000 1.682180 0.000000 
#    z 0.000000 0.000000 1.673430 
# 
# From -- ./inp_files/11515.got.cif
#   From: 2010.03.12/outbox.cif.g09.slc.cpg/sg36_6_cif.got.tgz:11515.got - 2010.04.14 02:13:53.
