data_PCOD8175290
_publ_section_title
;
Structure prediction by ZEFSAII (Michael W. Deem and Ramdas Pophale) SiO2 
 PCOD8175290
Probable space group: C M C 21
;
_chemical_formula_sum "Si O2"
_cell_formula_units_Z 64
_cell_length_a 8.948863
_cell_length_b 17.976762
_cell_length_c 20.286691
_cell_angle_alpha 90.000000
_cell_angle_beta 90.000000
_cell_angle_gamma 90.000000
_cell_volume 3263.552041
_symmetry_space_group_name_H-M "C M C 21"
_symmetry_group_IT_number 36
_symmetry_cell_setting 'orthorhombic'
loop_
_space_group_symop_operation_xyz
x,y,z
-x,-y,1/2+z
x,-y,1/2+z
-x,y,z
1/2+x,1/2+y,z
1/2-x,1/2-y,1/2+z
1/2+x,1/2-y,1/2+z
1/2-x,1/2+y,z
loop_
_atom_site_type_symbol
_atom_site_label
_atom_site_fract_x
_atom_site_fract_y
_atom_site_fract_z
Si Si1 0.823482 0.211788 0.427320
Si Si2 0.826835 0.466846 0.276449
Si Si3 0.823691 0.223064 0.664742
Si Si4 0.324746 0.799121 0.297623
Si Si5 0.825697 0.796608 0.545537
Si Si6 0.175006 0.946276 0.145371
Si Si7 0.324441 0.055352 0.404480
Si Si8 0.674468 0.532542 0.016336
O O1 0.772861 0.260650 0.365045
O O2 0.748673 0.243195 0.492454
O O3 0.000000 0.212861 0.437625
O O4 0.770740 0.128163 0.417659
O O5 0.779132 0.385518 0.302894
O O6 0.743445 0.487192 0.208964
O O7 0.785443 0.527601 0.331115
O O8 0.000000 0.467376 0.259917
O O9 0.764760 0.239536 0.738165
O O10 0.746369 0.281532 0.616468
O O11 0.776211 0.139885 0.642816
O O12 0.000000 0.234562 0.662735
O O13 0.500000 0.788003 0.285081
O O14 0.793375 0.881302 0.527509
O O15 0.000000 0.778818 0.548758
O O16 0.000000 0.954938 0.152424
O O17 0.231879 0.986339 0.079520
O O18 0.500000 0.070816 0.412805
O O19 0.274046 0.991453 0.454711
O O20 0.500000 0.516815 0.002514
#
# Coordination Sequence:
#
# PCOD8175290 Si02
#       8
#     8   8   8   8   8   8   8   8
#     4  11  23  39  59  82 112 151 192 236 287 339
#     4   9  19  36  57  82 111 143 182 227 275 329
#     4  10  20  35  58  85 114 149 188 232 282 339
#     4   9  19  37  59  81 110 149 189 231 281 336
#     4  11  23  38  58  84 114 149 191 239 287 337
#     4   9  19  36  57  81 109 144 185 226 273 331
#     4  11  23  38  58  85 115 147 187 234 283 338
#     4  10  22  39  58  82 113 148 188 233 280 335
#
# _framework density 19.610534999999999
#
# number of rings (size 3 to 8) (size 9 to 14) (size 15 to 20)
#    0.000    2.000    0.000    3.000    0.000    7.000 
#    0.000    6.250    0.000    0.000    0.000    0.000 
#    0.000    0.000    0.000    0.000    0.000    0.000 
#
# Total GULP energy -396963.102973 kJ/mol
# GULP energy per Si atom -12405.096968 kJ/mol
# Density = 1.956590 g / cm^3
# Si number density = 19.610535 Si / 1000 Ang^3
#
#
#
# Elastic Constant Matrix: (Units=GPa)
#
#
# Indices 1 2 3 4 5 6 
#
# 1 45.6344 11.4603 17.2000 0.0000 0.0000 0.0000
# 2 11.4603 44.4200 -1.3155 0.0000 0.0000 0.0000
# 3 17.2000 -1.3155 59.1426 0.0000 0.0000 0.0000
# 4 0.0000 0.0000 0.0000 35.6272 0.0000 0.0000
# 5 0.0000 0.0000 0.0000 0.0000 38.4345 0.0000
# 6 0.0000 0.0000 0.0000 0.0000 0.0000 22.4204
#
#
#
# Elastic Compliance Matrix: (Units=1/GPa)
#
#
# Indices 1 2 3 4 5 6 
#
# 1 0.026686 -0.007119 -0.007919 0.000000 0.000000 0.000000
# 2 -0.007119 0.024427 0.002614 0.000000 0.000000 0.000000
# 3 -0.007919 0.002614 0.019270 0.000000 0.000000 0.000000
# 4 0.000000 0.000000 0.000000 0.028068 0.000000 0.000000
# 5 0.000000 0.000000 0.000000 0.000000 0.026018 0.000000
# 6 0.000000 0.000000 0.000000 0.000000 0.000000 0.044602
#
#
# Mechanical properties :
#
#
# Convention : Reuss Voigt Hill
#
# Bulk Modulus (GPa) = 21.96241 22.65406 22.30823
# Shear Modulus (GPa) = 23.91219 27.41992 25.66606
#
# Velocity S-wave (km/s) = 3.49571 3.74334 3.62164
# Velocity P-wave (km/s) = 5.24566 5.50096 5.37482
#
# Compressibility (1/GPa) = 0.04553235
#
# Stress axis : x y z
#
# Youngs Moduli (GPa) = 37.47276 40.93898 51.89536
#
# Poissons Ratio (x) = 0.29146 0.41097
# Poissons Ratio (y) = 0.26679 -0.13565
# Poissons Ratio (z) = 0.29676 -0.10701
#
# Static dielectric constant tensor:
#      x y z
#    x 3.523240 0.000000 0.000000 
#    y 0.000000 3.593920 0.000000 
#    z 0.000000 0.000000 3.727660 
# 
# 
# High freq. dielectric constant tensor:
#      x y z
#    x 1.764870 0.000000 0.000000 
#    y 0.000000 1.762600 0.000000 
#    z 0.000000 0.000000 1.777390 
# 
# From -- ./inp_files/15670.got.cif
#   From: 2010.03.12/outbox.cif.g09.slc.cpg/sg36_8_cif.got.tgz:15670.got - 2010.04.14 02:13:53.
