data_PCOD8175990
_publ_section_title
;
Structure prediction by ZEFSAII (Michael W. Deem and Ramdas Pophale) SiO2 
 PCOD8175990
Probable space group: C M C 21
;
_chemical_formula_sum "Si O2"
_cell_formula_units_Z 48
_cell_length_a 9.102252
_cell_length_b 27.463874
_cell_length_c 9.907239
_cell_angle_alpha 90.000000
_cell_angle_beta 90.000000
_cell_angle_gamma 90.000000
_cell_volume 2476.642338
_symmetry_space_group_name_H-M "C M C 21"
_symmetry_group_IT_number 36
_symmetry_cell_setting 'orthorhombic'
loop_
_space_group_symop_operation_xyz
x,y,z
-x,-y,1/2+z
x,-y,1/2+z
-x,y,z
1/2+x,1/2+y,z
1/2-x,1/2-y,1/2+z
1/2+x,1/2-y,1/2+z
1/2-x,1/2+y,z
loop_
_atom_site_type_symbol
_atom_site_label
_atom_site_fract_x
_atom_site_fract_y
_atom_site_fract_z
Si Si1 0.169283 0.064283 0.946550
Si Si2 0.171179 0.607516 0.198654
Si Si3 0.168715 0.102617 0.654034
Si Si4 0.327914 0.037371 0.445762
Si Si5 0.172639 0.713608 0.298245
Si Si6 0.173246 0.210003 0.574108
O O1 0.187446 0.096969 0.813807
O O2 0.000000 0.052328 0.977069
O O3 0.254589 0.014416 0.924990
O O4 0.234710 0.095205 0.068241
O O5 0.209098 0.569241 0.315182
O O6 0.220996 0.660365 0.248832
O O7 0.000000 0.606252 0.160391
O O8 0.266360 0.062594 0.579601
O O9 0.225970 0.156065 0.614571
O O10 0.000000 0.095211 0.610097
O O11 0.500000 0.029947 0.466854
O O12 0.225243 0.752923 0.189332
O O13 0.251951 0.726861 0.436663
O O14 0.000000 0.715924 0.324151
O O15 0.000000 0.212314 0.554653
#
# Coordination Sequence:
#
# PCOD8175990 Si02
#       6
#     8   8   8   8   8   8
#     4  11  24  38  58  89 120 157 198 244 294 349
#     4  10  22  40  60  87 121 157 197 244 293 347
#     4  10  22  40  60  87 121 156 197 244 293 348
#     4  11  22  39  62  87 116 157 200 244 296 350
#     4  10  22  41  63  90 123 155 196 245 292 350
#     4  10  22  40  63  90 121 156 196 243 294 350
#
# _framework density 19.381079
#
# number of rings (size 3 to 8) (size 9 to 14) (size 15 to 20)
#    0.000    1.667    1.667    2.000    2.333    6.667 
#    0.000    0.000    0.000    0.000    0.000    0.000 
#    0.000    0.000    0.000    0.000    0.000    0.000 
#
# Total GULP energy -297759.573246 kJ/mol
# GULP energy per Si atom -12406.648885 kJ/mol
# Density = 1.933697 g / cm^3
# Si number density = 19.381079 Si / 1000 Ang^3
#
#
#
# Elastic Constant Matrix: (Units=GPa)
#
#
# Indices 1 2 3 4 5 6 
#
# 1 65.1134 32.2227 55.5748 0.0000 0.0000 0.0000
# 2 32.2227 106.9084 52.5204 0.0000 0.0000 0.0000
# 3 55.5748 52.5204 134.8210 0.0000 0.0000 0.0000
# 4 0.0000 0.0000 0.0000 38.2464 0.0000 0.0000
# 5 0.0000 0.0000 0.0000 0.0000 36.8024 0.0000
# 6 0.0000 0.0000 0.0000 0.0000 0.0000 10.3395
#
#
#
# Elastic Compliance Matrix: (Units=1/GPa)
#
#
# Indices 1 2 3 4 5 6 
#
# 1 0.024443 -0.002990 -0.008911 0.000000 0.000000 0.000000
# 2 -0.002990 0.011933 -0.003416 0.000000 0.000000 0.000000
# 3 -0.008911 -0.003416 0.012421 0.000000 0.000000 0.000000
# 4 0.000000 0.000000 0.000000 0.026146 0.000000 0.000000
# 5 0.000000 0.000000 0.000000 0.000000 0.027172 0.000000
# 6 0.000000 0.000000 0.000000 0.000000 0.000000 0.096717
#
#
# Mechanical properties :
#
#
# Convention : Reuss Voigt Hill
#
# Bulk Modulus (GPa) = 55.05514 65.27539 60.16527
# Shear Modulus (GPa) = 21.22955 28.17931 24.70443
#
# Velocity S-wave (km/s) = 3.31324 3.81722 3.57412
# Velocity P-wave (km/s) = 6.56544 7.29255 6.93853
#
# Compressibility (1/GPa) = 0.01816361
#
# Stress axis : x y z
#
# Youngs Moduli (GPa) = 40.91159 83.79992 80.50650
#
# Poissons Ratio (x) = 0.25052 0.71740
# Poissons Ratio (y) = 0.12231 0.27504
# Poissons Ratio (z) = 0.36457 0.28629
#
# Static dielectric constant tensor:
#      x y z
#    x 3.530470 0.000000 0.000000 
#    y 0.000000 3.692390 0.000000 
#    z 0.000000 0.000000 3.560920 
# 
# 
# High freq. dielectric constant tensor:
#      x y z
#    x 1.752780 0.000000 0.000000 
#    y 0.000000 1.766340 0.000000 
#    z 0.000000 0.000000 1.766490 
# 
# From -- ./inp_files/2661.got.cif
#   From: 2010.03.12/outbox.cif.g09.slc.cpg/sg36_2_cif.got.tgz:2661.got - 2010.04.14 02:13:53.
