data_PCOD8175707
_publ_section_title
;
Structure prediction by ZEFSAII (Michael W. Deem and Ramdas Pophale) SiO2 
 PCOD8175707
Probable space group: C M C 21
;
_chemical_formula_sum "Si O2"
_cell_formula_units_Z 64
_cell_length_a 9.034322
_cell_length_b 10.015448
_cell_length_c 35.059129
_cell_angle_alpha 90.000000
_cell_angle_beta 90.000000
_cell_angle_gamma 90.000000
_cell_volume 3172.247534
_symmetry_space_group_name_H-M "C M C 21"
_symmetry_group_IT_number 36
_symmetry_cell_setting 'orthorhombic'
loop_
_space_group_symop_operation_xyz
x,y,z
-x,-y,1/2+z
x,-y,1/2+z
-x,y,z
1/2+x,1/2+y,z
1/2-x,1/2-y,1/2+z
1/2+x,1/2-y,1/2+z
1/2-x,1/2+y,z
loop_
_atom_site_type_symbol
_atom_site_label
_atom_site_fract_x
_atom_site_fract_y
_atom_site_fract_z
Si Si1 0.173771 0.471113 0.910300
Si Si2 0.671591 0.022130 0.995841
Si Si3 0.827804 0.268353 0.117418
Si Si4 0.672649 0.235115 0.869078
Si Si5 0.827732 0.008787 0.239164
Si Si6 0.328224 0.710396 0.538666
Si Si7 0.827853 0.462699 0.660891
Si Si8 0.828616 0.280288 0.282494
O O1 0.246268 0.335471 0.896952
O O2 0.222264 0.587244 0.881332
O O3 0.000000 0.450633 0.910154
O O4 0.229146 0.506036 0.952787
O O5 0.500000 0.983020 0.000204
O O6 0.763769 0.928029 0.023731
O O7 0.698621 0.175392 0.007289
O O8 0.751374 0.244197 0.077149
O O9 0.802657 0.420547 0.130228
O O10 0.757467 0.169743 0.148396
O O11 0.000000 0.233945 0.114116
O O12 0.500000 0.256451 0.875774
O O13 0.717860 0.259387 0.825348
O O14 0.773592 0.902333 0.270078
O O15 0.000000 0.985501 0.230682
O O16 0.734789 0.987045 0.201019
O O17 0.798133 0.155887 0.255191
O O18 0.500000 0.690606 0.547887
O O19 0.000000 0.428672 0.665552
O O20 0.000000 0.324772 0.281225
#
# Coordination Sequence:
#
# PCOD8175707 Si02
#       8
#     8   8   8   8   8   8   8   8
#     4  10  21  37  58  84 114 150 191 234 282 336
#     4  10  22  39  57  83 118 150 187 236 283 333
#     4  11  24  41  61  87 118 150 189 237 286 339
#     4  10  21  38  59  84 116 152 191 237 287 340
#     4  11  23  38  59  87 116 150 194 239 285 342
#     4  11  23  39  61  87 115 151 193 234 283 342
#     4  11  24  41  61  86 117 153 192 236 287 342
#     4  10  22  39  58  84 118 152 189 237 289 340
#
# _framework density 20.174969999999998
#
# number of rings (size 3 to 8) (size 9 to 14) (size 15 to 20)
#    0.000    1.500    0.000    4.500    0.000   12.500 
#    0.000    0.000    0.000    0.000    0.000    0.000 
#    0.000    0.000    0.000    0.000    0.000    0.000 
#
# Total GULP energy -397035.271833 kJ/mol
# GULP energy per Si atom -12407.352245 kJ/mol
# Density = 2.012905 g / cm^3
# Si number density = 20.174970 Si / 1000 Ang^3
#
#
#
# Elastic Constant Matrix: (Units=GPa)
#
#
# Indices 1 2 3 4 5 6 
#
# 1 86.9352 40.2553 35.9424 0.0000 0.0000 0.0000
# 2 40.2553 70.2526 7.8046 0.0000 0.0000 0.0000
# 3 35.9424 7.8046 95.5623 0.0000 0.0000 0.0000
# 4 0.0000 0.0000 0.0000 38.3750 0.0000 0.0000
# 5 0.0000 0.0000 0.0000 0.0000 32.5300 0.0000
# 6 0.0000 0.0000 0.0000 0.0000 0.0000 25.4688
#
#
#
# Elastic Compliance Matrix: (Units=1/GPa)
#
#
# Indices 1 2 3 4 5 6 
#
# 1 0.018723 -0.010037 -0.006222 0.000000 0.000000 0.000000
# 2 -0.010037 0.019746 0.002163 0.000000 0.000000 0.000000
# 3 -0.006222 0.002163 0.012628 0.000000 0.000000 0.000000
# 4 0.000000 0.000000 0.000000 0.026059 0.000000 0.000000
# 5 0.000000 0.000000 0.000000 0.000000 0.030741 0.000000
# 6 0.000000 0.000000 0.000000 0.000000 0.000000 0.039264
#
#
# Mechanical properties :
#
#
# Convention : Reuss Voigt Hill
#
# Bulk Modulus (GPa) = 43.66300 46.75053 45.20677
# Shear Modulus (GPa) = 27.32418 30.52462 28.92440
#
# Velocity S-wave (km/s) = 3.68416 3.89394 3.79050
# Velocity P-wave (km/s) = 6.30765 6.59090 6.45083
#
# Compressibility (1/GPa) = 0.02290269
#
# Stress axis : x y z
#
# Youngs Moduli (GPa) = 53.40992 50.64439 79.18868
#
# Poissons Ratio (x) = 0.50833 0.49274
# Poissons Ratio (y) = 0.53609 -0.17125
# Poissons Ratio (z) = 0.33233 -0.10952
#
# Static dielectric constant tensor:
#      x y z
#    x 3.664660 0.000000 0.000000 
#    y 0.000000 3.610200 0.000000 
#    z 0.000000 0.000000 3.790130 
# 
# 
# High freq. dielectric constant tensor:
#      x y z
#    x 1.789010 0.000000 0.000000 
#    y 0.000000 1.796690 0.000000 
#    z 0.000000 0.000000 1.802770 
# 
# From -- ./inp_files/17326.got.cif
#   From: 2010.03.12/outbox.cif.g09.slc.cpg/sg36_9_cif.got.tgz:17326.got - 2010.04.14 02:13:53.
