data_PCOD8175653
_publ_section_title
;
Structure prediction by ZEFSAII (Michael W. Deem and Ramdas Pophale) SiO2 
 PCOD8175653
Probable space group: C M C 21
;
_chemical_formula_sum "Si O2"
_cell_formula_units_Z 64
_cell_length_a 9.199806
_cell_length_b 10.086545
_cell_length_c 35.304636
_cell_angle_alpha 90.000000
_cell_angle_beta 90.000000
_cell_angle_gamma 90.000000
_cell_volume 3276.067474
_symmetry_space_group_name_H-M "C M C 21"
_symmetry_group_IT_number 36
_symmetry_cell_setting 'orthorhombic'
loop_
_space_group_symop_operation_xyz
x,y,z
-x,-y,1/2+z
x,-y,1/2+z
-x,y,z
1/2+x,1/2+y,z
1/2-x,1/2-y,1/2+z
1/2+x,1/2-y,1/2+z
1/2-x,1/2+y,z
loop_
_atom_site_type_symbol
_atom_site_label
_atom_site_fract_x
_atom_site_fract_y
_atom_site_fract_z
Si Si1 0.829462 0.212347 0.209250
Si Si2 0.832188 0.489446 0.082373
Si Si3 0.169077 0.238496 0.539359
Si Si4 0.669112 0.716817 0.961633
Si Si5 0.829156 0.732797 0.794206
Si Si6 0.167311 0.513482 0.420394
Si Si7 0.169459 0.534531 0.333975
Si Si8 0.330614 0.020853 0.669316
O O1 0.775089 0.247306 0.251387
O O2 0.785412 0.331030 0.181170
O O3 0.000000 0.186602 0.208687
O O4 0.752511 0.079592 0.196214
O O5 0.803946 0.629869 0.063293
O O6 0.728387 0.383880 0.063123
O O7 0.785960 0.501829 0.126025
O O8 0.000000 0.444524 0.078413
O O9 0.253831 0.245321 0.500360
O O10 0.000000 0.215830 0.530889
O O11 0.500000 0.694441 0.969898
O O12 0.733482 0.581396 0.945474
O O13 0.695644 0.834744 0.931951
O O14 0.783571 0.585500 0.806762
O O15 0.000000 0.752798 0.798213
O O16 0.755050 0.835480 0.822257
O O17 0.211264 0.496483 0.376782
O O18 0.000000 0.473915 0.427628
O O19 0.000000 0.566890 0.330712
O O20 0.500000 0.996607 0.676187
#
# Coordination Sequence:
#
# PCOD8175653 Si02
#       8
#     8   8   8   8   8   8   8   8
#     4  10  21  36  55  82 113 144 182 226 271 324
#     4  10  22  39  58  83 113 144 184 232 277 328
#     4  11  23  38  58  84 113 147 187 229 277 333
#     4  11  23  38  58  84 113 147 187 229 277 333
#     4  10  21  36  55  82 113 144 182 226 271 324
#     4  10  22  39  58  83 113 144 184 232 277 328
#     4  10  21  38  59  82 111 147 185 228 278 329
#     4  10  21  38  59  82 111 147 185 228 278 329
#
# _framework density 19.535617999999999
#
# number of rings (size 3 to 8) (size 9 to 14) (size 15 to 20)
#    0.000    1.750    0.000    3.750    0.000    8.500 
#    0.000    0.000    0.000    0.000    0.000    0.000 
#    0.000    0.000    0.000    0.000    0.000    0.000 
#
# Total GULP energy -396998.924770 kJ/mol
# GULP energy per Si atom -12406.216399 kJ/mol
# Density = 1.949115 g / cm^3
# Si number density = 19.535618 Si / 1000 Ang^3
#
#
#
# Elastic Constant Matrix: (Units=GPa)
#
#
# Indices 1 2 3 4 5 6 
#
# 1 69.1923 41.8722 36.2872 0.0000 0.0000 0.0000
# 2 41.8722 77.2648 15.6608 0.0000 0.0000 0.0000
# 3 36.2872 15.6608 93.8688 0.0000 0.0000 0.0000
# 4 0.0000 0.0000 0.0000 38.5022 0.0000 0.0000
# 5 0.0000 0.0000 0.0000 0.0000 32.6241 0.0000
# 6 0.0000 0.0000 0.0000 0.0000 0.0000 33.1121
#
#
#
# Elastic Compliance Matrix: (Units=1/GPa)
#
#
# Indices 1 2 3 4 5 6 
#
# 1 0.026330 -0.012633 -0.008071 0.000000 0.000000 0.000000
# 2 -0.012633 0.019457 0.001638 0.000000 0.000000 0.000000
# 3 -0.008071 0.001638 0.013500 0.000000 0.000000 0.000000
# 4 0.000000 0.000000 0.000000 0.025973 0.000000 0.000000
# 5 0.000000 0.000000 0.000000 0.000000 0.030652 0.000000
# 6 0.000000 0.000000 0.000000 0.000000 0.000000 0.030200
#
#
# Mechanical properties :
#
#
# Convention : Reuss Voigt Hill
#
# Bulk Modulus (GPa) = 47.27254 47.55182 47.41218
# Shear Modulus (GPa) = 26.13736 30.61473 28.37605
#
# Velocity S-wave (km/s) = 3.66175 3.96299 3.81534
# Velocity P-wave (km/s) = 6.49065 6.73307 6.61297
#
# Compressibility (1/GPa) = 0.02115393
#
# Stress axis : x y z
#
# Youngs Moduli (GPa) = 37.97902 51.39543 74.07433
#
# Poissons Ratio (x) = 0.64930 0.59785
# Poissons Ratio (y) = 0.47980 -0.12130
# Poissons Ratio (z) = 0.30652 -0.08416
#
# Static dielectric constant tensor:
#      x y z
#    x 3.543350 0.000000 0.000000 
#    y 0.000000 3.559920 0.000000 
#    z 0.000000 0.000000 3.788440 
# 
# 
# High freq. dielectric constant tensor:
#      x y z
#    x 1.757440 0.000000 0.000000 
#    y 0.000000 1.771910 0.000000 
#    z 0.000000 0.000000 1.778860 
# 
# From -- ./inp_files/17304.got.cif
#   From: 2010.03.12/outbox.cif.g09.slc.cpg/sg36_9_cif.got.tgz:17304.got - 2010.04.14 02:13:53.
