data_PCOD8175167
_publ_section_title
;
Structure prediction by ZEFSAII (Michael W. Deem and Ramdas Pophale) SiO2 
 PCOD8175167
Probable space group: C M C 21
;
_chemical_formula_sum "Si O2"
_cell_formula_units_Z 64
_cell_length_a 8.935207
_cell_length_b 20.371805
_cell_length_c 18.974477
_cell_angle_alpha 90.000000
_cell_angle_beta 90.000000
_cell_angle_gamma 90.000000
_cell_volume 3453.853741
_symmetry_space_group_name_H-M "C M C 21"
_symmetry_group_IT_number 36
_symmetry_cell_setting 'orthorhombic'
loop_
_space_group_symop_operation_xyz
x,y,z
-x,-y,1/2+z
x,-y,1/2+z
-x,y,z
1/2+x,1/2+y,z
1/2-x,1/2-y,1/2+z
1/2+x,1/2-y,1/2+z
1/2-x,1/2+y,z
loop_
_atom_site_type_symbol
_atom_site_label
_atom_site_fract_x
_atom_site_fract_y
_atom_site_fract_z
Si Si1 0.673025 0.065050 0.954930
Si Si2 0.323941 0.312620 0.386787
Si Si3 0.175458 0.194482 0.469690
Si Si4 0.327719 0.758319 0.098359
Si Si5 0.173608 0.940215 0.894502
Si Si6 0.326284 0.390605 0.744132
Si Si7 0.826852 0.380392 0.604466
Si Si8 0.171054 0.259105 0.257757
O O1 0.500000 0.076654 0.935972
O O2 0.772487 0.116445 0.912432
O O3 0.721502 0.993096 0.930957
O O4 0.698926 0.070672 0.038979
O O5 0.500000 0.306922 0.394527
O O6 0.246773 0.256957 0.432623
O O7 0.277131 0.304007 0.305413
O O8 0.240910 0.190263 0.548718
O O9 0.217787 0.129338 0.427781
O O10 0.000000 0.205878 0.472830
O O11 0.500000 0.755097 0.075742
O O12 0.262182 0.685844 0.088618
O O13 0.309580 0.783866 0.177916
O O14 0.206065 0.937664 0.810564
O O15 0.000000 0.956644 0.908708
O O16 0.500000 0.390898 0.722893
O O17 0.233324 0.414927 0.676012
O O18 0.278544 0.316634 0.764317
O O19 0.000000 0.362668 0.614257
O O20 0.000000 0.266261 0.283710
#
# Coordination Sequence:
#
# PCOD8175167 Si02
#       8
#     8   8   8   8   8   8   8   8
#     4  11  24  40  58  83 118 155 192 241 291 339
#     4  12  23  35  58  87 114 149 194 237 283 344
#     4  11  21  37  59  84 117 151 187 237 291 340
#     4  10  20  34  56  86 116 150 191 239 289 342
#     4  10  22  40  60  84 116 154 193 236 289 348
#     4   9  18  35  58  83 113 148 187 234 287 343
#     4  10  20  34  55  83 114 150 190 235 286 343
#     4   9  18  35  56  82 118 151 184 235 294 339
#
# _framework density 18.530025999999999
#
# number of rings (size 3 to 8) (size 9 to 14) (size 15 to 20)
#    0.000    1.750    2.500    3.375    0.000    5.500 
#    0.000    1.250    0.000    3.000    0.000    0.000 
#    0.000    0.000    0.000    0.000    0.000    0.000 
#
# Total GULP energy -396887.775854 kJ/mol
# GULP energy per Si atom -12402.742995 kJ/mol
# Density = 1.848785 g / cm^3
# Si number density = 18.530026 Si / 1000 Ang^3
#
#
#
# Elastic Constant Matrix: (Units=GPa)
#
#
# Indices 1 2 3 4 5 6 
#
# 1 102.6257 38.9942 54.5313 0.0000 0.0000 0.0000
# 2 38.9942 55.4908 38.8058 0.0000 0.0000 0.0000
# 3 54.5313 38.8058 120.0842 0.0000 0.0000 0.0000
# 4 0.0000 0.0000 0.0000 28.0134 0.0000 0.0000
# 5 0.0000 0.0000 0.0000 0.0000 37.4283 0.0000
# 6 0.0000 0.0000 0.0000 0.0000 0.0000 29.6953
#
#
#
# Elastic Compliance Matrix: (Units=1/GPa)
#
#
# Indices 1 2 3 4 5 6 
#
# 1 0.014875 -0.007402 -0.004363 0.000000 0.000000 0.000000
# 2 -0.007402 0.026966 -0.005353 0.000000 0.000000 0.000000
# 3 -0.004363 -0.005353 0.012039 0.000000 0.000000 0.000000
# 4 0.000000 0.000000 0.000000 0.035697 0.000000 0.000000
# 5 0.000000 0.000000 0.000000 0.000000 0.026718 0.000000
# 6 0.000000 0.000000 0.000000 0.000000 0.000000 0.033675
#
#
# Mechanical properties :
#
#
# Convention : Reuss Voigt Hill
#
# Bulk Modulus (GPa) = 50.90608 60.31816 55.61212
# Shear Modulus (GPa) = 26.21201 28.75204 27.48203
#
# Velocity S-wave (km/s) = 3.76516 3.94337 3.85529
# Velocity P-wave (km/s) = 6.81423 7.30450 7.06362
#
# Compressibility (1/GPa) = 0.01964402
#
# Stress axis : x y z
#
# Youngs Moduli (GPa) = 67.22780 37.08419 83.06653
#
# Poissons Ratio (x) = 0.27449 0.36241
# Poissons Ratio (y) = 0.49760 0.44465
# Poissons Ratio (z) = 0.29331 0.19851
#
# Static dielectric constant tensor:
#      x y z
#    x 3.487360 0.000000 0.000000 
#    y 0.000000 3.119200 0.000000 
#    z 0.000000 0.000000 3.852800 
# 
# 
# High freq. dielectric constant tensor:
#      x y z
#    x 1.726890 0.000000 0.000000 
#    y 0.000000 1.683580 0.000000 
#    z 0.000000 0.000000 1.736630 
# 
# From -- ./inp_files/15654.got.cif
#   From: 2010.03.12/outbox.cif.g09.slc.cpg/sg36_8_cif.got.tgz:15654.got - 2010.04.14 02:13:53.
