data_PCOD8175243
_publ_section_title
;
Structure prediction by ZEFSAII (Michael W. Deem and Ramdas Pophale) SiO2 
 PCOD8175243
Probable space group: C M C 21
;
_chemical_formula_sum "Si O2"
_cell_formula_units_Z 64
_cell_length_a 9.395525
_cell_length_b 28.594845
_cell_length_c 12.300842
_cell_angle_alpha 90.000000
_cell_angle_beta 90.000000
_cell_angle_gamma 90.000000
_cell_volume 3304.788262
_symmetry_space_group_name_H-M "C M C 21"
_symmetry_group_IT_number 36
_symmetry_cell_setting 'orthorhombic'
loop_
_space_group_symop_operation_xyz
x,y,z
-x,-y,1/2+z
x,-y,1/2+z
-x,y,z
1/2+x,1/2+y,z
1/2-x,1/2-y,1/2+z
1/2+x,1/2-y,1/2+z
1/2-x,1/2+y,z
loop_
_atom_site_type_symbol
_atom_site_label
_atom_site_fract_x
_atom_site_fract_y
_atom_site_fract_z
Si Si1 0.838167 0.964605 0.469950
Si Si2 0.841945 0.335857 0.361932
Si Si3 0.662680 0.820548 0.768034
Si Si4 0.340925 0.564215 0.563954
Si Si5 0.340644 0.935216 0.268933
Si Si6 0.332022 0.112511 0.076882
Si Si7 0.663058 0.718767 0.698181
Si Si8 0.833836 0.165681 0.483715
O O1 0.759010 0.958529 0.357296
O O2 0.756195 0.935680 0.564731
O O3 0.000000 0.945849 0.463849
O O4 0.837191 0.020009 0.485603
O O5 0.844205 0.379707 0.281260
O O6 0.785888 0.351971 0.480311
O O7 0.740721 0.297697 0.308046
O O8 0.000000 0.314159 0.373255
O O9 0.500000 0.825498 0.806046
O O10 0.706001 0.864587 0.692682
O O11 0.681763 0.774572 0.693098
O O12 0.757289 0.817150 0.875064
O O13 0.500000 0.570628 0.614263
O O14 0.224632 0.552909 0.653541
O O15 0.299335 0.610933 0.498788
O O16 0.500000 0.956167 0.277065
O O17 0.500000 0.101431 0.064838
O O18 0.500000 0.703324 0.710668
O O19 0.723986 0.695444 0.587453
O O20 0.000000 0.175264 0.467468
#
# Coordination Sequence:
#
# PCOD8175243 Si02
#       8
#     8   8   8   8   8   8   8   8
#     4  10  21  36  58  86 117 153 196 244 291 344
#     4   9  18  33  57  83 108 142 187 239 286 337
#     4  10  23  40  58  84 120 157 193 240 294 347
#     4  10  21  38  59  84 115 152 193 242 292 343
#     4  10  20  35  56  83 113 148 191 239 290 345
#     4   9  20  39  58  81 117 155 194 240 291 344
#     4  10  21  37  59  84 112 149 190 236 289 346
#     4  10  22  40  61  85 116 152 192 238 293 352
#
# _framework density 19.365839000000001
#
# number of rings (size 3 to 8) (size 9 to 14) (size 15 to 20)
#    0.000    2.250    1.250    1.500    1.750    6.000 
#    0.000    3.750    0.000    0.000    0.000    0.000 
#    0.000    0.000    0.000    0.000    0.000    0.000 
#
# Total GULP energy -396779.301268 kJ/mol
# GULP energy per Si atom -12399.353165 kJ/mol
# Density = 1.932176 g / cm^3
# Si number density = 19.365839 Si / 1000 Ang^3
#
#
#
# Elastic Constant Matrix: (Units=GPa)
#
#
# Indices 1 2 3 4 5 6 
#
# 1 86.2376 35.5803 42.6841 0.0000 0.0000 0.0000
# 2 35.5803 86.5118 33.1889 0.0000 0.0000 0.0000
# 3 42.6841 33.1889 90.2292 0.0000 0.0000 0.0000
# 4 0.0000 0.0000 0.0000 22.5779 0.0000 0.0000
# 5 0.0000 0.0000 0.0000 0.0000 35.8747 0.0000
# 6 0.0000 0.0000 0.0000 0.0000 0.0000 27.9509
#
#
#
# Elastic Compliance Matrix: (Units=1/GPa)
#
#
# Indices 1 2 3 4 5 6 
#
# 1 0.016467 -0.004406 -0.006169 0.000000 0.000000 0.000000
# 2 -0.004406 0.014637 -0.003300 0.000000 0.000000 0.000000
# 3 -0.006169 -0.003300 0.015215 0.000000 0.000000 0.000000
# 4 0.000000 0.000000 0.000000 0.044291 0.000000 0.000000
# 5 0.000000 0.000000 0.000000 0.000000 0.027875 0.000000
# 6 0.000000 0.000000 0.000000 0.000000 0.000000 0.035777
#
#
# Mechanical properties :
#
#
# Convention : Reuss Voigt Hill
#
# Bulk Modulus (GPa) = 53.85174 53.98725 53.91949
# Shear Modulus (GPa) = 26.56718 27.38238 26.97478
#
# Velocity S-wave (km/s) = 3.70788 3.76434 3.73621
# Velocity P-wave (km/s) = 6.79699 6.84337 6.82022
#
# Compressibility (1/GPa) = 0.01856950
#
# Stress axis : x y z
#
# Youngs Moduli (GPa) = 60.72651 68.32005 65.72393
#
# Poissons Ratio (x) = 0.30100 0.40548
# Poissons Ratio (y) = 0.26755 0.21687
# Poissons Ratio (z) = 0.37465 0.22543
#
# Static dielectric constant tensor:
#      x y z
#    x 3.618780 0.000000 0.000000 
#    y 0.000000 3.506560 0.000000 
#    z 0.000000 0.000000 3.347030 
# 
# 
# High freq. dielectric constant tensor:
#      x y z
#    x 1.752610 0.000000 0.000000 
#    y 0.000000 1.750840 0.000000 
#    z 0.000000 0.000000 1.746150 
# 
# From -- ./inp_files/7074.got.cif
#   From: 2010.03.12/outbox.cif.g09.slc.cpg/sg36_4_cif.got.tgz:7074.got - 2010.04.14 02:13:53.
