data_PCOD8175831
_publ_section_title
;
Structure prediction by ZEFSAII (Michael W. Deem and Ramdas Pophale) SiO2 
 PCOD8175831
Probable space group: C M C 21
;
_chemical_formula_sum "Si O2"
_cell_formula_units_Z 64
_cell_length_a 9.056526
_cell_length_b 19.609667
_cell_length_c 18.415296
_cell_angle_alpha 90.000000
_cell_angle_beta 90.000000
_cell_angle_gamma 90.000000
_cell_volume 3270.472946
_symmetry_space_group_name_H-M "C M C 21"
_symmetry_group_IT_number 36
_symmetry_cell_setting 'orthorhombic'
loop_
_space_group_symop_operation_xyz
x,y,z
-x,-y,1/2+z
x,-y,1/2+z
-x,y,z
1/2+x,1/2+y,z
1/2-x,1/2-y,1/2+z
1/2+x,1/2-y,1/2+z
1/2-x,1/2+y,z
loop_
_atom_site_type_symbol
_atom_site_label
_atom_site_fract_x
_atom_site_fract_y
_atom_site_fract_z
Si Si1 0.668897 0.675144 0.068140
Si Si2 0.329291 0.277523 0.821325
Si Si3 0.331175 0.799212 0.967521
Si Si4 0.325184 0.022189 0.677321
Si Si5 0.828315 0.376461 0.301194
Si Si6 0.674036 0.570433 0.943551
Si Si7 0.673651 0.949890 0.016309
Si Si8 0.174595 0.629708 0.208347
O O1 0.500000 0.662834 0.092086
O O2 0.772470 0.670078 0.137674
O O3 0.690240 0.750289 0.036217
O O4 0.719575 0.619935 0.009094
O O5 0.500000 0.297636 0.819668
O O6 0.275258 0.274567 0.903874
O O7 0.303599 0.203527 0.784854
O O8 0.239906 0.335708 0.779759
O O9 0.500000 0.796108 0.939505
O O10 0.286610 0.873570 0.994340
O O11 0.500000 0.024014 0.672854
O O12 0.269828 0.948567 0.705272
O O13 0.269796 0.080984 0.731925
O O14 0.261711 0.036081 0.596858
O O15 0.733947 0.398384 0.369791
O O16 0.000000 0.391988 0.317129
O O17 0.500000 0.562740 0.936501
O O18 0.746145 0.497260 0.957705
O O19 0.500000 0.964491 0.012894
O O20 0.000000 0.633619 0.212895
#
# Coordination Sequence:
#
# PCOD8175831 Si02
#       8
#     8   8   8   8   8   8   8   8
#     4  10  21  39  62  87 117 154 197 244 299 354
#     4  11  24  40  61  88 123 157 197 253 301 353
#     4  10  22  40  64  88 119 160 202 247 295 355
#     4   9  20  39  61  86 112 148 202 246 282 345
#     4  10  22  40  63  86 115 159 205 243 289 354
#     4  11  22  38  61  88 121 154 190 246 301 350
#     4  10  21  39  64  88 115 154 202 247 289 351
#     4  11  23  39  62  87 118 156 199 248 298 362
#
# _framework density 19.569035
#
# number of rings (size 3 to 8) (size 9 to 14) (size 15 to 20)
#    0.000    1.750    2.500    1.125    3.500    2.000 
#    0.000    1.250    0.000    0.000    0.000    0.000 
#    0.000    0.000    0.000    0.000    0.000    0.000 
#
# Total GULP energy -396949.731863 kJ/mol
# GULP energy per Si atom -12404.679121 kJ/mol
# Density = 1.952449 g / cm^3
# Si number density = 19.569035 Si / 1000 Ang^3
#
#
#
# Elastic Constant Matrix: (Units=GPa)
#
#
# Indices 1 2 3 4 5 6 
#
# 1 58.3321 36.5634 27.4099 0.0000 0.0000 0.0000
# 2 36.5634 120.0979 22.5501 0.0000 0.0000 0.0000
# 3 27.4099 22.5501 68.8638 0.0000 0.0000 0.0000
# 4 0.0000 0.0000 0.0000 35.6204 0.0000 0.0000
# 5 0.0000 0.0000 0.0000 0.0000 35.1860 0.0000
# 6 0.0000 0.0000 0.0000 0.0000 0.0000 23.8329
#
#
#
# Elastic Compliance Matrix: (Units=1/GPa)
#
#
# Indices 1 2 3 4 5 6 
#
# 1 0.024588 -0.006018 -0.007816 0.000000 0.000000 0.000000
# 2 -0.006018 0.010345 -0.000992 0.000000 0.000000 0.000000
# 3 -0.007816 -0.000992 0.017957 0.000000 0.000000 0.000000
# 4 0.000000 0.000000 0.000000 0.028074 0.000000 0.000000
# 5 0.000000 0.000000 0.000000 0.000000 0.028420 0.000000
# 6 0.000000 0.000000 0.000000 0.000000 0.000000 0.041959
#
#
# Mechanical properties :
#
#
# Convention : Reuss Voigt Hill
#
# Bulk Modulus (GPa) = 43.03360 46.70451 44.86906
# Shear Modulus (GPa) = 26.49111 29.64591 28.06851
#
# Velocity S-wave (km/s) = 3.68329 3.89645 3.79137
# Velocity P-wave (km/s) = 6.33461 6.64540 6.49187
#
# Compressibility (1/GPa) = 0.02323765
#
# Stress axis : x y z
#
# Youngs Moduli (GPa) = 40.66981 96.66456 55.68744
#
# Poissons Ratio (x) = 0.58175 0.43526
# Poissons Ratio (y) = 0.24476 0.05525
# Poissons Ratio (z) = 0.31788 0.09591
#
# Static dielectric constant tensor:
#      x y z
#    x 3.414810 0.000000 0.000000 
#    y 0.000000 3.757910 0.000000 
#    z 0.000000 0.000000 3.611130 
# 
# 
# High freq. dielectric constant tensor:
#      x y z
#    x 1.747200 0.000000 0.000000 
#    y 0.000000 1.777480 0.000000 
#    z 0.000000 0.000000 1.765610 
# 
# From -- ./inp_files/13837.got.cif
#   From: 2010.03.12/outbox.cif.g09.slc.cpg/sg36_7_cif.got.tgz:13837.got - 2010.04.14 02:13:53.
