data_PCOD8175832
_publ_section_title
;
Structure prediction by ZEFSAII (Michael W. Deem and Ramdas Pophale) SiO2 
 PCOD8175832
Probable space group: C M C 21
;
_chemical_formula_sum "Si O2"
_cell_formula_units_Z 40
_cell_length_a 7.757253
_cell_length_b 28.149058
_cell_length_c 9.023607
_cell_angle_alpha 90.000000
_cell_angle_beta 90.000000
_cell_angle_gamma 90.000000
_cell_volume 1970.389091
_symmetry_space_group_name_H-M "C M C 21"
_symmetry_group_IT_number 36
_symmetry_cell_setting 'orthorhombic'
loop_
_space_group_symop_operation_xyz
x,y,z
-x,-y,1/2+z
x,-y,1/2+z
-x,y,z
1/2+x,1/2+y,z
1/2-x,1/2-y,1/2+z
1/2+x,1/2-y,1/2+z
1/2-x,1/2+y,z
loop_
_atom_site_type_symbol
_atom_site_label
_atom_site_fract_x
_atom_site_fract_y
_atom_site_fract_z
Si Si1 0.000000 0.962744 0.638381
Si Si2 0.296227 0.696223 0.341875
Si Si3 0.500000 0.440263 0.297198
Si Si4 0.304537 0.895270 0.679748
Si Si5 0.697138 0.287347 0.174277
Si Si6 0.308319 0.124881 0.845940
O O1 0.000000 0.961154 0.461623
O O2 0.828538 0.938291 0.705432
O O3 0.000000 0.017636 0.679919
O O4 0.500000 0.697265 0.326007
O O5 0.224384 0.644299 0.304387
O O6 0.233153 0.708899 0.506854
O O7 0.216196 0.733533 0.227488
O O8 0.329674 0.409008 0.265925
O O9 0.500000 0.914975 0.690894
O O10 0.266696 0.871521 0.520340
O O11 0.500000 0.303593 0.180400
O O12 0.803713 0.322121 0.280817
O O13 0.500000 0.103794 0.820504
#
# Coordination Sequence:
#
# PCOD8175832 Si02
#       6
#     4   8   4   8   8   8
#     4  10  22  40  62  88 120 156 196 248 299 350
#     4  11  23  37  56  85 120 158 199 242 292 351
#     4  10  22  40  62  88 120 156 196 248 299 350
#     4  10  21  39  62  87 117 155 198 243 295 351
#     4  11  23  37  56  85 120 158 199 242 292 351
#     4  10  21  39  62  87 117 155 198 243 295 351
#
# _framework density 20.300557999999999
#
# number of rings (size 3 to 8) (size 9 to 14) (size 15 to 20)
#    0.000    1.600    2.000    2.400    0.000   10.400 
#    0.000    0.000    0.000    0.000    0.000    0.000 
#    0.000    0.000    0.000    0.000    0.000    0.000 
#
# Total GULP energy -248110.307922 kJ/mol
# GULP energy per Si atom -12405.515396 kJ/mol
# Density = 2.025435 g / cm^3
# Si number density = 20.300558 Si / 1000 Ang^3
#
#
#
# Elastic Constant Matrix: (Units=GPa)
#
#
# Indices 1 2 3 4 5 6 
#
# 1 106.3455 20.8898 21.5231 0.0000 0.0000 0.0000
# 2 20.8898 64.4492 0.3954 0.0000 0.0000 0.0000
# 3 21.5231 0.3954 42.1973 0.0000 0.0000 0.0000
# 4 0.0000 0.0000 0.0000 39.4692 0.0000 0.0000
# 5 0.0000 0.0000 0.0000 0.0000 22.5760 0.0000
# 6 0.0000 0.0000 0.0000 0.0000 0.0000 27.3355
#
#
#
# Elastic Compliance Matrix: (Units=1/GPa)
#
#
# Indices 1 2 3 4 5 6 
#
# 1 0.011271 -0.003618 -0.005715 0.000000 0.000000 0.000000
# 2 -0.003618 0.016678 0.001689 0.000000 0.000000 0.000000
# 3 -0.005715 0.001689 0.026597 0.000000 0.000000 0.000000
# 4 0.000000 0.000000 0.000000 0.025336 0.000000 0.000000
# 5 0.000000 0.000000 0.000000 0.000000 0.044295 0.000000
# 6 0.000000 0.000000 0.000000 0.000000 0.000000 0.036582
#
#
# Mechanical properties :
#
#
# Convention : Reuss Voigt Hill
#
# Bulk Modulus (GPa) = 25.47191 33.17872 29.32532
# Shear Modulus (GPa) = 26.43633 29.22170 27.82902
#
# Velocity S-wave (km/s) = 3.61258 3.79813 3.70652
# Velocity P-wave (km/s) = 5.47500 5.96771 5.72666
#
# Compressibility (1/GPa) = 0.03925893
#
# Stress axis : x y z
#
# Youngs Moduli (GPa) = 88.72621 59.95759 37.59786
#
# Poissons Ratio (x) = 0.21693 0.21486
# Poissons Ratio (y) = 0.32102 -0.06351
# Poissons Ratio (z) = 0.50705 -0.10128
#
# Static dielectric constant tensor:
#      x y z
#    x 3.872700 0.000000 0.000000 
#    y 0.000000 3.408310 0.000000 
#    z 0.000000 0.000000 3.645330 
# 
# 
# High freq. dielectric constant tensor:
#      x y z
#    x 1.808840 0.000000 0.000000 
#    y 0.000000 1.776940 0.000000 
#    z 0.000000 0.000000 1.788130 
# 
# From -- ./inp_files/2440.got.cif
#   From: 2010.03.12/outbox.cif.g09.slc.cpg/sg36_2_cif.got.tgz:2440.got - 2010.04.14 02:13:53.
