data_PCOD8175844
_publ_section_title
;
Structure prediction by ZEFSAII (Michael W. Deem and Ramdas Pophale) SiO2 
 PCOD8175844
Probable space group: C M C 21
;
_chemical_formula_sum "Si O2"
_cell_formula_units_Z 64
_cell_length_a 8.670659
_cell_length_b 22.675222
_cell_length_c 16.166343
_cell_angle_alpha 90.000000
_cell_angle_beta 90.000000
_cell_angle_gamma 90.000000
_cell_volume 3178.450434
_symmetry_space_group_name_H-M "C M C 21"
_symmetry_group_IT_number 36
_symmetry_cell_setting 'orthorhombic'
loop_
_space_group_symop_operation_xyz
x,y,z
-x,-y,1/2+z
x,-y,1/2+z
-x,y,z
1/2+x,1/2+y,z
1/2-x,1/2-y,1/2+z
1/2+x,1/2-y,1/2+z
1/2-x,1/2+y,z
loop_
_atom_site_type_symbol
_atom_site_label
_atom_site_fract_x
_atom_site_fract_y
_atom_site_fract_z
Si Si1 0.680026 0.012879 0.072400
Si Si2 0.182095 0.169957 0.370179
Si Si3 0.180103 0.032506 0.742977
Si Si4 0.316817 0.276726 0.703174
Si Si5 0.678111 0.637580 0.061997
Si Si6 0.670003 0.208768 0.932186
Si Si7 0.683386 0.460145 0.904626
Si Si8 0.328578 0.844610 0.252720
O O1 0.500000 0.001418 0.065238
O O2 0.715102 0.081701 0.074710
O O3 0.738752 0.985578 0.158001
O O4 0.757499 0.986023 0.990773
O O5 0.254739 0.188886 0.282023
O O6 0.220911 0.222057 0.435997
O O7 0.249155 0.106628 0.398028
O O8 0.000000 0.162850 0.360754
O O9 0.210593 0.101608 0.756543
O O10 0.000000 0.020693 0.732190
O O11 0.242223 0.996855 0.823791
O O12 0.500000 0.276642 0.711431
O O13 0.261814 0.312293 0.623739
O O14 0.264524 0.207914 0.692991
O O15 0.500000 0.619647 0.074334
O O16 0.703214 0.666377 0.972617
O O17 0.500000 0.201184 0.973312
O O18 0.658382 0.189474 0.838299
O O19 0.500000 0.462773 0.907354
O O20 0.500000 0.867389 0.226540
#
# Coordination Sequence:
#
# PCOD8175844 Si02
#       8
#     8   8   8   8   8   8   8   8
#     4  12  26  41  58  83 117 154 195 240 287 346
#     4   8  15  32  57  81 107 142 183 226 276 334
#     4  11  23  39  61  87 117 154 195 240 288 338
#     4   8  16  32  55  81 107 140 180 225 279 337
#     4  11  21  35  56  80 108 140 182 233 283 335
#     4   9  18  33  55  82 111 143 179 222 276 338
#     4  10  21  39  63  88 117 154 195 240 288 338
#     4   9  18  35  57  80 110 147 185 224 275 338
#
# _framework density 20.135598999999999
#
# number of rings (size 3 to 8) (size 9 to 14) (size 15 to 20)
#    0.000    2.250    0.000    4.875    0.000    6.500 
#    0.000    4.375    0.000    3.750    0.000    0.000 
#    0.000    0.000    0.000    0.000    0.000    0.000 
#
# Total GULP energy -396589.195188 kJ/mol
# GULP energy per Si atom -12393.412350 kJ/mol
# Density = 2.008977 g / cm^3
# Si number density = 20.135599 Si / 1000 Ang^3
#
#
#
# Elastic Constant Matrix: (Units=GPa)
#
#
# Indices 1 2 3 4 5 6 
#
# 1 41.1297 22.1078 23.0330 0.0000 0.0000 0.0000
# 2 22.1078 151.7989 43.4346 0.0000 0.0000 0.0000
# 3 23.0330 43.4346 92.2496 0.0000 0.0000 0.0000
# 4 0.0000 0.0000 0.0000 31.4677 0.0000 0.0000
# 5 0.0000 0.0000 0.0000 0.0000 16.9062 0.0000
# 6 0.0000 0.0000 0.0000 0.0000 0.0000 17.0867
#
#
#
# Elastic Compliance Matrix: (Units=1/GPa)
#
#
# Indices 1 2 3 4 5 6 
#
# 1 0.029059 -0.002492 -0.006082 0.000000 0.000000 0.000000
# 2 -0.002492 0.007827 -0.003063 0.000000 0.000000 0.000000
# 3 -0.006082 -0.003063 0.013801 0.000000 0.000000 0.000000
# 4 0.000000 0.000000 0.000000 0.031779 0.000000 0.000000
# 5 0.000000 0.000000 0.000000 0.000000 0.059150 0.000000
# 6 0.000000 0.000000 0.000000 0.000000 0.000000 0.058525
#
#
# Mechanical properties :
#
#
# Convention : Reuss Voigt Hill
#
# Bulk Modulus (GPa) = 36.47956 51.36989 43.92472
# Shear Modulus (GPa) = 21.50055 26.19897 23.84976
#
# Velocity S-wave (km/s) = 3.27125 3.61103 3.44533
# Velocity P-wave (km/s) = 5.69424 6.55388 6.13913
#
# Compressibility (1/GPa) = 0.02741261
#
# Stress axis : x y z
#
# Youngs Moduli (GPa) = 34.41303 127.76261 72.45860
#
# Poissons Ratio (x) = 0.31836 0.44071
# Poissons Ratio (y) = 0.08575 0.22195
# Poissons Ratio (z) = 0.20931 0.39135
#
# Static dielectric constant tensor:
#      x y z
#    x 3.364310 0.000000 0.000000 
#    y 0.000000 4.103430 0.000000 
#    z 0.000000 0.000000 3.701540 
# 
# 
# High freq. dielectric constant tensor:
#      x y z
#    x 1.753300 0.000000 0.000000 
#    y 0.000000 1.806020 0.000000 
#    z 0.000000 0.000000 1.783140 
# 
# From -- ./inp_files/14090.got.cif
#   From: 2010.03.12/outbox.cif.g09.slc.cpg/sg36_8_cif.got.tgz:14090.got - 2010.04.14 02:13:53.
