data_PCOD8175731
_publ_section_title
;
Structure prediction by ZEFSAII (Michael W. Deem and Ramdas Pophale) SiO2 
 PCOD8175731
Probable space group: C M C 21
;
_chemical_formula_sum "Si O2"
_cell_formula_units_Z 28
_cell_length_a 9.784511
_cell_length_b 21.485344
_cell_length_c 4.884061
_cell_angle_alpha 90.000000
_cell_angle_beta 90.000000
_cell_angle_gamma 90.000000
_cell_volume 1026.744811
_symmetry_space_group_name_H-M "C M C 21"
_symmetry_group_IT_number 36
_symmetry_cell_setting 'orthorhombic'
loop_
_space_group_symop_operation_xyz
x,y,z
-x,-y,1/2+z
x,-y,1/2+z
-x,y,z
1/2+x,1/2+y,z
1/2-x,1/2-y,1/2+z
1/2+x,1/2-y,1/2+z
1/2-x,1/2+y,z
loop_
_atom_site_type_symbol
_atom_site_label
_atom_site_fract_x
_atom_site_fract_y
_atom_site_fract_z
Si Si1 0.500000 0.042212 0.002571
Si Si2 0.500000 0.233742 0.734710
Si Si3 0.345402 0.542434 0.358375
Si Si4 0.000000 0.818919 0.255052
Si Si5 0.284708 0.871986 0.246690
O O1 0.635864 0.081805 0.948006
O O2 0.500000 0.020044 0.315840
O O3 0.500000 0.292224 0.943779
O O4 0.636967 0.193002 0.747703
O O5 0.500000 0.256536 0.427058
O O6 0.321375 0.518198 0.052303
O O7 0.500000 0.568496 0.403161
O O8 0.235843 0.596026 0.444791
O O9 0.869543 0.859874 0.348223
#
# Coordination Sequence:
#
# PCOD8175731 Si02
#       5
#     4   4   8   4   8
#     4  11  26  45  68 104 140 173 214 265 334 412
#     4  11  28  44  68  94 136 170 230 281 334 378
#     4  10  21  37  60  94 127 160 207 259 315 390
#     4  12  26  47  66 100 126 177 232 280 320 392
#     4  11  24  45  70  97 133 180 216 277 334 389
#
# _framework density 27.270648999999999
#
# number of rings (size 3 to 8) (size 9 to 14) (size 15 to 20)
#    0.000    1.143    1.429    3.429    0.000   11.429 
#    0.000    0.000    0.000    0.000    0.000    0.000 
#    0.000    0.000    0.000    0.000    0.000    0.000 
#
# Total GULP energy -173566.164865 kJ/mol
# GULP energy per Si atom -12397.583205 kJ/mol
# Density = 2.720858 g / cm^3
# Si number density = 27.270649 Si / 1000 Ang^3
#
#
#
# Elastic Constant Matrix: (Units=GPa)
#
#
# Indices 1 2 3 4 5 6 
#
# 1 203.8620 71.9311 22.6976 0.0000 0.0000 0.0000
# 2 71.9311 104.6304 6.1675 0.0000 0.0000 0.0000
# 3 22.6976 6.1675 67.4060 0.0000 0.0000 0.0000
# 4 0.0000 0.0000 0.0000 22.4764 0.0000 0.0000
# 5 0.0000 0.0000 0.0000 0.0000 23.8609 0.0000
# 6 0.0000 0.0000 0.0000 0.0000 0.0000 58.9379
#
#
#
# Elastic Compliance Matrix: (Units=1/GPa)
#
#
# Indices 1 2 3 4 5 6 
#
# 1 0.006697 -0.004495 -0.001844 0.000000 0.000000 0.000000
# 2 -0.004495 0.012627 0.000358 0.000000 0.000000 0.000000
# 3 -0.001844 0.000358 0.015424 0.000000 0.000000 0.000000
# 4 0.000000 0.000000 0.000000 0.044491 0.000000 0.000000
# 5 0.000000 0.000000 0.000000 0.000000 0.041910 0.000000
# 6 0.000000 0.000000 0.000000 0.000000 0.000000 0.016967
#
#
# Mechanical properties :
#
#
# Convention : Reuss Voigt Hill
#
# Bulk Modulus (GPa) = 43.88684 64.16564 54.02624
# Shear Modulus (GPa) = 31.71170 39.39519 35.55344
#
# Velocity S-wave (km/s) = 3.41376 3.80491 3.61463
# Velocity P-wave (km/s) = 5.62729 6.54854 6.10532
#
# Compressibility (1/GPa) = 0.02278587
#
# Stress axis : x y z
#
# Youngs Moduli (GPa) = 149.32936 79.19785 64.83609
#
# Poissons Ratio (x) = 0.35600 0.11954
# Poissons Ratio (y) = 0.67125 -0.02323
# Poissons Ratio (z) = 0.27531 -0.02838
#
# Static dielectric constant tensor:
#      x y z
#    x 5.680360 0.000000 0.000000 
#    y 0.000000 4.911560 0.000000 
#    z 0.000000 0.000000 4.598370 
# 
# 
# High freq. dielectric constant tensor:
#      x y z
#    x 2.127730 0.000000 0.000000 
#    y 0.000000 2.105290 0.000000 
#    z 0.000000 0.000000 2.089420 
# 
# From -- ./inp_files/394.got.cif
#   From: 2010.03.12/outbox.cif.g09.slc.cpg/sg36_1_cif.got.tgz:394.got - 2010.04.14 02:13:53.
