data_PCOD8175168
_publ_section_title
;
Structure prediction by ZEFSAII (Michael W. Deem and Ramdas Pophale) SiO2 
 PCOD8175168
Probable space group: C M C 21
;
_chemical_formula_sum "Si O2"
_cell_formula_units_Z 64
_cell_length_a 8.960757
_cell_length_b 20.328013
_cell_length_c 19.033295
_cell_angle_alpha 90.000000
_cell_angle_beta 90.000000
_cell_angle_gamma 90.000000
_cell_volume 3466.998141
_symmetry_space_group_name_H-M "C M C 21"
_symmetry_group_IT_number 36
_symmetry_cell_setting 'orthorhombic'
loop_
_space_group_symop_operation_xyz
x,y,z
-x,-y,1/2+z
x,-y,1/2+z
-x,y,z
1/2+x,1/2+y,z
1/2-x,1/2-y,1/2+z
1/2+x,1/2-y,1/2+z
1/2-x,1/2+y,z
loop_
_atom_site_type_symbol
_atom_site_label
_atom_site_fract_x
_atom_site_fract_y
_atom_site_fract_z
Si Si1 0.671151 0.110186 0.256870
Si Si2 0.672775 0.308591 0.110771
Si Si3 0.326672 0.071248 0.536472
Si Si4 0.672512 0.762744 0.400177
Si Si5 0.676013 0.311398 0.533573
Si Si6 0.327768 0.068916 0.104898
Si Si7 0.173496 0.891196 0.899055
Si Si8 0.168708 0.761098 0.261337
O O1 0.500000 0.098678 0.278220
O O2 0.714691 0.068868 0.187570
O O3 0.770949 0.086388 0.322250
O O4 0.702805 0.186288 0.238655
O O5 0.500000 0.306176 0.088376
O O6 0.744038 0.374582 0.082303
O O7 0.751003 0.245160 0.079586
O O8 0.693046 0.308054 0.194685
O O9 0.500000 0.089198 0.531737
O O10 0.260559 0.067669 0.458022
O O11 0.298170 0.002810 0.574755
O O12 0.500000 0.779047 0.411439
O O13 0.769297 0.805446 0.453631
O O14 0.707041 0.685746 0.411868
O O15 0.719005 0.784286 0.321926
O O16 0.500000 0.303976 0.536855
O O17 0.722814 0.382033 0.562464
O O18 0.500000 0.090938 0.095889
O O19 0.000000 0.907364 0.904785
O O20 0.000000 0.766601 0.289936
#
# Coordination Sequence:
#
# PCOD8175168 Si02
#       8
#     8   8   8   8   8   8   8   8
#     4   9  17  34  58  81 109 146 191 237 284 342
#     4  11  21  37  59  84 117 151 186 233 288 338
#     4  11  23  38  59  86 116 154 197 237 281 341
#     4  10  20  34  55  83 117 151 188 237 289 338
#     4  12  23  35  58  87 115 147 191 237 282 339
#     4  10  22  41  60  83 117 154 192 235 289 343
#     4  10  20  34  55  83 115 150 190 236 285 339
#     4   9  18  33  56  83 112 147 189 236 288 342
#
# _framework density 18.459772999999998
#
# number of rings (size 3 to 8) (size 9 to 14) (size 15 to 20)
#    0.000    1.750    2.500    2.625    0.000    3.500 
#    0.000    1.250    0.000    4.500    0.000    0.000 
#    0.000    0.000    0.000    0.000    0.000    0.000 
#
# Total GULP energy -396932.389668 kJ/mol
# GULP energy per Si atom -12404.137177 kJ/mol
# Density = 1.841776 g / cm^3
# Si number density = 18.459773 Si / 1000 Ang^3
#
#
#
# Elastic Constant Matrix: (Units=GPa)
#
#
# Indices 1 2 3 4 5 6 
#
# 1 127.1083 53.4257 71.6505 0.0000 0.0000 0.0000
# 2 53.4257 68.1393 53.0118 0.0000 0.0000 0.0000
# 3 71.6505 53.0118 138.8889 0.0000 0.0000 0.0000
# 4 0.0000 0.0000 0.0000 26.6687 0.0000 0.0000
# 5 0.0000 0.0000 0.0000 0.0000 35.2898 0.0000
# 6 0.0000 0.0000 0.0000 0.0000 0.0000 26.5451
#
#
#
# Elastic Compliance Matrix: (Units=1/GPa)
#
#
# Indices 1 2 3 4 5 6 
#
# 1 0.013167 -0.007167 -0.004057 0.000000 0.000000 0.000000
# 2 -0.007167 0.024776 -0.005759 0.000000 0.000000 0.000000
# 3 -0.004057 -0.005759 0.011491 0.000000 0.000000 0.000000
# 4 0.000000 0.000000 0.000000 0.037497 0.000000 0.000000
# 5 0.000000 0.000000 0.000000 0.000000 0.028337 0.000000
# 6 0.000000 0.000000 0.000000 0.000000 0.000000 0.037672
#
#
# Mechanical properties :
#
#
# Convention : Reuss Voigt Hill
#
# Bulk Modulus (GPa) = 64.65312 76.70140 70.67726
# Shear Modulus (GPa) = 26.03330 28.10396 27.06863
#
# Velocity S-wave (km/s) = 3.75943 3.90608 3.83346
# Velocity P-wave (km/s) = 7.34468 7.87300 7.61342
#
# Compressibility (1/GPa) = 0.01546716
#
# Stress axis : x y z
#
# Youngs Moduli (GPa) = 75.94931 40.36153 87.02467
#
# Poissons Ratio (x) = 0.28929 0.35304
# Poissons Ratio (y) = 0.54436 0.50118
# Poissons Ratio (z) = 0.30811 0.23245
#
# Static dielectric constant tensor:
#      x y z
#    x 3.474740 0.000000 0.000000 
#    y 0.000000 3.199250 0.000000 
#    z 0.000000 0.000000 3.557680 
# 
# 
# High freq. dielectric constant tensor:
#      x y z
#    x 1.724680 0.000000 0.000000 
#    y 0.000000 1.683200 0.000000 
#    z 0.000000 0.000000 1.732200 
# 
# From -- ./inp_files/13843.got.cif
#   From: 2010.03.12/outbox.cif.g09.slc.cpg/sg36_7_cif.got.tgz:13843.got - 2010.04.14 02:13:53.
