data_PCOD8175943
_publ_section_title
;
Structure prediction by ZEFSAII (Michael W. Deem and Ramdas Pophale) SiO2 
 PCOD8175943
Probable space group: C M C 21
;
_chemical_formula_sum "Si O2"
_cell_formula_units_Z 48
_cell_length_a 9.041672
_cell_length_b 23.628870
_cell_length_c 11.947861
_cell_angle_alpha 90.000000
_cell_angle_beta 90.000000
_cell_angle_gamma 90.000000
_cell_volume 2552.594697
_symmetry_space_group_name_H-M "C M C 21"
_symmetry_group_IT_number 36
_symmetry_cell_setting 'orthorhombic'
loop_
_space_group_symop_operation_xyz
x,y,z
-x,-y,1/2+z
x,-y,1/2+z
-x,y,z
1/2+x,1/2+y,z
1/2-x,1/2-y,1/2+z
1/2+x,1/2-y,1/2+z
1/2-x,1/2+y,z
loop_
_atom_site_type_symbol
_atom_site_label
_atom_site_fract_x
_atom_site_fract_y
_atom_site_fract_z
Si Si1 0.828597 0.603272 0.130360
Si Si2 0.825918 0.670912 0.704656
Si Si3 0.324728 0.541455 0.323873
Si Si4 0.331408 0.214348 0.256402
Si Si5 0.827276 0.574823 0.876362
Si Si6 0.328051 0.863720 0.961661
O O1 0.732941 0.559031 0.201453
O O2 0.786848 0.667267 0.164523
O O3 0.000000 0.591729 0.159288
O O4 0.792683 0.595608 0.001012
O O5 0.769233 0.731614 0.741487
O O6 0.774880 0.624466 0.794064
O O7 0.764976 0.653502 0.582746
O O8 0.000000 0.675598 0.699654
O O9 0.500000 0.544094 0.325039
O O10 0.271791 0.478661 0.349188
O O11 0.262335 0.582241 0.419967
O O12 0.500000 0.233222 0.240318
O O13 0.304001 0.189354 0.379853
O O14 0.000000 0.560046 0.860486
O O15 0.500000 0.881392 0.966146
#
# Coordination Sequence:
#
# PCOD8175943 Si02
#       6
#     8   8   8   8   8   8
#     4   9  20  40  62  82 113 157 195 229 281 349
#     4  10  22  37  59  88 114 148 194 235 277 337
#     4  11  23  38  59  88 117 146 188 244 294 337
#     4   9  19  36  58  83 115 152 187 233 284 331
#     4  10  22  39  60  85 114 153 196 234 278 343
#     4   9  20  40  60  82 115 156 194 227 280 351
#
# _framework density 18.804393999999998
#
# number of rings (size 3 to 8) (size 9 to 14) (size 15 to 20)
#    0.000    2.333    0.000    2.500    4.667    4.667 
#    0.000    0.000    0.000    0.000    0.000    0.000 
#    0.000    0.000    0.000    0.000    0.000    0.000 
#
# Total GULP energy -297678.631876 kJ/mol
# GULP energy per Si atom -12403.276328 kJ/mol
# Density = 1.876159 g / cm^3
# Si number density = 18.804394 Si / 1000 Ang^3
#
#
#
# Elastic Constant Matrix: (Units=GPa)
#
#
# Indices 1 2 3 4 5 6 
#
# 1 73.0924 61.1906 51.9625 0.0000 0.0000 0.0000
# 2 61.1906 140.2320 80.5146 0.0000 0.0000 0.0000
# 3 51.9625 80.5146 157.3257 0.0000 0.0000 0.0000
# 4 0.0000 0.0000 0.0000 20.0706 0.0000 0.0000
# 5 0.0000 0.0000 0.0000 0.0000 13.1432 0.0000
# 6 0.0000 0.0000 0.0000 0.0000 0.0000 38.4238
#
#
#
# Elastic Compliance Matrix: (Units=1/GPa)
#
#
# Indices 1 2 3 4 5 6 
#
# 1 0.022809 -0.007969 -0.003455 0.000000 0.000000 0.000000
# 2 -0.007969 0.012882 -0.003961 0.000000 0.000000 0.000000
# 3 -0.003455 -0.003961 0.009524 0.000000 0.000000 0.000000
# 4 0.000000 0.000000 0.000000 0.049824 0.000000 0.000000
# 5 0.000000 0.000000 0.000000 0.000000 0.076085 0.000000
# 6 0.000000 0.000000 0.000000 0.000000 0.000000 0.026026
#
#
# Mechanical properties :
#
#
# Convention : Reuss Voigt Hill
#
# Bulk Modulus (GPa) = 69.22350 84.22060 76.72205
# Shear Modulus (GPa) = 21.48359 26.12635 23.80497
#
# Velocity S-wave (km/s) = 3.38372 3.73148 3.56185
# Velocity P-wave (km/s) = 7.22208 7.96556 7.60291
#
# Compressibility (1/GPa) = 0.01444596
#
# Stress axis : x y z
#
# Youngs Moduli (GPa) = 43.84224 77.62517 104.99255
#
# Poissons Ratio (x) = 0.61859 0.36278
# Poissons Ratio (y) = 0.34938 0.41586
# Poissons Ratio (z) = 0.15149 0.30746
#
# Static dielectric constant tensor:
#      x y z
#    x 3.290520 0.000000 0.000000 
#    y 0.000000 3.396820 0.000000 
#    z 0.000000 0.000000 3.962340 
# 
# 
# High freq. dielectric constant tensor:
#      x y z
#    x 1.716980 0.000000 0.000000 
#    y 0.000000 1.734690 0.000000 
#    z 0.000000 0.000000 1.743040 
# 
# From -- ./inp_files/6700.got.cif
#   From: 2010.03.12/outbox.cif.g09.slc.cpg/sg36_4_cif.got.tgz:6700.got - 2010.04.14 02:13:53.
