data_PCOD8175313
_publ_section_title
;
Structure prediction by ZEFSAII (Michael W. Deem and Ramdas Pophale) SiO2 
 PCOD8175313
Probable space group: C M C 21
;
_chemical_formula_sum "Si O2"
_cell_formula_units_Z 64
_cell_length_a 8.709808
_cell_length_b 15.160152
_cell_length_c 23.530880
_cell_angle_alpha 90.000000
_cell_angle_beta 90.000000
_cell_angle_gamma 90.000000
_cell_volume 3107.064767
_symmetry_space_group_name_H-M "C M C 21"
_symmetry_group_IT_number 36
_symmetry_cell_setting 'orthorhombic'
loop_
_space_group_symop_operation_xyz
x,y,z
-x,-y,1/2+z
x,-y,1/2+z
-x,y,z
1/2+x,1/2+y,z
1/2-x,1/2-y,1/2+z
1/2+x,1/2-y,1/2+z
1/2-x,1/2+y,z
loop_
_atom_site_type_symbol
_atom_site_label
_atom_site_fract_x
_atom_site_fract_y
_atom_site_fract_z
Si Si1 0.680910 0.120465 0.807480
Si Si2 0.324211 0.452986 0.756437
Si Si3 0.180681 0.345848 0.434351
Si Si4 0.823753 0.972853 0.134577
Si Si5 0.181948 0.494253 0.520208
Si Si6 0.321841 0.212388 0.630263
Si Si7 0.179286 0.275962 0.737927
Si Si8 0.821773 0.305608 0.002393
O O1 0.500000 0.136724 0.801505
O O2 0.742285 0.139659 0.870829
O O3 0.771151 0.183279 0.764542
O O4 0.720525 0.020182 0.792042
O O5 0.500000 0.463785 0.775681
O O6 0.304586 0.465338 0.689023
O O7 0.266213 0.354682 0.770522
O O8 0.244669 0.423618 0.474769
O O9 0.230231 0.249643 0.455717
O O10 0.000000 0.351783 0.434337
O O11 0.768379 0.026814 0.079253
O O12 0.714959 0.889148 0.143249
O O13 0.000000 0.942011 0.127227
O O14 0.227342 0.592037 0.498366
O O15 0.000000 0.488103 0.530398
O O16 0.500000 0.228965 0.643438
O O17 0.222484 0.275046 0.671085
O O18 0.281933 0.233053 0.564756
O O19 0.000000 0.290487 0.744938
O O20 0.000000 0.295206 0.988987
#
# Coordination Sequence:
#
# PCOD8175313 Si02
#       8
#     8   8   8   8   8   8   8   8
#     4  11  24  44  65  89 126 166 209 260 311 364
#     4  11  24  41  62  92 126 161 207 257 309 371
#     4  10  23  41  63  90 120 159 206 252 301 364
#     4  10  20  35  59  91 126 158 200 250 304 367
#     4   9  20  39  59  85 122 162 200 243 302 364
#     4  10  20  37  61  89 127 164 200 251 312 368
#     4  12  25  40  62  92 123 164 211 256 312 371
#     4   9  20  37  59  88 122 160 199 245 301 359
#
# _framework density 20.598219
#
# number of rings (size 3 to 8) (size 9 to 14) (size 15 to 20)
#    0.000    1.750    1.250    3.375    1.750    6.500 
#    0.000    1.250    0.000    0.000    0.000    0.000 
#    0.000    0.000    0.000    0.000    0.000    0.000 
#
# Total GULP energy -396928.558186 kJ/mol
# GULP energy per Si atom -12404.017443 kJ/mol
# Density = 2.055134 g / cm^3
# Si number density = 20.598219 Si / 1000 Ang^3
#
#
#
# Elastic Constant Matrix: (Units=GPa)
#
#
# Indices 1 2 3 4 5 6 
#
# 1 55.0604 4.8463 25.9011 0.0000 0.0000 0.0000
# 2 4.8463 56.5626 5.9754 0.0000 0.0000 0.0000
# 3 25.9011 5.9754 74.4936 0.0000 0.0000 0.0000
# 4 0.0000 0.0000 0.0000 27.0109 0.0000 0.0000
# 5 0.0000 0.0000 0.0000 0.0000 28.8126 0.0000
# 6 0.0000 0.0000 0.0000 0.0000 0.0000 31.5053
#
#
#
# Elastic Compliance Matrix: (Units=1/GPa)
#
#
# Indices 1 2 3 4 5 6 
#
# 1 0.021778 -0.001075 -0.007486 0.000000 0.000000 0.000000
# 2 -0.001075 0.017884 -0.001061 0.000000 0.000000 0.000000
# 3 -0.007486 -0.001061 0.016112 0.000000 0.000000 0.000000
# 4 0.000000 0.000000 0.000000 0.037022 0.000000 0.000000
# 5 0.000000 0.000000 0.000000 0.000000 0.034707 0.000000
# 6 0.000000 0.000000 0.000000 0.000000 0.000000 0.031741
#
#
# Mechanical properties :
#
#
# Convention : Reuss Voigt Hill
#
# Bulk Modulus (GPa) = 27.37463 28.84022 28.10742
# Shear Modulus (GPa) = 26.22422 27.42533 26.82477
#
# Velocity S-wave (km/s) = 3.57197 3.65285 3.61264
# Velocity P-wave (km/s) = 5.50732 5.64117 5.57465
#
# Compressibility (1/GPa) = 0.03653018
#
# Stress axis : x y z
#
# Youngs Moduli (GPa) = 45.91800 55.91680 62.06612
#
# Poissons Ratio (x) = 0.06012 0.46462
# Poissons Ratio (y) = 0.04937 0.06583
# Poissons Ratio (z) = 0.34374 0.05931
#
# Static dielectric constant tensor:
#      x y z
#    x 3.632430 0.000000 0.000000 
#    y 0.000000 3.637280 0.000000 
#    z 0.000000 0.000000 3.891990 
# 
# 
# High freq. dielectric constant tensor:
#      x y z
#    x 1.802270 0.000000 0.000000 
#    y 0.000000 1.806670 0.000000 
#    z 0.000000 0.000000 1.801730 
# 
# From -- ./inp_files/16565.got.cif
#   From: 2010.03.12/outbox.cif.g09.slc.cpg/sg36_9_cif.got.tgz:16565.got - 2010.04.14 02:13:53.
