data_PCOD8175799
_publ_section_title
;
Structure prediction by ZEFSAII (Michael W. Deem and Ramdas Pophale) SiO2 
 PCOD8175799
Probable space group: C M C 21
;
_chemical_formula_sum "Si O2"
_cell_formula_units_Z 40
_cell_length_a 11.291905
_cell_length_b 34.601856
_cell_length_c 4.983071
_cell_angle_alpha 90.000000
_cell_angle_beta 90.000000
_cell_angle_gamma 90.000000
_cell_volume 1946.989840
_symmetry_space_group_name_H-M "C M C 21"
_symmetry_group_IT_number 36
_symmetry_cell_setting 'orthorhombic'
loop_
_space_group_symop_operation_xyz
x,y,z
-x,-y,1/2+z
x,-y,1/2+z
-x,y,z
1/2+x,1/2+y,z
1/2-x,1/2-y,1/2+z
1/2+x,1/2-y,1/2+z
1/2-x,1/2+y,z
loop_
_atom_site_type_symbol
_atom_site_label
_atom_site_fract_x
_atom_site_fract_y
_atom_site_fract_z
Si Si1 0.500000 0.815694 0.884361
Si Si2 0.138213 0.146503 0.492405
Si Si3 0.500000 0.132789 0.886654
Si Si4 0.255385 0.393970 0.492509
Si Si5 0.263393 0.774961 0.039045
Si Si6 0.363287 0.474921 0.515561
O O1 0.500000 0.830079 0.578911
O O2 0.387182 0.789328 0.927288
O O3 0.500000 0.852526 0.081207
O O4 0.213691 0.135395 0.231176
O O5 0.170843 0.190066 0.575302
O O6 0.000000 0.143319 0.425515
O O7 0.169163 0.117438 0.732054
O O8 0.384178 0.107022 0.933956
O O9 0.285539 0.437436 0.577537
O O10 0.213529 0.743783 0.829086
O O11 0.332119 0.491284 0.223996
O O12 0.500000 0.462682 0.542672
#
# Coordination Sequence:
#
# PCOD8175799 Si02
#       6
#     4   8   4   8   8   8
#     4  12  24  46  64  87 130 172 222 258 316 387
#     4  12  25  42  64  94 125 161 213 266 320 370
#     4  12  22  44  66  93 124 176 220 256 300 385
#     4  12  23  43  66  95 126 169 212 259 309 380
#     4  12  26  42  62  91 122 165 209 267 319 371
#     4  10  21  38  62  93 127 163 203 255 319 376
#
# _framework density 20.544533999999999
#
# number of rings (size 3 to 8) (size 9 to 14) (size 15 to 20)
#    0.000    0.400    4.000    5.400    2.800    1.600 
#    0.000    1.000    0.000    0.000    0.000    0.000 
#    0.000    0.000    0.000    0.000    0.000    0.000 
#
# Total GULP energy -248186.474524 kJ/mol
# GULP energy per Si atom -12409.323726 kJ/mol
# Density = 2.049777 g / cm^3
# Si number density = 20.544534 Si / 1000 Ang^3
#
#
#
# Elastic Constant Matrix: (Units=GPa)
#
#
# Indices 1 2 3 4 5 6 
#
# 1 85.3581 37.0068 1.5804 0.0000 0.0000 0.0000
# 2 37.0068 96.2210 6.2056 0.0000 0.0000 0.0000
# 3 1.5804 6.2056 77.9872 0.0000 0.0000 0.0000
# 4 0.0000 0.0000 0.0000 26.8050 0.0000 0.0000
# 5 0.0000 0.0000 0.0000 0.0000 24.5949 0.0000
# 6 0.0000 0.0000 0.0000 0.0000 0.0000 39.5090
#
#
#
# Elastic Compliance Matrix: (Units=1/GPa)
#
#
# Indices 1 2 3 4 5 6 
#
# 1 0.014061 -0.005417 0.000146 0.000000 0.000000 0.000000
# 2 -0.005417 0.012534 -0.000888 0.000000 0.000000 0.000000
# 3 0.000146 -0.000888 0.012890 0.000000 0.000000 0.000000
# 4 0.000000 0.000000 0.000000 0.037307 0.000000 0.000000
# 5 0.000000 0.000000 0.000000 0.000000 0.040659 0.000000
# 6 0.000000 0.000000 0.000000 0.000000 0.000000 0.025311
#
#
# Mechanical properties :
#
#
# Convention : Reuss Voigt Hill
#
# Bulk Modulus (GPa) = 36.80872 38.79464 37.80168
# Shear Modulus (GPa) = 30.46278 32.50001 31.48140
#
# Velocity S-wave (km/s) = 3.85485 3.98166 3.91877
# Velocity P-wave (km/s) = 6.14562 6.32948 6.23823
#
# Compressibility (1/GPa) = 0.02716747
#
# Stress axis : x y z
#
# Youngs Moduli (GPa) = 71.11689 79.78591 77.57785
#
# Poissons Ratio (x) = 0.43224 -0.01134
# Poissons Ratio (y) = 0.38527 0.06885
# Poissons Ratio (z) = -0.01039 0.07081
#
# Static dielectric constant tensor:
#      x y z
#    x 3.709920 0.000000 0.000000 
#    y 0.000000 3.551420 0.000000 
#    z 0.000000 0.000000 3.940250 
# 
# 
# High freq. dielectric constant tensor:
#      x y z
#    x 1.803550 0.000000 0.000000 
#    y 0.000000 1.799660 0.000000 
#    z 0.000000 0.000000 1.821870 
# 
# From -- ./inp_files/578.got.cif
#   From: 2010.03.12/outbox.cif.g09.slc.cpg/sg36_1_cif.got.tgz:578.got - 2010.04.14 02:13:53.
