data_PCOD8175511
_publ_section_title
;
Structure prediction by ZEFSAII (Michael W. Deem and Ramdas Pophale) SiO2 
 PCOD8175511
Probable space group: C M C 21
;
_chemical_formula_sum "Si O2"
_cell_formula_units_Z 40
_cell_length_a 24.843406
_cell_length_b 15.445761
_cell_length_c 4.959400
_cell_angle_alpha 90.000000
_cell_angle_beta 90.000000
_cell_angle_gamma 90.000000
_cell_volume 1903.047310
_symmetry_space_group_name_H-M "C M C 21"
_symmetry_group_IT_number 36
_symmetry_cell_setting 'orthorhombic'
loop_
_space_group_symop_operation_xyz
x,y,z
-x,-y,1/2+z
x,-y,1/2+z
-x,y,z
1/2+x,1/2+y,z
1/2-x,1/2-y,1/2+z
1/2+x,1/2-y,1/2+z
1/2-x,1/2+y,z
loop_
_atom_site_type_symbol
_atom_site_label
_atom_site_fract_x
_atom_site_fract_y
_atom_site_fract_z
Si Si1 0.563937 0.948527 0.139330
Si Si2 0.936308 0.743005 0.790781
Si Si3 0.272845 0.791427 0.041734
Si Si4 0.798832 0.058281 0.618652
Si Si5 0.374617 0.292045 0.312424
O O1 0.500000 0.950113 0.149210
O O2 0.586924 0.015413 0.360099
O O3 0.583035 0.850882 0.186426
O O4 0.914013 0.753084 0.089901
O O5 0.000000 0.754921 0.801403
O O6 0.910738 0.811651 0.578751
O O7 0.227938 0.766374 0.814654
O O8 0.257779 0.889002 0.136151
O O9 0.330058 0.779499 0.897594
O O10 0.848036 0.121022 0.697821
O O11 0.801879 0.976214 0.814605
#
# Coordination Sequence:
#
# PCOD8175511 Si02
#       5
#     8   8   8   8   8
#     4   9  17  31  50  73 104 144 192 242 287 330
#     4  11  22  37  59  86 120 167 214 250 291 356
#     4  10  20  38  61  87 117 151 191 243 309 375
#     4  11  22  39  64  91 119 152 196 250 310 374
#     4  11  22  39  62  87 120 160 202 249 304 367
#
# _framework density 21.018920000000001
#
# number of rings (size 3 to 8) (size 9 to 14) (size 15 to 20)
#    0.000    1.600    0.000    7.800    0.000    3.200 
#    0.000    6.000    0.000   12.000    0.000    0.000 
#    0.000    0.000    0.000    0.000    0.000    0.000 
#
# Total GULP energy -247915.267264 kJ/mol
# GULP energy per Si atom -12395.763363 kJ/mol
# Density = 2.097108 g / cm^3
# Si number density = 21.018920 Si / 1000 Ang^3
#
#
#
# Elastic Constant Matrix: (Units=GPa)
#
#
# Indices 1 2 3 4 5 6 
#
# 1 89.1203 31.7109 18.4508 0.0000 0.0000 0.0000
# 2 31.7109 75.7249 11.3042 0.0000 0.0000 0.0000
# 3 18.4508 11.3042 94.3379 0.0000 0.0000 0.0000
# 4 0.0000 0.0000 0.0000 42.5290 0.0000 0.0000
# 5 0.0000 0.0000 0.0000 0.0000 42.4759 0.0000
# 6 0.0000 0.0000 0.0000 0.0000 0.0000 21.3508
#
#
#
# Elastic Compliance Matrix: (Units=1/GPa)
#
#
# Indices 1 2 3 4 5 6 
#
# 1 0.013548 -0.005374 -0.002006 0.000000 0.000000 0.000000
# 2 -0.005374 0.015578 -0.000816 0.000000 0.000000 0.000000
# 3 -0.002006 -0.000816 0.011090 0.000000 0.000000 0.000000
# 4 0.000000 0.000000 0.000000 0.023513 0.000000 0.000000
# 5 0.000000 0.000000 0.000000 0.000000 0.023543 0.000000
# 6 0.000000 0.000000 0.000000 0.000000 0.000000 0.046837
#
#
# Mechanical properties :
#
#
# Convention : Reuss Voigt Hill
#
# Bulk Modulus (GPa) = 41.97202 42.45722 42.21462
# Shear Modulus (GPa) = 31.55725 34.45227 33.00476
#
# Velocity S-wave (km/s) = 3.87896 4.05298 3.96693
# Velocity P-wave (km/s) = 6.33039 6.49196 6.41168
#
# Compressibility (1/GPa) = 0.02382540
#
# Stress axis : x y z
#
# Youngs Moduli (GPa) = 73.81005 64.19340 90.16951
#
# Poissons Ratio (x) = 0.34498 0.18087
# Poissons Ratio (y) = 0.39666 0.07354
# Poissons Ratio (z) = 0.14805 0.05235
#
# Static dielectric constant tensor:
#      x y z
#    x 3.590250 0.000000 0.000000 
#    y 0.000000 3.657920 0.000000 
#    z 0.000000 0.000000 4.180090 
# 
# 
# High freq. dielectric constant tensor:
#      x y z
#    x 1.803900 0.000000 0.000000 
#    y 0.000000 1.802050 0.000000 
#    z 0.000000 0.000000 1.854250 
# 
# From -- ./inp_files/1704.got.cif
#   From: 2010.03.12/outbox.cif.g09.slc.cpg/sg36_1_cif.got.tgz:1704.got - 2010.04.14 02:13:53.
