data_PCOD8175378
_publ_section_title
;
Structure prediction by ZEFSAII (Michael W. Deem and Ramdas Pophale) SiO2 
 PCOD8175378
Probable space group: C M C 21
;
_chemical_formula_sum "Si O2"
_cell_formula_units_Z 40
_cell_length_a 14.781890
_cell_length_b 11.743138
_cell_length_c 12.206943
_cell_angle_alpha 90.000000
_cell_angle_beta 90.000000
_cell_angle_gamma 90.000000
_cell_volume 2118.951651
_symmetry_space_group_name_H-M "C M C 21"
_symmetry_group_IT_number 36
_symmetry_cell_setting 'orthorhombic'
loop_
_space_group_symop_operation_xyz
x,y,z
-x,-y,1/2+z
x,-y,1/2+z
-x,y,z
1/2+x,1/2+y,z
1/2-x,1/2-y,1/2+z
1/2+x,1/2-y,1/2+z
1/2-x,1/2+y,z
loop_
_atom_site_type_symbol
_atom_site_label
_atom_site_fract_x
_atom_site_fract_y
_atom_site_fract_z
Si Si1 0.746920 0.472116 0.250000
Si Si2 0.193478 0.320787 0.070451
Si Si3 0.104371 0.160592 0.233830
Si Si4 0.396961 0.042741 0.102838
Si Si5 0.681366 0.809805 0.419979
O O1 0.735097 0.369961 0.160911
O O2 0.655788 0.543847 0.260374
O O3 0.831212 0.551941 0.209335
O O4 0.767160 0.418189 0.368406
O O5 0.140847 0.212396 0.120227
O O6 0.122110 0.421466 0.041770
O O7 0.245499 0.282545 0.961328
O O8 0.116486 0.252383 0.330688
O O9 0.000000 0.129654 0.221383
O O10 0.500000 0.047618 0.143376
O O11 0.378372 0.147285 0.021422
#
# Coordination Sequence:
#
# PCOD8175378 Si02
#       5
#     8   8   8   8   8
#     4   9  22  37  58  82 122 148 193 240 296 341
#     4   9  19  37  59  81 114 155 191 241 289 344
#     4  11  21  37  60  86 117 159 197 237 290 354
#     4  10  20  36  59  88 113 147 196 242 289 348
#     4  11  20  37  62  85 116 155 193 242 298 343
#
# _framework density 18.877258999999999
#
# number of rings (size 3 to 8) (size 9 to 14) (size 15 to 20)
#    1.200    0.800    2.000    2.400    0.000    0.800 
#    0.000    6.000    0.000    0.000    0.000    0.000 
#    0.000    0.000    0.000    0.000    0.000    0.000 
#
# Total GULP energy -247932.174783 kJ/mol
# GULP energy per Si atom -12396.608739 kJ/mol
# Density = 1.883429 g / cm^3
# Si number density = 18.877259 Si / 1000 Ang^3
#
#
#
# Elastic Constant Matrix: (Units=GPa)
#
#
# Indices 1 2 3 4 5 6 
#
# 1 106.0748 37.6979 11.0573 0.0000 0.0000 0.0000
# 2 37.6979 62.6717 3.6608 0.0000 0.0000 0.0000
# 3 11.0573 3.6608 45.1954 0.0000 0.0000 0.0000
# 4 0.0000 0.0000 0.0000 37.1582 0.0000 0.0000
# 5 0.0000 0.0000 0.0000 0.0000 16.1342 0.0000
# 6 0.0000 0.0000 0.0000 0.0000 0.0000 24.4270
#
#
#
# Elastic Compliance Matrix: (Units=1/GPa)
#
#
# Indices 1 2 3 4 5 6 
#
# 1 0.012247 -0.007226 -0.002411 0.000000 0.000000 0.000000
# 2 -0.007226 0.020295 0.000124 0.000000 0.000000 0.000000
# 3 -0.002411 0.000124 0.022706 0.000000 0.000000 0.000000
# 4 0.000000 0.000000 0.000000 0.026912 0.000000 0.000000
# 5 0.000000 0.000000 0.000000 0.000000 0.061980 0.000000
# 6 0.000000 0.000000 0.000000 0.000000 0.000000 0.040938
#
#
# Mechanical properties :
#
#
# Convention : Reuss Voigt Hill
#
# Bulk Modulus (GPa) = 27.60719 35.41932 31.51325
# Shear Modulus (GPa) = 23.12913 26.31228 24.72070
#
# Velocity S-wave (km/s) = 3.50414 3.73750 3.62270
# Velocity P-wave (km/s) = 5.57030 6.11791 5.85052
#
# Compressibility (1/GPa) = 0.03622245
#
# Stress axis : x y z
#
# Youngs Moduli (GPa) = 81.65567 49.27265 44.04127
#
# Poissons Ratio (x) = 0.35603 0.10618
# Poissons Ratio (y) = 0.59001 -0.00546
# Poissons Ratio (z) = 0.19687 -0.00611
#
# Static dielectric constant tensor:
#      x y z
#    x 3.122030 0.000000 0.000000 
#    y 0.000000 3.375830 0.000000 
#    z 0.000000 0.000000 3.255510 
# 
# 
# High freq. dielectric constant tensor:
#      x y z
#    x 1.708750 0.000000 0.000000 
#    y 0.000000 1.733440 0.000000 
#    z 0.000000 0.000000 1.722490 
# 
# From -- ./inp_files/8248.got.cif
#   From: 2010.03.12/outbox.cif.g09.slc.cpg/sg36_5_cif.got.tgz:8248.got - 2010.04.14 02:13:53.
