data_PCOD8175263
_publ_section_title
;
Structure prediction by ZEFSAII (Michael W. Deem and Ramdas Pophale) SiO2 
 PCOD8175263
Probable space group: C M C 21
;
_chemical_formula_sum "Si O2"
_cell_formula_units_Z 64
_cell_length_a 8.895769
_cell_length_b 22.474973
_cell_length_c 16.285973
_cell_angle_alpha 90.000000
_cell_angle_beta 90.000000
_cell_angle_gamma 90.000000
_cell_volume 3256.089891
_symmetry_space_group_name_H-M "C M C 21"
_symmetry_group_IT_number 36
_symmetry_cell_setting 'orthorhombic'
loop_
_space_group_symop_operation_xyz
x,y,z
-x,-y,1/2+z
x,-y,1/2+z
-x,y,z
1/2+x,1/2+y,z
1/2-x,1/2-y,1/2+z
1/2+x,1/2-y,1/2+z
1/2-x,1/2+y,z
loop_
_atom_site_type_symbol
_atom_site_label
_atom_site_fract_x
_atom_site_fract_y
_atom_site_fract_z
Si Si1 0.166238 0.900403 0.793670
Si Si2 0.671018 0.964976 0.927270
Si Si3 0.327646 0.409477 0.079085
Si Si4 0.177347 0.786081 0.448664
Si Si5 0.334708 0.535816 0.123597
Si Si6 0.677853 0.786197 0.109402
Si Si7 0.671268 0.908152 0.479865
Si Si8 0.323316 0.735907 0.284010
O O1 0.293915 0.936881 0.839897
O O2 0.158140 0.927687 0.705103
O O3 0.218720 0.832879 0.787013
O O4 0.000000 0.904612 0.834824
O O5 0.500000 0.951568 0.953618
O O6 0.697512 0.035970 0.918891
O O7 0.783212 0.932662 0.989369
O O8 0.500000 0.388060 0.078645
O O9 0.299475 0.465702 0.139937
O O10 0.225871 0.354629 0.106086
O O11 0.239381 0.749565 0.528705
O O12 0.217214 0.855176 0.458020
O O13 0.246814 0.765408 0.362829
O O14 0.000000 0.778541 0.442779
O O15 0.500000 0.539386 0.080069
O O16 0.206104 0.566067 0.069645
O O17 0.500000 0.781477 0.108597
O O18 0.738984 0.760153 0.196198
O O19 0.500000 0.885049 0.476888
O O20 0.500000 0.748126 0.290301
#
# Coordination Sequence:
#
# PCOD8175263 Si02
#       8
#     8   8   8   8   8   8   8   8
#     4  10  20  36  58  82 110 144 183 229 281 333
#     4  10  21  36  55  81 112 145 182 227 280 336
#     4  10  20  35  57  84 112 145 187 230 275 331
#     4  11  23  39  60  84 113 152 194 238 287 337
#     4   9  19  36  57  82 112 144 180 227 281 335
#     4  10  22  40  60  82 115 156 191 232 288 342
#     4  10  21  37  57  82 111 145 186 229 278 337
#     4  10  22  39  58  83 115 151 191 234 284 343
#
# _framework density 19.655476
#
# number of rings (size 3 to 8) (size 9 to 14) (size 15 to 20)
#    0.000    2.000    0.000    3.000    0.000    9.500 
#    0.000    3.750    0.000    0.000    0.000    0.000 
#    0.000    0.000    0.000    0.000    0.000    0.000 
#
# Total GULP energy -396691.284953 kJ/mol
# GULP energy per Si atom -12396.602655 kJ/mol
# Density = 1.961074 g / cm^3
# Si number density = 19.655476 Si / 1000 Ang^3
#
#
#
# Elastic Constant Matrix: (Units=GPa)
#
#
# Indices 1 2 3 4 5 6 
#
# 1 29.1593 26.2040 22.6086 0.0000 0.0000 0.0000
# 2 26.2040 133.6246 48.5029 0.0000 0.0000 0.0000
# 3 22.6086 48.5029 92.1554 0.0000 0.0000 0.0000
# 4 0.0000 0.0000 0.0000 27.5382 0.0000 0.0000
# 5 0.0000 0.0000 0.0000 0.0000 28.4843 0.0000
# 6 0.0000 0.0000 0.0000 0.0000 0.0000 41.5378
#
#
#
# Elastic Compliance Matrix: (Units=1/GPa)
#
#
# Indices 1 2 3 4 5 6 
#
# 1 0.046041 -0.006093 -0.008089 0.000000 0.000000 0.000000
# 2 -0.006093 0.010057 -0.003799 0.000000 0.000000 0.000000
# 3 -0.008089 -0.003799 0.014835 0.000000 0.000000 0.000000
# 4 0.000000 0.000000 0.000000 0.036313 0.000000 0.000000
# 5 0.000000 0.000000 0.000000 0.000000 0.035107 0.000000
# 6 0.000000 0.000000 0.000000 0.000000 0.000000 0.024074
#
#
# Mechanical properties :
#
#
# Convention : Reuss Voigt Hill
#
# Bulk Modulus (GPa) = 28.59320 49.95229 39.27275
# Shear Modulus (GPa) = 23.35953 30.02031 26.68992
#
# Velocity S-wave (km/s) = 3.45113 3.91234 3.68895
# Velocity P-wave (km/s) = 5.51898 6.77330 6.17806
#
# Compressibility (1/GPa) = 0.03497334
#
# Stress axis : x y z
#
# Youngs Moduli (GPa) = 21.71975 99.43084 67.40871
#
# Poissons Ratio (x) = 0.60581 0.54524
# Poissons Ratio (y) = 0.13233 0.25606
# Poissons Ratio (z) = 0.17568 0.37769
#
# Static dielectric constant tensor:
#      x y z
#    x 3.759910 0.000000 0.000000 
#    y 0.000000 3.587930 0.000000 
#    z 0.000000 0.000000 3.558290 
# 
# 
# High freq. dielectric constant tensor:
#      x y z
#    x 1.763720 0.000000 0.000000 
#    y 0.000000 1.780700 0.000000 
#    z 0.000000 0.000000 1.756610 
# 
# From -- ./inp_files/13794.got.cif
#   From: 2010.03.12/outbox.cif.g09.slc.cpg/sg36_7_cif.got.tgz:13794.got - 2010.04.14 02:13:53.
