data_PCOD8175947
_publ_section_title
;
Structure prediction by ZEFSAII (Michael W. Deem and Ramdas Pophale) SiO2 
 PCOD8175947
Probable space group: C M C 21
;
_chemical_formula_sum "Si O2"
_cell_formula_units_Z 56
_cell_length_a 14.977798
_cell_length_b 19.341784
_cell_length_c 10.033232
_cell_angle_alpha 90.000000
_cell_angle_beta 90.000000
_cell_angle_gamma 90.000000
_cell_volume 2906.600559
_symmetry_space_group_name_H-M "C M C 21"
_symmetry_group_IT_number 36
_symmetry_cell_setting 'orthorhombic'
loop_
_space_group_symop_operation_xyz
x,y,z
-x,-y,1/2+z
x,-y,1/2+z
-x,y,z
1/2+x,1/2+y,z
1/2-x,1/2-y,1/2+z
1/2+x,1/2-y,1/2+z
1/2-x,1/2+y,z
loop_
_atom_site_type_symbol
_atom_site_label
_atom_site_fract_x
_atom_site_fract_y
_atom_site_fract_z
Si Si1 0.141847 0.816482 0.413590
Si Si2 0.600591 0.048775 0.904402
Si Si3 0.000000 0.067287 0.605761
Si Si4 0.000000 0.932720 0.416295
Si Si5 0.848792 0.696616 0.913310
Si Si6 0.399409 0.048781 0.617647
Si Si7 0.641847 0.316475 0.108481
Si Si8 0.348791 0.803378 0.108762
O O1 0.088044 0.886569 0.447699
O O2 0.246660 0.826112 0.438923
O O3 0.121436 0.794554 0.261037
O O4 0.111831 0.755207 0.512174
O O5 0.500000 0.021208 0.888973
O O6 0.596124 0.128233 0.948747
O O7 0.650452 0.042578 0.761024
O O8 0.651520 0.999994 0.011020
O O9 0.088045 0.113438 0.574362
O O10 0.000000 0.043901 0.761026
O O11 0.000000 0.000005 0.511023
O O12 0.863059 0.721392 0.761038
O O13 0.888169 0.755196 0.009908
O O14 0.500000 0.021211 0.633066
O O15 0.403876 0.128241 0.573316
O O16 0.746659 0.326105 0.083146
#
# Coordination Sequence:
#
# PCOD8175947 Si02
#       8
#     8   8   4   4   8   8   8   8
#     4   9  19  35  52  74 102 131 167 211 256 301
#     4   9  18  31  46  69  99 128 159 197 241 290
#     4  10  22  38  54  76 107 140 175 216 261 310
#     4  10  22  38  54  76 107 140 175 216 261 310
#     4   9  18  33  53  75 100 131 169 211 253 300
#     4   9  18  31  46  69  99 128 159 197 241 290
#     4   9  19  35  52  74 102 131 167 211 256 301
#     4   9  18  33  53  75 100 131 169 211 253 300
#
# _framework density 19.266494000000002
#
# number of rings (size 3 to 8) (size 9 to 14) (size 15 to 20)
#    0.000    2.857    0.000    0.000    2.000    3.429 
#    0.000    0.000    0.000    0.000    0.000    0.000 
#    0.000    0.000    0.000    0.000    0.000    0.000 
#
# Total GULP energy -346964.826424 kJ/mol
# GULP energy per Si atom -12391.600944 kJ/mol
# Density = 1.922264 g / cm^3
# Si number density = 19.266494 Si / 1000 Ang^3
#
#
#
# Elastic Constant Matrix: (Units=GPa)
#
#
# Indices 1 2 3 4 5 6 
#
# 1 46.3493 27.0130 24.9242 0.0000 0.0000 0.0000
# 2 27.0130 145.7315 113.0686 0.0000 0.0000 0.0000
# 3 24.9242 113.0686 136.2221 0.0000 0.0000 0.0000
# 4 0.0000 0.0000 0.0000 48.3295 0.0000 0.0000
# 5 0.0000 0.0000 0.0000 0.0000 12.4166 0.0000
# 6 0.0000 0.0000 0.0000 0.0000 0.0000 19.0934
#
#
#
# Elastic Compliance Matrix: (Units=1/GPa)
#
#
# Indices 1 2 3 4 5 6 
#
# 1 0.024380 -0.002972 -0.001994 0.000000 0.000000 0.000000
# 2 -0.002972 0.019637 -0.015756 0.000000 0.000000 0.000000
# 3 -0.001994 -0.015756 0.020783 0.000000 0.000000 0.000000
# 4 0.000000 0.000000 0.000000 0.020691 0.000000 0.000000
# 5 0.000000 0.000000 0.000000 0.000000 0.080538 0.000000
# 6 0.000000 0.000000 0.000000 0.000000 0.000000 0.052374
#
#
# Mechanical properties :
#
#
# Convention : Reuss Voigt Hill
#
# Bulk Modulus (GPa) = 42.81338 73.14604 57.97971
# Shear Modulus (GPa) = 18.68237 26.85437 22.76837
#
# Velocity S-wave (km/s) = 3.11735 3.73746 3.44140
# Velocity P-wave (km/s) = 5.93524 7.52813 6.77863
#
# Compressibility (1/GPa) = 0.02335719
#
# Stress axis : x y z
#
# Youngs Moduli (GPa) = 41.01784 50.92376 48.11529
#
# Poissons Ratio (x) = 0.15136 0.09592
# Poissons Ratio (y) = 0.12192 0.75809
# Poissons Ratio (z) = 0.08177 0.80234
#
# Static dielectric constant tensor:
#      x y z
#    x 3.393440 0.000000 0.000000 
#    y 0.000000 3.396050 0.000000 
#    z 0.000000 0.000000 3.966580 
# 
# 
# High freq. dielectric constant tensor:
#      x y z
#    x 1.735300 0.000000 0.000000 
#    y 0.000000 1.738120 0.000000 
#    z 0.000000 0.000000 1.755020 
# 
# From -- ./inp_files/4906.got.cif
#   From: 2010.03.12/outbox.cif.g09.slc.cpg/sg36_3_cif.got.tgz:4906.got - 2010.04.14 02:13:53.
