data_PCOD8175908
_publ_section_title
;
Structure prediction by ZEFSAII (Michael W. Deem and Ramdas Pophale) SiO2 
 PCOD8175908
Probable space group: C M C 21
;
_chemical_formula_sum "Si O2"
_cell_formula_units_Z 48
_cell_length_a 8.368909
_cell_length_b 23.777729
_cell_length_c 11.896714
_cell_angle_alpha 90.000000
_cell_angle_beta 90.000000
_cell_angle_gamma 90.000000
_cell_volume 2367.370545
_symmetry_space_group_name_H-M "C M C 21"
_symmetry_group_IT_number 36
_symmetry_cell_setting 'orthorhombic'
loop_
_space_group_symop_operation_xyz
x,y,z
-x,-y,1/2+z
x,-y,1/2+z
-x,y,z
1/2+x,1/2+y,z
1/2-x,1/2-y,1/2+z
1/2+x,1/2-y,1/2+z
1/2-x,1/2+y,z
loop_
_atom_site_type_symbol
_atom_site_label
_atom_site_fract_x
_atom_site_fract_y
_atom_site_fract_z
Si Si1 0.816406 0.465871 0.545660
Si Si2 0.685944 0.831218 0.915462
Si Si3 0.184755 0.084860 0.591787
Si Si4 0.313453 0.603300 0.845634
Si Si5 0.813077 0.865538 0.679046
Si Si6 0.313844 0.289398 0.481466
O O1 0.707008 0.520459 0.557888
O O2 0.784440 0.438864 0.424266
O O3 0.775590 0.422983 0.646134
O O4 0.000000 0.483860 0.554774
O O5 0.500000 0.826319 0.883748
O O6 0.782702 0.851668 0.807582
O O7 0.761988 0.771297 0.953603
O O8 0.707710 0.875626 0.014456
O O9 0.243843 0.094386 0.718901
O O10 0.000000 0.101629 0.577896
O O11 0.500000 0.589739 0.861410
O O12 0.275708 0.667591 0.880195
O O13 0.747491 0.815175 0.598779
O O14 0.000000 0.874993 0.656300
O O15 0.500000 0.279164 0.495960
#
# Coordination Sequence:
#
# PCOD8175908 Si02
#       6
#     8   8   8   8   8   8
#     4  11  23  40  63  90 121 155 198 253 305 352
#     4  11  23  38  60  92 126 156 198 253 301 346
#     4  11  24  40  62  89 121 161 203 244 296 362
#     4   9  20  41  65  87 117 159 203 243 295 361
#     4  10  21  41  64  87 120 163 204 241 297 365
#     4   8  18  38  62  87 119 156 196 246 298 354
#
# _framework density 20.275659999999998
#
# number of rings (size 3 to 8) (size 9 to 14) (size 15 to 20)
#    0.000    2.000    0.000    4.000    4.667    1.333 
#    0.000    7.500    0.000    0.000    0.000    0.000 
#    0.000    0.000    0.000    0.000    0.000    0.000 
#
# Total GULP energy -297677.227109 kJ/mol
# GULP energy per Si atom -12403.217796 kJ/mol
# Density = 2.022951 g / cm^3
# Si number density = 20.275660 Si / 1000 Ang^3
#
#
#
# Elastic Constant Matrix: (Units=GPa)
#
#
# Indices 1 2 3 4 5 6 
#
# 1 45.9767 3.4321 12.9302 0.0000 0.0000 0.0000
# 2 3.4321 134.2132 53.2246 0.0000 0.0000 0.0000
# 3 12.9302 53.2246 121.5768 0.0000 0.0000 0.0000
# 4 0.0000 0.0000 0.0000 22.5561 0.0000 0.0000
# 5 0.0000 0.0000 0.0000 0.0000 24.4152 0.0000
# 6 0.0000 0.0000 0.0000 0.0000 0.0000 22.8823
#
#
#
# Elastic Compliance Matrix: (Units=1/GPa)
#
#
# Indices 1 2 3 4 5 6 
#
# 1 0.022443 0.000451 -0.002584 0.000000 0.000000 0.000000
# 2 0.000451 0.009025 -0.003999 0.000000 0.000000 0.000000
# 3 -0.002584 -0.003999 0.010251 0.000000 0.000000 0.000000
# 4 0.000000 0.000000 0.000000 0.044334 0.000000 0.000000
# 5 0.000000 0.000000 0.000000 0.000000 0.040958 0.000000
# 6 0.000000 0.000000 0.000000 0.000000 0.000000 0.043702
#
#
# Mechanical properties :
#
#
# Convention : Reuss Voigt Hill
#
# Bulk Modulus (GPa) = 33.95080 48.99340 41.47210
# Shear Modulus (GPa) = 25.93414 29.44940 27.69177
#
# Velocity S-wave (km/s) = 3.58030 3.81524 3.69963
# Velocity P-wave (km/s) = 5.82000 6.60486 6.22481
#
# Compressibility (1/GPa) = 0.02945438
#
# Stress axis : x y z
#
# Youngs Moduli (GPa) = 44.55674 110.80092 97.55299
#
# Poissons Ratio (x) = -0.04997 0.25211
# Poissons Ratio (y) = -0.02009 0.39012
# Poissons Ratio (z) = 0.11515 0.44310
#
# Static dielectric constant tensor:
#      x y z
#    x 3.398480 0.000000 0.000000 
#    y 0.000000 3.809780 0.000000 
#    z 0.000000 0.000000 3.702690 
# 
# 
# High freq. dielectric constant tensor:
#      x y z
#    x 1.777330 0.000000 0.000000 
#    y 0.000000 1.799500 0.000000 
#    z 0.000000 0.000000 1.797610 
# 
# From -- ./inp_files/6734.got.cif
#   From: 2010.03.12/outbox.cif.g09.slc.cpg/sg36_4_cif.got.tgz:6734.got - 2010.04.14 02:13:53.
