data_PCOD8175759
_publ_section_title
;
Structure prediction by ZEFSAII (Michael W. Deem and Ramdas Pophale) SiO2 
 PCOD8175759
Probable space group: C M C 21
;
_chemical_formula_sum "Si O2"
_cell_formula_units_Z 64
_cell_length_a 9.150182
_cell_length_b 19.562710
_cell_length_c 18.664841
_cell_angle_alpha 90.000000
_cell_angle_beta 90.000000
_cell_angle_gamma 90.000000
_cell_volume 3341.050530
_symmetry_space_group_name_H-M "C M C 21"
_symmetry_group_IT_number 36
_symmetry_cell_setting 'orthorhombic'
loop_
_space_group_symop_operation_xyz
x,y,z
-x,-y,1/2+z
x,-y,1/2+z
-x,y,z
1/2+x,1/2+y,z
1/2-x,1/2-y,1/2+z
1/2+x,1/2-y,1/2+z
1/2-x,1/2+y,z
loop_
_atom_site_type_symbol
_atom_site_label
_atom_site_fract_x
_atom_site_fract_y
_atom_site_fract_z
Si Si1 0.827624 0.274696 0.685520
Si Si2 0.173195 0.444015 0.296839
Si Si3 0.673728 0.880058 0.564563
Si Si4 0.669103 0.298548 0.832448
Si Si5 0.668908 0.448127 0.883322
Si Si6 0.172954 0.333778 0.411372
Si Si7 0.831001 0.119226 0.665130
Si Si8 0.669335 0.483608 0.042580
O O1 0.773260 0.327397 0.625090
O O2 0.756270 0.298140 0.758980
O O3 0.779142 0.198083 0.663247
O O4 0.000000 0.278670 0.694592
O O5 0.236189 0.516738 0.321311
O O6 0.229172 0.389336 0.354811
O O7 0.234891 0.423857 0.220128
O O8 0.000000 0.448589 0.291685
O O9 0.500000 0.887441 0.563779
O O10 0.736408 0.851124 0.489437
O O11 0.741234 0.954646 0.578639
O O12 0.500000 0.285804 0.813419
O O13 0.693492 0.367732 0.875694
O O14 0.729860 0.239670 0.884986
O O15 0.500000 0.467806 0.872579
O O16 0.725061 0.470224 0.961851
O O17 0.000000 0.334336 0.415809
O O18 0.000000 0.114241 0.688269
O O19 0.805247 0.085966 0.587267
O O20 0.500000 0.504052 0.043004
#
# Coordination Sequence:
#
# PCOD8175759 Si02
#       8
#     8   8   8   8   8   8   8   8
#     4  10  22  38  58  84 114 148 187 234 283 334
#     4  11  21  37  61  85 111 149 191 234 281 338
#     4  10  21  38  59  83 113 149 189 234 286 337
#     4  10  21  38  60  83 113 149 190 235 280 337
#     4  10  22  38  59  86 115 149 189 238 286 334
#     4   9  18  35  59  83 106 142 188 231 277 331
#     4  10  22  39  58  83 116 152 190 236 285 338
#     4  10  22  39  58  83 114 150 192 232 280 339
#
# _framework density 19.155650999999999
#
# number of rings (size 3 to 8) (size 9 to 14) (size 15 to 20)
#    0.000    2.000    2.500    0.375    3.500    1.500 
#    0.000    0.625    0.000    0.000    0.000    0.000 
#    0.000    0.000    0.000    0.000    0.000    0.000 
#
# Total GULP energy -396890.915128 kJ/mol
# GULP energy per Si atom -12402.841098 kJ/mol
# Density = 1.911205 g / cm^3
# Si number density = 19.155651 Si / 1000 Ang^3
#
#
#
# Elastic Constant Matrix: (Units=GPa)
#
#
# Indices 1 2 3 4 5 6 
#
# 1 36.1439 27.1097 25.0155 0.0000 0.0000 0.0000
# 2 27.1097 92.3104 39.3122 0.0000 0.0000 0.0000
# 3 25.0155 39.3122 89.6690 0.0000 0.0000 0.0000
# 4 0.0000 0.0000 0.0000 39.1213 0.0000 0.0000
# 5 0.0000 0.0000 0.0000 0.0000 27.0970 0.0000
# 6 0.0000 0.0000 0.0000 0.0000 0.0000 26.6092
#
#
#
# Elastic Compliance Matrix: (Units=1/GPa)
#
#
# Indices 1 2 3 4 5 6 
#
# 1 0.038919 -0.008368 -0.007189 0.000000 0.000000 0.000000
# 2 -0.008368 0.015119 -0.004294 0.000000 0.000000 0.000000
# 3 -0.007189 -0.004294 0.015040 0.000000 0.000000 0.000000
# 4 0.000000 0.000000 0.000000 0.025562 0.000000 0.000000
# 5 0.000000 0.000000 0.000000 0.000000 0.036904 0.000000
# 6 0.000000 0.000000 0.000000 0.000000 0.000000 0.037581
#
#
# Mechanical properties :
#
#
# Convention : Reuss Voigt Hill
#
# Bulk Modulus (GPa) = 34.04068 44.55535 39.29801
# Shear Modulus (GPa) = 22.87074 27.01122 24.94098
#
# Velocity S-wave (km/s) = 3.45910 3.75919 3.61226
# Velocity P-wave (km/s) = 5.81059 6.49247 6.16097
#
# Compressibility (1/GPa) = 0.02937661
#
# Stress axis : x y z
#
# Youngs Moduli (GPa) = 25.69422 66.14070 66.48870
#
# Poissons Ratio (x) = 0.55349 0.47797
# Poissons Ratio (y) = 0.21502 0.28550
# Poissons Ratio (z) = 0.18471 0.28400
#
# Static dielectric constant tensor:
#      x y z
#    x 3.283920 0.000000 0.000000 
#    y 0.000000 3.643230 0.000000 
#    z 0.000000 0.000000 3.602380 
# 
# 
# High freq. dielectric constant tensor:
#      x y z
#    x 1.723080 0.000000 0.000000 
#    y 0.000000 1.757820 0.000000 
#    z 0.000000 0.000000 1.751410 
# 
# From -- ./inp_files/13762.got.cif
#   From: 2010.03.12/outbox.cif.g09.slc.cpg/sg36_7_cif.got.tgz:13762.got - 2010.04.14 02:13:53.
