data_PCOD8175715
_publ_section_title
;
Structure prediction by ZEFSAII (Michael W. Deem and Ramdas Pophale) SiO2 
 PCOD8175715
Probable space group: C M C 21
;
_chemical_formula_sum "Si O2"
_cell_formula_units_Z 48
_cell_length_a 9.179763
_cell_length_b 20.034769
_cell_length_c 13.753132
_cell_angle_alpha 90.000000
_cell_angle_beta 90.000000
_cell_angle_gamma 90.000000
_cell_volume 2529.399449
_symmetry_space_group_name_H-M "C M C 21"
_symmetry_group_IT_number 36
_symmetry_cell_setting 'orthorhombic'
loop_
_space_group_symop_operation_xyz
x,y,z
-x,-y,1/2+z
x,-y,1/2+z
-x,y,z
1/2+x,1/2+y,z
1/2-x,1/2-y,1/2+z
1/2+x,1/2-y,1/2+z
1/2-x,1/2+y,z
loop_
_atom_site_type_symbol
_atom_site_label
_atom_site_fract_x
_atom_site_fract_y
_atom_site_fract_z
Si Si1 0.669218 0.328427 0.137210
Si Si2 0.329648 0.189954 0.234934
Si Si3 0.334652 0.061681 0.756030
Si Si4 0.169187 0.859740 0.919349
Si Si5 0.164720 0.438925 0.619956
Si Si6 0.172340 0.987601 0.435170
O O1 0.500000 0.345104 0.155671
O O2 0.716380 0.259374 0.186324
O O3 0.765474 0.386541 0.181823
O O4 0.701311 0.324626 0.022368
O O5 0.500000 0.186052 0.255982
O O6 0.251221 0.182713 0.338041
O O7 0.283074 0.132535 0.159584
O O8 0.500000 0.083300 0.778534
O O9 0.244536 0.060457 0.855602
O O10 0.328365 0.988545 0.710517
O O11 0.000000 0.858152 0.893500
O O12 0.224794 0.936162 0.921809
O O13 0.278102 0.461890 0.539562
O O14 0.000000 0.436117 0.577396
O O15 0.000000 0.981360 0.427827
#
# Coordination Sequence:
#
# PCOD8175715 Si02
#       6
#     8   8   8   8   8   8
#     4  10  22  41  61  86 121 158 197 243 295 354
#     4  10  22  40  62  87 121 158 195 244 297 354
#     4  11  22  37  60  88 119 153 195 247 292 346
#     4  10  21  37  59  86 119 157 197 243 297 354
#     4  10  21  37  58  87 118 153 197 244 294 347
#     4  11  22  36  60  90 120 157 199 247 295 349
#
# _framework density 18.976835999999999
#
# number of rings (size 3 to 8) (size 9 to 14) (size 15 to 20)
#    0.000    1.667    3.333    1.000    0.000    4.667 
#    0.000    1.667    0.000    0.000    0.000    0.000 
#    0.000    0.000    0.000    0.000    0.000    0.000 
#
# Total GULP energy -297716.148551 kJ/mol
# GULP energy per Si atom -12404.839523 kJ/mol
# Density = 1.893364 g / cm^3
# Si number density = 18.976836 Si / 1000 Ang^3
#
#
#
# Elastic Constant Matrix: (Units=GPa)
#
#
# Indices 1 2 3 4 5 6 
#
# 1 74.8154 33.8967 49.7868 0.0000 0.0000 0.0000
# 2 33.8967 84.0923 30.8532 0.0000 0.0000 0.0000
# 3 49.7868 30.8532 109.9175 0.0000 0.0000 0.0000
# 4 0.0000 0.0000 0.0000 34.2566 0.0000 0.0000
# 5 0.0000 0.0000 0.0000 0.0000 40.9585 0.0000
# 6 0.0000 0.0000 0.0000 0.0000 0.0000 23.4613
#
#
#
# Elastic Compliance Matrix: (Units=1/GPa)
#
#
# Indices 1 2 3 4 5 6 
#
# 1 0.021275 -0.005619 -0.008059 0.000000 0.000000 0.000000
# 2 -0.005619 0.014741 -0.001593 0.000000 0.000000 0.000000
# 3 -0.008059 -0.001593 0.013195 0.000000 0.000000 0.000000
# 4 0.000000 0.000000 0.000000 0.029191 0.000000 0.000000
# 5 0.000000 0.000000 0.000000 0.000000 0.024415 0.000000
# 6 0.000000 0.000000 0.000000 0.000000 0.000000 0.042623
#
#
# Mechanical properties :
#
#
# Convention : Reuss Voigt Hill
#
# Bulk Modulus (GPa) = 53.56289 55.32208 54.44249
# Shear Modulus (GPa) = 27.44146 30.02117 28.73131
#
# Velocity S-wave (km/s) = 3.80682 3.98174 3.89526
# Velocity P-wave (km/s) = 6.89994 7.09611 6.99871
#
# Compressibility (1/GPa) = 0.01866964
#
# Stress axis : x y z
#
# Youngs Moduli (GPa) = 47.00322 67.83832 75.78495
#
# Poissons Ratio (x) = 0.38117 0.61078
# Poissons Ratio (y) = 0.26410 0.12070
# Poissons Ratio (z) = 0.37881 0.10804
#
# Static dielectric constant tensor:
#      x y z
#    x 3.448230 0.000000 0.000000 
#    y 0.000000 3.535150 0.000000 
#    z 0.000000 0.000000 3.411340 
# 
# 
# High freq. dielectric constant tensor:
#      x y z
#    x 1.737080 0.000000 0.000000 
#    y 0.000000 1.735180 0.000000 
#    z 0.000000 0.000000 1.745270 
# 
# From -- ./inp_files/6710.got.cif
#   From: 2010.03.12/outbox.cif.g09.slc.cpg/sg36_4_cif.got.tgz:6710.got - 2010.04.14 02:13:53.
