data_PCOD8175719
_publ_section_title
;
Structure prediction by ZEFSAII (Michael W. Deem and Ramdas Pophale) SiO2 
 PCOD8175719
Probable space group: C M C 21
;
_chemical_formula_sum "Si O2"
_cell_formula_units_Z 40
_cell_length_a 10.910230
_cell_length_b 18.559428
_cell_length_c 10.313761
_cell_angle_alpha 90.000000
_cell_angle_beta 90.000000
_cell_angle_gamma 90.000000
_cell_volume 2088.409002
_symmetry_space_group_name_H-M "C M C 21"
_symmetry_group_IT_number 36
_symmetry_cell_setting 'orthorhombic'
loop_
_space_group_symop_operation_xyz
x,y,z
-x,-y,1/2+z
x,-y,1/2+z
-x,y,z
1/2+x,1/2+y,z
1/2-x,1/2-y,1/2+z
1/2+x,1/2-y,1/2+z
1/2-x,1/2+y,z
loop_
_atom_site_type_symbol
_atom_site_label
_atom_site_fract_x
_atom_site_fract_y
_atom_site_fract_z
Si Si1 0.254266 0.018644 0.219450
Si Si2 0.862216 0.352253 0.862380
Si Si3 0.364395 0.551439 0.954214
Si Si4 0.637011 0.123073 0.657866
Si Si5 0.643566 0.691138 0.808073
O O1 0.292160 0.098408 0.259956
O O2 0.150634 0.992593 0.320022
O O3 0.358711 0.956476 0.223199
O O4 0.217948 0.021916 0.069486
O O5 0.817834 0.269707 0.858458
O O6 0.000000 0.354554 0.814054
O O7 0.846869 0.384645 0.004507
O O8 0.500000 0.538741 0.004911
O O9 0.341015 0.636275 0.928138
O O10 0.500000 0.155217 0.690143
O O11 0.752905 0.171445 0.701713
O O12 0.500000 0.687424 0.757135
#
# Coordination Sequence:
#
# PCOD8175719 Si02
#       5
#     8   8   8   8   8
#     4  11  20  38  59  88 116 154 201 244 293 351
#     4  10  21  38  59  85 118 154 194 246 300 347
#     4  10  21  37  59  85 119 157 196 243 296 353
#     4  10  21  39  61  86 118 154 199 246 293 349
#     4   9  21  40  60  84 120 157 193 243 299 350
#
# _framework density 19.153335999999999
#
# number of rings (size 3 to 8) (size 9 to 14) (size 15 to 20)
#    0.000    2.000    2.000    1.200    2.800    0.800 
#    0.000    3.000    0.000    0.000    0.000    0.000 
#    0.000    0.000    0.000    0.000    0.000    0.000 
#
# Total GULP energy -247779.750581 kJ/mol
# GULP energy per Si atom -12388.987529 kJ/mol
# Density = 1.910974 g / cm^3
# Si number density = 19.153336 Si / 1000 Ang^3
#
#
#
# Elastic Constant Matrix: (Units=GPa)
#
#
# Indices 1 2 3 4 5 6 
#
# 1 93.5002 36.5921 32.1562 0.0000 0.0000 0.0000
# 2 36.5921 132.9201 31.9735 0.0000 0.0000 0.0000
# 3 32.1562 31.9735 79.0061 0.0000 0.0000 0.0000
# 4 0.0000 0.0000 0.0000 27.9808 0.0000 0.0000
# 5 0.0000 0.0000 0.0000 0.0000 26.0322 0.0000
# 6 0.0000 0.0000 0.0000 0.0000 0.0000 21.8348
#
#
#
# Elastic Compliance Matrix: (Units=1/GPa)
#
#
# Indices 1 2 3 4 5 6 
#
# 1 0.013196 -0.002593 -0.004322 0.000000 0.000000 0.000000
# 2 -0.002593 0.008844 -0.002524 0.000000 0.000000 0.000000
# 3 -0.004322 -0.002524 0.015437 0.000000 0.000000 0.000000
# 4 0.000000 0.000000 0.000000 0.035739 0.000000 0.000000
# 5 0.000000 0.000000 0.000000 0.000000 0.038414 0.000000
# 6 0.000000 0.000000 0.000000 0.000000 0.000000 0.045799
#
#
# Mechanical properties :
#
#
# Convention : Reuss Voigt Hill
#
# Bulk Modulus (GPa) = 53.76075 56.31892 55.03984
# Shear Modulus (GPa) = 27.39621 28.81652 28.10637
#
# Velocity S-wave (km/s) = 3.78612 3.88302 3.83487
# Velocity P-wave (km/s) = 6.87331 7.04073 6.95752
#
# Compressibility (1/GPa) = 0.01860093
#
# Stress axis : x y z
#
# Youngs Moduli (GPa) = 75.77868 113.06678 64.77735
#
# Poissons Ratio (x) = 0.29322 0.27994
# Poissons Ratio (y) = 0.19652 0.16348
# Poissons Ratio (z) = 0.32748 0.28535
#
# Static dielectric constant tensor:
#      x y z
#    x 3.555810 0.000000 0.000000 
#    y 0.000000 3.693240 0.000000 
#    z 0.000000 0.000000 3.306770 
# 
# 
# High freq. dielectric constant tensor:
#      x y z
#    x 1.740460 0.000000 0.000000 
#    y 0.000000 1.752730 0.000000 
#    z 0.000000 0.000000 1.733620 
# 
# From -- ./inp_files/3049.got.cif
#   From: 2010.03.12/outbox.cif.g09.slc.cpg/sg36_2_cif.got.tgz:3049.got - 2010.04.14 02:13:53.
