data_PCOD8175952
_publ_section_title
;
Structure prediction by ZEFSAII (Michael W. Deem and Ramdas Pophale) SiO2 
 PCOD8175952
Probable space group: C M C 21
;
_chemical_formula_sum "Si O2"
_cell_formula_units_Z 64
_cell_length_a 26.878260
_cell_length_b 13.618852
_cell_length_c 9.885977
_cell_angle_alpha 90.000000
_cell_angle_beta 90.000000
_cell_angle_gamma 90.000000
_cell_volume 3618.772211
_symmetry_space_group_name_H-M "C M C 21"
_symmetry_group_IT_number 36
_symmetry_cell_setting 'orthorhombic'
loop_
_space_group_symop_operation_xyz
x,y,z
-x,-y,1/2+z
x,-y,1/2+z
-x,y,z
1/2+x,1/2+y,z
1/2-x,1/2-y,1/2+z
1/2+x,1/2-y,1/2+z
1/2-x,1/2+y,z
loop_
_atom_site_type_symbol
_atom_site_label
_atom_site_fract_x
_atom_site_fract_y
_atom_site_fract_z
Si Si1 0.227351 0.993949 0.504010
Si Si2 0.350296 0.806343 0.309869
Si Si3 0.943768 0.589106 0.894077
Si Si4 0.443683 0.094779 0.204165
Si Si5 0.793820 0.499565 0.254656
Si Si6 0.792406 0.213431 0.552912
Si Si7 0.850215 0.697209 0.292720
Si Si8 0.818428 0.794318 0.555365
O O1 0.246955 0.980414 0.351848
O O2 0.201110 0.098792 0.520832
O O3 0.273986 0.979414 0.604467
O O4 0.186512 0.910622 0.533129
O O5 0.407505 0.821582 0.353445
O O6 0.317763 0.778835 0.438996
O O7 0.329675 0.906726 0.247004
O O8 0.346902 0.721788 0.197005
O O9 0.931969 0.494883 0.803427
O O10 0.000000 0.626269 0.870174
O O11 0.934999 0.559042 0.050280
O O12 0.500000 0.133189 0.224477
O O13 0.406442 0.184027 0.238612
O O14 0.824352 0.591977 0.307771
O O15 0.818289 0.233097 0.695619
O O16 0.734707 0.240605 0.560865
O O17 0.852264 0.748258 0.438118
#
# Coordination Sequence:
#
# PCOD8175952 Si02
#       8
#     8   8   8   8   8   8   8   8
#     4  12  24  36  52  76 114 152 192 238 262 320
#     4  12  22  36  57  83 115 155 188 224 288 343
#     4  10  22  38  59  87 116 147 187 234 284 344
#     4  10  22  38  59  87 116 147 187 234 284 344
#     4  12  20  32  55  78 114 148 185 226 272 330
#     4  12  22  38  55  79 111 159 193 233 278 335
#     4  12  22  36  57  83 115 155 188 224 288 343
#     4  12  24  36  53  83 111 151 197 231 274 339
#
# _framework density 17.685556999999999
#
# number of rings (size 3 to 8) (size 9 to 14) (size 15 to 20)
#    0.000    0.500    7.500    2.250    1.750    0.000 
#    0.000    0.000    0.000    0.000    0.000    5.250 
#    0.000    0.000    0.000    0.000    0.000    0.000 
#
# Total GULP energy -396989.454880 kJ/mol
# GULP energy per Si atom -12405.920465 kJ/mol
# Density = 1.764530 g / cm^3
# Si number density = 17.685557 Si / 1000 Ang^3
#
#
#
# Elastic Constant Matrix: (Units=GPa)
#
#
# Indices 1 2 3 4 5 6 
#
# 1 93.2128 30.1624 35.5695 0.0000 0.0000 0.0000
# 2 30.1624 76.1403 3.6244 0.0000 0.0000 0.0000
# 3 35.5695 3.6244 83.5314 0.0000 0.0000 0.0000
# 4 0.0000 0.0000 0.0000 30.0576 0.0000 0.0000
# 5 0.0000 0.0000 0.0000 0.0000 26.4408 0.0000
# 6 0.0000 0.0000 0.0000 0.0000 0.0000 23.8598
#
#
#
# Elastic Compliance Matrix: (Units=1/GPa)
#
#
# Indices 1 2 3 4 5 6 
#
# 1 0.014862 -0.005598 -0.006086 0.000000 0.000000 0.000000
# 2 -0.005598 0.015269 0.001721 0.000000 0.000000 0.000000
# 3 -0.006086 0.001721 0.014488 0.000000 0.000000 0.000000
# 4 0.000000 0.000000 0.000000 0.033270 0.000000 0.000000
# 5 0.000000 0.000000 0.000000 0.000000 0.037820 0.000000
# 6 0.000000 0.000000 0.000000 0.000000 0.000000 0.041912
#
#
# Mechanical properties :
#
#
# Convention : Reuss Voigt Hill
#
# Bulk Modulus (GPa) = 40.49428 43.51080 42.00254
# Shear Modulus (GPa) = 26.91407 28.30683 27.61045
#
# Velocity S-wave (km/s) = 3.90527 4.00504 3.95547
# Velocity P-wave (km/s) = 6.57886 6.78550 6.68298
#
# Compressibility (1/GPa) = 0.02469484
#
# Stress axis : x y z
#
# Youngs Moduli (GPa) = 67.28711 65.49133 69.02149
#
# Poissons Ratio (x) = 0.36660 0.42003
# Poissons Ratio (y) = 0.37665 -0.11879
# Poissons Ratio (z) = 0.40948 -0.11272
#
# Static dielectric constant tensor:
#      x y z
#    x 3.242110 0.000000 0.000000 
#    y 0.000000 3.278600 0.000000 
#    z 0.000000 0.000000 3.474180 
# 
# 
# High freq. dielectric constant tensor:
#      x y z
#    x 1.660320 0.000000 0.000000 
#    y 0.000000 1.667850 0.000000 
#    z 0.000000 0.000000 1.707470 
# 
# From -- ./inp_files/5650.got.cif
#   From: 2010.03.12/outbox.cif.g09.slc.cpg/sg36_3_cif.got.tgz:5650.got - 2010.04.14 02:13:53.
