data_PCOD8175030
_publ_section_title
;
Structure prediction by ZEFSAII (Michael W. Deem and Ramdas Pophale) SiO2 
 PCOD8175030
Probable space group: C M C 21
;
_chemical_formula_sum "Si O2"
_cell_formula_units_Z 64
_cell_length_a 9.020956
_cell_length_b 22.872461
_cell_length_c 17.716296
_cell_angle_alpha 90.000000
_cell_angle_beta 90.000000
_cell_angle_gamma 90.000000
_cell_volume 3655.429296
_symmetry_space_group_name_H-M "C M C 21"
_symmetry_group_IT_number 36
_symmetry_cell_setting 'orthorhombic'
loop_
_space_group_symop_operation_xyz
x,y,z
-x,-y,1/2+z
x,-y,1/2+z
-x,y,z
1/2+x,1/2+y,z
1/2-x,1/2-y,1/2+z
1/2+x,1/2-y,1/2+z
1/2-x,1/2+y,z
loop_
_atom_site_type_symbol
_atom_site_label
_atom_site_fract_x
_atom_site_fract_y
_atom_site_fract_z
Si Si1 0.324276 0.383084 0.687130
Si Si2 0.675275 0.121309 0.335068
Si Si3 0.169709 0.441807 0.989959
Si Si4 0.171486 0.322638 0.056811
Si Si5 0.826679 0.940339 0.531266
Si Si6 0.174599 0.779268 0.908284
Si Si7 0.833261 0.724365 0.125698
Si Si8 0.837094 0.338551 0.465686
O O1 0.500000 0.384011 0.698387
O O2 0.240658 0.410090 0.760120
O O3 0.273914 0.421427 0.614894
O O4 0.268611 0.316461 0.677589
O O5 0.500000 0.131211 0.328477
O O6 0.716512 0.081821 0.407373
O O7 0.761104 0.184167 0.337765
O O8 0.268629 0.496274 0.011585
O O9 0.000000 0.462023 0.987831
O O10 0.193755 0.392877 0.055383
O O11 0.264355 0.290117 0.122787
O O12 0.000000 0.305925 0.067025
O O13 0.224467 0.301158 0.976137
O O14 0.774559 0.892816 0.469066
O O15 0.000000 0.942034 0.526688
O O16 0.199702 0.708764 0.899333
O O17 0.000000 0.792506 0.921375
O O18 0.000000 0.727321 0.158615
O O19 0.833696 0.699376 0.041559
O O20 0.000000 0.365598 0.453098
#
# Coordination Sequence:
#
# PCOD8175030 Si02
#       8
#     8   8   8   8   8   8   8   8
#     4  10  20  33  49  72 100 129 161 203 252 302
#     4  10  20  33  50  73  98 128 163 202 250 303
#     4   9  19  33  49  70  98 131 168 207 248 295
#     4   9  16  27  44  68  95 122 153 193 237 283
#     4  10  20  31  48  73  98 128 169 211 248 287
#     4   9  16  27  45  69  94 122 152 188 236 287
#     4   9  16  27  45  69  94 122 153 189 235 286
#     4   8  15  27  44  66  93 122 151 185 232 283
#
# _framework density 17.508203000000002
#
# number of rings (size 3 to 8) (size 9 to 14) (size 15 to 20)
#    0.000    2.750    0.000    3.750    0.000    8.000 
#    0.000    0.000    0.000    1.500    0.000    5.250 
#    0.000    0.000    0.000    0.000    0.000    0.000 
#
# Total GULP energy -396532.348345 kJ/mol
# GULP energy per Si atom -12391.635886 kJ/mol
# Density = 1.746835 g / cm^3
# Si number density = 17.508203 Si / 1000 Ang^3
#
#
#
# Elastic Constant Matrix: (Units=GPa)
#
#
# Indices 1 2 3 4 5 6 
#
# 1 81.9384 53.4100 28.9025 0.0000 0.0000 0.0000
# 2 53.4100 103.3240 35.0875 0.0000 0.0000 0.0000
# 3 28.9025 35.0875 55.6729 0.0000 0.0000 0.0000
# 4 0.0000 0.0000 0.0000 15.4822 0.0000 0.0000
# 5 0.0000 0.0000 0.0000 0.0000 25.4750 0.0000
# 6 0.0000 0.0000 0.0000 0.0000 0.0000 32.8509
#
#
#
# Elastic Compliance Matrix: (Units=1/GPa)
#
#
# Indices 1 2 3 4 5 6 
#
# 1 0.019349 -0.008385 -0.004760 0.000000 0.000000 0.000000
# 2 -0.008385 0.015948 -0.005698 0.000000 0.000000 0.000000
# 3 -0.004760 -0.005698 0.024024 0.000000 0.000000 0.000000
# 4 0.000000 0.000000 0.000000 0.064590 0.000000 0.000000
# 5 0.000000 0.000000 0.000000 0.000000 0.039254 0.000000
# 6 0.000000 0.000000 0.000000 0.000000 0.000000 0.030441
#
#
# Mechanical properties :
#
#
# Convention : Reuss Voigt Hill
#
# Bulk Modulus (GPa) = 46.22243 52.85946 49.54094
# Shear Modulus (GPa) = 20.96394 22.99731 21.98062
#
# Velocity S-wave (km/s) = 3.46407 3.62818 3.54707
# Velocity P-wave (km/s) = 6.51594 6.91436 6.71810
#
# Compressibility (1/GPa) = 0.02163452
#
# Stress axis : x y z
#
# Youngs Moduli (GPa) = 51.68144 62.70475 41.62455
#
# Poissons Ratio (x) = 0.52581 0.19814
# Poissons Ratio (y) = 0.43337 0.23716
# Poissons Ratio (z) = 0.24602 0.35727
#
# Static dielectric constant tensor:
#      x y z
#    x 3.350800 0.000000 0.000000 
#    y 0.000000 3.357610 0.000000 
#    z 0.000000 0.000000 3.156900 
# 
# 
# High freq. dielectric constant tensor:
#      x y z
#    x 1.690930 0.000000 0.000000 
#    y 0.000000 1.663950 0.000000 
#    z 0.000000 0.000000 1.637940 
# 
# From -- ./inp_files/14018.got.cif
#   From: 2010.03.12/outbox.cif.g09.slc.cpg/sg36_8_cif.got.tgz:14018.got - 2010.04.14 02:13:53.
