data_PCOD8175660
_publ_section_title
;
Structure prediction by ZEFSAII (Michael W. Deem and Ramdas Pophale) SiO2 
 PCOD8175660
Probable space group: C M C 21
;
_chemical_formula_sum "Si O2"
_cell_formula_units_Z 64
_cell_length_a 9.155201
_cell_length_b 10.108128
_cell_length_c 35.210002
_cell_angle_alpha 90.000000
_cell_angle_beta 90.000000
_cell_angle_gamma 90.000000
_cell_volume 3258.402018
_symmetry_space_group_name_H-M "C M C 21"
_symmetry_group_IT_number 36
_symmetry_cell_setting 'orthorhombic'
loop_
_space_group_symop_operation_xyz
x,y,z
-x,-y,1/2+z
x,-y,1/2+z
-x,y,z
1/2+x,1/2+y,z
1/2-x,1/2-y,1/2+z
1/2+x,1/2-y,1/2+z
1/2-x,1/2+y,z
loop_
_atom_site_type_symbol
_atom_site_label
_atom_site_fract_x
_atom_site_fract_y
_atom_site_fract_z
Si Si1 0.329566 0.782114 0.453950
Si Si2 0.171302 0.515027 0.080975
Si Si3 0.328156 0.516645 0.160332
Si Si4 0.832244 0.287954 0.200722
Si Si5 0.828134 0.015503 0.413344
Si Si6 0.830171 0.785658 0.039270
Si Si7 0.831679 0.283268 0.288281
Si Si8 0.827324 0.017212 0.327355
O O1 0.500000 0.812783 0.451136
O O2 0.245739 0.911580 0.440971
O O3 0.283676 0.661493 0.426888
O O4 0.283043 0.751104 0.496819
O O5 0.249241 0.492092 0.120759
O O6 0.204239 0.662347 0.066535
O O7 0.233483 0.410177 0.051101
O O8 0.000000 0.489614 0.085770
O O9 0.500000 0.497470 0.154844
O O10 0.271770 0.409155 0.190268
O O11 0.289065 0.661646 0.175556
O O12 0.805863 0.249796 0.244325
O O13 0.000000 0.328929 0.193532
O O14 0.771819 0.996804 0.370349
O O15 0.000000 0.994808 0.416333
O O16 0.000000 0.825440 0.041206
O O17 0.739957 0.410068 0.299604
O O18 0.000000 0.313595 0.297018
O O19 0.775045 0.160238 0.313011
O O20 0.000000 0.005572 0.324524
#
# Coordination Sequence:
#
# PCOD8175660 Si02
#       8
#     8   8   8   8   8   8   8   8
#     4  10  21  38  59  83 113 148 187 232 280 331
#     4  11  23  38  58  85 115 147 185 229 276 330
#     4  11  23  39  60  84 112 148 186 227 277 331
#     4  10  22  39  59  85 114 146 187 232 279 332
#     4  10  21  36  56  83 114 149 188 230 277 330
#     4  10  22  39  59  85 114 146 187 232 279 332
#     4  10  21  38  59  83 113 148 187 232 280 331
#     4  10  21  37  56  82 115 148 187 232 276 329
#
# _framework density 19.641528999999998
#
# number of rings (size 3 to 8) (size 9 to 14) (size 15 to 20)
#    0.000    1.750    0.000    3.750    0.000    8.500 
#    0.000    0.000    0.000    0.000    0.000    0.000 
#    0.000    0.000    0.000    0.000    0.000    0.000 
#
# Total GULP energy -397001.024879 kJ/mol
# GULP energy per Si atom -12406.282027 kJ/mol
# Density = 1.959682 g / cm^3
# Si number density = 19.641529 Si / 1000 Ang^3
#
#
#
# Elastic Constant Matrix: (Units=GPa)
#
#
# Indices 1 2 3 4 5 6 
#
# 1 58.1662 37.8872 25.7874 0.0000 0.0000 0.0000
# 2 37.8872 72.3502 12.7638 0.0000 0.0000 0.0000
# 3 25.7874 12.7638 84.9556 0.0000 0.0000 0.0000
# 4 0.0000 0.0000 0.0000 38.7314 0.0000 0.0000
# 5 0.0000 0.0000 0.0000 0.0000 27.7727 0.0000
# 6 0.0000 0.0000 0.0000 0.0000 0.0000 32.9617
#
#
#
# Elastic Compliance Matrix: (Units=1/GPa)
#
#
# Indices 1 2 3 4 5 6 
#
# 1 0.029487 -0.014240 -0.006811 0.000000 0.000000 0.000000
# 2 -0.014240 0.021074 0.001156 0.000000 0.000000 0.000000
# 3 -0.006811 0.001156 0.013665 0.000000 0.000000 0.000000
# 4 0.000000 0.000000 0.000000 0.025819 0.000000 0.000000
# 5 0.000000 0.000000 0.000000 0.000000 0.036007 0.000000
# 6 0.000000 0.000000 0.000000 0.000000 0.000000 0.030338
#
#
# Mechanical properties :
#
#
# Convention : Reuss Voigt Hill
#
# Bulk Modulus (GPa) = 40.92210 40.92764 40.92487
# Shear Modulus (GPa) = 24.47088 29.16206 26.81647
#
# Velocity S-wave (km/s) = 3.53352 3.85738 3.69900
# Velocity P-wave (km/s) = 6.12596 6.38136 6.25496
#
# Compressibility (1/GPa) = 0.02443667
#
# Stress axis : x y z
#
# Youngs Moduli (GPa) = 33.91339 47.45072 73.18179
#
# Poissons Ratio (x) = 0.67568 0.49845
# Poissons Ratio (y) = 0.48291 -0.08460
# Poissons Ratio (z) = 0.23099 -0.05485
#
# Static dielectric constant tensor:
#      x y z
#    x 3.515100 0.000000 0.000000 
#    y 0.000000 3.587690 0.000000 
#    z 0.000000 0.000000 3.741860 
# 
# 
# High freq. dielectric constant tensor:
#      x y z
#    x 1.759420 0.000000 0.000000 
#    y 0.000000 1.775890 0.000000 
#    z 0.000000 0.000000 1.783390 
# 
# From -- ./inp_files/17312.got.cif
#   From: 2010.03.12/outbox.cif.g09.slc.cpg/sg36_9_cif.got.tgz:17312.got - 2010.04.14 02:13:53.
