data_PCOD8175846
_publ_section_title
;
Structure prediction by ZEFSAII (Michael W. Deem and Ramdas Pophale) SiO2 
 PCOD8175846
Probable space group: C M C 21
;
_chemical_formula_sum "Si O2"
_cell_formula_units_Z 48
_cell_length_a 8.532907
_cell_length_b 14.799863
_cell_length_c 18.659529
_cell_angle_alpha 90.000000
_cell_angle_beta 90.000000
_cell_angle_gamma 90.000000
_cell_volume 2356.434566
_symmetry_space_group_name_H-M "C M C 21"
_symmetry_group_IT_number 36
_symmetry_cell_setting 'orthorhombic'
loop_
_space_group_symop_operation_xyz
x,y,z
-x,-y,1/2+z
x,-y,1/2+z
-x,y,z
1/2+x,1/2+y,z
1/2-x,1/2-y,1/2+z
1/2+x,1/2-y,1/2+z
1/2-x,1/2+y,z
loop_
_atom_site_type_symbol
_atom_site_label
_atom_site_fract_x
_atom_site_fract_y
_atom_site_fract_z
Si Si1 0.817440 0.599202 0.596790
Si Si2 0.180914 0.939304 0.514029
Si Si3 0.683969 0.848570 0.254642
Si Si4 0.819005 0.499870 0.867513
Si Si5 0.319693 0.750200 0.500164
Si Si6 0.180381 0.293809 0.852113
O O1 0.721477 0.510258 0.575957
O O2 0.758623 0.630246 0.674617
O O3 0.789010 0.678373 0.539948
O O4 0.000000 0.574677 0.596884
O O5 0.283154 0.850292 0.528056
O O6 0.000000 0.912574 0.518407
O O7 0.214801 0.983457 0.437108
O O8 0.500000 0.829572 0.256689
O O9 0.773698 0.758637 0.279814
O O10 0.731284 0.932638 0.304657
O O11 0.786614 0.399228 0.839036
O O12 0.000000 0.513473 0.889398
O O13 0.500000 0.726792 0.515193
O O14 0.286166 0.746466 0.415566
O O15 0.000000 0.276260 0.871674
#
# Coordination Sequence:
#
# PCOD8175846 Si02
#       6
#     8   8   8   8   8   8
#     4  11  24  43  64  93 132 170 209 261 316 375
#     4  12  24  39  64  96 125 165 213 262 315 375
#     4  10  23  42  64  91 128 169 208 256 319 377
#     4  10  21  39  63  91 126 165 205 256 312 375
#     4  12  24  40  64  92 126 168 215 263 313 373
#     4  11  22  37  63  95 127 163 210 260 309 375
#
# _framework density 20.369758000000001
#
# number of rings (size 3 to 8) (size 9 to 14) (size 15 to 20)
#    0.000    1.000    3.333    4.000    0.000    3.333 
#    0.000    1.667    0.000    0.000    0.000    0.000 
#    0.000    0.000    0.000    0.000    0.000    0.000 
#
# Total GULP energy -297802.120813 kJ/mol
# GULP energy per Si atom -12408.421701 kJ/mol
# Density = 2.032340 g / cm^3
# Si number density = 20.369758 Si / 1000 Ang^3
#
#
#
# Elastic Constant Matrix: (Units=GPa)
#
#
# Indices 1 2 3 4 5 6 
#
# 1 68.7078 11.5132 12.5648 0.0000 0.0000 0.0000
# 2 11.5132 88.3200 -4.3453 0.0000 0.0000 0.0000
# 3 12.5648 -4.3453 61.3891 0.0000 0.0000 0.0000
# 4 0.0000 0.0000 0.0000 30.1337 0.0000 0.0000
# 5 0.0000 0.0000 0.0000 0.0000 25.6794 0.0000
# 6 0.0000 0.0000 0.0000 0.0000 0.0000 29.5948
#
#
#
# Elastic Compliance Matrix: (Units=1/GPa)
#
#
# Indices 1 2 3 4 5 6 
#
# 1 0.015531 -0.002189 -0.003334 0.000000 0.000000 0.000000
# 2 -0.002189 0.011670 0.001274 0.000000 0.000000 0.000000
# 3 -0.003334 0.001274 0.017062 0.000000 0.000000 0.000000
# 4 0.000000 0.000000 0.000000 0.033185 0.000000 0.000000
# 5 0.000000 0.000000 0.000000 0.000000 0.038942 0.000000
# 6 0.000000 0.000000 0.000000 0.000000 0.000000 0.033790
#
#
# Mechanical properties :
#
#
# Convention : Reuss Voigt Hill
#
# Bulk Modulus (GPa) = 27.95891 28.65360 28.30625
# Shear Modulus (GPa) = 29.30852 30.32719 29.81785
#
# Velocity S-wave (km/s) = 3.79730 3.86273 3.83015
# Velocity P-wave (km/s) = 5.74295 5.83022 5.78675
#
# Compressibility (1/GPa) = 0.03576677
#
# Stress axis : x y z
#
# Youngs Moduli (GPa) = 64.38831 85.68654 58.60968
#
# Poissons Ratio (x) = 0.18753 0.19539
# Poissons Ratio (y) = 0.14092 -0.07467
# Poissons Ratio (z) = 0.21465 -0.10917
#
# Static dielectric constant tensor:
#      x y z
#    x 3.621080 0.000000 0.000000 
#    y 0.000000 3.818870 0.000000 
#    z 0.000000 0.000000 3.661360 
# 
# 
# High freq. dielectric constant tensor:
#      x y z
#    x 1.796290 0.000000 0.000000 
#    y 0.000000 1.811590 0.000000 
#    z 0.000000 0.000000 1.786830 
# 
# From -- ./inp_files/13474.got.cif
#   From: 2010.03.12/outbox.cif.g09.slc.cpg/sg36_7_cif.got.tgz:13474.got - 2010.04.14 02:13:53.
