data_PCOD8175156
_publ_section_title
;
Structure prediction by ZEFSAII (Michael W. Deem and Ramdas Pophale) SiO2 
 PCOD8175156
Probable space group: C M C 21
;
_chemical_formula_sum "Si O2"
_cell_formula_units_Z 64
_cell_length_a 8.950793
_cell_length_b 15.446895
_cell_length_c 24.027689
_cell_angle_alpha 90.000000
_cell_angle_beta 90.000000
_cell_angle_gamma 90.000000
_cell_volume 3322.115367
_symmetry_space_group_name_H-M "C M C 21"
_symmetry_group_IT_number 36
_symmetry_cell_setting 'orthorhombic'
loop_
_space_group_symop_operation_xyz
x,y,z
-x,-y,1/2+z
x,-y,1/2+z
-x,y,z
1/2+x,1/2+y,z
1/2-x,1/2-y,1/2+z
1/2+x,1/2-y,1/2+z
1/2-x,1/2+y,z
loop_
_atom_site_type_symbol
_atom_site_label
_atom_site_fract_x
_atom_site_fract_y
_atom_site_fract_z
Si Si1 0.322209 0.870689 0.241000
Si Si2 0.832743 0.474866 0.064442
Si Si3 0.677446 0.869690 0.366329
Si Si4 0.824948 0.212887 0.169214
Si Si5 0.823129 0.470951 0.939347
Si Si6 0.331248 0.226572 0.553628
Si Si7 0.326635 0.479903 0.672582
Si Si8 0.176600 0.789391 0.940034
O O1 0.500000 0.869989 0.241480
O O2 0.259010 0.871000 0.303732
O O3 0.256282 0.785380 0.210347
O O4 0.270145 0.956788 0.210075
O O5 0.831173 0.372488 0.072448
O O6 0.717917 0.516190 0.107816
O O7 0.000000 0.510492 0.075681
O O8 0.779297 0.498749 0.002128
O O9 0.500000 0.872397 0.367051
O O10 0.732882 0.782204 0.396065
O O11 0.737469 0.954609 0.398441
O O12 0.762151 0.221094 0.106109
O O13 0.000000 0.231037 0.164217
O O14 0.792588 0.117709 0.193597
O O15 0.747676 0.380612 0.922486
O O16 0.000000 0.456639 0.935647
O O17 0.500000 0.255755 0.538315
O O18 0.226419 0.242656 0.500856
O O19 0.500000 0.503473 0.678580
O O20 0.000000 0.799429 0.939631
#
# Coordination Sequence:
#
# PCOD8175156 Si02
#       8
#     8   8   8   8   8   8   8   8
#     4  10  20  41  62  75 104 152 193 220 263 333
#     4   9  17  32  56  78 108 148 183 214 266 336
#     4   9  20  37  60  82 105 145 192 227 261 322
#     4   9  19  35  55  78 107 145 182 217 273 334
#     4   9  19  37  56  79 111 147 181 219 271 330
#     4   9  17  34  56  78 109 150 184 214 266 335
#     4  11  22  34  53  84 114 138 179 235 280 318
#     4  10  20  34  54  86 114 139 180 230 274 314
#
# _framework density 19.264835000000001
#
# number of rings (size 3 to 8) (size 9 to 14) (size 15 to 20)
#    0.000    2.500    1.250    1.500    1.750    3.000 
#    0.000    6.250    0.000    0.000    0.000    0.000 
#    0.000    0.000    0.000    0.000    0.000    0.000 
#
# Total GULP energy -396763.807743 kJ/mol
# GULP energy per Si atom -12398.868992 kJ/mol
# Density = 1.922099 g / cm^3
# Si number density = 19.264835 Si / 1000 Ang^3
#
#
#
# Elastic Constant Matrix: (Units=GPa)
#
#
# Indices 1 2 3 4 5 6 
#
# 1 34.8780 27.1232 24.8812 0.0000 0.0000 0.0000
# 2 27.1232 124.1384 82.3784 0.0000 0.0000 0.0000
# 3 24.8812 82.3784 140.2939 0.0000 0.0000 0.0000
# 4 0.0000 0.0000 0.0000 26.0363 0.0000 0.0000
# 5 0.0000 0.0000 0.0000 0.0000 21.3539 0.0000
# 6 0.0000 0.0000 0.0000 0.0000 0.0000 24.7262
#
#
#
# Elastic Compliance Matrix: (Units=1/GPa)
#
#
# Indices 1 2 3 4 5 6 
#
# 1 0.035213 -0.005816 -0.002830 0.000000 0.000000 0.000000
# 2 -0.005816 0.014159 -0.007282 0.000000 0.000000 0.000000
# 3 -0.002830 -0.007282 0.011906 0.000000 0.000000 0.000000
# 4 0.000000 0.000000 0.000000 0.038408 0.000000 0.000000
# 5 0.000000 0.000000 0.000000 0.000000 0.046830 0.000000
# 6 0.000000 0.000000 0.000000 0.000000 0.000000 0.040443
#
#
# Mechanical properties :
#
#
# Convention : Reuss Voigt Hill
#
# Bulk Modulus (GPa) = 33.98910 63.11955 48.55433
# Shear Modulus (GPa) = 21.87016 25.41844 23.64430
#
# Velocity S-wave (km/s) = 3.37298 3.63632 3.50713
# Velocity P-wave (km/s) = 5.73156 7.10392 6.45432
#
# Compressibility (1/GPa) = 0.02942120
#
# Stress axis : x y z
#
# Youngs Moduli (GPa) = 28.39871 70.62736 83.99156
#
# Poissons Ratio (x) = 0.41074 0.23771
# Poissons Ratio (y) = 0.16516 0.61166
# Poissons Ratio (z) = 0.08037 0.51434
#
# Static dielectric constant tensor:
#      x y z
#    x 3.190130 0.000000 0.000000 
#    y 0.000000 3.554690 0.000000 
#    z 0.000000 0.000000 3.708710 
# 
# 
# High freq. dielectric constant tensor:
#      x y z
#    x 1.717370 0.000000 0.000000 
#    y 0.000000 1.755340 0.000000 
#    z 0.000000 0.000000 1.749950 
# 
# From -- ./inp_files/16627.got.cif
#   From: 2010.03.12/outbox.cif.g09.slc.cpg/sg36_9_cif.got.tgz:16627.got - 2010.04.14 02:13:53.
