data_PCOD8175506
_publ_section_title
;
Structure prediction by ZEFSAII (Michael W. Deem and Ramdas Pophale) SiO2 
 PCOD8175506
Probable space group: C M C 21
;
_chemical_formula_sum "Si O2"
_cell_formula_units_Z 40
_cell_length_a 9.925446
_cell_length_b 9.001661
_cell_length_c 20.716796
_cell_angle_alpha 90.000000
_cell_angle_beta 90.000000
_cell_angle_gamma 90.000000
_cell_volume 1850.952500
_symmetry_space_group_name_H-M "C M C 21"
_symmetry_group_IT_number 36
_symmetry_cell_setting 'orthorhombic'
loop_
_space_group_symop_operation_xyz
x,y,z
-x,-y,1/2+z
x,-y,1/2+z
-x,y,z
1/2+x,1/2+y,z
1/2-x,1/2-y,1/2+z
1/2+x,1/2-y,1/2+z
1/2-x,1/2+y,z
loop_
_atom_site_type_symbol
_atom_site_label
_atom_site_fract_x
_atom_site_fract_y
_atom_site_fract_z
Si Si1 0.147688 0.108293 0.857240
Si Si2 0.772209 0.155084 0.443178
Si Si3 0.653710 0.171673 0.745226
Si Si4 0.352421 0.910192 0.530072
Si Si5 0.152663 0.620488 0.170803
O O1 0.159474 0.248974 0.905510
O O2 0.273519 0.106640 0.808720
O O3 0.000000 0.122117 0.823767
O O4 0.146959 0.950096 0.894172
O O5 0.864798 0.275060 0.479513
O O6 0.713891 0.053688 0.499425
O O7 0.500000 0.221554 0.762957
O O8 0.743697 0.307418 0.720881
O O9 0.648705 0.052055 0.688678
O O10 0.500000 0.961921 0.550391
O O11 0.284997 0.863437 0.598491
O O12 0.000000 0.688137 0.176946
#
# Coordination Sequence:
#
# PCOD8175506 Si02
#       5
#     8   8   8   8   8
#     4  11  23  39  60  87 119 155 196 241 291 347
#     4  10  22  37  59  89 118 151 192 239 290 347
#     4  11  24  40  60  87 118 155 199 244 291 344
#     4  10  20  38  61  85 117 153 190 236 290 348
#     4  10  22  40  62  88 118 154 195 240 292 348
#
# _framework density 21.610496000000001
#
# number of rings (size 3 to 8) (size 9 to 14) (size 15 to 20)
#    0.000    1.600    0.000    4.200    0.000    9.600 
#    0.000    5.000    0.000    0.000    0.000    0.000 
#    0.000    0.000    0.000    0.000    0.000    0.000 
#
# Total GULP energy -247875.877606 kJ/mol
# GULP energy per Si atom -12393.793880 kJ/mol
# Density = 2.156131 g / cm^3
# Si number density = 21.610496 Si / 1000 Ang^3
#
#
#
# Elastic Constant Matrix: (Units=GPa)
#
#
# Indices 1 2 3 4 5 6 
#
# 1 134.0622 29.6043 38.7790 0.0000 0.0000 0.0000
# 2 29.6043 87.4053 16.5108 0.0000 0.0000 0.0000
# 3 38.7790 16.5108 99.5964 0.0000 0.0000 0.0000
# 4 0.0000 0.0000 0.0000 34.2062 0.0000 0.0000
# 5 0.0000 0.0000 0.0000 0.0000 31.5260 0.0000
# 6 0.0000 0.0000 0.0000 0.0000 0.0000 13.3222
#
#
#
# Elastic Compliance Matrix: (Units=1/GPa)
#
#
# Indices 1 2 3 4 5 6 
#
# 1 0.008879 -0.002431 -0.003054 0.000000 0.000000 0.000000
# 2 -0.002431 0.012476 -0.001122 0.000000 0.000000 0.000000
# 3 -0.003054 -0.001122 0.011416 0.000000 0.000000 0.000000
# 4 0.000000 0.000000 0.000000 0.029235 0.000000 0.000000
# 5 0.000000 0.000000 0.000000 0.000000 0.031720 0.000000
# 6 0.000000 0.000000 0.000000 0.000000 0.000000 0.075063
#
#
# Mechanical properties :
#
#
# Convention : Reuss Voigt Hill
#
# Bulk Modulus (GPa) = 51.13075 54.53913 52.83494
# Shear Modulus (GPa) = 26.52222 31.55552 29.03887
#
# Velocity S-wave (km/s) = 3.50706 3.82539 3.66968
# Velocity P-wave (km/s) = 6.33331 6.69355 6.51592
#
# Compressibility (1/GPa) = 0.01955770
#
# Stress axis : x y z
#
# Youngs Moduli (GPa) = 112.61937 80.15325 87.59805
#
# Poissons Ratio (x) = 0.19481 0.26756
# Poissons Ratio (y) = 0.27372 0.09828
# Poissons Ratio (z) = 0.34398 0.08992
#
# Static dielectric constant tensor:
#      x y z
#    x 3.772210 0.000000 0.000000 
#    y 0.000000 3.857280 0.000000 
#    z 0.000000 0.000000 4.060760 
# 
# 
# High freq. dielectric constant tensor:
#      x y z
#    x 1.838720 0.000000 0.000000 
#    y 0.000000 1.850890 0.000000 
#    z 0.000000 0.000000 1.858620 
# 
# From -- ./inp_files/14150.got.cif
#   From: 2010.03.12/outbox.cif.g09.slc.cpg/sg36_8_cif.got.tgz:14150.got - 2010.04.14 02:13:53.
