data_PCOD8175493
_publ_section_title
;
Structure prediction by ZEFSAII (Michael W. Deem and Ramdas Pophale) SiO2 
 PCOD8175493
Probable space group: C M C 21
;
_chemical_formula_sum "Si O2"
_cell_formula_units_Z 48
_cell_length_a 25.098014
_cell_length_b 11.422092
_cell_length_c 9.193938
_cell_angle_alpha 90.000000
_cell_angle_beta 90.000000
_cell_angle_gamma 90.000000
_cell_volume 2635.642985
_symmetry_space_group_name_H-M "C M C 21"
_symmetry_group_IT_number 36
_symmetry_cell_setting 'orthorhombic'
loop_
_space_group_symop_operation_xyz
x,y,z
-x,-y,1/2+z
x,-y,1/2+z
-x,y,z
1/2+x,1/2+y,z
1/2-x,1/2-y,1/2+z
1/2+x,1/2-y,1/2+z
1/2-x,1/2+y,z
loop_
_atom_site_type_symbol
_atom_site_label
_atom_site_fract_x
_atom_site_fract_y
_atom_site_fract_z
Si Si1 0.560450 0.654867 0.420520
Si Si2 0.060647 0.940903 0.608159
Si Si3 0.315187 0.924621 0.854055
Si Si4 0.148983 0.670469 0.846300
Si Si5 0.235550 0.598057 0.045245
Si Si6 0.845447 0.215459 0.036666
O O1 0.500000 0.701406 0.423542
O O2 0.573160 0.574666 0.561073
O O3 0.570289 0.571897 0.280293
O O4 0.597252 0.769904 0.418557
O O5 0.098949 0.852257 0.522361
O O6 0.000000 0.908712 0.564754
O O7 0.280672 0.895995 0.712721
O O8 0.358588 0.029218 0.826476
O O9 0.345789 0.809400 0.906754
O O10 0.274388 0.967582 0.980776
O O11 0.161638 0.723107 0.690860
O O12 0.199527 0.691172 0.953557
O O13 0.297206 0.624928 0.020307
#
# Coordination Sequence:
#
# PCOD8175493 Si02
#       6
#     8   8   8   8   8   8
#     4   9  18  36  57  78 108 141 179 221 268 317
#     4   9  20  35  54  81 109 138 178 227 263 314
#     4  10  20  38  51  77 113 135 179 221 258 319
#     4   9  19  37  52  77 110 139 175 220 264 312
#     4  10  21  33  55  77 110 139 173 220 261 321
#     4  11  20  35  56  78 105 146 178 213 274 317
#
# _framework density 18.211874000000002
#
# number of rings (size 3 to 8) (size 9 to 14) (size 15 to 20)
#    1.000    1.333    1.667    1.000    0.000    5.333 
#    0.000    0.833    0.000    1.000    0.000    0.000 
#    0.000    0.000    0.000    0.000    0.000    0.000 
#
# Total GULP energy -297453.910162 kJ/mol
# GULP energy per Si atom -12393.912923 kJ/mol
# Density = 1.817042 g / cm^3
# Si number density = 18.211874 Si / 1000 Ang^3
#
#
#
# Elastic Constant Matrix: (Units=GPa)
#
#
# Indices 1 2 3 4 5 6 
#
# 1 92.3489 38.5042 23.9644 0.0000 0.0000 0.0000
# 2 38.5042 65.9452 8.5130 0.0000 0.0000 0.0000
# 3 23.9644 8.5130 57.1529 0.0000 0.0000 0.0000
# 4 0.0000 0.0000 0.0000 32.5374 0.0000 0.0000
# 5 0.0000 0.0000 0.0000 0.0000 16.4923 0.0000
# 6 0.0000 0.0000 0.0000 0.0000 0.0000 25.1897
#
#
#
# Elastic Compliance Matrix: (Units=1/GPa)
#
#
# Indices 1 2 3 4 5 6 
#
# 1 0.015765 -0.008515 -0.005342 0.000000 0.000000 0.000000
# 2 -0.008515 0.020061 0.000582 0.000000 0.000000 0.000000
# 3 -0.005342 0.000582 0.019650 0.000000 0.000000 0.000000
# 4 0.000000 0.000000 0.000000 0.030734 0.000000 0.000000
# 5 0.000000 0.000000 0.000000 0.000000 0.060634 0.000000
# 6 0.000000 0.000000 0.000000 0.000000 0.000000 0.039699
#
#
# Mechanical properties :
#
#
# Convention : Reuss Voigt Hill
#
# Bulk Modulus (GPa) = 34.57067 39.71224 37.14146
# Shear Modulus (GPa) = 22.44819 24.47490 23.46155
#
# Velocity S-wave (km/s) = 3.51467 3.66990 3.59312
# Velocity P-wave (km/s) = 5.95770 6.30956 6.13615
#
# Compressibility (1/GPa) = 0.02892625
#
# Stress axis : x y z
#
# Youngs Moduli (GPa) = 63.43089 49.84819 50.89028
#
# Poissons Ratio (x) = 0.42448 0.27186
# Poissons Ratio (y) = 0.54014 -0.02964
# Poissons Ratio (z) = 0.33885 -0.02903
#
# Static dielectric constant tensor:
#      x y z
#    x 3.238630 0.000000 0.000000 
#    y 0.000000 3.240860 0.000000 
#    z 0.000000 0.000000 3.348190 
# 
# 
# High freq. dielectric constant tensor:
#      x y z
#    x 1.691640 0.000000 0.000000 
#    y 0.000000 1.692990 0.000000 
#    z 0.000000 0.000000 1.711240 
# 
# From -- ./inp_files/8850.got.cif
#   From: 2010.03.12/outbox.cif.g09.slc.cpg/sg36_5_cif.got.tgz:8850.got - 2010.04.14 02:13:53.
