data_PCOD8175177
_publ_section_title
;
Structure prediction by ZEFSAII (Michael W. Deem and Ramdas Pophale) SiO2 
 PCOD8175177
Probable space group: C M C 21
;
_chemical_formula_sum "Si O2"
_cell_formula_units_Z 64
_cell_length_a 8.848254
_cell_length_b 20.661648
_cell_length_c 19.056167
_cell_angle_alpha 90.000000
_cell_angle_beta 90.000000
_cell_angle_gamma 90.000000
_cell_volume 3483.839105
_symmetry_space_group_name_H-M "C M C 21"
_symmetry_group_IT_number 36
_symmetry_cell_setting 'orthorhombic'
loop_
_space_group_symop_operation_xyz
x,y,z
-x,-y,1/2+z
x,-y,1/2+z
-x,y,z
1/2+x,1/2+y,z
1/2-x,1/2-y,1/2+z
1/2+x,1/2-y,1/2+z
1/2-x,1/2+y,z
loop_
_atom_site_type_symbol
_atom_site_label
_atom_site_fract_x
_atom_site_fract_y
_atom_site_fract_z
Si Si1 0.178226 0.065786 0.972840
Si Si2 0.175169 0.311560 0.404050
Si Si3 0.325649 0.187585 0.470779
Si Si4 0.672482 0.747143 0.108774
Si Si5 0.177168 0.933508 0.899017
Si Si6 0.177308 0.386560 0.765609
Si Si7 0.822311 0.386467 0.606964
Si Si8 0.171699 0.246679 0.264960
O O1 0.258428 0.120202 0.926627
O O2 0.000000 0.076943 0.971104
O O3 0.226626 0.997622 0.939938
O O4 0.236299 0.066518 0.053116
O O5 0.268156 0.254320 0.439003
O O6 0.195284 0.305011 0.319741
O O7 0.000000 0.307216 0.426372
O O8 0.500000 0.177108 0.450234
O O9 0.303077 0.193583 0.555063
O O10 0.231116 0.127482 0.443774
O O11 0.500000 0.721692 0.103730
O O12 0.780866 0.687559 0.088600
O O13 0.710223 0.772811 0.187026
O O14 0.247731 0.935391 0.820999
O O15 0.000000 0.928670 0.890216
O O16 0.230598 0.403255 0.686326
O O17 0.222360 0.313383 0.785720
O O18 0.000000 0.393339 0.772328
O O19 0.000000 0.395791 0.597671
O O20 0.000000 0.220685 0.268614
#
# Coordination Sequence:
#
# PCOD8175177 Si02
#       8
#     8   8   8   8   8   8   8   8
#     4  11  24  40  57  80 113 154 196 235 280 335
#     4  11  21  34  57  85 114 146 185 233 284 337
#     4  11  21  34  57  85 114 146 185 233 284 337
#     4   9  18  33  54  81 112 146 183 226 280 339
#     4  11  24  40  57  80 113 154 196 235 280 335
#     4  10  20  34  56  85 112 142 184 233 283 337
#     4  10  20  34  56  85 112 142 184 233 283 337
#     4   9  18  33  54  81 112 146 183 226 280 339
#
# _framework density 18.370539000000001
#
# number of rings (size 3 to 8) (size 9 to 14) (size 15 to 20)
#    0.000    1.750    2.500    2.250    0.000    4.500 
#    0.000    1.250    0.000    4.500    0.000    0.000 
#    0.000    0.000    0.000    0.000    0.000    0.000 
#
# Total GULP energy -396820.917814 kJ/mol
# GULP energy per Si atom -12400.653682 kJ/mol
# Density = 1.832873 g / cm^3
# Si number density = 18.370539 Si / 1000 Ang^3
#
#
#
# Elastic Constant Matrix: (Units=GPa)
#
#
# Indices 1 2 3 4 5 6 
#
# 1 51.3917 17.1452 34.8191 0.0000 0.0000 0.0000
# 2 17.1452 74.0425 53.1678 0.0000 0.0000 0.0000
# 3 34.8191 53.1678 133.2437 0.0000 0.0000 0.0000
# 4 0.0000 0.0000 0.0000 29.0183 0.0000 0.0000
# 5 0.0000 0.0000 0.0000 0.0000 29.2018 0.0000
# 6 0.0000 0.0000 0.0000 0.0000 0.0000 27.8068
#
#
#
# Elastic Compliance Matrix: (Units=1/GPa)
#
#
# Indices 1 2 3 4 5 6 
#
# 1 0.023757 -0.001462 -0.005625 0.000000 0.000000 0.000000
# 2 -0.001462 0.019020 -0.007207 0.000000 0.000000 0.000000
# 3 -0.005625 -0.007207 0.011851 0.000000 0.000000 0.000000
# 4 0.000000 0.000000 0.000000 0.034461 0.000000 0.000000
# 5 0.000000 0.000000 0.000000 0.000000 0.034244 0.000000
# 6 0.000000 0.000000 0.000000 0.000000 0.000000 0.035962
#
#
# Mechanical properties :
#
#
# Convention : Reuss Voigt Hill
#
# Bulk Modulus (GPa) = 38.40369 52.10467 45.25418
# Shear Modulus (GPa) = 25.43708 27.44177 26.43943
#
# Velocity S-wave (km/s) = 3.72515 3.86915 3.79783
# Velocity P-wave (km/s) = 6.28114 6.95595 6.62714
#
# Compressibility (1/GPa) = 0.02603917
#
# Stress axis : x y z
#
# Youngs Moduli (GPa) = 42.09266 52.57723 84.38272
#
# Poissons Ratio (x) = 0.07688 0.47463
# Poissons Ratio (y) = 0.06155 0.60817
# Poissons Ratio (z) = 0.23676 0.37894
#
# Static dielectric constant tensor:
#      x y z
#    x 3.481340 0.000000 0.000000 
#    y 0.000000 3.134690 0.000000 
#    z 0.000000 0.000000 3.898760 
# 
# 
# High freq. dielectric constant tensor:
#      x y z
#    x 1.724400 0.000000 0.000000 
#    y 0.000000 1.672850 0.000000 
#    z 0.000000 0.000000 1.735300 
# 
# From -- ./inp_files/15645.got.cif
#   From: 2010.03.12/outbox.cif.g09.slc.cpg/sg36_8_cif.got.tgz:15645.got - 2010.04.14 02:13:53.
