data_PCOD8175136
_publ_section_title
;
Structure prediction by ZEFSAII (Michael W. Deem and Ramdas Pophale) SiO2 
 PCOD8175136
Probable space group: C M C 21
;
_chemical_formula_sum "Si O2"
_cell_formula_units_Z 64
_cell_length_a 9.293652
_cell_length_b 20.518791
_cell_length_c 17.738747
_cell_angle_alpha 90.000000
_cell_angle_beta 90.000000
_cell_angle_gamma 90.000000
_cell_volume 3382.681543
_symmetry_space_group_name_H-M "C M C 21"
_symmetry_group_IT_number 36
_symmetry_cell_setting 'orthorhombic'
loop_
_space_group_symop_operation_xyz
x,y,z
-x,-y,1/2+z
x,-y,1/2+z
-x,y,z
1/2+x,1/2+y,z
1/2-x,1/2-y,1/2+z
1/2+x,1/2-y,1/2+z
1/2-x,1/2+y,z
loop_
_atom_site_type_symbol
_atom_site_label
_atom_site_fract_x
_atom_site_fract_y
_atom_site_fract_z
Si Si1 0.168279 0.996900 0.502150
Si Si2 0.169497 0.624581 0.066397
Si Si3 0.332141 0.512171 0.329788
Si Si4 0.170150 0.760642 0.992688
Si Si5 0.671044 0.620864 0.594055
Si Si6 0.167767 0.254265 0.839398
Si Si7 0.166792 0.378051 0.739459
Si Si8 0.328975 0.623292 0.762559
O O1 0.225139 0.053839 0.556650
O O2 0.000000 0.982500 0.513072
O O3 0.252758 0.931441 0.519846
O O4 0.201270 0.020490 0.417696
O O5 0.219763 0.624158 0.153181
O O6 0.000000 0.614144 0.060093
O O7 0.216849 0.692417 0.029046
O O8 0.500000 0.518848 0.311914
O O9 0.253148 0.567576 0.283739
O O10 0.274410 0.441632 0.303927
O O11 0.244337 0.772793 0.913102
O O12 0.000000 0.765134 0.980958
O O13 0.227597 0.817258 0.047648
O O14 0.500000 0.621697 0.595227
O O15 0.734934 0.624531 0.678137
O O16 0.196529 0.307668 0.775243
O O17 0.227910 0.185669 0.808266
O O18 0.000000 0.249921 0.860273
O O19 0.000000 0.396454 0.744308
O O20 0.500000 0.626158 0.758951
#
# Coordination Sequence:
#
# PCOD8175136 Si02
#       8
#     8   8   8   8   8   8   8   8
#     4  10  20  34  54  80 107 136 174 218 260 305
#     4  10  21  36  54  78 108 141 175 213 262 318
#     4  10  20  34  54  80 107 136 174 218 260 305
#     4  10  20  35  55  77 102 133 171 214 258 306
#     4   9  17  31  52  75  99 132 173 211 247 294
#     4  10  20  35  55  77 102 133 171 214 258 306
#     4  10  21  36  54  78 108 141 175 213 262 318
#     4   9  17  31  52  75  99 132 173 211 247 294
#
# _framework density 18.919899999999998
#
# number of rings (size 3 to 8) (size 9 to 14) (size 15 to 20)
#    0.000    2.250    0.000    3.000    0.000    8.000 
#    0.000    1.250    0.000    3.750    0.000    0.000 
#    0.000    0.000    0.000    0.000    0.000    0.000 
#
# Total GULP energy -396896.095422 kJ/mol
# GULP energy per Si atom -12403.002982 kJ/mol
# Density = 1.887684 g / cm^3
# Si number density = 18.919900 Si / 1000 Ang^3
#
#
#
# Elastic Constant Matrix: (Units=GPa)
#
#
# Indices 1 2 3 4 5 6 
#
# 1 24.5441 19.8048 16.0993 0.0000 0.0000 0.0000
# 2 19.8048 90.0709 0.3564 0.0000 0.0000 0.0000
# 3 16.0993 0.3564 72.2440 0.0000 0.0000 0.0000
# 4 0.0000 0.0000 0.0000 41.0344 0.0000 0.0000
# 5 0.0000 0.0000 0.0000 0.0000 25.5416 0.0000
# 6 0.0000 0.0000 0.0000 0.0000 0.0000 29.6700
#
#
#
# Elastic Compliance Matrix: (Units=1/GPa)
#
#
# Indices 1 2 3 4 5 6 
#
# 1 0.060109 -0.013164 -0.013330 0.000000 0.000000 0.000000
# 2 -0.013164 0.013986 0.002865 0.000000 0.000000 0.000000
# 3 -0.013330 0.002865 0.016798 0.000000 0.000000 0.000000
# 4 0.000000 0.000000 0.000000 0.024370 0.000000 0.000000
# 5 0.000000 0.000000 0.000000 0.000000 0.039152 0.000000
# 6 0.000000 0.000000 0.000000 0.000000 0.000000 0.033704
#
#
# Mechanical properties :
#
#
# Convention : Reuss Voigt Hill
#
# Bulk Modulus (GPa) = 22.91810 28.81999 25.86905
# Shear Modulus (GPa) = 20.00628 29.28910 24.64769
#
# Velocity S-wave (km/s) = 3.25533 3.93880 3.61326
# Velocity P-wave (km/s) = 5.12534 5.99594 5.57765
#
# Compressibility (1/GPa) = 0.04363364
#
# Stress axis : x y z
#
# Youngs Moduli (GPa) = 16.63657 71.50259 59.52944
#
# Poissons Ratio (x) = 0.94125 0.79353
# Poissons Ratio (y) = 0.21900 -0.17052
# Poissons Ratio (z) = 0.22177 -0.20482
#
# Static dielectric constant tensor:
#      x y z
#    x 3.107070 0.000000 0.000000 
#    y 0.000000 3.675860 0.000000 
#    z 0.000000 0.000000 3.675440 
# 
# 
# High freq. dielectric constant tensor:
#      x y z
#    x 1.695650 0.000000 0.000000 
#    y 0.000000 1.753310 0.000000 
#    z 0.000000 0.000000 1.753270 
# 
# From -- ./inp_files/13787.got.cif
#   From: 2010.03.12/outbox.cif.g09.slc.cpg/sg36_7_cif.got.tgz:13787.got - 2010.04.14 02:13:53.
