data_PCOD8175474
_publ_section_title
;
Structure prediction by ZEFSAII (Michael W. Deem and Ramdas Pophale) SiO2 
 PCOD8175474
Probable space group: C M C 21
;
_chemical_formula_sum "Si O2"
_cell_formula_units_Z 40
_cell_length_a 13.345326
_cell_length_b 17.988696
_cell_length_c 7.682345
_cell_angle_alpha 90.000000
_cell_angle_beta 90.000000
_cell_angle_gamma 90.000000
_cell_volume 1844.262248
_symmetry_space_group_name_H-M "C M C 21"
_symmetry_group_IT_number 36
_symmetry_cell_setting 'orthorhombic'
loop_
_space_group_symop_operation_xyz
x,y,z
-x,-y,1/2+z
x,-y,1/2+z
-x,y,z
1/2+x,1/2+y,z
1/2-x,1/2-y,1/2+z
1/2+x,1/2-y,1/2+z
1/2-x,1/2+y,z
loop_
_atom_site_type_symbol
_atom_site_label
_atom_site_fract_x
_atom_site_fract_y
_atom_site_fract_z
Si Si1 0.614754 0.104908 0.060890
Si Si2 0.708833 0.991181 0.855147
Si Si3 0.728060 0.653600 0.511700
Si Si4 0.794867 0.803013 0.621975
Si Si5 0.114627 0.099526 0.828201
O O1 0.500000 0.121255 0.108501
O O2 0.673542 0.047208 0.181148
O O3 0.677660 0.180888 0.069296
O O4 0.628545 0.058630 0.882788
O O5 0.713143 0.925081 0.000103
O O6 0.820430 0.024409 0.837962
O O7 0.807432 0.715342 0.582141
O O8 0.683054 0.677420 0.323286
O O9 0.640172 0.646400 0.654325
O O10 0.868204 0.850022 0.499420
O O11 0.000000 0.074529 0.822288
#
# Coordination Sequence:
#
# PCOD8175474 Si02
#       5
#     8   8   8   8   8
#     4  10  20  37  62  90 121 163 211 262 329 390
#     4  10  21  40  61  91 129 165 214 274 325 383
#     4  11  21  43  67  90 133 173 213 275 334 387
#     4  10  23  41  67  92 134 170 215 277 334 395
#     4  11  24  43  66  95 133 179 226 272 329 399
#
# _framework density 21.688887999999999
#
# number of rings (size 3 to 8) (size 9 to 14) (size 15 to 20)
#    0.000    1.600    4.000    0.600    0.000    2.400 
#    0.000    1.000    0.000    0.000    0.000    0.000 
#    0.000    0.000    0.000    0.000    0.000    0.000 
#
# Total GULP energy -247856.840996 kJ/mol
# GULP energy per Si atom -12392.842050 kJ/mol
# Density = 2.163952 g / cm^3
# Si number density = 21.688888 Si / 1000 Ang^3
#
#
#
# Elastic Constant Matrix: (Units=GPa)
#
#
# Indices 1 2 3 4 5 6 
#
# 1 117.0345 23.5831 6.0153 0.0000 0.0000 0.0000
# 2 23.5831 88.3456 13.5932 0.0000 0.0000 0.0000
# 3 6.0153 13.5932 101.1166 0.0000 0.0000 0.0000
# 4 0.0000 0.0000 0.0000 38.1635 0.0000 0.0000
# 5 0.0000 0.0000 0.0000 0.0000 16.1734 0.0000
# 6 0.0000 0.0000 0.0000 0.0000 0.0000 15.7151
#
#
#
# Elastic Compliance Matrix: (Units=1/GPa)
#
#
# Indices 1 2 3 4 5 6 
#
# 1 0.009035 -0.002378 -0.000218 0.000000 0.000000 0.000000
# 2 -0.002378 0.012184 -0.001496 0.000000 0.000000 0.000000
# 3 -0.000218 -0.001496 0.010104 0.000000 0.000000 0.000000
# 4 0.000000 0.000000 0.000000 0.026203 0.000000 0.000000
# 5 0.000000 0.000000 0.000000 0.000000 0.061830 0.000000
# 6 0.000000 0.000000 0.000000 0.000000 0.000000 0.063633
#
#
# Mechanical properties :
#
#
# Convention : Reuss Voigt Hill
#
# Bulk Modulus (GPa) = 43.21917 43.65334 43.43626
# Shear Modulus (GPa) = 25.13999 31.56408 28.35203
#
# Velocity S-wave (km/s) = 3.40828 3.81899 3.61946
# Velocity P-wave (km/s) = 5.95471 6.29421 6.12681
#
# Compressibility (1/GPa) = 0.02313788
#
# Stress axis : x y z
#
# Youngs Moduli (GPa) = 110.68169 82.07284 98.97370
#
# Poissons Ratio (x) = 0.19519 0.02155
# Poissons Ratio (y) = 0.26323 0.14811
# Poissons Ratio (z) = 0.02410 0.12282
#
# Static dielectric constant tensor:
#      x y z
#    x 3.384330 0.000000 0.000000 
#    y 0.000000 4.192010 0.000000 
#    z 0.000000 0.000000 4.227090 
# 
# 
# High freq. dielectric constant tensor:
#      x y z
#    x 1.799810 0.000000 0.000000 
#    y 0.000000 1.869850 0.000000 
#    z 0.000000 0.000000 1.871480 
# 
# From -- ./inp_files/3053.got.cif
#   From: 2010.03.12/outbox.cif.g09.slc.cpg/sg36_2_cif.got.tgz:3053.got - 2010.04.14 02:13:53.
