data_PCOD8175701
_publ_section_title
;
Structure prediction by ZEFSAII (Michael W. Deem and Ramdas Pophale) SiO2 
 PCOD8175701
Probable space group: C M C 21
;
_chemical_formula_sum "Si O2"
_cell_formula_units_Z 64
_cell_length_a 9.346125
_cell_length_b 26.768391
_cell_length_c 12.875934
_cell_angle_alpha 90.000000
_cell_angle_beta 90.000000
_cell_angle_gamma 90.000000
_cell_volume 3221.310546
_symmetry_space_group_name_H-M "C M C 21"
_symmetry_group_IT_number 36
_symmetry_cell_setting 'orthorhombic'
loop_
_space_group_symop_operation_xyz
x,y,z
-x,-y,1/2+z
x,-y,1/2+z
-x,y,z
1/2+x,1/2+y,z
1/2-x,1/2-y,1/2+z
1/2+x,1/2-y,1/2+z
1/2-x,1/2+y,z
loop_
_atom_site_type_symbol
_atom_site_label
_atom_site_fract_x
_atom_site_fract_y
_atom_site_fract_z
Si Si1 0.340257 0.529603 0.658440
Si Si2 0.667827 0.659970 0.350150
Si Si3 0.164412 0.373390 0.474515
Si Si4 0.332525 0.807436 0.055756
Si Si5 0.658858 0.545769 0.324257
Si Si6 0.331729 0.302184 0.627686
Si Si7 0.165996 0.382358 0.240685
Si Si8 0.333317 0.988979 0.478425
O O1 0.500000 0.548826 0.632143
O O2 0.348288 0.473863 0.706285
O O3 0.266075 0.569407 0.734309
O O4 0.247155 0.526160 0.555803
O O5 0.500000 0.666763 0.370909
O O6 0.750110 0.679380 0.450759
O O7 0.709575 0.602653 0.328762
O O8 0.716611 0.690240 0.247439
O O9 0.260290 0.341361 0.550785
O O10 0.192584 0.357921 0.354276
O O11 0.204974 0.431180 0.492013
O O12 0.000000 0.363750 0.503754
O O13 0.500000 0.810132 0.031416
O O14 0.285236 0.752757 0.092615
O O15 0.291012 0.844261 0.149583
O O16 0.500000 0.539745 0.375332
O O17 0.777856 0.508741 0.369151
O O18 0.500000 0.310893 0.619182
O O19 0.000000 0.398793 0.232537
O O20 0.500000 0.998735 0.489207
#
# Coordination Sequence:
#
# PCOD8175701 Si02
#       8
#     8   8   8   8   8   8   8   8
#     4  11  22  36  58  88 122 160 201 244 294 351
#     4  10  22  41  63  87 120 159 201 249 301 361
#     4  10  22  39  62  92 123 160 203 248 300 362
#     4  10  23  41  63  90 119 157 201 251 306 361
#     4  10  21  37  57  85 118 156 198 239 290 349
#     4  10  23  42  64  89 119 158 200 250 310 361
#     4  10  21  40  62  89 126 162 202 247 302 363
#     4  11  22  36  57  86 121 160 200 242 291 350
#
# _framework density 19.867688999999999
#
# number of rings (size 3 to 8) (size 9 to 14) (size 15 to 20)
#    0.000    1.750    1.250    2.250    1.750    7.000 
#    0.000    0.000    0.000    0.000    0.000    0.000 
#    0.000    0.000    0.000    0.000    0.000    0.000 
#
# Total GULP energy -396754.750393 kJ/mol
# GULP energy per Si atom -12398.585950 kJ/mol
# Density = 1.982247 g / cm^3
# Si number density = 19.867689 Si / 1000 Ang^3
#
#
#
# Elastic Constant Matrix: (Units=GPa)
#
#
# Indices 1 2 3 4 5 6 
#
# 1 77.5194 51.6013 50.0947 0.0000 0.0000 0.0000
# 2 51.6013 100.8752 38.8150 0.0000 0.0000 0.0000
# 3 50.0947 38.8150 113.7633 0.0000 0.0000 0.0000
# 4 0.0000 0.0000 0.0000 35.9338 0.0000 0.0000
# 5 0.0000 0.0000 0.0000 0.0000 33.1087 0.0000
# 6 0.0000 0.0000 0.0000 0.0000 0.0000 25.6187
#
#
#
# Elastic Compliance Matrix: (Units=1/GPa)
#
#
# Indices 1 2 3 4 5 6 
#
# 1 0.023883 -0.009405 -0.007308 0.000000 0.000000 0.000000
# 2 -0.009405 0.015115 -0.001016 0.000000 0.000000 0.000000
# 3 -0.007308 -0.001016 0.012355 0.000000 0.000000 0.000000
# 4 0.000000 0.000000 0.000000 0.027829 0.000000 0.000000
# 5 0.000000 0.000000 0.000000 0.000000 0.030204 0.000000
# 6 0.000000 0.000000 0.000000 0.000000 0.000000 0.039034
#
#
# Mechanical properties :
#
#
# Convention : Reuss Voigt Hill
#
# Bulk Modulus (GPa) = 62.91023 63.68666 63.29844
# Shear Modulus (GPa) = 26.43058 29.04203 27.73631
#
# Velocity S-wave (km/s) = 3.65133 3.82746 3.74043
# Velocity P-wave (km/s) = 7.03630 7.18732 7.11221
#
# Compressibility (1/GPa) = 0.01589567
#
# Stress axis : x y z
#
# Youngs Moduli (GPa) = 41.87083 66.15897 80.94147
#
# Poissons Ratio (x) = 0.62223 0.59150
# Poissons Ratio (y) = 0.39380 0.08221
# Poissons Ratio (z) = 0.30598 0.06720
#
# Static dielectric constant tensor:
#      x y z
#    x 3.557080 0.000000 0.000000 
#    y 0.000000 3.612700 0.000000 
#    z 0.000000 0.000000 3.651120 
# 
# 
# High freq. dielectric constant tensor:
#      x y z
#    x 1.771390 0.000000 0.000000 
#    y 0.000000 1.775170 0.000000 
#    z 0.000000 0.000000 1.785620 
# 
# From -- ./inp_files/7144.got.cif
#   From: 2010.03.12/outbox.cif.g09.slc.cpg/sg36_4_cif.got.tgz:7144.got - 2010.04.14 02:13:53.
