data_PCOD8175241
_publ_section_title
;
Structure prediction by ZEFSAII (Michael W. Deem and Ramdas Pophale) SiO2 
 PCOD8175241
Probable space group: C M C 21
;
_chemical_formula_sum "Si O2"
_cell_formula_units_Z 64
_cell_length_a 9.308968
_cell_length_b 15.270825
_cell_length_c 23.941191
_cell_angle_alpha 90.000000
_cell_angle_beta 90.000000
_cell_angle_gamma 90.000000
_cell_volume 3403.374880
_symmetry_space_group_name_H-M "C M C 21"
_symmetry_group_IT_number 36
_symmetry_cell_setting 'orthorhombic'
loop_
_space_group_symop_operation_xyz
x,y,z
-x,-y,1/2+z
x,-y,1/2+z
-x,y,z
1/2+x,1/2+y,z
1/2-x,1/2-y,1/2+z
1/2+x,1/2-y,1/2+z
1/2-x,1/2+y,z
loop_
_atom_site_type_symbol
_atom_site_label
_atom_site_fract_x
_atom_site_fract_y
_atom_site_fract_z
Si Si1 0.669213 0.888708 0.099350
Si Si2 0.337250 0.025114 0.917679
Si Si3 0.662619 0.229410 0.913037
Si Si4 0.329705 0.293196 0.793175
Si Si5 0.329838 0.873018 0.226340
Si Si6 0.829972 0.971464 0.527119
Si Si7 0.833143 0.770920 0.521214
Si Si8 0.331039 0.963389 0.796702
O O1 0.500000 0.908623 0.094795
O O2 0.722318 0.879788 0.162757
O O3 0.708360 0.796685 0.069900
O O4 0.755406 0.970049 0.074027
O O5 0.500000 0.002616 0.936595
O O6 0.323555 0.126514 0.902716
O O7 0.293982 0.973012 0.862134
O O8 0.228904 0.997996 0.966824
O O9 0.500000 0.256145 0.926575
O O10 0.717389 0.275382 0.856889
O O11 0.756676 0.261482 0.964946
O O12 0.500000 0.303762 0.788042
O O13 0.270856 0.216076 0.753552
O O14 0.252000 0.380334 0.772172
O O15 0.500000 0.871924 0.230037
O O16 0.270702 0.954386 0.261986
O O17 0.786994 0.869746 0.538287
O O18 0.000000 0.985817 0.528825
O O19 0.000000 0.769171 0.507702
O O20 0.500000 0.951632 0.787382
#
# Coordination Sequence:
#
# PCOD8175241 Si02
#       8
#     8   8   8   8   8   8   8   8
#     4  10  21  38  60  80 104 148 194 223 262 327
#     4   9  17  33  56  79 110 147 182 219 267 330
#     4   9  17  32  55  80 109 143 179 219 266 323
#     4  10  20  35  56  83 110 143 183 223 274 328
#     4   9  19  39  60  77 107 149 189 224 263 326
#     4  10  21  36  54  81 115 143 176 228 280 321
#     4   9  20  36  53  78 110 143 179 221 272 323
#     4  10  20  35  56  82 109 142 182 227 272 320
#
# _framework density 18.804863000000001
#
# number of rings (size 3 to 8) (size 9 to 14) (size 15 to 20)
#    0.000    2.500    1.250    0.375    1.750    3.000 
#    0.000    3.125    0.000    0.000    0.000    0.000 
#    0.000    0.000    0.000    0.000    0.000    0.000 
#
# Total GULP energy -396837.537642 kJ/mol
# GULP energy per Si atom -12401.173051 kJ/mol
# Density = 1.876206 g / cm^3
# Si number density = 18.804863 Si / 1000 Ang^3
#
#
#
# Elastic Constant Matrix: (Units=GPa)
#
#
# Indices 1 2 3 4 5 6 
#
# 1 45.6456 38.3549 44.5820 0.0000 0.0000 0.0000
# 2 38.3549 113.5338 69.2447 0.0000 0.0000 0.0000
# 3 44.5820 69.2447 126.5884 0.0000 0.0000 0.0000
# 4 0.0000 0.0000 0.0000 23.8491 0.0000 0.0000
# 5 0.0000 0.0000 0.0000 0.0000 21.0604 0.0000
# 6 0.0000 0.0000 0.0000 0.0000 0.0000 30.2864
#
#
#
# Elastic Compliance Matrix: (Units=1/GPa)
#
#
# Indices 1 2 3 4 5 6 
#
# 1 0.036542 -0.006747 -0.009179 0.000000 0.000000 0.000000
# 2 -0.006747 0.014463 -0.005535 0.000000 0.000000 0.000000
# 3 -0.009179 -0.005535 0.014160 0.000000 0.000000 0.000000
# 4 0.000000 0.000000 0.000000 0.041930 0.000000 0.000000
# 5 0.000000 0.000000 0.000000 0.000000 0.047482 0.000000
# 6 0.000000 0.000000 0.000000 0.000000 0.000000 0.033018
#
#
# Mechanical properties :
#
#
# Convention : Reuss Voigt Hill
#
# Bulk Modulus (GPa) = 44.95716 65.57009 55.26363
# Shear Modulus (GPa) = 21.01433 23.94492 22.47963
#
# Velocity S-wave (km/s) = 3.34652 3.57226 3.46123
# Velocity P-wave (km/s) = 6.23629 7.20826 6.73982
#
# Compressibility (1/GPa) = 0.02224340
#
# Stress axis : x y z
#
# Youngs Moduli (GPa) = 27.36576 69.14073 70.62059
#
# Poissons Ratio (x) = 0.46647 0.64822
# Poissons Ratio (y) = 0.18463 0.39092
# Poissons Ratio (z) = 0.25119 0.38273
#
# Static dielectric constant tensor:
#      x y z
#    x 3.229900 0.000000 0.000000 
#    y 0.000000 3.524010 0.000000 
#    z 0.000000 0.000000 3.490840 
# 
# 
# High freq. dielectric constant tensor:
#      x y z
#    x 1.708610 0.000000 0.000000 
#    y 0.000000 1.738520 0.000000 
#    z 0.000000 0.000000 1.727940 
# 
# From -- ./inp_files/16546.got.cif
#   From: 2010.03.12/outbox.cif.g09.slc.cpg/sg36_9_cif.got.tgz:16546.got - 2010.04.14 02:13:53.
