data_PCOD8175420
_publ_section_title
;
Structure prediction by ZEFSAII (Michael W. Deem and Ramdas Pophale) SiO2 
 PCOD8175420
Probable space group: C M C 21
;
_chemical_formula_sum "Si O2"
_cell_formula_units_Z 64
_cell_length_a 9.139579
_cell_length_b 28.416494
_cell_length_c 14.055277
_cell_angle_alpha 90.000000
_cell_angle_beta 90.000000
_cell_angle_gamma 90.000000
_cell_volume 3650.363340
_symmetry_space_group_name_H-M "C M C 21"
_symmetry_group_IT_number 36
_symmetry_cell_setting 'orthorhombic'
loop_
_space_group_symop_operation_xyz
x,y,z
-x,-y,1/2+z
x,-y,1/2+z
-x,y,z
1/2+x,1/2+y,z
1/2-x,1/2-y,1/2+z
1/2+x,1/2-y,1/2+z
1/2-x,1/2+y,z
loop_
_atom_site_type_symbol
_atom_site_label
_atom_site_fract_x
_atom_site_fract_y
_atom_site_fract_z
Si Si1 0.834076 0.075366 0.779830
Si Si2 0.330273 0.299221 0.525508
Si Si3 0.336321 0.845126 0.371724
Si Si4 0.171374 0.831558 0.733575
Si Si5 0.331293 0.513697 0.403440
Si Si6 0.174037 0.570036 0.246135
Si Si7 0.328857 0.496040 0.119979
Si Si8 0.835943 0.757798 0.888832
O O1 0.732544 0.120462 0.793773
O O2 0.792441 0.050506 0.680662
O O3 0.000000 0.093214 0.777979
O O4 0.808151 0.039041 0.865840
O O5 0.500000 0.300644 0.501585
O O6 0.255263 0.343862 0.471095
O O7 0.298696 0.302673 0.637126
O O8 0.263503 0.250021 0.483550
O O9 0.500000 0.862552 0.394592
O O10 0.336613 0.791741 0.329794
O O11 0.270963 0.877177 0.734627
O O12 0.223864 0.798879 0.821024
O O13 0.000000 0.844859 0.741628
O O14 0.500000 0.529119 0.390159
O O15 0.230770 0.550059 0.346563
O O16 0.282522 0.514902 0.512689
O O17 0.236500 0.539838 0.158544
O O18 0.000000 0.568528 0.244269
O O19 0.500000 0.509244 0.129277
O O20 0.000000 0.770166 0.922726
#
# Coordination Sequence:
#
# PCOD8175420 Si02
#       8
#     8   8   8   8   8   8   8   8
#     4   9  17  30  51  78 103 132 177 220 259 311
#     4   9  18  32  54  79 101 131 174 218 259 311
#     4   9  18  32  50  73 105 134 165 210 264 314
#     4  10  20  37  58  76 106 148 183 216 266 326
#     4   9  19  37  57  75 104 144 183 220 264 323
#     4  11  23  35  52  84 115 140 180 228 275 319
#     4   9  19  36  56  77 104 143 186 220 261 324
#     4   8  18  35  52  74 104 136 170 214 266 318
#
# _framework density 17.532501
#
# number of rings (size 3 to 8) (size 9 to 14) (size 15 to 20)
#    0.750    2.000    0.000    2.250    1.750    4.000 
#    0.000    1.250    0.000    3.000    0.000    0.000 
#    0.000    0.000    0.000    0.000    0.000    0.000 
#
# Total GULP energy -396619.213936 kJ/mol
# GULP energy per Si atom -12394.350435 kJ/mol
# Density = 1.749260 g / cm^3
# Si number density = 17.532501 Si / 1000 Ang^3
#
#
#
# Elastic Constant Matrix: (Units=GPa)
#
#
# Indices 1 2 3 4 5 6 
#
# 1 103.1737 43.7310 46.8765 0.0000 0.0000 0.0000
# 2 43.7310 52.3969 28.7122 0.0000 0.0000 0.0000
# 3 46.8765 28.7122 107.1529 0.0000 0.0000 0.0000
# 4 0.0000 0.0000 0.0000 17.8291 0.0000 0.0000
# 5 0.0000 0.0000 0.0000 0.0000 22.1981 0.0000
# 6 0.0000 0.0000 0.0000 0.0000 0.0000 26.6759
#
#
#
# Elastic Compliance Matrix: (Units=1/GPa)
#
#
# Indices 1 2 3 4 5 6 
#
# 1 0.016412 -0.011443 -0.004113 0.000000 0.000000 0.000000
# 2 -0.011443 0.030349 -0.003126 0.000000 0.000000 0.000000
# 3 -0.004113 -0.003126 0.011970 0.000000 0.000000 0.000000
# 4 0.000000 0.000000 0.000000 0.056088 0.000000 0.000000
# 5 0.000000 0.000000 0.000000 0.000000 0.045049 0.000000
# 6 0.000000 0.000000 0.000000 0.000000 0.000000 0.037487
#
#
# Mechanical properties :
#
#
# Convention : Reuss Voigt Hill
#
# Bulk Modulus (GPa) = 46.80620 55.70699 51.25659
# Shear Modulus (GPa) = 20.67475 22.90085 21.78780
#
# Velocity S-wave (km/s) = 3.43771 3.61805 3.52903
# Velocity P-wave (km/s) = 6.52011 7.02113 6.77526
#
# Compressibility (1/GPa) = 0.02136469
#
# Stress axis : x y z
#
# Youngs Moduli (GPa) = 60.93245 32.95026 83.54528
#
# Poissons Ratio (x) = 0.37706 0.34365
# Poissons Ratio (y) = 0.69727 0.26116
# Poissons Ratio (z) = 0.25064 0.10300
#
# Static dielectric constant tensor:
#      x y z
#    x 3.224650 0.000000 0.000000 
#    y 0.000000 3.053950 0.000000 
#    z 0.000000 0.000000 3.220830 
# 
# 
# High freq. dielectric constant tensor:
#      x y z
#    x 1.677420 0.000000 0.000000 
#    y 0.000000 1.661590 0.000000 
#    z 0.000000 0.000000 1.667550 
# 
# From -- ./inp_files/11182.got.cif
#   From: 2010.03.12/outbox.cif.g09.slc.cpg/sg36_6_cif.got.tgz:11182.got - 2010.04.14 02:13:53.
