data_PCOD8175200
_publ_section_title
;
Structure prediction by ZEFSAII (Michael W. Deem and Ramdas Pophale) SiO2 
 PCOD8175200
Probable space group: C M C 21
;
_chemical_formula_sum "Si O2"
_cell_formula_units_Z 28
_cell_length_a 9.173010
_cell_length_b 26.025091
_cell_length_c 4.970529
_cell_angle_alpha 90.000000
_cell_angle_beta 90.000000
_cell_angle_gamma 90.000000
_cell_volume 1186.606535
_symmetry_space_group_name_H-M "C M C 21"
_symmetry_group_IT_number 36
_symmetry_cell_setting 'orthorhombic'
loop_
_space_group_symop_operation_xyz
x,y,z
-x,-y,1/2+z
x,-y,1/2+z
-x,y,z
1/2+x,1/2+y,z
1/2-x,1/2-y,1/2+z
1/2+x,1/2-y,1/2+z
1/2-x,1/2+y,z
loop_
_atom_site_type_symbol
_atom_site_label
_atom_site_fract_x
_atom_site_fract_y
_atom_site_fract_z
Si Si1 0.000000 0.464292 0.637930
Si Si2 0.157897 0.611877 0.462423
Si Si3 0.328438 0.532189 0.753056
Si Si4 0.326460 0.226409 0.399263
O O1 0.000000 0.482802 0.324502
O O2 0.859965 0.428298 0.712505
O O3 0.265667 0.588351 0.686651
O O4 0.214124 0.666456 0.353990
O O5 0.000000 0.620764 0.605668
O O6 0.272183 0.490339 0.534838
O O7 0.500000 0.537502 0.746906
O O8 0.500000 0.236994 0.368244
O O9 0.270540 0.241152 0.694149
#
# Coordination Sequence:
#
# PCOD8175200 Si02
#       4
#     4   8   8   8
#     4  10  20  34  60  92 124 158 202 264 336 390
#     4   9  22  40  61  92 121 161 217 267 322 396
#     4  10  21  36  55  84 122 158 195 244 312 390
#     4  11  25  46  69  99 133 179 230 294 346 409
#
# _framework density 23.596699000000001
#
# number of rings (size 3 to 8) (size 9 to 14) (size 15 to 20)
#    0.857    1.143    0.000    2.571    0.000    6.857 
#    0.000    2.857    0.000    0.000    0.000    0.000 
#    0.000    0.000    0.000    0.000    0.000    0.000 
#
# Total GULP energy -173497.749660 kJ/mol
# GULP energy per Si atom -12392.696404 kJ/mol
# Density = 2.354299 g / cm^3
# Si number density = 23.596699 Si / 1000 Ang^3
#
#
#
# Elastic Constant Matrix: (Units=GPa)
#
#
# Indices 1 2 3 4 5 6 
#
# 1 54.4898 46.9882 31.2750 0.0000 0.0000 0.0000
# 2 46.9882 150.2162 31.1304 0.0000 0.0000 0.0000
# 3 31.2750 31.1304 102.2031 0.0000 0.0000 0.0000
# 4 0.0000 0.0000 0.0000 28.1871 0.0000 0.0000
# 5 0.0000 0.0000 0.0000 0.0000 25.4293 0.0000
# 6 0.0000 0.0000 0.0000 0.0000 0.0000 36.9391
#
#
#
# Elastic Compliance Matrix: (Units=1/GPa)
#
#
# Indices 1 2 3 4 5 6 
#
# 1 0.028614 -0.007617 -0.006436 0.000000 0.000000 0.000000
# 2 -0.007617 0.009133 -0.000451 0.000000 0.000000 0.000000
# 3 -0.006436 -0.000451 0.011891 0.000000 0.000000 0.000000
# 4 0.000000 0.000000 0.000000 0.035477 0.000000 0.000000
# 5 0.000000 0.000000 0.000000 0.000000 0.039325 0.000000
# 6 0.000000 0.000000 0.000000 0.000000 0.000000 0.027072
#
#
# Mechanical properties :
#
#
# Convention : Reuss Voigt Hill
#
# Bulk Modulus (GPa) = 48.47159 58.41072 53.44115
# Shear Modulus (GPa) = 26.68123 31.27881 28.98002
#
# Velocity S-wave (km/s) = 3.36626 3.64477 3.50828
# Velocity P-wave (km/s) = 5.97455 6.52074 6.25361
#
# Compressibility (1/GPa) = 0.02063064
#
# Stress axis : x y z
#
# Youngs Moduli (GPa) = 34.94733 109.49129 84.09466
#
# Poissons Ratio (x) = 0.83398 0.54125
# Poissons Ratio (y) = 0.26619 0.03793
# Poissons Ratio (z) = 0.22493 0.04939
#
# Static dielectric constant tensor:
#      x y z
#    x 4.612500 0.000000 0.000000 
#    y 0.000000 4.214510 0.000000 
#    z 0.000000 0.000000 4.029160 
# 
# 
# High freq. dielectric constant tensor:
#      x y z
#    x 1.950140 0.000000 0.000000 
#    y 0.000000 1.933090 0.000000 
#    z 0.000000 0.000000 1.927530 
# 
# From -- ./inp_files/424.got.cif
#   From: 2010.03.12/outbox.cif.g09.slc.cpg/sg36_1_cif.got.tgz:424.got - 2010.04.14 02:13:53.
