data_PCOD8175016
_publ_section_title
;
Structure prediction by ZEFSAII (Michael W. Deem and Ramdas Pophale) SiO2 
 PCOD8175016
Probable space group: C M C 21
;
_chemical_formula_sum "Si O2"
_cell_formula_units_Z 64
_cell_length_a 8.961531
_cell_length_b 30.696748
_cell_length_c 12.004024
_cell_angle_alpha 90.000000
_cell_angle_beta 90.000000
_cell_angle_gamma 90.000000
_cell_volume 3302.185267
_symmetry_space_group_name_H-M "C M C 21"
_symmetry_group_IT_number 36
_symmetry_cell_setting 'orthorhombic'
loop_
_space_group_symop_operation_xyz
x,y,z
-x,-y,1/2+z
x,-y,1/2+z
-x,y,z
1/2+x,1/2+y,z
1/2-x,1/2-y,1/2+z
1/2+x,1/2-y,1/2+z
1/2-x,1/2+y,z
loop_
_atom_site_type_symbol
_atom_site_label
_atom_site_fract_x
_atom_site_fract_y
_atom_site_fract_z
Si Si1 0.177163 0.122456 0.062350
Si Si2 0.173414 0.168386 0.417843
Si Si3 0.824504 0.456490 0.695955
Si Si4 0.822963 0.123130 0.807320
Si Si5 0.829359 0.073580 0.401164
Si Si6 0.828683 0.955360 0.151915
Si Si7 0.322553 0.699772 0.650623
Si Si8 0.172799 0.209686 0.189899
O O1 0.249544 0.082430 0.127193
O O2 0.226381 0.168186 0.117624
O O3 0.000000 0.116736 0.069869
O O4 0.234455 0.122044 0.934452
O O5 0.235992 0.121816 0.379188
O O6 0.246588 0.184311 0.532728
O O7 0.202521 0.202564 0.320499
O O8 0.000000 0.160834 0.441442
O O9 0.772291 0.457321 0.824896
O O10 0.775213 0.502641 0.647429
O O11 0.000000 0.451416 0.686695
O O12 0.768490 0.079875 0.741879
O O13 0.762153 0.167009 0.746633
O O14 0.000000 0.124261 0.803621
O O15 0.814318 0.065167 0.530939
O O16 0.000000 0.068058 0.360980
O O17 0.000000 0.968274 0.178406
O O18 0.500000 0.699880 0.649999
O O19 0.269984 0.748790 0.663042
O O20 0.000000 0.219167 0.165208
#
# Coordination Sequence:
#
# PCOD8175016 Si02
#       8
#     8   8   8   8   8   8   8   8
#     4  10  21  40  62  83 114 156 202 240 279 342
#     4   9  17  35  60  82 109 147 192 241 284 332
#     4  12  26  40  57  87 126 155 186 239 305 356
#     4   9  19  37  62  89 113 146 196 247 283 331
#     4  10  19  39  67  86 108 151 204 248 284 338
#     4  10  21  39  65  90 112 150 205 246 283 342
#     4  10  20  36  59  86 115 147 189 240 293 342
#     4  10  21  36  56  83 117 154 192 237 285 339
#
# _framework density 19.381104000000001
#
# number of rings (size 3 to 8) (size 9 to 14) (size 15 to 20)
#    0.000    2.000    2.500    1.125    3.500    1.000 
#    0.000    1.875    0.000    0.000    0.000    0.000 
#    0.000    0.000    0.000    0.000    0.000    0.000 
#
# Total GULP energy -396742.098653 kJ/mol
# GULP energy per Si atom -12398.190583 kJ/mol
# Density = 1.933699 g / cm^3
# Si number density = 19.381104 Si / 1000 Ang^3
#
#
#
# Elastic Constant Matrix: (Units=GPa)
#
#
# Indices 1 2 3 4 5 6 
#
# 1 46.1764 34.8189 29.8174 0.0000 0.0000 0.0000
# 2 34.8189 123.6322 43.6654 0.0000 0.0000 0.0000
# 3 29.8174 43.6654 117.8040 0.0000 0.0000 0.0000
# 4 0.0000 0.0000 0.0000 26.1083 0.0000 0.0000
# 5 0.0000 0.0000 0.0000 0.0000 13.8588 0.0000
# 6 0.0000 0.0000 0.0000 0.0000 0.0000 30.2102
#
#
#
# Elastic Compliance Matrix: (Units=1/GPa)
#
#
# Indices 1 2 3 4 5 6 
#
# 1 0.029965 -0.006628 -0.005128 0.000000 0.000000 0.000000
# 2 -0.006628 0.010773 -0.002315 0.000000 0.000000 0.000000
# 3 -0.005128 -0.002315 0.010645 0.000000 0.000000 0.000000
# 4 0.000000 0.000000 0.000000 0.038302 0.000000 0.000000
# 5 0.000000 0.000000 0.000000 0.000000 0.072156 0.000000
# 6 0.000000 0.000000 0.000000 0.000000 0.000000 0.033101
#
#
# Mechanical properties :
#
#
# Convention : Reuss Voigt Hill
#
# Bulk Modulus (GPa) = 43.02874 56.02400 49.52637
# Shear Modulus (GPa) = 21.66081 25.98953 23.82517
#
# Velocity S-wave (km/s) = 3.34672 3.66590 3.50994
# Velocity P-wave (km/s) = 6.09784 6.84746 6.48349
#
# Compressibility (1/GPa) = 0.02324028
#
# Stress axis : x y z
#
# Youngs Moduli (GPa) = 33.37228 92.82457 93.94260
#
# Poissons Ratio (x) = 0.61525 0.48170
# Poissons Ratio (y) = 0.22120 0.21752
# Poissons Ratio (z) = 0.17112 0.21494
#
# Static dielectric constant tensor:
#      x y z
#    x 3.149150 0.000000 0.000000 
#    y 0.000000 3.619850 0.000000 
#    z 0.000000 0.000000 3.883470 
# 
# 
# High freq. dielectric constant tensor:
#      x y z
#    x 1.708840 0.000000 0.000000 
#    y 0.000000 1.765360 0.000000 
#    z 0.000000 0.000000 1.772390 
# 
# From -- ./inp_files/7102.got.cif
#   From: 2010.03.12/outbox.cif.g09.slc.cpg/sg36_4_cif.got.tgz:7102.got - 2010.04.14 02:13:53.
