data_PCOD8175331
_publ_section_title
;
Structure prediction by ZEFSAII (Michael W. Deem and Ramdas Pophale) SiO2 
 PCOD8175331
Probable space group: C M C 21
;
_chemical_formula_sum "Si O2"
_cell_formula_units_Z 48
_cell_length_a 8.837533
_cell_length_b 30.496512
_cell_length_c 9.344746
_cell_angle_alpha 90.000000
_cell_angle_beta 90.000000
_cell_angle_gamma 90.000000
_cell_volume 2518.539230
_symmetry_space_group_name_H-M "C M C 21"
_symmetry_group_IT_number 36
_symmetry_cell_setting 'orthorhombic'
loop_
_space_group_symop_operation_xyz
x,y,z
-x,-y,1/2+z
x,-y,1/2+z
-x,y,z
1/2+x,1/2+y,z
1/2-x,1/2-y,1/2+z
1/2+x,1/2-y,1/2+z
1/2-x,1/2+y,z
loop_
_atom_site_type_symbol
_atom_site_label
_atom_site_fract_x
_atom_site_fract_y
_atom_site_fract_z
Si Si1 0.322573 0.705019 0.834780
Si Si2 0.675417 0.718007 0.507482
Si Si3 0.675508 0.364589 0.813072
Si Si4 0.680138 0.131279 0.013839
Si Si5 0.325819 0.954295 0.859119
Si Si6 0.172540 0.465488 0.531253
O O1 0.500000 0.696825 0.847507
O O2 0.273930 0.714386 0.672170
O O3 0.276917 0.745168 0.934892
O O4 0.238193 0.661226 0.885597
O O5 0.500000 0.731733 0.494812
O O6 0.707841 0.672146 0.430950
O O7 0.500000 0.368638 0.775763
O O8 0.761436 0.351586 0.667356
O O9 0.732977 0.409865 0.881427
O O10 0.500000 0.131815 0.021560
O O11 0.742222 0.081746 0.986781
O O12 0.500000 0.944348 0.900098
O O13 0.312127 0.971974 0.699234
O O14 0.249786 0.992616 0.955720
O O15 0.000000 0.465773 0.479115
#
# Coordination Sequence:
#
# PCOD8175331 Si02
#       6
#     8   8   8   8   8   8
#     4  11  23  38  57  81 108 138 175 221 269 317
#     4  10  23  40  56  78 109 142 177 218 265 322
#     4  10  20  36  56  79 109 144 181 222 269 317
#     4  10  20  36  57  81 109 142 181 222 266 318
#     4   9  17  32  52  75 104 139 180 223 266 312
#     4   8  16  30  50  74 101 135 174 216 259 308
#
# _framework density 19.058668000000001
#
# number of rings (size 3 to 8) (size 9 to 14) (size 15 to 20)
#    0.000    2.333    0.000    3.500    0.000    6.667 
#    0.000    5.833    0.000    0.000    0.000    0.000 
#    0.000    0.000    0.000    0.000    0.000    0.000 
#
# Total GULP energy -297606.652566 kJ/mol
# GULP energy per Si atom -12400.277190 kJ/mol
# Density = 1.901529 g / cm^3
# Si number density = 19.058668 Si / 1000 Ang^3
#
#
#
# Elastic Constant Matrix: (Units=GPa)
#
#
# Indices 1 2 3 4 5 6 
#
# 1 56.6991 21.1477 20.5722 0.0000 0.0000 0.0000
# 2 21.1477 83.0727 32.0991 0.0000 0.0000 0.0000
# 3 20.5722 32.0991 73.1843 0.0000 0.0000 0.0000
# 4 0.0000 0.0000 0.0000 40.6252 0.0000 0.0000
# 5 0.0000 0.0000 0.0000 0.0000 26.2983 0.0000
# 6 0.0000 0.0000 0.0000 0.0000 0.0000 29.3544
#
#
#
# Elastic Compliance Matrix: (Units=1/GPa)
#
#
# Indices 1 2 3 4 5 6 
#
# 1 0.020498 -0.003602 -0.004182 0.000000 0.000000 0.000000
# 2 -0.003602 0.015127 -0.005622 0.000000 0.000000 0.000000
# 3 -0.004182 -0.005622 0.017306 0.000000 0.000000 0.000000
# 4 0.000000 0.000000 0.000000 0.024615 0.000000 0.000000
# 5 0.000000 0.000000 0.000000 0.000000 0.038025 0.000000
# 6 0.000000 0.000000 0.000000 0.000000 0.000000 0.034066
#
#
# Mechanical properties :
#
#
# Convention : Reuss Voigt Hill
#
# Bulk Modulus (GPa) = 38.28826 40.06601 39.17714
# Shear Modulus (GPa) = 27.00420 28.53139 27.76779
#
# Velocity S-wave (km/s) = 3.76825 3.87334 3.82116
# Velocity P-wave (km/s) = 6.25030 6.40873 6.33001
#
# Compressibility (1/GPa) = 0.02611767
#
# Stress axis : x y z
#
# Youngs Moduli (GPa) = 48.78554 66.10670 57.78456
#
# Poissons Ratio (x) = 0.23813 0.24166
# Poissons Ratio (y) = 0.17573 0.32488
# Poissons Ratio (z) = 0.20402 0.37167
#
# Static dielectric constant tensor:
#      x y z
#    x 3.361130 0.000000 0.000000 
#    y 0.000000 3.733790 0.000000 
#    z 0.000000 0.000000 3.498610 
# 
# 
# High freq. dielectric constant tensor:
#      x y z
#    x 1.724530 0.000000 0.000000 
#    y 0.000000 1.756060 0.000000 
#    z 0.000000 0.000000 1.739760 
# 
# From -- ./inp_files/2690.got.cif
#   From: 2010.03.12/outbox.cif.g09.slc.cpg/sg36_2_cif.got.tgz:2690.got - 2010.04.14 02:13:53.
