data_PCOD8175787
_publ_section_title
;
Structure prediction by ZEFSAII (Michael W. Deem and Ramdas Pophale) SiO2 
 PCOD8175787
Probable space group: C M C 21
;
_chemical_formula_sum "Si O2"
_cell_formula_units_Z 32
_cell_length_a 8.466050
_cell_length_b 34.709677
_cell_length_c 5.022132
_cell_angle_alpha 90.000000
_cell_angle_beta 90.000000
_cell_angle_gamma 90.000000
_cell_volume 1475.772878
_symmetry_space_group_name_H-M "C M C 21"
_symmetry_group_IT_number 36
_symmetry_cell_setting 'orthorhombic'
loop_
_space_group_symop_operation_xyz
x,y,z
-x,-y,1/2+z
x,-y,1/2+z
-x,y,z
1/2+x,1/2+y,z
1/2-x,1/2-y,1/2+z
1/2+x,1/2-y,1/2+z
1/2-x,1/2+y,z
loop_
_atom_site_type_symbol
_atom_site_label
_atom_site_fract_x
_atom_site_fract_y
_atom_site_fract_z
Si Si1 0.183808 0.393277 0.299910
Si Si2 0.316765 0.769561 0.818489
Si Si3 0.817616 0.025035 0.812751
Si Si4 0.185457 0.146925 0.303840
O O1 0.210088 0.437984 0.366850
O O2 0.275574 0.366237 0.506117
O O3 0.000000 0.383359 0.314997
O O4 0.251790 0.385351 0.006671
O O5 0.500000 0.763706 0.875492
O O6 0.277757 0.758487 0.515774
O O7 0.271205 0.813429 0.873623
O O8 0.000000 0.037834 0.835542
O O9 0.777126 0.007853 0.525498
O O10 0.000000 0.152666 0.335387
#
# Coordination Sequence:
#
# PCOD8175787 Si02
#       4
#     8   8   8   8
#     4  12  25  42  65  96 130 165 209 264 319 372
#     4  12  25  44  67  96 130 167 211 260 315 374
#     4  10  21  38  61  89 123 164 208 254 309 374
#     4  12  25  44  67  93 127 170 214 258 313 376
#
# _framework density 21.683551000000001
#
# number of rings (size 3 to 8) (size 9 to 14) (size 15 to 20)
#    0.000    0.500    0.000    9.750    0.000    3.000 
#    0.000    0.000    0.000    0.000    0.000    0.000 
#    0.000    0.000    0.000    0.000    0.000    0.000 
#
# Total GULP energy -198584.697245 kJ/mol
# GULP energy per Si atom -12411.543578 kJ/mol
# Density = 2.163420 g / cm^3
# Si number density = 21.683551 Si / 1000 Ang^3
#
#
#
# Elastic Constant Matrix: (Units=GPa)
#
#
# Indices 1 2 3 4 5 6 
#
# 1 92.1833 35.8838 25.0287 0.0000 0.0000 0.0000
# 2 35.8838 90.2128 18.4232 0.0000 0.0000 0.0000
# 3 25.0287 18.4232 89.7323 0.0000 0.0000 0.0000
# 4 0.0000 0.0000 0.0000 32.5806 0.0000 0.0000
# 5 0.0000 0.0000 0.0000 0.0000 31.7079 0.0000
# 6 0.0000 0.0000 0.0000 0.0000 0.0000 36.6156
#
#
#
# Elastic Compliance Matrix: (Units=1/GPa)
#
#
# Indices 1 2 3 4 5 6 
#
# 1 0.013465 -0.004790 -0.002772 0.000000 0.000000 0.000000
# 2 -0.004790 0.013274 -0.001389 0.000000 0.000000 0.000000
# 3 -0.002772 -0.001389 0.012203 0.000000 0.000000 0.000000
# 4 0.000000 0.000000 0.000000 0.030693 0.000000 0.000000
# 5 0.000000 0.000000 0.000000 0.000000 0.031538 0.000000
# 6 0.000000 0.000000 0.000000 0.000000 0.000000 0.027311
#
#
# Mechanical properties :
#
#
# Convention : Reuss Voigt Hill
#
# Bulk Modulus (GPa) = 47.53116 47.86664 47.69890
# Shear Modulus (GPa) = 32.59459 33.03365 32.81412
#
# Velocity S-wave (km/s) = 3.88131 3.90736 3.89436
# Velocity P-wave (km/s) = 6.48491 6.51764 6.50130
#
# Compressibility (1/GPa) = 0.02103883
#
# Stress axis : x y z
#
# Youngs Moduli (GPa) = 74.26540 75.33595 81.94847
#
# Poissons Ratio (x) = 0.36085 0.22719
# Poissons Ratio (y) = 0.35572 0.11385
# Poissons Ratio (z) = 0.20589 0.10466
#
# Static dielectric constant tensor:
#      x y z
#    x 3.939090 0.000000 0.000000 
#    y 0.000000 3.851560 0.000000 
#    z 0.000000 0.000000 4.017830 
# 
# 
# High freq. dielectric constant tensor:
#      x y z
#    x 1.857730 0.000000 0.000000 
#    y 0.000000 1.860940 0.000000 
#    z 0.000000 0.000000 1.865810 
# 
# From -- ./inp_files/226.got.cif
#   From: 2010.03.12/outbox.cif.g09.slc.cpg/sg36_1_cif.got.tgz:226.got - 2010.04.14 02:13:53.
