data_PCOD8175620
_publ_section_title
;
Structure prediction by ZEFSAII (Michael W. Deem and Ramdas Pophale) SiO2 
 PCOD8175620
Probable space group: C M C 21
;
_chemical_formula_sum "Si O2"
_cell_formula_units_Z 60
_cell_length_a 17.309129
_cell_length_b 33.857978
_cell_length_c 5.148267
_cell_angle_alpha 90.000000
_cell_angle_beta 90.000000
_cell_angle_gamma 90.000000
_cell_volume 3017.152732
_symmetry_space_group_name_H-M "C M C 21"
_symmetry_group_IT_number 36
_symmetry_cell_setting 'orthorhombic'
loop_
_space_group_symop_operation_xyz
x,y,z
-x,-y,1/2+z
x,-y,1/2+z
-x,y,z
1/2+x,1/2+y,z
1/2-x,1/2-y,1/2+z
1/2+x,1/2-y,1/2+z
1/2-x,1/2+y,z
loop_
_atom_site_type_symbol
_atom_site_label
_atom_site_fract_x
_atom_site_fract_y
_atom_site_fract_z
Si Si1 0.189037 0.355334 0.940630
Si Si2 0.000000 0.027765 0.956727
Si Si3 0.912427 0.233596 0.459384
Si Si4 0.126910 0.905547 0.463271
Si Si5 0.912382 0.524383 0.947124
Si Si6 0.804450 0.595935 0.934210
Si Si7 0.907357 0.722943 0.460041
Si Si8 0.633433 0.645635 0.472548
O O1 0.181801 0.370394 0.647425
O O2 0.129651 0.319990 0.973471
O O3 0.168079 0.388706 0.152776
O O4 0.276848 0.342529 0.996377
O O5 0.923866 0.054953 0.967405
O O6 0.000000 0.997461 0.194500
O O7 0.873867 0.253063 0.713249
O O8 0.911459 0.186473 0.455673
O O9 0.000000 0.247681 0.462114
O O10 0.874443 0.251978 0.202225
O O11 0.215821 0.918466 0.431849
O O12 0.102841 0.877756 0.223696
O O13 0.113594 0.881230 0.725991
O O14 0.895944 0.509842 0.655995
O O15 0.855887 0.559471 0.017491
O O16 0.000000 0.539599 0.976460
O O17 0.000000 0.718821 0.458796
#
# Coordination Sequence:
#
# PCOD8175620 Si02
#       8
#     8   4   8   8   8   8   8   8
#     4  10  21  36  56  79 112 146 187 227 272 335
#     4  12  26  42  62  90 118 150 188 228 288 354
#     4  10  21  34  54  80 109 144 190 230 280 338
#     4  10  23  39  59  84 114 143 183 234 273 331
#     4  10  21  36  56  83 111 139 179 228 270 318
#     4  10  21  38  57  83 110 147 188 222 277 338
#     4  10  21  36  51  80 115 147 185 234 277 325
#     4  10  21  38  58  84 108 145 188 231 279 324
#
# _framework density 19.886296999999999
#
# number of rings (size 3 to 8) (size 9 to 14) (size 15 to 20)
#    0.000    1.867    0.000    3.200    1.867    3.200 
#    0.000    0.000    0.000    0.000    0.000    0.000 
#    0.000    0.000    0.000    0.000    0.000    0.000 
#
# Total GULP energy -372063.925232 kJ/mol
# GULP energy per Si atom -12402.130841 kJ/mol
# Density = 1.984103 g / cm^3
# Si number density = 19.886297 Si / 1000 Ang^3
#
#
#
# Elastic Constant Matrix: (Units=GPa)
#
#
# Indices 1 2 3 4 5 6 
#
# 1 60.3485 54.2924 32.1795 0.0000 0.0000 0.0000
# 2 54.2924 106.4598 32.0068 0.0000 0.0000 0.0000
# 3 32.1795 32.0068 126.3707 0.0000 0.0000 0.0000
# 4 0.0000 0.0000 0.0000 30.5923 0.0000 0.0000
# 5 0.0000 0.0000 0.0000 0.0000 11.9436 0.0000
# 6 0.0000 0.0000 0.0000 0.0000 0.0000 227.1355
#
#
#
# Elastic Compliance Matrix: (Units=1/GPa)
#
#
# Indices 1 2 3 4 5 6 
#
# 1 0.032780 -0.015378 -0.004452 0.000000 0.000000 0.000000
# 2 -0.015378 0.017382 -0.000486 0.000000 0.000000 0.000000
# 3 -0.004452 -0.000486 0.009170 0.000000 0.000000 0.000000
# 4 0.000000 0.000000 0.000000 0.032688 0.000000 0.000000
# 5 0.000000 0.000000 0.000000 0.000000 0.083727 0.000000
# 6 0.000000 0.000000 0.000000 0.000000 0.000000 0.004403
#
#
# Mechanical properties :
#
#
# Convention : Reuss Voigt Hill
#
# Bulk Modulus (GPa) = 53.48208 58.90406 56.19307
# Shear Modulus (GPa) = 22.02490 65.58096 43.80293
#
# Velocity S-wave (km/s) = 3.33159 5.74887 4.69835
# Velocity P-wave (km/s) = 6.46155 8.58783 7.59942
#
# Compressibility (1/GPa) = 0.01869785
#
# Stress axis : x y z
#
# Youngs Moduli (GPa) = 30.50680 57.53024 109.04960
#
# Poissons Ratio (x) = 0.88472 0.48550
# Poissons Ratio (y) = 0.46915 0.05305
# Poissons Ratio (z) = 0.13582 0.02799
#
# Static dielectric constant tensor:
#      x y z
#    x 3.559650 0.000000 0.000000 
#    y 0.000000 3.363730 0.000000 
#    z 0.000000 0.000000 4.033140 
# 
# 
# High freq. dielectric constant tensor:
#      x y z
#    x 1.768300 0.000000 0.000000 
#    y 0.000000 1.770510 0.000000 
#    z 0.000000 0.000000 1.800860 
# 
# From -- ./inp_files/1190.got.cif
#   From: 2010.03.12/outbox.cif.g09.slc.cpg/sg36_1_cif.got.tgz:1190.got - 2010.04.14 02:13:53.
