data_PCOD8175010
_publ_section_title
;
Structure prediction by ZEFSAII (Michael W. Deem and Ramdas Pophale) SiO2 
 PCOD8175010
Probable space group: C M C 21
;
_chemical_formula_sum "Si O2"
_cell_formula_units_Z 32
_cell_length_a 7.274578
_cell_length_b 22.442602
_cell_length_c 11.091715
_cell_angle_alpha 90.000000
_cell_angle_beta 90.000000
_cell_angle_gamma 90.000000
_cell_volume 1810.838479
_symmetry_space_group_name_H-M "C M C 21"
_symmetry_group_IT_number 36
_symmetry_cell_setting 'orthorhombic'
loop_
_space_group_symop_operation_xyz
x,y,z
-x,-y,1/2+z
x,-y,1/2+z
-x,y,z
1/2+x,1/2+y,z
1/2-x,1/2-y,1/2+z
1/2+x,1/2-y,1/2+z
1/2-x,1/2+y,z
loop_
_atom_site_type_symbol
_atom_site_label
_atom_site_fract_x
_atom_site_fract_y
_atom_site_fract_z
Si Si1 0.000000 0.456909 0.459960
Si Si2 0.282486 0.404502 0.632157
Si Si3 0.500000 0.813570 0.033324
Si Si4 0.301205 0.702858 0.970900
Si Si5 0.500000 0.159434 0.807380
Si Si6 0.500000 0.915973 0.838185
O O1 0.815475 0.450715 0.540691
O O2 0.000000 0.408103 0.353712
O O3 0.000000 0.520684 0.400906
O O4 0.500000 0.418293 0.643209
O O5 0.236939 0.338009 0.583216
O O6 0.186789 0.409615 0.761681
O O7 0.500000 0.842707 0.164299
O O8 0.318663 0.771658 0.014997
O O9 0.500000 0.865838 0.938534
O O10 0.500000 0.678474 0.928237
O O11 0.172509 0.697004 0.855607
#
# Coordination Sequence:
#
# PCOD8175010 Si02
#       6
#     4   8   4   8   4   4
#     4   9  21  38  62  81 115 153 193 231 290 340
#     4   9  19  39  63  79 111 156 190 233 291 338
#     4  10  23  33  58  89 114 139 195 238 276 342
#     4   8  19  36  55  83 106 148 187 228 285 342
#     4  10  19  39  58  77 114 155 178 237 289 329
#     4  11  23  36  58  91 117 147 194 240 279 341
#
# _framework density 17.671372000000002
#
# number of rings (size 3 to 8) (size 9 to 14) (size 15 to 20)
#    0.750    2.000    0.000    0.750    7.000    1.000 
#    2.250    0.000    0.000    0.000    0.000    0.000 
#    0.000    0.000    0.000    0.000    0.000    0.000 
#
# Total GULP energy -198280.739699 kJ/mol
# GULP energy per Si atom -12392.546231 kJ/mol
# Density = 1.763115 g / cm^3
# Si number density = 17.671372 Si / 1000 Ang^3
#
#
#
# Elastic Constant Matrix: (Units=GPa)
#
#
# Indices 1 2 3 4 5 6 
#
# 1 122.0736 45.2830 66.8369 0.0000 0.0000 0.0000
# 2 45.2830 130.0735 81.7426 0.0000 0.0000 0.0000
# 3 66.8369 81.7426 153.2794 0.0000 0.0000 0.0000
# 4 0.0000 0.0000 0.0000 25.1485 0.0000 0.0000
# 5 0.0000 0.0000 0.0000 0.0000 23.0441 0.0000
# 6 0.0000 0.0000 0.0000 0.0000 0.0000 -25.7765
#
#
#
# Elastic Compliance Matrix: (Units=1/GPa)
#
#
# Indices 1 2 3 4 5 6 
#
# 1 0.010887 -0.001213 -0.004100 0.000000 0.000000 0.000000
# 2 -0.001213 0.011699 -0.005710 0.000000 0.000000 0.000000
# 3 -0.004100 -0.005710 0.011357 0.000000 0.000000 0.000000
# 4 0.000000 0.000000 0.000000 0.039764 0.000000 0.000000
# 5 0.000000 0.000000 0.000000 0.000000 0.043395 0.000000
# 6 0.000000 0.000000 0.000000 0.000000 0.000000 -0.038795
#
#
# Mechanical properties :
#
#
# Convention : Reuss Voigt Hill
#
# Bulk Modulus (GPa) = 84.06301 88.12795 86.09548
# Shear Modulus (GPa) = 47.93069 18.58746 33.25908
#
# Velocity S-wave (km/s) = 5.21366 3.24673 4.34301
# Velocity P-wave (km/s) = 9.16059 8.00211 8.60088
#
# Compressibility (1/GPa) = 0.01189584
#
# Stress axis : x y z
#
# Youngs Moduli (GPa) = 91.85518 85.48096 88.05379
#
# Poissons Ratio (x) = 0.10373 0.36102
# Poissons Ratio (y) = 0.11146 0.50275
# Poissons Ratio (z) = 0.37660 0.48806
#
# Static dielectric constant tensor:
#      x y z
#    x 3.348110 0.000000 0.000000 
#    y 0.000000 3.145400 0.000000 
#    z 0.000000 0.000000 3.120570 
# 
# 
# High freq. dielectric constant tensor:
#      x y z
#    x 1.682870 0.000000 0.000000 
#    y 0.000000 1.674060 0.000000 
#    z 0.000000 0.000000 1.678090 
# 
# From -- ./inp_files/2397.got.cif
#   From: 2010.03.12/outbox.cif.g09.slc.cpg/sg36_2_cif.got.tgz:2397.got - 2010.04.14 02:13:53.
