data_PCOD8175068
_publ_section_title
;
Structure prediction by ZEFSAII (Michael W. Deem and Ramdas Pophale) SiO2 
 PCOD8175068
Probable space group: C M C 21
;
_chemical_formula_sum "Si O2"
_cell_formula_units_Z 64
_cell_length_a 9.422291
_cell_length_b 22.678639
_cell_length_c 16.179241
_cell_angle_alpha 90.000000
_cell_angle_beta 90.000000
_cell_angle_gamma 90.000000
_cell_volume 3457.256844
_symmetry_space_group_name_H-M "C M C 21"
_symmetry_group_IT_number 36
_symmetry_cell_setting 'orthorhombic'
loop_
_space_group_symop_operation_xyz
x,y,z
-x,-y,1/2+z
x,-y,1/2+z
-x,y,z
1/2+x,1/2+y,z
1/2-x,1/2-y,1/2+z
1/2+x,1/2-y,1/2+z
1/2-x,1/2+y,z
loop_
_atom_site_type_symbol
_atom_site_label
_atom_site_fract_x
_atom_site_fract_y
_atom_site_fract_z
Si Si1 0.667709 0.968800 0.838890
Si Si2 0.656764 0.160667 0.333713
Si Si3 0.164460 0.837019 0.211203
Si Si4 0.834167 0.453379 0.183692
Si Si5 0.832596 0.142115 0.031955
Si Si6 0.654502 0.788494 0.652121
Si Si7 0.835513 0.476665 0.515667
Si Si8 0.330569 0.281786 0.379622
O O1 0.500000 0.964810 0.826836
O O2 0.736654 0.902660 0.834399
O O3 0.725751 0.007785 0.761449
O O4 0.709633 0.993937 0.928659
O O5 0.500000 0.148419 0.370606
O O6 0.643509 0.187953 0.243893
O O7 0.730848 0.214171 0.385652
O O8 0.254781 0.891501 0.178912
O O9 0.185576 0.781531 0.149779
O O10 0.224705 0.817838 0.300519
O O11 0.000000 0.855869 0.216138
O O12 0.804556 0.482811 0.094926
O O13 0.000000 0.441430 0.196431
O O14 0.776738 0.182235 0.957540
O O15 0.000000 0.133627 0.032527
O O16 0.783533 0.176051 0.113029
O O17 0.761410 0.079418 0.026528
O O18 0.500000 0.800510 0.609586
O O19 0.000000 0.458186 0.513336
O O20 0.500000 0.276904 0.374318
#
# Coordination Sequence:
#
# PCOD8175068 Si02
#       8
#     8   8   8   8   8   8   8   8
#     4   9  17  30  50  74  99 131 169 209 251 293
#     4   8  14  29  52  73  95 126 167 208 245 294
#     4   9  18  34  54  74  99 134 170 201 247 306
#     4  10  20  33  51  76 103 132 170 214 253 293
#     4  11  21  32  50  76 103 129 163 209 256 297
#     4   9  18  33  53  74  98 131 167 203 246 302
#     4  10  21  35  51  73 101 135 174 210 250 304
#     4   8  16  30  49  74 100 128 162 202 250 303
#
# _framework density 18.511786000000001
#
# number of rings (size 3 to 8) (size 9 to 14) (size 15 to 20)
#    0.000    2.750    0.000    3.375    0.000    4.000 
#    0.000    3.125    0.000    2.250    0.000    1.750 
#    0.000    0.000    0.000    0.000    0.000    0.000 
#
# Total GULP energy -396513.684560 kJ/mol
# GULP energy per Si atom -12391.052642 kJ/mol
# Density = 1.846965 g / cm^3
# Si number density = 18.511786 Si / 1000 Ang^3
#
#
#
# Elastic Constant Matrix: (Units=GPa)
#
#
# Indices 1 2 3 4 5 6 
#
# 1 43.7594 55.5199 24.8208 0.0000 0.0000 0.0000
# 2 55.5199 161.7229 46.0511 0.0000 0.0000 0.0000
# 3 24.8208 46.0511 75.2191 0.0000 0.0000 0.0000
# 4 0.0000 0.0000 0.0000 22.9190 0.0000 0.0000
# 5 0.0000 0.0000 0.0000 0.0000 -98.9083 0.0000
# 6 0.0000 0.0000 0.0000 0.0000 0.0000 18.2469
#
#
#
# Elastic Compliance Matrix: (Units=1/GPa)
#
#
# Indices 1 2 3 4 5 6 
#
# 1 0.042750 -0.012910 -0.006203 0.000000 0.000000 0.000000
# 2 -0.012910 0.011388 -0.002712 0.000000 0.000000 0.000000
# 3 -0.006203 -0.002712 0.017002 0.000000 0.000000 0.000000
# 4 0.000000 0.000000 0.000000 0.043632 0.000000 0.000000
# 5 0.000000 0.000000 0.000000 0.000000 -0.010110 0.000000
# 6 0.000000 0.000000 0.000000 0.000000 0.000000 0.054804
#
#
# Mechanical properties :
#
#
# Convention : Reuss Voigt Hill
#
# Bulk Modulus (GPa) = 36.37674 59.27610 47.82642
# Shear Modulus (GPa) = 23.55412 -1.26116 11.14648
#
# Velocity S-wave (km/s) = 3.57092 -0.82629 2.45649
# Velocity P-wave (km/s) = 6.05766 5.58390 5.82560
#
# Compressibility (1/GPa) = 0.02749009
#
# Stress axis : x y z
#
# Youngs Moduli (GPa) = 23.39175 87.81465 58.81825
#
# Poissons Ratio (x) = 1.13368 0.36484
# Poissons Ratio (y) = 0.30199 0.15950
# Poissons Ratio (z) = 0.14510 0.23813
#
# Static dielectric constant tensor:
#      x y z
#    x 3.096410 0.000000 0.000000 
#    y 0.000000 3.706810 0.000000 
#    z 0.000000 0.000000 3.486110 
# 
# 
# High freq. dielectric constant tensor:
#      x y z
#    x 1.672320 0.000000 0.000000 
#    y 0.000000 1.737930 0.000000 
#    z 0.000000 0.000000 1.715900 
# 
# From -- ./inp_files/13790.got.cif
#   From: 2010.03.12/outbox.cif.g09.slc.cpg/sg36_7_cif.got.tgz:13790.got - 2010.04.14 02:13:53.
