data_PCOD8175445
_publ_section_title
;
Structure prediction by ZEFSAII (Michael W. Deem and Ramdas Pophale) SiO2 
 PCOD8175445
Probable space group: C M C 21
;
_chemical_formula_sum "Si O2"
_cell_formula_units_Z 64
_cell_length_a 8.421275
_cell_length_b 22.566951
_cell_length_c 16.389505
_cell_angle_alpha 90.000000
_cell_angle_beta 90.000000
_cell_angle_gamma 90.000000
_cell_volume 3114.702509
_symmetry_space_group_name_H-M "C M C 21"
_symmetry_group_IT_number 36
_symmetry_cell_setting 'orthorhombic'
loop_
_space_group_symop_operation_xyz
x,y,z
-x,-y,1/2+z
x,-y,1/2+z
-x,y,z
1/2+x,1/2+y,z
1/2-x,1/2-y,1/2+z
1/2+x,1/2-y,1/2+z
1/2-x,1/2+y,z
loop_
_atom_site_type_symbol
_atom_site_label
_atom_site_fract_x
_atom_site_fract_y
_atom_site_fract_z
Si Si1 0.318180 0.889166 0.774100
Si Si2 0.681607 0.969810 0.910639
Si Si3 0.318773 0.419873 0.069674
Si Si4 0.185984 0.783249 0.445148
Si Si5 0.321960 0.542946 0.137854
Si Si6 0.687955 0.793087 0.104392
Si Si7 0.685923 0.910102 0.476564
Si Si8 0.316743 0.736125 0.276090
O O1 0.500000 0.869313 0.791244
O O2 0.233075 0.929618 0.843148
O O3 0.312859 0.929258 0.694011
O O4 0.205937 0.833152 0.763147
O O5 0.500000 0.966147 0.885660
O O6 0.732563 0.039074 0.909977
O O7 0.705024 0.937886 0.996433
O O8 0.500000 0.416825 0.038729
O O9 0.299612 0.471749 0.136706
O O10 0.267438 0.357253 0.105569
O O11 0.244140 0.744129 0.523686
O O12 0.278684 0.845177 0.443217
O O13 0.219970 0.753715 0.357460
O O14 0.000000 0.794965 0.453520
O O15 0.500000 0.558433 0.167416
O O16 0.298455 0.574669 0.051537
O O17 0.500000 0.799617 0.101275
O O18 0.743822 0.764848 0.190669
O O19 0.500000 0.916072 0.499427
O O20 0.500000 0.751997 0.290745
#
# Coordination Sequence:
#
# PCOD8175445 Si02
#       8
#     8   8   8   8   8   8   8   8
#     4  11  22  37  58  84 112 147 190 236 286 345
#     4   9  20  37  57  82 114 148 185 231 287 347
#     4  10  21  36  58  86 113 144 189 236 283 340
#     4  11  23  40  61  87 120 158 197 244 297 350
#     4  10  21  37  56  83 116 148 183 233 291 344
#     4  10  23  41  60  81 115 159 195 234 292 350
#     4  10  20  37  60  85 112 149 194 236 283 345
#     4  11  24  41  60  86 118 155 199 246 293 351
#
# _framework density 20.547708
#
# number of rings (size 3 to 8) (size 9 to 14) (size 15 to 20)
#    0.000    1.750    0.000    3.750    0.000   10.000 
#    0.000    3.750    0.000    0.000    0.000    0.000 
#    0.000    0.000    0.000    0.000    0.000    0.000 
#
# Total GULP energy -396626.744754 kJ/mol
# GULP energy per Si atom -12394.585774 kJ/mol
# Density = 2.050094 g / cm^3
# Si number density = 20.547708 Si / 1000 Ang^3
#
#
#
# Elastic Constant Matrix: (Units=GPa)
#
#
# Indices 1 2 3 4 5 6 
#
# 1 35.8157 22.9458 13.6282 0.0000 0.0000 0.0000
# 2 22.9458 153.7193 57.6392 0.0000 0.0000 0.0000
# 3 13.6282 57.6392 103.2626 0.0000 0.0000 0.0000
# 4 0.0000 0.0000 0.0000 29.4408 0.0000 0.0000
# 5 0.0000 0.0000 0.0000 0.0000 26.2501 0.0000
# 6 0.0000 0.0000 0.0000 0.0000 0.0000 3.7703
#
#
#
# Elastic Compliance Matrix: (Units=1/GPa)
#
#
# Indices 1 2 3 4 5 6 
#
# 1 0.031171 -0.003934 -0.001918 0.000000 0.000000 0.000000
# 2 -0.003934 0.008724 -0.004350 0.000000 0.000000 0.000000
# 3 -0.001918 -0.004350 0.012365 0.000000 0.000000 0.000000
# 4 0.000000 0.000000 0.000000 0.033966 0.000000 0.000000
# 5 0.000000 0.000000 0.000000 0.000000 0.038095 0.000000
# 6 0.000000 0.000000 0.000000 0.000000 0.000000 0.265233
#
#
# Mechanical properties :
#
#
# Convention : Reuss Voigt Hill
#
# Bulk Modulus (GPa) = 31.39140 53.46932 42.43036
# Shear Modulus (GPa) = 11.88844 25.13119 18.50981
#
# Velocity S-wave (km/s) = 2.40797 3.50103 3.00462
# Velocity P-wave (km/s) = 4.80017 6.51318 5.72115
#
# Compressibility (1/GPa) = 0.03185586
#
# Stress axis : x y z
#
# Youngs Moduli (GPa) = 32.08135 114.62975 80.87061
#
# Poissons Ratio (x) = 0.45092 0.15512
# Poissons Ratio (y) = 0.12620 0.35181
# Poissons Ratio (z) = 0.06153 0.49867
#
# Static dielectric constant tensor:
#      x y z
#    x 3.542420 0.000000 0.000000 
#    y 0.000000 3.897590 0.000000 
#    z 0.000000 0.000000 3.786210 
# 
# 
# High freq. dielectric constant tensor:
#      x y z
#    x 1.799970 0.000000 0.000000 
#    y 0.000000 1.818800 0.000000 
#    z 0.000000 0.000000 1.797600 
# 
# From -- ./inp_files/13793.got.cif
#   From: 2010.03.12/outbox.cif.g09.slc.cpg/sg36_7_cif.got.tgz:13793.got - 2010.04.14 02:13:53.
