data_PCOD8175396
_publ_section_title
;
Structure prediction by ZEFSAII (Michael W. Deem and Ramdas Pophale) SiO2 
 PCOD8175396
Probable space group: C M C 21
;
_chemical_formula_sum "Si O2"
_cell_formula_units_Z 64
_cell_length_a 9.095150
_cell_length_b 32.846102
_cell_length_c 10.403325
_cell_angle_alpha 90.000000
_cell_angle_beta 90.000000
_cell_angle_gamma 90.000000
_cell_volume 3107.891647
_symmetry_space_group_name_H-M "C M C 21"
_symmetry_group_IT_number 36
_symmetry_cell_setting 'orthorhombic'
loop_
_space_group_symop_operation_xyz
x,y,z
-x,-y,1/2+z
x,-y,1/2+z
-x,y,z
1/2+x,1/2+y,z
1/2-x,1/2-y,1/2+z
1/2+x,1/2-y,1/2+z
1/2-x,1/2+y,z
loop_
_atom_site_type_symbol
_atom_site_label
_atom_site_fract_x
_atom_site_fract_y
_atom_site_fract_z
Si Si1 0.171198 0.112901 0.311730
Si Si2 0.170357 0.875524 0.099542
Si Si3 0.161313 0.078841 0.949163
Si Si4 0.831910 0.646180 0.071211
Si Si5 0.673225 0.048298 0.722748
Si Si6 0.673489 0.287437 0.191214
Si Si7 0.668337 0.233705 0.954542
Si Si8 0.339322 0.469213 0.707832
O O1 0.205214 0.132018 0.450132
O O2 0.267387 0.138887 0.212787
O O3 0.212758 0.064106 0.314562
O O4 0.000000 0.117563 0.274130
O O5 0.265110 0.913728 0.144533
O O6 0.213562 0.835360 0.180564
O O7 0.000000 0.886509 0.117672
O O8 0.261791 0.049100 0.865591
O O9 0.000000 0.086061 0.886029
O O10 0.242163 0.121973 0.962298
O O11 0.142161 0.058894 0.085341
O O12 0.000000 0.631202 0.069793
O O13 0.816485 0.692719 0.035198
O O14 0.500000 0.050442 0.721300
O O15 0.723876 0.004210 0.671960
O O16 0.500000 0.280407 0.203343
O O17 0.745011 0.267732 0.319071
O O18 0.728929 0.267156 0.056649
O O19 0.500000 0.242964 0.917443
O O20 0.500000 0.488049 0.744696
#
# Coordination Sequence:
#
# PCOD8175396 Si02
#       8
#     8   8   8   8   8   8   8   8
#     4   9  20  38  62  90 118 158 209 254 299 358
#     4  10  22  41  63  87 120 162 212 258 300 364
#     4  10  21  39  61  82 109 150 200 243 286 353
#     4  10  20  36  60  89 124 156 191 246 309 368
#     4  12  25  37  56  86 120 153 191 245 309 366
#     4  10  23  42  64  93 127 166 215 263 310 372
#     4  10  23  41  62  94 131 164 205 258 316 376
#     4   9  20  38  58  83 113 151 199 247 293 355
#
# _framework density 20.592741
#
# number of rings (size 3 to 8) (size 9 to 14) (size 15 to 20)
#    0.000    2.000    0.000    3.375    3.500    7.000 
#    0.000    0.000    0.000    0.000    0.000    0.000 
#    0.000    0.000    0.000    0.000    0.000    0.000 
#
# Total GULP energy -396662.350208 kJ/mol
# GULP energy per Si atom -12395.698444 kJ/mol
# Density = 2.054587 g / cm^3
# Si number density = 20.592741 Si / 1000 Ang^3
#
#
#
# Elastic Constant Matrix: (Units=GPa)
#
#
# Indices 1 2 3 4 5 6 
#
# 1 112.2003 45.0209 42.3272 0.0000 0.0000 0.0000
# 2 45.0209 76.8664 36.7583 0.0000 0.0000 0.0000
# 3 42.3272 36.7583 102.0181 0.0000 0.0000 0.0000
# 4 0.0000 0.0000 0.0000 25.5708 0.0000 0.0000
# 5 0.0000 0.0000 0.0000 0.0000 33.9269 0.0000
# 6 0.0000 0.0000 0.0000 0.0000 0.0000 23.2910
#
#
#
# Elastic Compliance Matrix: (Units=1/GPa)
#
#
# Indices 1 2 3 4 5 6 
#
# 1 0.012390 -0.005798 -0.003052 0.000000 0.000000 0.000000
# 2 -0.005798 0.018431 -0.004235 0.000000 0.000000 0.000000
# 3 -0.003052 -0.004235 0.012594 0.000000 0.000000 0.000000
# 4 0.000000 0.000000 0.000000 0.039107 0.000000 0.000000
# 5 0.000000 0.000000 0.000000 0.000000 0.029475 0.000000
# 6 0.000000 0.000000 0.000000 0.000000 0.000000 0.042935
#
#
# Mechanical properties :
#
#
# Convention : Reuss Voigt Hill
#
# Bulk Modulus (GPa) = 57.98498 59.92195 58.95347
# Shear Modulus (GPa) = 26.75936 27.68964 27.22450
#
# Velocity S-wave (km/s) = 3.60871 3.67090 3.63994
# Velocity P-wave (km/s) = 6.75150 6.86506 6.80852
#
# Compressibility (1/GPa) = 0.01724585
#
# Stress axis : x y z
#
# Youngs Moduli (GPa) = 80.70894 54.25749 79.40039
#
# Poissons Ratio (x) = 0.31456 0.24231
# Poissons Ratio (y) = 0.46792 0.33629
# Poissons Ratio (z) = 0.24630 0.22980
#
# Static dielectric constant tensor:
#      x y z
#    x 3.823630 0.000000 0.000000 
#    y 0.000000 3.855200 0.000000 
#    z 0.000000 0.000000 3.793270 
# 
# 
# High freq. dielectric constant tensor:
#      x y z
#    x 1.795260 0.000000 0.000000 
#    y 0.000000 1.809240 0.000000 
#    z 0.000000 0.000000 1.811420 
# 
# From -- ./inp_files/7198.got.cif
#   From: 2010.03.12/outbox.cif.g09.slc.cpg/sg36_4_cif.got.tgz:7198.got - 2010.04.14 02:13:53.
