data_PCOD8175825
_publ_section_title
;
Structure prediction by ZEFSAII (Michael W. Deem and Ramdas Pophale) SiO2 
 PCOD8175825
Probable space group: C M C 21
;
_chemical_formula_sum "Si O2"
_cell_formula_units_Z 64
_cell_length_a 24.078978
_cell_length_b 13.784467
_cell_length_c 9.187575
_cell_angle_alpha 90.000000
_cell_angle_beta 90.000000
_cell_angle_gamma 90.000000
_cell_volume 3049.502019
_symmetry_space_group_name_H-M "C M C 21"
_symmetry_group_IT_number 36
_symmetry_cell_setting 'orthorhombic'
loop_
_space_group_symop_operation_xyz
x,y,z
-x,-y,1/2+z
x,-y,1/2+z
-x,y,z
1/2+x,1/2+y,z
1/2-x,1/2-y,1/2+z
1/2+x,1/2-y,1/2+z
1/2-x,1/2+y,z
loop_
_atom_site_type_symbol
_atom_site_label
_atom_site_fract_x
_atom_site_fract_y
_atom_site_fract_z
Si Si1 0.373386 0.215992 0.290270
Si Si2 0.329958 0.101673 0.534157
Si Si3 0.131388 0.071356 0.884151
Si Si4 0.334977 0.210773 0.833344
Si Si5 0.299071 0.898538 0.588805
Si Si6 0.778878 0.913623 0.836485
Si Si7 0.937517 0.755968 0.020208
Si Si8 0.063567 0.971376 0.107360
O O1 0.377200 0.134829 0.417891
O O2 0.354826 0.315811 0.366045
O O3 0.323793 0.190119 0.180785
O O4 0.428126 0.222497 0.189467
O O5 0.332832 0.175678 0.668061
O O6 0.270284 0.100514 0.453480
O O7 0.340563 0.991964 0.588471
O O8 0.084860 0.039591 0.769875
O O9 0.188219 0.011088 0.874864
O O10 0.101931 0.054889 0.038766
O O11 0.318715 0.322084 0.844832
O O12 0.292329 0.141544 0.924182
O O13 0.396441 0.203013 0.905988
O O14 0.241841 0.926657 0.669189
O O15 0.929312 0.872016 0.015662
O O16 0.000000 0.726722 0.976768
O O17 0.000000 0.005732 0.112765
#
# Coordination Sequence:
#
# PCOD8175825 Si02
#       8
#     8   8   8   8   8   8   8   8
#     4   9  22  41  62  87 125 163 200 254 307 368
#     4  11  24  40  60  88 119 165 215 260 301 359
#     4  11  23  38  61  92 128 161 204 252 303 371
#     4  11  21  39  63  87 122 164 207 260 300 368
#     4  10  23  41  58  83 121 168 208 251 307 359
#     4  11  24  37  57  90 126 166 201 249 306 373
#     4   9  19  39  65  92 124 163 199 245 316 374
#     4  10  21  39  61  89 128 168 199 241 304 370
#
# _framework density 20.987033
#
# number of rings (size 3 to 8) (size 9 to 14) (size 15 to 20)
#    0.000    1.750    1.250    2.625    3.500    4.500 
#    0.000    0.625    0.000   12.000    0.000    0.000 
#    0.000    0.000    0.000    0.000    0.000    0.000 
#
# Total GULP energy -396691.471686 kJ/mol
# GULP energy per Si atom -12396.608490 kJ/mol
# Density = 2.093927 g / cm^3
# Si number density = 20.987033 Si / 1000 Ang^3
#
#
#
# Elastic Constant Matrix: (Units=GPa)
#
#
# Indices 1 2 3 4 5 6 
#
# 1 86.8157 31.8796 34.3316 0.0000 0.0000 0.0000
# 2 31.8796 97.6943 17.5900 0.0000 0.0000 0.0000
# 3 34.3316 17.5900 86.3986 0.0000 0.0000 0.0000
# 4 0.0000 0.0000 0.0000 38.1432 0.0000 0.0000
# 5 0.0000 0.0000 0.0000 0.0000 25.4455 0.0000
# 6 0.0000 0.0000 0.0000 0.0000 0.0000 18.7767
#
#
#
# Elastic Compliance Matrix: (Units=1/GPa)
#
#
# Indices 1 2 3 4 5 6 
#
# 1 0.015017 -0.003972 -0.005159 0.000000 0.000000 0.000000
# 2 -0.003972 0.011676 -0.000799 0.000000 0.000000 0.000000
# 3 -0.005159 -0.000799 0.013787 0.000000 0.000000 0.000000
# 4 0.000000 0.000000 0.000000 0.026217 0.000000 0.000000
# 5 0.000000 0.000000 0.000000 0.000000 0.039300 0.000000
# 6 0.000000 0.000000 0.000000 0.000000 0.000000 0.053257
#
#
# Mechanical properties :
#
#
# Convention : Reuss Voigt Hill
#
# Bulk Modulus (GPa) = 48.49332 48.72343 48.60837
# Shear Modulus (GPa) = 26.88375 28.94690 27.91532
#
# Velocity S-wave (km/s) = 3.58295 3.71789 3.65104
# Velocity P-wave (km/s) = 6.34611 6.45729 6.40194
#
# Compressibility (1/GPa) = 0.02062140
#
# Stress axis : x y z
#
# Youngs Moduli (GPa) = 66.59099 85.64674 72.53326
#
# Poissons Ratio (x) = 0.34015 0.37417
# Poissons Ratio (y) = 0.26447 0.05795
# Poissons Ratio (z) = 0.34352 0.06843
#
# Static dielectric constant tensor:
#      x y z
#    x 3.606850 0.000000 0.000000 
#    y 0.000000 3.990340 0.000000 
#    z 0.000000 0.000000 4.039270 
# 
# 
# High freq. dielectric constant tensor:
#      x y z
#    x 1.792290 0.000000 0.000000 
#    y 0.000000 1.823600 0.000000 
#    z 0.000000 0.000000 1.835990 
# 
# From -- ./inp_files/5679.got.cif
#   From: 2010.03.12/outbox.cif.g09.slc.cpg/sg36_3_cif.got.tgz:5679.got - 2010.04.14 02:13:53.
