data_PCOD8175382
_publ_section_title
;
Structure prediction by ZEFSAII (Michael W. Deem and Ramdas Pophale) SiO2 
 PCOD8175382
Probable space group: C M C 21
;
_chemical_formula_sum "Si O2"
_cell_formula_units_Z 64
_cell_length_a 8.693116
_cell_length_b 28.726674
_cell_length_c 12.281138
_cell_angle_alpha 90.000000
_cell_angle_beta 90.000000
_cell_angle_gamma 90.000000
_cell_volume 3066.898705
_symmetry_space_group_name_H-M "C M C 21"
_symmetry_group_IT_number 36
_symmetry_cell_setting 'orthorhombic'
loop_
_space_group_symop_operation_xyz
x,y,z
-x,-y,1/2+z
x,-y,1/2+z
-x,y,z
1/2+x,1/2+y,z
1/2-x,1/2-y,1/2+z
1/2+x,1/2-y,1/2+z
1/2-x,1/2+y,z
loop_
_atom_site_type_symbol
_atom_site_label
_atom_site_fract_x
_atom_site_fract_y
_atom_site_fract_z
Si Si1 0.822741 0.686148 0.989640
Si Si2 0.180883 0.629725 0.469140
Si Si3 0.680066 0.915924 0.562580
Si Si4 0.319181 0.429762 0.793176
Si Si5 0.173807 0.084356 0.676383
Si Si6 0.180752 0.476272 0.353562
Si Si7 0.828761 0.816227 0.266987
Si Si8 0.823759 0.274179 0.071223
O O1 0.711719 0.696078 0.889315
O O2 0.000000 0.683915 0.953106
O O3 0.776980 0.638288 0.048575
O O4 0.790419 0.730333 0.065585
O O5 0.241130 0.615338 0.349798
O O6 0.259898 0.596435 0.558159
O O7 0.222947 0.684148 0.487959
O O8 0.000000 0.622260 0.478628
O O9 0.500000 0.922790 0.582657
O O10 0.768196 0.934699 0.668037
O O11 0.733488 0.944520 0.455698
O O12 0.500000 0.423728 0.799191
O O13 0.267469 0.474717 0.862166
O O14 0.276501 0.046161 0.737236
O O15 0.177243 0.128619 0.754745
O O16 0.000000 0.065537 0.662115
O O17 0.000000 0.485113 0.356301
O O18 0.699274 0.793287 0.192279
O O19 0.000000 0.797378 0.239431
O O20 0.000000 0.258962 0.054907
#
# Coordination Sequence:
#
# PCOD8175382 Si02
#       8
#     8   8   8   8   8   8   8   8
#     4  11  22  39  64  93 126 164 211 264 317 378
#     4  10  22  42  65  89 125 169 214 259 313 383
#     4  10  24  45  67  93 126 168 215 259 315 387
#     4  12  27  43  64  94 131 169 212 268 325 377
#     4  10  20  36  62  93 123 155 202 263 315 365
#     4  11  23  42  67  92 124 166 212 256 313 382
#     4  10  20  36  59  88 122 160 204 258 315 373
#     4  10  22  39  62  92 125 167 216 263 317 379
#
# _framework density 20.867985000000001
#
# number of rings (size 3 to 8) (size 9 to 14) (size 15 to 20)
#    0.000    1.500    1.250    3.375    1.750    5.500 
#    0.000    1.250    0.000    0.000    0.000    0.000 
#    0.000    0.000    0.000    0.000    0.000    0.000 
#
# Total GULP energy -396893.702889 kJ/mol
# GULP energy per Si atom -12402.928215 kJ/mol
# Density = 2.082049 g / cm^3
# Si number density = 20.867985 Si / 1000 Ang^3
#
#
#
# Elastic Constant Matrix: (Units=GPa)
#
#
# Indices 1 2 3 4 5 6 
#
# 1 75.1921 35.8568 27.8771 0.0000 0.0000 0.0000
# 2 35.8568 103.8956 31.2518 0.0000 0.0000 0.0000
# 3 27.8771 31.2518 77.0870 0.0000 0.0000 0.0000
# 4 0.0000 0.0000 0.0000 23.6210 0.0000 0.0000
# 5 0.0000 0.0000 0.0000 0.0000 35.5854 0.0000
# 6 0.0000 0.0000 0.0000 0.0000 0.0000 33.8141
#
#
#
# Elastic Compliance Matrix: (Units=1/GPa)
#
#
# Indices 1 2 3 4 5 6 
#
# 1 0.017094 -0.004601 -0.004316 0.000000 0.000000 0.000000
# 2 -0.004601 0.012200 -0.003282 0.000000 0.000000 0.000000
# 3 -0.004316 -0.003282 0.015864 0.000000 0.000000 0.000000
# 4 0.000000 0.000000 0.000000 0.042335 0.000000 0.000000
# 5 0.000000 0.000000 0.000000 0.000000 0.028101 0.000000
# 6 0.000000 0.000000 0.000000 0.000000 0.000000 0.029573
#
#
# Mechanical properties :
#
#
# Convention : Reuss Voigt Hill
#
# Bulk Modulus (GPa) = 48.17264 49.57179 48.87221
# Shear Modulus (GPa) = 28.33077 29.35003 28.84040
#
# Velocity S-wave (km/s) = 3.68858 3.75435 3.72161
# Velocity P-wave (km/s) = 6.42460 6.52687 6.47594
#
# Compressibility (1/GPa) = 0.02075867
#
# Stress axis : x y z
#
# Youngs Moduli (GPa) = 58.50131 81.96537 63.03625
#
# Poissons Ratio (x) = 0.37713 0.27208
# Poissons Ratio (y) = 0.26917 0.20690
# Poissons Ratio (z) = 0.25251 0.26903
#
# Static dielectric constant tensor:
#      x y z
#    x 3.704520 0.000000 0.000000 
#    y 0.000000 3.814810 0.000000 
#    z 0.000000 0.000000 3.627000 
# 
# 
# High freq. dielectric constant tensor:
#      x y z
#    x 1.822740 0.000000 0.000000 
#    y 0.000000 1.817300 0.000000 
#    z 0.000000 0.000000 1.813440 
# 
# From -- ./inp_files/7078.got.cif
#   From: 2010.03.12/outbox.cif.g09.slc.cpg/sg36_4_cif.got.tgz:7078.got - 2010.04.14 02:13:53.
