data_PCOD8175031
_publ_section_title
;
Structure prediction by ZEFSAII (Michael W. Deem and Ramdas Pophale) SiO2 
 PCOD8175031
Probable space group: C M C 21
;
_chemical_formula_sum "Si O2"
_cell_formula_units_Z 64
_cell_length_a 19.503558
_cell_length_b 21.904606
_cell_length_c 8.569629
_cell_angle_alpha 90.000000
_cell_angle_beta 90.000000
_cell_angle_gamma 90.000000
_cell_volume 3661.097650
_symmetry_space_group_name_H-M "C M C 21"
_symmetry_group_IT_number 36
_symmetry_cell_setting 'orthorhombic'
loop_
_space_group_symop_operation_xyz
x,y,z
-x,-y,1/2+z
x,-y,1/2+z
-x,y,z
1/2+x,1/2+y,z
1/2-x,1/2-y,1/2+z
1/2+x,1/2-y,1/2+z
1/2-x,1/2+y,z
loop_
_atom_site_type_symbol
_atom_site_label
_atom_site_fract_x
_atom_site_fract_y
_atom_site_fract_z
Si Si1 0.656691 0.381863 0.212360
Si Si2 0.753985 0.586616 0.220515
Si Si3 0.923286 0.948787 0.964282
Si Si4 0.695132 0.281331 0.996817
Si Si5 0.577947 0.709165 0.929728
Si Si6 0.676384 0.202039 0.289808
Si Si7 0.881697 0.157393 0.250801
Si Si8 0.289945 0.479893 0.422081
O O1 0.704864 0.343693 0.095558
O O2 0.624351 0.340663 0.345658
O O3 0.708895 0.431177 0.283053
O O4 0.593285 0.412153 0.121585
O O5 0.820348 0.628341 0.263964
O O6 0.693218 0.635310 0.196371
O O7 0.744408 0.542842 0.368754
O O8 0.755948 0.545939 0.063982
O O9 0.920593 0.902929 0.815107
O O10 0.000000 0.976051 0.974579
O O11 0.870013 0.005500 0.960133
O O12 0.679434 0.226310 0.112670
O O13 0.762362 0.269693 0.894146
O O14 0.628733 0.291644 0.885715
O O15 0.500000 0.707777 0.871416
O O16 0.607981 0.776106 0.882043
O O17 0.579158 0.692409 0.112867
#
# Coordination Sequence:
#
# PCOD8175031 Si02
#       8
#     8   8   8   8   8   8   8   8
#     4  10  20  34  49  73 103 141 177 218 260 309
#     4  10  20  34  51  71 105 135 177 226 262 303
#     4  10  20  32  45  67 104 150 188 214 246 299
#     4   9  19  32  55  74 102 133 174 223 267 317
#     4  11  21  34  54  79 108 142 176 214 267 329
#     4  10  20  34  53  80 103 136 178 223 275 313
#     4   9  18  34  49  73 102 139 176 219 264 307
#     4  11  20  34  48  71 103 140 182 223 259 301
#
# _framework density 17.481096000000001
#
# number of rings (size 3 to 8) (size 9 to 14) (size 15 to 20)
#    0.000    2.000    2.500    3.000    1.750    1.000 
#    0.000    0.625    0.000    0.000    0.000    0.875 
#    0.000    0.000    0.000    0.000    0.000    0.000 
#
# Total GULP energy -396573.059269 kJ/mol
# GULP energy per Si atom -12392.908102 kJ/mol
# Density = 1.744131 g / cm^3
# Si number density = 17.481096 Si / 1000 Ang^3
#
#
#
# Elastic Constant Matrix: (Units=GPa)
#
#
# Indices 1 2 3 4 5 6 
#
# 1 23.7149 19.5952 6.8600 0.0000 0.0000 0.0000
# 2 19.5952 84.0046 28.6265 0.0000 0.0000 0.0000
# 3 6.8600 28.6265 83.6893 0.0000 0.0000 0.0000
# 4 0.0000 0.0000 0.0000 34.5521 0.0000 0.0000
# 5 0.0000 0.0000 0.0000 0.0000 14.9126 0.0000
# 6 0.0000 0.0000 0.0000 0.0000 0.0000 18.7037
#
#
#
# Elastic Compliance Matrix: (Units=1/GPa)
#
#
# Indices 1 2 3 4 5 6 
#
# 1 0.052237 -0.012141 -0.000129 0.000000 0.000000 0.000000
# 2 -0.012141 0.016297 -0.004579 0.000000 0.000000 0.000000
# 3 -0.000129 -0.004579 0.013526 0.000000 0.000000 0.000000
# 4 0.000000 0.000000 0.000000 0.028942 0.000000 0.000000
# 5 0.000000 0.000000 0.000000 0.000000 0.067057 0.000000
# 6 0.000000 0.000000 0.000000 0.000000 0.000000 0.053465
#
#
# Mechanical properties :
#
#
# Convention : Reuss Voigt Hill
#
# Bulk Modulus (GPa) = 20.67779 33.50801 27.09290
# Shear Modulus (GPa) = 17.77194 22.72214 20.24704
#
# Velocity S-wave (km/s) = 3.19193 3.60920 3.40696
# Velocity P-wave (km/s) = 5.04370 6.04799 5.56853
#
# Compressibility (1/GPa) = 0.04836106
#
# Stress axis : x y z
#
# Youngs Moduli (GPa) = 19.14364 61.36246 73.93240
#
# Poissons Ratio (x) = 0.74500 0.00953
# Poissons Ratio (y) = 0.23242 0.33855
# Poissons Ratio (z) = 0.00247 0.28099
#
# Static dielectric constant tensor:
#      x y z
#    x 2.907720 0.000000 0.000000 
#    y 0.000000 3.369600 0.000000 
#    z 0.000000 0.000000 3.533230 
# 
# 
# High freq. dielectric constant tensor:
#      x y z
#    x 1.616320 0.000000 0.000000 
#    y 0.000000 1.667690 0.000000 
#    z 0.000000 0.000000 1.697660 
# 
# From -- ./inp_files/5414.got.cif
#   From: 2010.03.12/outbox.cif.g09.slc.cpg/sg36_3_cif.got.tgz:5414.got - 2010.04.14 02:13:53.
