data_PCOD8175895
_publ_section_title
;
Structure prediction by ZEFSAII (Michael W. Deem and Ramdas Pophale) SiO2 
 PCOD8175895
Probable space group: C M C 21
;
_chemical_formula_sum "Si O2"
_cell_formula_units_Z 64
_cell_length_a 8.685557
_cell_length_b 28.834015
_cell_length_c 12.113377
_cell_angle_alpha 90.000000
_cell_angle_beta 90.000000
_cell_angle_gamma 90.000000
_cell_volume 3033.667847
_symmetry_space_group_name_H-M "C M C 21"
_symmetry_group_IT_number 36
_symmetry_cell_setting 'orthorhombic'
loop_
_space_group_symop_operation_xyz
x,y,z
-x,-y,1/2+z
x,-y,1/2+z
-x,y,z
1/2+x,1/2+y,z
1/2-x,1/2-y,1/2+z
1/2+x,1/2-y,1/2+z
1/2-x,1/2+y,z
loop_
_atom_site_type_symbol
_atom_site_label
_atom_site_fract_x
_atom_site_fract_y
_atom_site_fract_z
Si Si1 0.182748 0.334131 0.119800
Si Si2 0.674944 0.061710 0.655017
Si Si3 0.824709 0.969091 0.604373
Si Si4 0.668762 0.931483 0.404861
Si Si5 0.180297 0.227378 0.814777
Si Si6 0.681011 0.116507 0.210783
Si Si7 0.672902 0.833598 0.486620
Si Si8 0.181292 0.819558 0.884146
O O1 0.240926 0.387313 0.129148
O O2 0.262540 0.303829 0.213995
O O3 0.000000 0.330717 0.135407
O O4 0.231816 0.315478 0.000521
O O5 0.500000 0.058432 0.612602
O O6 0.687960 0.049278 0.783328
O O7 0.775687 0.022576 0.597208
O O8 0.804407 0.951309 0.479636
O O9 0.725283 0.937056 0.687449
O O10 0.000000 0.964746 0.641062
O O11 0.500000 0.945505 0.454083
O O12 0.676013 0.875810 0.399749
O O13 0.267245 0.276436 0.808210
O O14 0.000000 0.235962 0.803091
O O15 0.215728 0.205086 0.935180
O O16 0.500000 0.119293 0.232168
O O17 0.730076 0.148400 0.106037
O O18 0.769701 0.133805 0.319367
O O19 0.500000 0.813020 0.495899
O O20 0.000000 0.819641 0.904376
#
# Coordination Sequence:
#
# PCOD8175895 Si02
#       8
#     8   8   8   8   8   8   8   8
#     4  11  24  46  70  96 130 169 219 271 327 389
#     4  10  21  40  66  91 122 167 214 264 321 385
#     4  11  23  37  59  94 131 168 213 265 324 385
#     4   9  18  37  61  86 116 158 211 262 315 376
#     4  12  25  41  65  96 130 169 212 261 323 389
#     4  10  22  43  67  91 126 170 219 267 322 384
#     4   9  18  37  64  91 119 155 207 267 315 371
#     4  12  27  45  66  95 134 174 217 269 329 391
#
# _framework density 21.096574
#
# number of rings (size 3 to 8) (size 9 to 14) (size 15 to 20)
#    0.000    1.500    1.250    4.875    1.750    5.000 
#    0.000    1.250    0.000    0.000    0.000    0.000 
#    0.000    0.000    0.000    0.000    0.000    0.000 
#
# Total GULP energy -396855.602865 kJ/mol
# GULP energy per Si atom -12401.737590 kJ/mol
# Density = 2.104856 g / cm^3
# Si number density = 21.096574 Si / 1000 Ang^3
#
#
#
# Elastic Constant Matrix: (Units=GPa)
#
#
# Indices 1 2 3 4 5 6 
#
# 1 83.4170 26.9258 18.1530 0.0000 0.0000 0.0000
# 2 26.9258 101.9341 22.9580 0.0000 0.0000 0.0000
# 3 18.1530 22.9580 61.7329 0.0000 0.0000 0.0000
# 4 0.0000 0.0000 0.0000 26.1156 0.0000 0.0000
# 5 0.0000 0.0000 0.0000 0.0000 33.2110 0.0000
# 6 0.0000 0.0000 0.0000 0.0000 0.0000 30.7588
#
#
#
# Elastic Compliance Matrix: (Units=1/GPa)
#
#
# Indices 1 2 3 4 5 6 
#
# 1 0.013565 -0.002930 -0.002899 0.000000 0.000000 0.000000
# 2 -0.002930 0.011340 -0.003356 0.000000 0.000000 0.000000
# 3 -0.002899 -0.003356 0.018299 0.000000 0.000000 0.000000
# 4 0.000000 0.000000 0.000000 0.038291 0.000000 0.000000
# 5 0.000000 0.000000 0.000000 0.000000 0.030111 0.000000
# 6 0.000000 0.000000 0.000000 0.000000 0.000000 0.032511
#
#
# Mechanical properties :
#
#
# Convention : Reuss Voigt Hill
#
# Bulk Modulus (GPa) = 40.26705 42.57307 41.42006
# Shear Modulus (GPa) = 29.28007 29.95355 29.61681
#
# Velocity S-wave (km/s) = 3.72950 3.77215 3.75089
# Velocity P-wave (km/s) = 6.13792 6.26068 6.19960
#
# Compressibility (1/GPa) = 0.02483420
#
# Stress axis : x y z
#
# Youngs Moduli (GPa) = 73.72096 88.18326 54.64703
#
# Poissons Ratio (x) = 0.25839 0.15843
# Poissons Ratio (y) = 0.21601 0.18338
# Poissons Ratio (z) = 0.21372 0.29591
#
# Static dielectric constant tensor:
#      x y z
#    x 3.678440 0.000000 0.000000 
#    y 0.000000 3.825150 0.000000 
#    z 0.000000 0.000000 3.691530 
# 
# 
# High freq. dielectric constant tensor:
#      x y z
#    x 1.819770 0.000000 0.000000 
#    y 0.000000 1.828610 0.000000 
#    z 0.000000 0.000000 1.823490 
# 
# From -- ./inp_files/7177.got.cif
#   From: 2010.03.12/outbox.cif.g09.slc.cpg/sg36_4_cif.got.tgz:7177.got - 2010.04.14 02:13:53.
