data_PCOD8175418
_publ_section_title
;
Structure prediction by ZEFSAII (Michael W. Deem and Ramdas Pophale) SiO2 
 PCOD8175418
Probable space group: C M C 21
;
_chemical_formula_sum "Si O2"
_cell_formula_units_Z 64
_cell_length_a 8.726848
_cell_length_b 27.203127
_cell_length_c 13.195082
_cell_angle_alpha 90.000000
_cell_angle_beta 90.000000
_cell_angle_gamma 90.000000
_cell_volume 3132.480198
_symmetry_space_group_name_H-M "C M C 21"
_symmetry_group_IT_number 36
_symmetry_cell_setting 'orthorhombic'
loop_
_space_group_symop_operation_xyz
x,y,z
-x,-y,1/2+z
x,-y,1/2+z
-x,y,z
1/2+x,1/2+y,z
1/2-x,1/2-y,1/2+z
1/2+x,1/2-y,1/2+z
1/2-x,1/2+y,z
loop_
_atom_site_type_symbol
_atom_site_label
_atom_site_fract_x
_atom_site_fract_y
_atom_site_fract_z
Si Si1 0.680503 0.552099 0.116080
Si Si2 0.828198 0.773151 0.147735
Si Si3 0.171700 0.699680 0.312753
Si Si4 0.179140 0.727116 0.951801
Si Si5 0.818432 0.411952 0.824083
Si Si6 0.680912 0.378304 0.438939
Si Si7 0.680244 0.555258 0.535925
Si Si8 0.682473 0.624332 0.716754
O O1 0.500000 0.558973 0.129907
O O2 0.755243 0.559818 0.225958
O O3 0.722590 0.498422 0.075750
O O4 0.749488 0.589281 0.030997
O O5 0.832125 0.719233 0.198391
O O6 0.750682 0.819731 0.204839
O O7 0.000000 0.792191 0.129194
O O8 0.752780 0.762460 0.039729
O O9 0.290077 0.739531 0.355246
O O10 0.237735 0.644719 0.318937
O O11 0.000000 0.702515 0.360464
O O12 0.276442 0.677988 0.953076
O O13 0.000000 0.714446 0.963179
O O14 0.000000 0.414811 0.820814
O O15 0.759758 0.435923 0.927928
O O16 0.500000 0.383945 0.442467
O O17 0.741487 0.395458 0.326872
O O18 0.500000 0.561891 0.519281
O O19 0.744023 0.592409 0.622165
O O20 0.500000 0.621878 0.719696
#
# Coordination Sequence:
#
# PCOD8175418 Si02
#       8
#     8   8   8   8   8   8   8   8
#     4  10  23  40  65  94 120 157 208 263 308 359
#     4   9  17  31  53  78 109 150 190 228 281 347
#     4  10  20  37  57  79 114 160 198 234 286 355
#     4  11  21  33  55  87 118 153 196 244 295 349
#     4  11  24  41  62  89 127 166 200 249 312 375
#     4  10  20  37  60  87 120 159 201 246 306 369
#     4  10  22  40  66  93 118 155 208 265 308 359
#     4   9  17  33  60  87 114 152 199 249 302 357
#
# _framework density 20.431094000000002
#
# number of rings (size 3 to 8) (size 9 to 14) (size 15 to 20)
#    0.000    2.000    1.250    2.250    1.750    4.000 
#    0.000    1.875    0.000    0.000    0.000    0.000 
#    0.000    0.000    0.000    0.000    0.000    0.000 
#
# Total GULP energy -396506.338730 kJ/mol
# GULP energy per Si atom -12390.823085 kJ/mol
# Density = 2.038459 g / cm^3
# Si number density = 20.431094 Si / 1000 Ang^3
#
#
#
# Elastic Constant Matrix: (Units=GPa)
#
#
# Indices 1 2 3 4 5 6 
#
# 1 24.2952 21.9831 27.2979 0.0000 0.0000 0.0000
# 2 21.9831 135.0102 66.0787 0.0000 0.0000 0.0000
# 3 27.2979 66.0787 148.3782 0.0000 0.0000 0.0000
# 4 0.0000 0.0000 0.0000 38.0143 0.0000 0.0000
# 5 0.0000 0.0000 0.0000 0.0000 21.1513 0.0000
# 6 0.0000 0.0000 0.0000 0.0000 0.0000 19.2006
#
#
#
# Elastic Compliance Matrix: (Units=1/GPa)
#
#
# Indices 1 2 3 4 5 6 
#
# 1 0.054470 -0.005069 -0.007764 0.000000 0.000000 0.000000
# 2 -0.005069 0.009943 -0.003495 0.000000 0.000000 0.000000
# 3 -0.007764 -0.003495 0.009724 0.000000 0.000000 0.000000
# 4 0.000000 0.000000 0.000000 0.026306 0.000000 0.000000
# 5 0.000000 0.000000 0.000000 0.000000 0.047278 0.000000
# 6 0.000000 0.000000 0.000000 0.000000 0.000000 0.052082
#
#
# Mechanical properties :
#
#
# Convention : Reuss Voigt Hill
#
# Bulk Modulus (GPa) = 24.10729 59.82254 41.96492
# Shear Modulus (GPa) = 20.30145 28.49483 24.39814
#
# Velocity S-wave (km/s) = 3.15565 3.73859 3.45942
# Velocity P-wave (km/s) = 5.01023 6.92675 6.04492
#
# Compressibility (1/GPa) = 0.04148122
#
# Stress axis : x y z
#
# Youngs Moduli (GPa) = 18.35857 100.57287 102.83330
#
# Poissons Ratio (x) = 0.50984 0.79836
# Poissons Ratio (y) = 0.09307 0.35944
# Poissons Ratio (z) = 0.14253 0.35154
#
# Static dielectric constant tensor:
#      x y z
#    x 3.334830 0.000000 0.000000 
#    y 0.000000 3.820570 0.000000 
#    z 0.000000 0.000000 4.000300 
# 
# 
# High freq. dielectric constant tensor:
#      x y z
#    x 1.757710 0.000000 0.000000 
#    y 0.000000 1.803750 0.000000 
#    z 0.000000 0.000000 1.818340 
# 
# From -- ./inp_files/7053.got.cif
#   From: 2010.03.12/outbox.cif.g09.slc.cpg/sg36_4_cif.got.tgz:7053.got - 2010.04.14 02:13:53.
