data_PCOD8175311
_publ_section_title
;
Structure prediction by ZEFSAII (Michael W. Deem and Ramdas Pophale) SiO2 
 PCOD8175311
Probable space group: C M C 21
;
_chemical_formula_sum "Si O2"
_cell_formula_units_Z 64
_cell_length_a 9.177141
_cell_length_b 31.711632
_cell_length_c 10.886679
_cell_angle_alpha 90.000000
_cell_angle_beta 90.000000
_cell_angle_gamma 90.000000
_cell_volume 3168.264383
_symmetry_space_group_name_H-M "C M C 21"
_symmetry_group_IT_number 36
_symmetry_cell_setting 'orthorhombic'
loop_
_space_group_symop_operation_xyz
x,y,z
-x,-y,1/2+z
x,-y,1/2+z
-x,y,z
1/2+x,1/2+y,z
1/2-x,1/2-y,1/2+z
1/2+x,1/2-y,1/2+z
1/2-x,1/2+y,z
loop_
_atom_site_type_symbol
_atom_site_label
_atom_site_fract_x
_atom_site_fract_y
_atom_site_fract_z
Si Si1 0.338892 0.645927 0.897090
Si Si2 0.328216 0.772260 0.452766
Si Si3 0.327697 0.221684 0.233578
Si Si4 0.331525 0.425579 0.225352
Si Si5 0.166218 0.481505 0.412788
Si Si6 0.162695 0.071759 0.091903
Si Si7 0.836448 0.373431 0.766718
Si Si8 0.159713 0.572822 0.489019
O O1 0.500000 0.667401 0.888835
O O2 0.298111 0.622212 0.770595
O O3 0.216196 0.679482 0.930566
O O4 0.340935 0.609315 0.995633
O O5 0.500000 0.767535 0.434307
O O6 0.286890 0.760513 0.595930
O O7 0.249705 0.745175 0.347001
O O8 0.500000 0.225263 0.254986
O O9 0.274622 0.173258 0.241593
O O10 0.500000 0.436616 0.244757
O O11 0.240941 0.461495 0.294101
O O12 0.290759 0.426093 0.083798
O O13 0.245353 0.467100 0.538412
O O14 0.178332 0.531928 0.401763
O O15 0.000000 0.465917 0.417901
O O16 0.235474 0.090288 0.212439
O O17 0.000000 0.055752 0.122564
O O18 0.000000 0.376503 0.711970
O O19 0.835324 0.383990 0.911127
O O20 0.000000 0.570062 0.554087
#
# Coordination Sequence:
#
# PCOD8175311 Si02
#       8
#     8   8   8   8   8   8   8   8
#     4   9  19  37  60  85 116 151 190 240 299 357
#     4  11  23  39  64  95 123 161 209 256 313 378
#     4  10  23  42  63  92 129 163 207 261 316 379
#     4  10  22  39  58  85 120 154 196 251 306 362
#     4  10  21  37  58  84 117 157 202 247 295 359
#     4  10  20  35  59  89 116 148 194 244 297 352
#     4  10  21  40  62  85 119 160 202 249 302 362
#     4  10  23  39  58  85 118 160 204 248 302 361
#
# _framework density 20.200336
#
# number of rings (size 3 to 8) (size 9 to 14) (size 15 to 20)
#    0.000    2.000    1.250    2.250    1.750    6.500 
#    0.000    2.500    0.000    0.000    0.000    0.000 
#    0.000    0.000    0.000    0.000    0.000    0.000 
#
# Total GULP energy -396663.556434 kJ/mol
# GULP energy per Si atom -12395.736139 kJ/mol
# Density = 2.015436 g / cm^3
# Si number density = 20.200336 Si / 1000 Ang^3
#
#
#
# Elastic Constant Matrix: (Units=GPa)
#
#
# Indices 1 2 3 4 5 6 
#
# 1 99.8549 31.7874 50.3466 0.0000 0.0000 0.0000
# 2 31.7874 62.7076 37.7111 0.0000 0.0000 0.0000
# 3 50.3466 37.7111 111.0499 0.0000 0.0000 0.0000
# 4 0.0000 0.0000 0.0000 24.5365 0.0000 0.0000
# 5 0.0000 0.0000 0.0000 0.0000 36.3374 0.0000
# 6 0.0000 0.0000 0.0000 0.0000 0.0000 29.0834
#
#
#
# Elastic Compliance Matrix: (Units=1/GPa)
#
#
# Indices 1 2 3 4 5 6 
#
# 1 0.013754 -0.004049 -0.004861 0.000000 0.000000 0.000000
# 2 -0.004049 0.021232 -0.005374 0.000000 0.000000 0.000000
# 3 -0.004861 -0.005374 0.013034 0.000000 0.000000 0.000000
# 4 0.000000 0.000000 0.000000 0.040756 0.000000 0.000000
# 5 0.000000 0.000000 0.000000 0.000000 0.027520 0.000000
# 6 0.000000 0.000000 0.000000 0.000000 0.000000 0.034384
#
#
# Mechanical properties :
#
#
# Convention : Reuss Voigt Hill
#
# Bulk Modulus (GPa) = 51.41021 57.03362 54.22191
# Shear Modulus (GPa) = 26.92071 28.24263 27.58167
#
# Velocity S-wave (km/s) = 3.65456 3.74321 3.69915
# Velocity P-wave (km/s) = 6.58127 6.85401 6.71903
#
# Compressibility (1/GPa) = 0.01945139
#
# Stress axis : x y z
#
# Youngs Moduli (GPa) = 72.70469 47.09976 76.72421
#
# Poissons Ratio (x) = 0.19071 0.37294
# Poissons Ratio (y) = 0.29439 0.41233
# Poissons Ratio (z) = 0.35340 0.25312
#
# Static dielectric constant tensor:
#      x y z
#    x 3.820850 0.000000 0.000000 
#    y 0.000000 3.670550 0.000000 
#    z 0.000000 0.000000 3.712110 
# 
# 
# High freq. dielectric constant tensor:
#      x y z
#    x 1.792820 0.000000 0.000000 
#    y 0.000000 1.780100 0.000000 
#    z 0.000000 0.000000 1.786160 
# 
# From -- ./inp_files/7204.got.cif
#   From: 2010.03.12/outbox.cif.g09.slc.cpg/sg36_4_cif.got.tgz:7204.got - 2010.04.14 02:13:53.
