data_PCOD8175369
_publ_section_title
;
Structure prediction by ZEFSAII (Michael W. Deem and Ramdas Pophale) SiO2 
 PCOD8175369
Probable space group: C M C 21
;
_chemical_formula_sum "Si O2"
_cell_formula_units_Z 64
_cell_length_a 8.906734
_cell_length_b 18.551410
_cell_length_c 20.053608
_cell_angle_alpha 90.000000
_cell_angle_beta 90.000000
_cell_angle_gamma 90.000000
_cell_volume 3313.507266
_symmetry_space_group_name_H-M "C M C 21"
_symmetry_group_IT_number 36
_symmetry_cell_setting 'orthorhombic'
loop_
_space_group_symop_operation_xyz
x,y,z
-x,-y,1/2+z
x,-y,1/2+z
-x,y,z
1/2+x,1/2+y,z
1/2-x,1/2-y,1/2+z
1/2+x,1/2-y,1/2+z
1/2-x,1/2+y,z
loop_
_atom_site_type_symbol
_atom_site_label
_atom_site_fract_x
_atom_site_fract_y
_atom_site_fract_z
Si Si1 0.175573 0.192342 0.876700
Si Si2 0.175647 0.554018 0.720660
Si Si3 0.827365 0.198942 0.726595
Si Si4 0.326540 0.792706 0.604034
Si Si5 0.175783 0.299306 0.992725
Si Si6 0.675531 0.959434 0.597691
Si Si7 0.177507 0.952519 0.981252
Si Si8 0.322227 0.956296 0.371037
O O1 0.223283 0.216940 0.802188
O O2 0.266444 0.121045 0.898233
O O3 0.000000 0.174036 0.882268
O O4 0.219890 0.257398 0.925248
O O5 0.242452 0.629934 0.696988
O O6 0.223828 0.492604 0.668772
O O7 0.231835 0.533055 0.794673
O O8 0.000000 0.564695 0.722239
O O9 0.794957 0.267404 0.679845
O O10 0.000000 0.177342 0.726109
O O11 0.500000 0.779204 0.584360
O O12 0.218311 0.749616 0.555281
O O13 0.283801 0.875898 0.600134
O O14 0.000000 0.317372 0.995367
O O15 0.268579 0.372320 0.996474
O O16 0.500000 0.972804 0.583153
O O17 0.772267 0.994895 0.540025
O O18 0.000000 0.953698 0.975440
O O19 0.248446 0.979078 0.912054
O O20 0.500000 0.960550 0.379499
#
# Coordination Sequence:
#
# PCOD8175369 Si02
#       8
#     8   8   8   8   8   8   8   8
#     4   9  19  36  58  83 111 144 182 223 269 324
#     4   9  19  35  57  84 112 145 183 223 269 324
#     4   9  18  34  56  81 110 144 180 220 268 322
#     4  10  21  36  56  82 111 144 180 222 272 325
#     4  11  23  38  57  80 108 143 183 229 278 327
#     4  10  21  38  59  83 113 147 184 227 275 327
#     4  12  25  39  56  80 111 146 187 232 277 327
#     4  10  20  36  59  85 114 147 183 224 272 326
#
# _framework density 19.314882000000001
#
# number of rings (size 3 to 8) (size 9 to 14) (size 15 to 20)
#    0.000    2.000    0.000    3.375    0.000    8.000 
#    0.000    3.750    0.000    1.500    0.000    0.000 
#    0.000    0.000    0.000    0.000    0.000    0.000 
#
# Total GULP energy -396916.227203 kJ/mol
# GULP energy per Si atom -12403.632100 kJ/mol
# Density = 1.927092 g / cm^3
# Si number density = 19.314882 Si / 1000 Ang^3
#
#
#
# Elastic Constant Matrix: (Units=GPa)
#
#
# Indices 1 2 3 4 5 6 
#
# 1 43.8940 21.5727 28.3090 0.0000 0.0000 0.0000
# 2 21.5727 106.8004 49.7398 0.0000 0.0000 0.0000
# 3 28.3090 49.7398 95.4814 0.0000 0.0000 0.0000
# 4 0.0000 0.0000 0.0000 39.8247 0.0000 0.0000
# 5 0.0000 0.0000 0.0000 0.0000 28.5470 0.0000
# 6 0.0000 0.0000 0.0000 0.0000 0.0000 26.8658
#
#
#
# Elastic Compliance Matrix: (Units=1/GPa)
#
#
# Indices 1 2 3 4 5 6 
#
# 1 0.028633 -0.002416 -0.007231 0.000000 0.000000 0.000000
# 2 -0.002416 0.012566 -0.005830 0.000000 0.000000 0.000000
# 3 -0.007231 -0.005830 0.015654 0.000000 0.000000 0.000000
# 4 0.000000 0.000000 0.000000 0.025110 0.000000 0.000000
# 5 0.000000 0.000000 0.000000 0.000000 0.035030 0.000000
# 6 0.000000 0.000000 0.000000 0.000000 0.000000 0.037222
#
#
# Mechanical properties :
#
#
# Convention : Reuss Voigt Hill
#
# Bulk Modulus (GPa) = 38.61000 49.49097 44.05048
# Shear Modulus (GPa) = 25.79946 28.81778 27.30862
#
# Velocity S-wave (km/s) = 3.65873 3.86683 3.76422
# Velocity P-wave (km/s) = 6.15480 6.75391 6.46130
#
# Compressibility (1/GPa) = 0.02590003
#
# Stress axis : x y z
#
# Youngs Moduli (GPa) = 34.92479 79.57672 63.88095
#
# Poissons Ratio (x) = 0.19226 0.46190
# Poissons Ratio (y) = 0.08438 0.37243
# Poissons Ratio (z) = 0.25253 0.46393
#
# Static dielectric constant tensor:
#      x y z
#    x 3.497250 0.000000 0.000000 
#    y 0.000000 3.531790 0.000000 
#    z 0.000000 0.000000 3.870840 
# 
# 
# High freq. dielectric constant tensor:
#      x y z
#    x 1.748030 0.000000 0.000000 
#    y 0.000000 1.751260 0.000000 
#    z 0.000000 0.000000 1.764940 
# 
# From -- ./inp_files/15672.got.cif
#   From: 2010.03.12/outbox.cif.g09.slc.cpg/sg36_8_cif.got.tgz:15672.got - 2010.04.14 02:13:53.
