data_PCOD8175584
_publ_section_title
;
Structure prediction by ZEFSAII (Michael W. Deem and Ramdas Pophale) SiO2 
 PCOD8175584
Probable space group: C M C 21
;
_chemical_formula_sum "Si O2"
_cell_formula_units_Z 48
_cell_length_a 26.841009
_cell_length_b 9.981939
_cell_length_c 8.518523
_cell_angle_alpha 90.000000
_cell_angle_beta 90.000000
_cell_angle_gamma 90.000000
_cell_volume 2282.327954
_symmetry_space_group_name_H-M "C M C 21"
_symmetry_group_IT_number 36
_symmetry_cell_setting 'orthorhombic'
loop_
_space_group_symop_operation_xyz
x,y,z
-x,-y,1/2+z
x,-y,1/2+z
-x,y,z
1/2+x,1/2+y,z
1/2-x,1/2-y,1/2+z
1/2+x,1/2-y,1/2+z
1/2-x,1/2+y,z
loop_
_atom_site_type_symbol
_atom_site_label
_atom_site_fract_x
_atom_site_fract_y
_atom_site_fract_z
Si Si1 0.443837 0.094318 0.883250
Si Si2 0.846879 0.828254 0.244589
Si Si3 0.189862 0.085946 0.413792
Si Si4 0.846028 0.667485 0.741091
Si Si5 0.305455 0.913764 0.912211
Si Si6 0.555744 0.183690 0.236050
O O1 0.500000 0.135190 0.832319
O O2 0.405181 0.177277 0.775840
O O3 0.435561 0.935646 0.859734
O O4 0.433895 0.123185 0.064712
O O5 0.840500 0.870750 0.065812
O O6 0.815580 0.692269 0.273300
O O7 0.905585 0.802067 0.273584
O O8 0.828228 0.939768 0.364444
O O9 0.179358 0.189062 0.272549
O O10 0.247754 0.081752 0.457439
O O11 0.837643 0.628848 0.561913
O O12 0.821606 0.560258 0.858117
O O13 0.500000 0.242954 0.249374
#
# Coordination Sequence:
#
# PCOD8175584 Si02
#       6
#     8   8   8   8   8   8
#     4  10  20  39  67  98 126 159 207 265 323 376
#     4  12  25  45  62  93 131 171 217 267 323 386
#     4  12  25  42  62  91 131 177 213 263 324 385
#     4  12  23  41  66  99 126 166 218 266 323 380
#     4  12  24  40  66  92 129 170 221 265 315 383
#     4  10  21  41  69  97 127 165 210 268 326 388
#
# _framework density 21.031158000000001
#
# number of rings (size 3 to 8) (size 9 to 14) (size 15 to 20)
#    0.000    0.667    3.333    6.000    0.000    0.000 
#    0.000    1.667    0.000    0.000    0.000    0.000 
#    0.000    0.000    0.000    0.000    0.000    0.000 
#
# Total GULP energy -297763.293767 kJ/mol
# GULP energy per Si atom -12406.803907 kJ/mol
# Density = 2.098329 g / cm^3
# Si number density = 21.031158 Si / 1000 Ang^3
#
#
#
# Elastic Constant Matrix: (Units=GPa)
#
#
# Indices 1 2 3 4 5 6 
#
# 1 134.9391 47.1420 15.7549 0.0000 0.0000 0.0000
# 2 47.1420 72.1528 8.7618 0.0000 0.0000 0.0000
# 3 15.7549 8.7618 64.1936 0.0000 0.0000 0.0000
# 4 0.0000 0.0000 0.0000 29.3522 0.0000 0.0000
# 5 0.0000 0.0000 0.0000 0.0000 31.2297 0.0000
# 6 0.0000 0.0000 0.0000 0.0000 0.0000 15.5932
#
#
#
# Elastic Compliance Matrix: (Units=1/GPa)
#
#
# Indices 1 2 3 4 5 6 
#
# 1 0.009752 -0.006183 -0.001549 0.000000 0.000000 0.000000
# 2 -0.006183 0.018014 -0.000941 0.000000 0.000000 0.000000
# 3 -0.001549 -0.000941 0.016087 0.000000 0.000000 0.000000
# 4 0.000000 0.000000 0.000000 0.034069 0.000000 0.000000
# 5 0.000000 0.000000 0.000000 0.000000 0.032021 0.000000
# 6 0.000000 0.000000 0.000000 0.000000 0.000000 0.064131
#
#
# Mechanical properties :
#
#
# Convention : Reuss Voigt Hill
#
# Bulk Modulus (GPa) = 37.72955 46.06697 41.89826
# Shear Modulus (GPa) = 24.96815 28.54347 26.75581
#
# Velocity S-wave (km/s) = 3.44931 3.68802 3.57066
# Velocity P-wave (km/s) = 5.81743 6.33143 6.07986
#
# Compressibility (1/GPa) = 0.02650442
#
# Stress axis : x y z
#
# Youngs Moduli (GPa) = 102.54458 55.51316 62.16354
#
# Poissons Ratio (x) = 0.34326 0.09632
# Poissons Ratio (y) = 0.63407 0.05850
# Poissons Ratio (z) = 0.15888 0.05224
#
# Static dielectric constant tensor:
#      x y z
#    x 4.103690 0.000000 0.000000 
#    y 0.000000 3.799930 0.000000 
#    z 0.000000 0.000000 3.754590 
# 
# 
# High freq. dielectric constant tensor:
#      x y z
#    x 1.840300 0.000000 0.000000 
#    y 0.000000 1.806870 0.000000 
#    z 0.000000 0.000000 1.830850 
# 
# From -- ./inp_files/5965.got.cif
#   From: 2010.03.12/outbox.cif.g09.slc.cpg/sg36_3_cif.got.tgz:5965.got - 2010.04.14 02:13:53.
