data_PCOD8175055
_publ_section_title
;
Structure prediction by ZEFSAII (Michael W. Deem and Ramdas Pophale) SiO2 
 PCOD8175055
Probable space group: C M C 21
;
_chemical_formula_sum "Si O2"
_cell_formula_units_Z 64
_cell_length_a 9.013104
_cell_length_b 18.680310
_cell_length_c 19.899589
_cell_angle_alpha 90.000000
_cell_angle_beta 90.000000
_cell_angle_gamma 90.000000
_cell_volume 3350.445579
_symmetry_space_group_name_H-M "C M C 21"
_symmetry_group_IT_number 36
_symmetry_cell_setting 'orthorhombic'
loop_
_space_group_symop_operation_xyz
x,y,z
-x,-y,1/2+z
x,-y,1/2+z
-x,y,z
1/2+x,1/2+y,z
1/2-x,1/2-y,1/2+z
1/2+x,1/2-y,1/2+z
1/2-x,1/2+y,z
loop_
_atom_site_type_symbol
_atom_site_label
_atom_site_fract_x
_atom_site_fract_y
_atom_site_fract_z
Si Si1 0.662090 0.971466 0.481030
Si Si2 0.822205 0.492069 0.124446
Si Si3 0.666910 0.270582 0.401676
Si Si4 0.337429 0.435200 0.361030
Si Si5 0.322232 0.386230 0.221111
Si Si6 0.828915 0.246145 0.269088
Si Si7 0.833454 0.691006 0.026915
Si Si8 0.671106 0.362280 0.652976
O O1 0.500000 0.002440 0.467243
O O2 0.729696 0.010728 0.546365
O O3 0.749845 0.986236 0.412290
O O4 0.656395 0.887769 0.496569
O O5 0.753130 0.421208 0.156446
O O6 0.756485 0.562743 0.159326
O O7 0.000000 0.494193 0.130703
O O8 0.500000 0.238998 0.405695
O O9 0.659063 0.354416 0.387003
O O10 0.757032 0.231408 0.342063
O O11 0.749606 0.258118 0.472998
O O12 0.500000 0.468672 0.358822
O O13 0.271801 0.434028 0.285615
O O14 0.500000 0.383193 0.214835
O O15 0.260336 0.306669 0.228719
O O16 0.816737 0.174129 0.225742
O O17 0.000000 0.269867 0.278482
O O18 0.743541 0.689368 0.096735
O O19 0.000000 0.720647 0.039783
O O20 0.500000 0.375905 0.632978
#
# Coordination Sequence:
#
# PCOD8175055 Si02
#       8
#     8   8   8   8   8   8   8   8
#     4   8  15  26  42  66  92 119 153 193 235 279
#     4  10  20  33  50  73 100 130 164 202 245 294
#     4   9  16  27  45  69  96 125 160 202 245 288
#     4   8  15  26  42  66  92 119 153 193 235 279
#     4  10  20  33  50  73 100 130 164 202 245 294
#     4  10  20  33  50  73 101 132 165 203 247 293
#     4   9  16  27  45  69  96 125 160 202 245 288
#     4  10  20  33  50  73 101 132 165 203 247 293
#
# _framework density 19.101937
#
# number of rings (size 3 to 8) (size 9 to 14) (size 15 to 20)
#    0.000    2.750    0.000    3.750    0.000    9.000 
#    0.000    0.000    0.000    1.500    0.000    7.000 
#    0.000    0.000    0.000    0.000    0.000    0.000 
#
# Total GULP energy -396635.761542 kJ/mol
# GULP energy per Si atom -12394.867548 kJ/mol
# Density = 1.905846 g / cm^3
# Si number density = 19.101937 Si / 1000 Ang^3
#
#
#
# Elastic Constant Matrix: (Units=GPa)
#
#
# Indices 1 2 3 4 5 6 
#
# 1 100.6206 5.1473 7.2484 0.0000 0.0000 0.0000
# 2 5.1473 15.3918 -8.4517 0.0000 0.0000 0.0000
# 3 7.2484 -8.4517 24.3264 0.0000 0.0000 0.0000
# 4 0.0000 0.0000 0.0000 22.2226 0.0000 0.0000
# 5 0.0000 0.0000 0.0000 0.0000 37.1235 0.0000
# 6 0.0000 0.0000 0.0000 0.0000 0.0000 18.3061
#
#
#
# Elastic Compliance Matrix: (Units=1/GPa)
#
#
# Indices 1 2 3 4 5 6 
#
# 1 0.010667 -0.006565 -0.005460 0.000000 0.000000 0.000000
# 2 -0.006565 0.084327 0.031254 0.000000 0.000000 0.000000
# 3 -0.005460 0.031254 0.053593 0.000000 0.000000 0.000000
# 4 0.000000 0.000000 0.000000 0.044999 0.000000 0.000000
# 5 0.000000 0.000000 0.000000 0.000000 0.026937 0.000000
# 6 0.000000 0.000000 0.000000 0.000000 0.000000 0.054627
#
#
# Mechanical properties :
#
#
# Convention : Reuss Voigt Hill
#
# Bulk Modulus (GPa) = 5.34627 16.46964 10.90796
# Shear Modulus (GPa) = 16.72013 24.62342 20.67177
#
# Velocity S-wave (km/s) = 2.96177 3.59423 3.29322
# Velocity P-wave (km/s) = 3.80802 5.08580 4.49257
#
# Compressibility (1/GPa) = 0.18704614
#
# Stress axis : x y z
#
# Youngs Moduli (GPa) = 93.74299 11.85857 18.65917
#
# Poissons Ratio (x) = 0.07785 0.10187
# Poissons Ratio (y) = 0.61545 -0.58317
# Poissons Ratio (z) = 0.51179 -0.37063
#
# Static dielectric constant tensor:
#      x y z
#    x 3.766290 0.000000 0.000000 
#    y 0.000000 2.856020 0.000000 
#    z 0.000000 0.000000 3.725440 
# 
# 
# High freq. dielectric constant tensor:
#      x y z
#    x 1.756360 0.000000 0.000000 
#    y 0.000000 1.677980 0.000000 
#    z 0.000000 0.000000 1.752060 
# 
# From -- ./inp_files/15688.got.cif
#   From: 2010.03.12/outbox.cif.g09.slc.cpg/sg36_8_cif.got.tgz:15688.got - 2010.04.14 02:13:53.
