data_PCOD8175861
_publ_section_title
;
Structure prediction by ZEFSAII (Michael W. Deem and Ramdas Pophale) SiO2 
 PCOD8175861
Probable space group: C M C 21
;
_chemical_formula_sum "Si O2"
_cell_formula_units_Z 64
_cell_length_a 13.157292
_cell_length_b 17.784100
_cell_length_c 13.325329
_cell_angle_alpha 90.000000
_cell_angle_beta 90.000000
_cell_angle_gamma 90.000000
_cell_volume 3118.001683
_symmetry_space_group_name_H-M "C M C 21"
_symmetry_group_IT_number 36
_symmetry_cell_setting 'orthorhombic'
loop_
_space_group_symop_operation_xyz
x,y,z
-x,-y,1/2+z
x,-y,1/2+z
-x,y,z
1/2+x,1/2+y,z
1/2-x,1/2-y,1/2+z
1/2+x,1/2-y,1/2+z
1/2-x,1/2+y,z
loop_
_atom_site_type_symbol
_atom_site_label
_atom_site_fract_x
_atom_site_fract_y
_atom_site_fract_z
Si Si1 0.386840 0.079625 0.292280
Si Si2 0.388814 0.065192 0.058131
Si Si3 0.387912 0.429614 0.911790
Si Si4 0.252809 0.818694 0.450584
Si Si5 0.621212 0.762191 0.104807
Si Si6 0.732300 0.547361 0.807052
Si Si7 0.292478 0.693397 0.305026
Si Si8 0.728805 0.919426 0.080858
O O1 0.500000 0.088751 0.341313
O O2 0.401035 0.068102 0.175791
O O3 0.319566 0.154451 0.310390
O O4 0.331405 0.004037 0.334269
O O5 0.500000 0.065111 0.006834
O O6 0.331193 0.988532 0.030016
O O7 0.328836 0.139253 0.025001
O O8 0.500000 0.433153 0.955677
O O9 0.364223 0.508649 0.858832
O O10 0.377412 0.370168 0.820866
O O11 0.319484 0.402921 0.004809
O O12 0.153090 0.791718 0.512180
O O13 0.230433 0.871109 0.355821
O O14 0.305406 0.747154 0.400694
O O15 0.500000 0.757886 0.120754
O O16 0.684314 0.734776 0.201328
O O17 0.653267 0.848572 0.086972
O O18 0.722951 0.557439 0.687603
#
# Coordination Sequence:
#
# PCOD8175861 Si02
#       8
#     8   8   8   8   8   8   8   8
#     4   9  20  41  67  93 125 168 211 265 329 383
#     4  10  21  39  66  94 125 163 208 265 328 378
#     4  11  24  43  66  93 129 178 218 262 332 399
#     4  12  23  42  62  98 138 165 212 278 326 390
#     4  12  26  44  69  97 134 181 221 273 338 398
#     4  10  23  41  67  95 130 164 217 274 323 396
#     4  11  23  44  64  94 139 170 217 270 323 402
#     4  11  22  46  67  94 132 165 222 283 317 390
#
# _framework density 20.525966
#
# number of rings (size 3 to 8) (size 9 to 14) (size 15 to 20)
#    0.000    1.250    5.000    0.750    0.000    3.500 
#    0.000    0.625    0.000    0.000    0.000    0.000 
#    0.000    0.000    0.000    0.000    0.000    0.000 
#
# Total GULP energy -396631.599564 kJ/mol
# GULP energy per Si atom -12394.737486 kJ/mol
# Density = 2.047925 g / cm^3
# Si number density = 20.525966 Si / 1000 Ang^3
#
#
#
# Elastic Constant Matrix: (Units=GPa)
#
#
# Indices 1 2 3 4 5 6 
#
# 1 132.2672 51.0433 31.5620 0.0000 0.0000 0.0000
# 2 51.0433 95.7155 21.5327 0.0000 0.0000 0.0000
# 3 31.5620 21.5327 80.3386 0.0000 0.0000 0.0000
# 4 0.0000 0.0000 0.0000 43.2879 0.0000 0.0000
# 5 0.0000 0.0000 0.0000 0.0000 22.7779 0.0000
# 6 0.0000 0.0000 0.0000 0.0000 0.0000 18.2224
#
#
#
# Elastic Compliance Matrix: (Units=1/GPa)
#
#
# Indices 1 2 3 4 5 6 
#
# 1 0.010029 -0.004748 -0.002667 0.000000 0.000000 0.000000
# 2 -0.004748 0.013366 -0.001717 0.000000 0.000000 0.000000
# 3 -0.002667 -0.001717 0.013955 0.000000 0.000000 0.000000
# 4 0.000000 0.000000 0.000000 0.023101 0.000000 0.000000
# 5 0.000000 0.000000 0.000000 0.000000 0.043902 0.000000
# 6 0.000000 0.000000 0.000000 0.000000 0.000000 0.054877
#
#
# Mechanical properties :
#
#
# Convention : Reuss Voigt Hill
#
# Bulk Modulus (GPa) = 52.39646 57.39970 54.89808
# Shear Modulus (GPa) = 27.19471 30.46987 28.83229
#
# Velocity S-wave (km/s) = 3.64386 3.85704 3.75196
# Velocity P-wave (km/s) = 6.57920 6.91815 6.75081
#
# Compressibility (1/GPa) = 0.01908526
#
# Stress axis : x y z
#
# Youngs Moduli (GPa) = 99.70649 74.81596 71.65650
#
# Poissons Ratio (x) = 0.35526 0.19114
# Poissons Ratio (y) = 0.47345 0.12303
# Poissons Ratio (z) = 0.26597 0.12846
#
# Static dielectric constant tensor:
#      x y z
#    x 3.730980 0.000000 0.000000 
#    y 0.000000 3.850930 0.000000 
#    z 0.000000 0.000000 3.763890 
# 
# 
# High freq. dielectric constant tensor:
#      x y z
#    x 1.783580 0.000000 0.000000 
#    y 0.000000 1.814150 0.000000 
#    z 0.000000 0.000000 1.818290 
# 
# From -- ./inp_files/11778.got.cif
#   From: 2010.03.12/outbox.cif.g09.slc.cpg/sg36_6_cif.got.tgz:11778.got - 2010.04.14 02:13:53.
