data_PCOD8175732
_publ_section_title
;
Structure prediction by ZEFSAII (Michael W. Deem and Ramdas Pophale) SiO2 
 PCOD8175732
Probable space group: C M C 21
;
_chemical_formula_sum "Si O2"
_cell_formula_units_Z 64
_cell_length_a 8.693620
_cell_length_b 30.401728
_cell_length_c 12.086849
_cell_angle_alpha 90.000000
_cell_angle_beta 90.000000
_cell_angle_gamma 90.000000
_cell_volume 3194.567131
_symmetry_space_group_name_H-M "C M C 21"
_symmetry_group_IT_number 36
_symmetry_cell_setting 'orthorhombic'
loop_
_space_group_symop_operation_xyz
x,y,z
-x,-y,1/2+z
x,-y,1/2+z
-x,y,z
1/2+x,1/2+y,z
1/2-x,1/2-y,1/2+z
1/2+x,1/2-y,1/2+z
1/2-x,1/2+y,z
loop_
_atom_site_type_symbol
_atom_site_label
_atom_site_fract_x
_atom_site_fract_y
_atom_site_fract_z
Si Si1 0.818361 0.872603 0.288370
Si Si2 0.817909 0.554738 0.941034
Si Si3 0.820504 0.205079 0.947996
Si Si4 0.326789 0.079519 0.176793
Si Si5 0.682163 0.376130 0.036327
Si Si6 0.182485 0.454965 0.902665
Si Si7 0.180544 0.205538 0.387911
Si Si8 0.673514 0.819969 0.668721
O O1 0.750715 0.916606 0.342230
O O2 0.763391 0.828941 0.353723
O O3 0.759983 0.869025 0.162121
O O4 0.000000 0.876356 0.294984
O O5 0.767954 0.504291 0.930146
O O6 0.000000 0.561247 0.936296
O O7 0.746146 0.570564 0.058692
O O8 0.719730 0.249082 0.947861
O O9 0.000000 0.216116 0.934669
O O10 0.788721 0.183631 0.066472
O O11 0.500000 0.061617 0.164577
O O12 0.248052 0.054741 0.280219
O O13 0.323001 0.130208 0.209199
O O14 0.500000 0.378684 0.032662
O O15 0.748148 0.422053 0.992726
O O16 0.740972 0.335007 0.962888
O O17 0.000000 0.448391 0.903352
O O18 0.267302 0.208618 0.271026
O O19 0.000000 0.201093 0.367369
O O20 0.500000 0.805246 0.636649
#
# Coordination Sequence:
#
# PCOD8175732 Si02
#       8
#     8   8   8   8   8   8   8   8
#     4  10  23  42  60  83 121 161 197 244 300 356
#     4  10  21  37  61  90 119 154 199 248 298 353
#     4  11  24  41  63  91 121 158 205 252 305 364
#     4   9  18  35  57  86 119 152 193 246 301 348
#     4  10  23  42  60  83 121 161 197 244 300 356
#     4  10  21  37  61  90 119 154 199 248 298 353
#     4  11  24  41  63  91 121 158 205 252 305 364
#     4  11  21  39  65  88 121 160 199 252 307 358
#
# _framework density 20.034013999999999
#
# number of rings (size 3 to 8) (size 9 to 14) (size 15 to 20)
#    0.000    1.750    2.500    1.125    3.500    2.000 
#    0.000    0.625    0.000    0.000    0.000    0.000 
#    0.000    0.000    0.000    0.000    0.000    0.000 
#
# Total GULP energy -396839.291182 kJ/mol
# GULP energy per Si atom -12401.227849 kJ/mol
# Density = 1.998842 g / cm^3
# Si number density = 20.034014 Si / 1000 Ang^3
#
#
#
# Elastic Constant Matrix: (Units=GPa)
#
#
# Indices 1 2 3 4 5 6 
#
# 1 29.0018 27.4236 26.2792 0.0000 0.0000 0.0000
# 2 27.4236 119.0841 47.7094 0.0000 0.0000 0.0000
# 3 26.2792 47.7094 143.3586 0.0000 0.0000 0.0000
# 4 0.0000 0.0000 0.0000 30.6459 0.0000 0.0000
# 5 0.0000 0.0000 0.0000 0.0000 30.1313 0.0000
# 6 0.0000 0.0000 0.0000 0.0000 0.0000 28.7864
#
#
#
# Elastic Compliance Matrix: (Units=1/GPa)
#
#
# Indices 1 2 3 4 5 6 
#
# 1 0.048067 -0.008699 -0.005916 0.000000 0.000000 0.000000
# 2 -0.008699 0.011264 -0.002154 0.000000 0.000000 0.000000
# 3 -0.005916 -0.002154 0.008777 0.000000 0.000000 0.000000
# 4 0.000000 0.000000 0.000000 0.032631 0.000000 0.000000
# 5 0.000000 0.000000 0.000000 0.000000 0.033188 0.000000
# 6 0.000000 0.000000 0.000000 0.000000 0.000000 0.034739
#
#
# Mechanical properties :
#
#
# Convention : Reuss Voigt Hill
#
# Bulk Modulus (GPa) = 28.92738 54.91879 41.92308
# Shear Modulus (GPa) = 23.39439 30.58154 26.98796
#
# Velocity S-wave (km/s) = 3.42092 3.91126 3.67428
# Velocity P-wave (km/s) = 5.48398 6.91878 6.24274
#
# Compressibility (1/GPa) = 0.03456933
#
# Stress axis : x y z
#
# Youngs Moduli (GPa) = 20.80423 88.78131 113.93629
#
# Poissons Ratio (x) = 0.77231 0.67407
# Poissons Ratio (y) = 0.18098 0.24541
# Poissons Ratio (z) = 0.12308 0.19122
#
# Static dielectric constant tensor:
#      x y z
#    x 3.387690 0.000000 0.000000 
#    y 0.000000 3.608090 0.000000 
#    z 0.000000 0.000000 3.875870 
# 
# 
# High freq. dielectric constant tensor:
#      x y z
#    x 1.758930 0.000000 0.000000 
#    y 0.000000 1.787460 0.000000 
#    z 0.000000 0.000000 1.797750 
# 
# From -- ./inp_files/7192.got.cif
#   From: 2010.03.12/outbox.cif.g09.slc.cpg/sg36_4_cif.got.tgz:7192.got - 2010.04.14 02:13:53.
