data_PCOD8175807
_publ_section_title
;
Structure prediction by ZEFSAII (Michael W. Deem and Ramdas Pophale) SiO2 
 PCOD8175807
Probable space group: C M C 21
;
_chemical_formula_sum "Si O2"
_cell_formula_units_Z 48
_cell_length_a 17.221339
_cell_length_b 8.248227
_cell_length_c 14.599678
_cell_angle_alpha 90.000000
_cell_angle_beta 90.000000
_cell_angle_gamma 90.000000
_cell_volume 2073.818756
_symmetry_space_group_name_H-M "C M C 21"
_symmetry_group_IT_number 36
_symmetry_cell_setting 'orthorhombic'
loop_
_space_group_symop_operation_xyz
x,y,z
-x,-y,1/2+z
x,-y,1/2+z
-x,y,z
1/2+x,1/2+y,z
1/2-x,1/2-y,1/2+z
1/2+x,1/2-y,1/2+z
1/2-x,1/2+y,z
loop_
_atom_site_type_symbol
_atom_site_label
_atom_site_fract_x
_atom_site_fract_y
_atom_site_fract_z
Si Si1 0.158593 0.568907 0.939720
Si Si2 0.669676 0.525307 0.013578
Si Si3 0.413324 0.774188 0.595319
Si Si4 0.089851 0.112935 0.358622
Si Si5 0.661469 0.064693 0.251409
Si Si6 0.326822 0.301605 0.693906
O O1 0.148118 0.744354 0.891789
O O2 0.141925 0.435282 0.860279
O O3 0.243834 0.532322 0.976225
O O4 0.100397 0.570607 0.026926
O O5 0.651485 0.359562 0.069534
O O6 0.658296 0.670356 0.085888
O O7 0.611587 0.538801 0.925323
O O8 0.500000 0.705061 0.581229
O O9 0.404490 0.831010 0.700130
O O10 0.111103 0.087831 0.251852
O O11 0.000000 0.159477 0.369688
O O12 0.742575 0.147091 0.228177
O O13 0.660044 0.886263 0.209790
#
# Coordination Sequence:
#
# PCOD8175807 Si02
#       6
#     8   8   8   8   8   8
#     4  10  21  38  67  96 131 180 225 269 326 410
#     4  11  21  41  69  98 133 179 227 271 332 411
#     4  11  25  44  68 101 141 178 219 285 349 394
#     4  10  23  42  65 100 141 179 222 281 345 394
#     4  11  23  41  65  99 132 175 228 276 331 410
#     4  11  23  40  68  98 134 177 231 278 337 403
#
# _framework density 23.145707999999999
#
# number of rings (size 3 to 8) (size 9 to 14) (size 15 to 20)
#    0.000    1.333    3.333    3.000    2.333    4.667 
#    0.000    0.000    0.000    0.000    0.000    0.000 
#    0.000    0.000    0.000    0.000    0.000    0.000 
#
# Total GULP energy -297341.392794 kJ/mol
# GULP energy per Si atom -12389.224700 kJ/mol
# Density = 2.309303 g / cm^3
# Si number density = 23.145708 Si / 1000 Ang^3
#
#
#
# Elastic Constant Matrix: (Units=GPa)
#
#
# Indices 1 2 3 4 5 6 
#
# 1 130.1594 24.0473 37.0556 0.0000 0.0000 0.0000
# 2 24.0473 32.7918 -2.9818 0.0000 0.0000 0.0000
# 3 37.0556 -2.9818 92.4026 0.0000 0.0000 0.0000
# 4 0.0000 0.0000 0.0000 30.5720 0.0000 0.0000
# 5 0.0000 0.0000 0.0000 0.0000 40.5931 0.0000
# 6 0.0000 0.0000 0.0000 0.0000 0.0000 29.8272
#
#
#
# Elastic Compliance Matrix: (Units=1/GPa)
#
#
# Indices 1 2 3 4 5 6 
#
# 1 0.010437 -0.008058 -0.004446 0.000000 0.000000 0.000000
# 2 -0.008058 0.036807 0.004419 0.000000 0.000000 0.000000
# 3 -0.004446 0.004419 0.012748 0.000000 0.000000 0.000000
# 4 0.000000 0.000000 0.000000 0.032710 0.000000 0.000000
# 5 0.000000 0.000000 0.000000 0.000000 0.024635 0.000000
# 6 0.000000 0.000000 0.000000 0.000000 0.000000 0.033526
#
#
# Mechanical properties :
#
#
# Convention : Reuss Voigt Hill
#
# Bulk Modulus (GPa) = 22.81937 41.28845 32.05391
# Shear Modulus (GPa) = 27.52709 33.34732 30.43720
#
# Velocity S-wave (km/s) = 3.45236 3.79985 3.63026
# Velocity P-wave (km/s) = 5.07662 6.09336 5.60808
#
# Compressibility (1/GPa) = 0.04382242
#
# Stress axis : x y z
#
# Youngs Moduli (GPa) = 95.80988 27.16894 78.44597
#
# Poissons Ratio (x) = 0.21894 0.34874
# Poissons Ratio (y) = 0.77207 -0.34668
# Poissons Ratio (z) = 0.42594 -0.12007
#
# Static dielectric constant tensor:
#      x y z
#    x 3.806730 0.000000 0.000000 
#    y 0.000000 3.929430 0.000000 
#    z 0.000000 0.000000 5.372830 
# 
# 
# High freq. dielectric constant tensor:
#      x y z
#    x 1.893610 0.000000 0.000000 
#    y 0.000000 1.881800 0.000000 
#    z 0.000000 0.000000 1.950620 
# 
# From -- ./inp_files/12491.got.cif
#   From: 2010.03.12/outbox.cif.g09.slc.cpg/sg36_7_cif.got.tgz:12491.got - 2010.04.14 02:13:53.
