data_PCOD8175795
_publ_section_title
;
Structure prediction by ZEFSAII (Michael W. Deem and Ramdas Pophale) SiO2 
 PCOD8175795
Probable space group: C M C 21
;
_chemical_formula_sum "Si O2"
_cell_formula_units_Z 64
_cell_length_a 8.804261
_cell_length_b 15.338129
_cell_length_c 23.648035
_cell_angle_alpha 90.000000
_cell_angle_beta 90.000000
_cell_angle_gamma 90.000000
_cell_volume 3193.451716
_symmetry_space_group_name_H-M "C M C 21"
_symmetry_group_IT_number 36
_symmetry_cell_setting 'orthorhombic'
loop_
_space_group_symop_operation_xyz
x,y,z
-x,-y,1/2+z
x,-y,1/2+z
-x,y,z
1/2+x,1/2+y,z
1/2-x,1/2-y,1/2+z
1/2+x,1/2-y,1/2+z
1/2-x,1/2+y,z
loop_
_atom_site_type_symbol
_atom_site_label
_atom_site_fract_x
_atom_site_fract_y
_atom_site_fract_z
Si Si1 0.176453 0.476054 0.344640
Si Si2 0.320545 0.397097 0.046681
Si Si3 0.675434 0.759516 0.621341
Si Si4 0.177073 0.368060 0.927901
Si Si5 0.175340 0.194628 0.862264
Si Si6 0.822523 0.963696 0.735072
Si Si7 0.819427 0.455236 0.617566
Si Si8 0.674454 0.217206 0.246942
O O1 0.219551 0.559908 0.381547
O O2 0.224159 0.389096 0.379017
O O3 0.268951 0.474903 0.286113
O O4 0.000000 0.474983 0.330491
O O5 0.500000 0.405505 0.055011
O O6 0.250540 0.315666 0.082475
O O7 0.243421 0.486377 0.066898
O O8 0.281552 0.383247 0.981706
O O9 0.500000 0.762960 0.605692
O O10 0.742960 0.856051 0.608952
O O11 0.700907 0.734354 0.687148
O O12 0.220164 0.274186 0.902758
O O13 0.000000 0.374017 0.944426
O O14 0.212644 0.217355 0.797203
O O15 0.000000 0.170618 0.870070
O O16 0.739340 0.992054 0.677403
O O17 0.784087 0.865013 0.751941
O O18 0.000000 0.976158 0.725615
O O19 0.000000 0.456928 0.617959
O O20 0.500000 0.183286 0.251606
#
# Coordination Sequence:
#
# PCOD8175795 Si02
#       8
#     8   8   8   8   8   8   8   8
#     4  11  23  40  61  88 120 160 207 250 306 368
#     4  11  23  39  62  91 119 156 206 254 297 357
#     4   8  18  36  59  85 118 156 192 234 297 359
#     4  10  23  44  62  81 120 166 203 246 304 365
#     4  10  21  38  62  90 119 157 202 250 306 361
#     4  11  21  35  59  91 126 159 199 251 304 357
#     4  10  21  40  62  87 121 162 200 241 304 369
#     4   9  17  36  61  85 121 162 193 238 306 366
#
# _framework density 20.041011000000001
#
# number of rings (size 3 to 8) (size 9 to 14) (size 15 to 20)
#    0.000    2.000    1.250    3.000    1.750    3.000 
#    0.000   10.000    0.000    0.000    0.000    0.000 
#    0.000    0.000    0.000    0.000    0.000    0.000 
#
# Total GULP energy -396856.387951 kJ/mol
# GULP energy per Si atom -12401.762123 kJ/mol
# Density = 1.999540 g / cm^3
# Si number density = 20.041011 Si / 1000 Ang^3
#
#
#
# Elastic Constant Matrix: (Units=GPa)
#
#
# Indices 1 2 3 4 5 6 
#
# 1 70.2566 25.1984 29.2392 0.0000 0.0000 0.0000
# 2 25.1984 64.6825 6.5279 0.0000 0.0000 0.0000
# 3 29.2392 6.5279 65.2465 0.0000 0.0000 0.0000
# 4 0.0000 0.0000 0.0000 20.0740 0.0000 0.0000
# 5 0.0000 0.0000 0.0000 0.0000 31.7246 0.0000
# 6 0.0000 0.0000 0.0000 0.0000 0.0000 30.6640
#
#
#
# Elastic Compliance Matrix: (Units=1/GPa)
#
#
# Indices 1 2 3 4 5 6 
#
# 1 0.020241 -0.007041 -0.008366 0.000000 0.000000 0.000000
# 2 -0.007041 0.018067 0.001348 0.000000 0.000000 0.000000
# 3 -0.008366 0.001348 0.018941 0.000000 0.000000 0.000000
# 4 0.000000 0.000000 0.000000 0.049816 0.000000 0.000000
# 5 0.000000 0.000000 0.000000 0.000000 0.031521 0.000000
# 6 0.000000 0.000000 0.000000 0.000000 0.000000 0.032612
#
#
# Mechanical properties :
#
#
# Convention : Reuss Voigt Hill
#
# Bulk Modulus (GPa) = 34.32902 35.79074 35.05988
# Shear Modulus (GPa) = 23.92054 25.77385 24.84719
#
# Velocity S-wave (km/s) = 3.45857 3.59005 3.52492
# Velocity P-wave (km/s) = 5.75461 5.92302 5.83942
#
# Compressibility (1/GPa) = 0.02912987
#
# Stress axis : x y z
#
# Youngs Moduli (GPa) = 49.40576 55.34954 52.79608
#
# Poissons Ratio (x) = 0.38970 0.44170
# Poissons Ratio (y) = 0.34786 -0.07115
# Poissons Ratio (z) = 0.41333 -0.07459
#
# Static dielectric constant tensor:
#      x y z
#    x 3.422880 0.000000 0.000000 
#    y 0.000000 3.777410 0.000000 
#    z 0.000000 0.000000 3.612390 
# 
# 
# High freq. dielectric constant tensor:
#      x y z
#    x 1.766140 0.000000 0.000000 
#    y 0.000000 1.788030 0.000000 
#    z 0.000000 0.000000 1.779110 
# 
# From -- ./inp_files/16602.got.cif
#   From: 2010.03.12/outbox.cif.g09.slc.cpg/sg36_9_cif.got.tgz:16602.got - 2010.04.14 02:13:53.
