data_PCOD8175332
_publ_section_title
;
Structure prediction by ZEFSAII (Michael W. Deem and Ramdas Pophale) SiO2 
 PCOD8175332
Probable space group: C M C 21
;
_chemical_formula_sum "Si O2"
_cell_formula_units_Z 64
_cell_length_a 8.801037
_cell_length_b 27.277243
_cell_length_c 13.069884
_cell_angle_alpha 90.000000
_cell_angle_beta 90.000000
_cell_angle_gamma 90.000000
_cell_volume 3137.661238
_symmetry_space_group_name_H-M "C M C 21"
_symmetry_group_IT_number 36
_symmetry_cell_setting 'orthorhombic'
loop_
_space_group_symop_operation_xyz
x,y,z
-x,-y,1/2+z
x,-y,1/2+z
-x,y,z
1/2+x,1/2+y,z
1/2-x,1/2-y,1/2+z
1/2+x,1/2-y,1/2+z
1/2-x,1/2+y,z
loop_
_atom_site_type_symbol
_atom_site_label
_atom_site_fract_x
_atom_site_fract_y
_atom_site_fract_z
Si Si1 0.680544 0.547780 0.111850
Si Si2 0.181143 0.909526 0.824573
Si Si3 0.330574 0.301918 0.809784
Si Si4 0.320274 0.377547 0.437844
Si Si5 0.823629 0.725627 0.963123
Si Si6 0.667918 0.769902 0.139328
Si Si7 0.680356 0.559372 0.549331
Si Si8 0.176500 0.625550 0.722018
O O1 0.500000 0.549223 0.112384
O O2 0.743816 0.561136 0.225349
O O3 0.739663 0.493659 0.084655
O O4 0.740503 0.585070 0.024759
O O5 0.251388 0.854504 0.817980
O O6 0.000000 0.907881 0.817127
O O7 0.234509 0.933266 0.931618
O O8 0.500000 0.308315 0.855796
O O9 0.251603 0.257875 0.871783
O O10 0.335746 0.282797 0.694708
O O11 0.500000 0.380458 0.427867
O O12 0.271369 0.323755 0.473563
O O13 0.251736 0.392505 0.327684
O O14 0.000000 0.711860 0.946852
O O15 0.801047 0.762606 0.057934
O O16 0.500000 0.778727 0.090258
O O17 0.705078 0.815990 0.212602
O O18 0.500000 0.563854 0.556989
O O19 0.751790 0.599956 0.622988
O O20 0.000000 0.612441 0.726908
#
# Coordination Sequence:
#
# PCOD8175332 Si02
#       8
#     8   8   8   8   8   8   8   8
#     4   9  20  36  60  90 117 152 201 254 305 355
#     4   9  17  32  56  85 117 150 194 248 298 354
#     4   9  17  32  52  75 110 153 189 226 286 348
#     4  11  22  38  62  91 122 161 208 250 297 366
#     4  11  21  35  56  86 120 155 196 244 299 351
#     4  10  20  36  56  79 114 159 201 237 285 352
#     4  10  21  37  62  91 115 150 201 255 305 363
#     4  11  23  40  60  87 125 164 200 252 311 359
#
# _framework density 20.397358000000001
#
# number of rings (size 3 to 8) (size 9 to 14) (size 15 to 20)
#    0.000    2.000    1.250    2.625    1.750    4.000 
#    0.000    1.250    0.000    5.250    0.000    0.000 
#    0.000    0.000    0.000    0.000    0.000    0.000 
#
# Total GULP energy -396613.434140 kJ/mol
# GULP energy per Si atom -12394.169817 kJ/mol
# Density = 2.035093 g / cm^3
# Si number density = 20.397358 Si / 1000 Ang^3
#
#
#
# Elastic Constant Matrix: (Units=GPa)
#
#
# Indices 1 2 3 4 5 6 
#
# 1 42.6209 22.7763 33.4691 0.0000 0.0000 0.0000
# 2 22.7763 140.6672 65.2138 0.0000 0.0000 0.0000
# 3 33.4691 65.2138 157.3739 0.0000 0.0000 0.0000
# 4 0.0000 0.0000 0.0000 38.6177 0.0000 0.0000
# 5 0.0000 0.0000 0.0000 0.0000 24.2259 0.0000
# 6 0.0000 0.0000 0.0000 0.0000 0.0000 21.7324
#
#
#
# Elastic Compliance Matrix: (Units=1/GPa)
#
#
# Indices 1 2 3 4 5 6 
#
# 1 0.028732 -0.002252 -0.005177 0.000000 0.000000 0.000000
# 2 -0.002252 0.008976 -0.003241 0.000000 0.000000 0.000000
# 3 -0.005177 -0.003241 0.008798 0.000000 0.000000 0.000000
# 4 0.000000 0.000000 0.000000 0.025895 0.000000 0.000000
# 5 0.000000 0.000000 0.000000 0.000000 0.041278 0.000000
# 6 0.000000 0.000000 0.000000 0.000000 0.000000 0.046014
#
#
# Mechanical properties :
#
#
# Convention : Reuss Voigt Hill
#
# Bulk Modulus (GPa) = 39.73578 64.84228 52.28903
# Shear Modulus (GPa) = 26.39618 31.52874 28.96246
#
# Velocity S-wave (km/s) = 3.60126 3.93584 3.77226
# Velocity P-wave (km/s) = 6.06756 7.24658 6.68312
#
# Compressibility (1/GPa) = 0.02516624
#
# Stress axis : x y z
#
# Youngs Moduli (GPa) = 34.80485 111.40884 113.65935
#
# Poissons Ratio (x) = 0.25088 0.58844
# Poissons Ratio (y) = 0.07838 0.36832
# Poissons Ratio (z) = 0.18019 0.36103
#
# Static dielectric constant tensor:
#      x y z
#    x 3.256120 0.000000 0.000000 
#    y 0.000000 3.829170 0.000000 
#    z 0.000000 0.000000 3.858250 
# 
# 
# High freq. dielectric constant tensor:
#      x y z
#    x 1.749600 0.000000 0.000000 
#    y 0.000000 1.805840 0.000000 
#    z 0.000000 0.000000 1.810800 
# 
# From -- ./inp_files/7184.got.cif
#   From: 2010.03.12/outbox.cif.g09.slc.cpg/sg36_4_cif.got.tgz:7184.got - 2010.04.14 02:13:53.
