data_PCOD8175604
_publ_section_title
;
Structure prediction by ZEFSAII (Michael W. Deem and Ramdas Pophale) SiO2 
 PCOD8175604
Probable space group: C M C 21
;
_chemical_formula_sum "Si O2"
_cell_formula_units_Z 64
_cell_length_a 9.068838
_cell_length_b 19.362703
_cell_length_c 18.161753
_cell_angle_alpha 90.000000
_cell_angle_beta 90.000000
_cell_angle_gamma 90.000000
_cell_volume 3189.153278
_symmetry_space_group_name_H-M "C M C 21"
_symmetry_group_IT_number 36
_symmetry_cell_setting 'orthorhombic'
loop_
_space_group_symop_operation_xyz
x,y,z
-x,-y,1/2+z
x,-y,1/2+z
-x,y,z
1/2+x,1/2+y,z
1/2-x,1/2-y,1/2+z
1/2+x,1/2-y,1/2+z
1/2-x,1/2+y,z
loop_
_atom_site_type_symbol
_atom_site_label
_atom_site_fract_x
_atom_site_fract_y
_atom_site_fract_z
Si Si1 0.826060 0.571061 0.701650
Si Si2 0.826159 0.633989 0.546664
Si Si3 0.332882 0.809364 0.740890
Si Si4 0.672037 0.773935 0.575695
Si Si5 0.170596 0.877612 0.476096
Si Si6 0.830603 0.967172 0.941202
Si Si7 0.331212 0.668138 0.815050
Si Si8 0.171367 0.052437 0.272588
O O1 0.775146 0.596256 0.621292
O O2 0.772829 0.626003 0.761102
O O3 0.755834 0.496252 0.715237
O O4 0.000000 0.564057 0.707032
O O5 0.754690 0.709117 0.540426
O O6 0.774140 0.589493 0.477263
O O7 0.000000 0.643311 0.542763
O O8 0.500000 0.838067 0.740562
O O9 0.292181 0.777400 0.661991
O O10 0.313844 0.749450 0.801087
O O11 0.221625 0.869322 0.762173
O O12 0.500000 0.765573 0.560257
O O13 0.729584 0.844234 0.539032
O O14 0.218574 0.845762 0.398070
O O15 0.000000 0.861514 0.492205
O O16 0.201797 0.959090 0.477785
O O17 0.793487 0.972831 0.854937
O O18 0.000000 0.944983 0.952780
O O19 0.500000 0.643321 0.802281
O O20 0.000000 0.047655 0.254325
#
# Coordination Sequence:
#
# PCOD8175604 Si02
#       8
#     8   8   8   8   8   8   8   8
#     4  11  23  40  64  93 122 156 205 257 305 363
#     4  11  25  42  63  91 125 163 206 253 307 367
#     4  10  23  41  63  92 126 162 202 254 311 365
#     4  11  24  42  64  91 125 163 207 253 304 367
#     4  10  22  41  64  91 125 162 206 253 305 369
#     4  10  23  43  64  91 124 162 207 252 303 366
#     4  10  20  41  67  89 119 161 204 249 308 366
#     4  11  24  42  65  92 124 161 207 257 307 367
#
# _framework density 20.068024000000001
#
# number of rings (size 3 to 8) (size 9 to 14) (size 15 to 20)
#    0.000    1.500    2.500    1.500    3.500    5.000 
#    0.000    0.000    0.000    0.000    0.000    0.000 
#    0.000    0.000    0.000    0.000    0.000    0.000 
#
# Total GULP energy -397036.596613 kJ/mol
# GULP energy per Si atom -12407.393644 kJ/mol
# Density = 2.002235 g / cm^3
# Si number density = 20.068024 Si / 1000 Ang^3
#
#
#
# Elastic Constant Matrix: (Units=GPa)
#
#
# Indices 1 2 3 4 5 6 
#
# 1 71.3829 34.0606 27.7272 0.0000 0.0000 0.0000
# 2 34.0606 91.1197 11.1481 0.0000 0.0000 0.0000
# 3 27.7272 11.1481 37.6289 0.0000 0.0000 0.0000
# 4 0.0000 0.0000 0.0000 35.5701 0.0000 0.0000
# 5 0.0000 0.0000 0.0000 0.0000 32.0021 0.0000
# 6 0.0000 0.0000 0.0000 0.0000 0.0000 41.2598
#
#
#
# Elastic Compliance Matrix: (Units=1/GPa)
#
#
# Indices 1 2 3 4 5 6 
#
# 1 0.023071 -0.006790 -0.014988 0.000000 0.000000 0.000000
# 2 -0.006790 0.013386 0.001038 0.000000 0.000000 0.000000
# 3 -0.014988 0.001038 0.037312 0.000000 0.000000 0.000000
# 4 0.000000 0.000000 0.000000 0.028113 0.000000 0.000000
# 5 0.000000 0.000000 0.000000 0.000000 0.031248 0.000000
# 6 0.000000 0.000000 0.000000 0.000000 0.000000 0.024237
#
#
# Mechanical properties :
#
#
# Convention : Reuss Voigt Hill
#
# Bulk Modulus (GPa) = 30.97200 38.44481 34.70840
# Shear Modulus (GPa) = 23.85378 30.24613 27.04996
#
# Velocity S-wave (km/s) = 3.45142 3.88645 3.67538
# Velocity P-wave (km/s) = 5.59911 6.27202 5.94509
#
# Compressibility (1/GPa) = 0.03228723
#
# Stress axis : x y z
#
# Youngs Moduli (GPa) = 43.34499 74.70615 26.80099
#
# Poissons Ratio (x) = 0.50726 0.40170
# Poissons Ratio (y) = 0.29432 -0.02781
# Poissons Ratio (z) = 0.64966 -0.07752
#
# Static dielectric constant tensor:
#      x y z
#    x 3.597400 0.000000 0.000000 
#    y 0.000000 3.626960 0.000000 
#    z 0.000000 0.000000 3.694290 
# 
# 
# High freq. dielectric constant tensor:
#      x y z
#    x 1.782760 0.000000 0.000000 
#    y 0.000000 1.794450 0.000000 
#    z 0.000000 0.000000 1.786600 
# 
# From -- ./inp_files/15729.got.cif
#   From: 2010.03.12/outbox.cif.g09.slc.cpg/sg36_8_cif.got.tgz:15729.got - 2010.04.14 02:13:53.
