data_PCOD8175916
_publ_section_title
;
Structure prediction by ZEFSAII (Michael W. Deem and Ramdas Pophale) SiO2 
 PCOD8175916
Probable space group: C M C 21
;
_chemical_formula_sum "Si O2"
_cell_formula_units_Z 64
_cell_length_a 10.412554
_cell_length_b 19.538199
_cell_length_c 14.484293
_cell_angle_alpha 90.000000
_cell_angle_beta 90.000000
_cell_angle_gamma 90.000000
_cell_volume 2946.721534
_symmetry_space_group_name_H-M "C M C 21"
_symmetry_group_IT_number 36
_symmetry_cell_setting 'orthorhombic'
loop_
_space_group_symop_operation_xyz
x,y,z
-x,-y,1/2+z
x,-y,1/2+z
-x,y,z
1/2+x,1/2+y,z
1/2-x,1/2-y,1/2+z
1/2+x,1/2-y,1/2+z
1/2-x,1/2+y,z
loop_
_atom_site_type_symbol
_atom_site_label
_atom_site_fract_x
_atom_site_fract_y
_atom_site_fract_z
Si Si1 0.857097 0.065673 0.864010
Si Si2 0.278037 0.546419 0.662584
Si Si3 0.226616 0.708006 0.870617
Si Si4 0.646886 0.095847 0.173735
Si Si5 0.144925 0.655412 0.373455
Si Si6 0.854914 0.730235 0.068911
Si Si7 0.144752 0.930796 0.964733
Si Si8 0.642687 0.182587 0.670858
O O1 0.862198 0.052284 0.754617
O O2 0.776397 0.132004 0.889958
O O3 0.000000 0.078080 0.900595
O O4 0.800131 0.999505 0.916534
O O5 0.227768 0.470190 0.649321
O O6 0.366442 0.561564 0.574576
O O7 0.161452 0.600708 0.670188
O O8 0.342513 0.762695 0.861305
O O9 0.147221 0.710534 0.775668
O O10 0.140166 0.729261 0.957897
O O11 0.500000 0.077083 0.157464
O O12 0.673335 0.118122 0.277883
O O13 0.689701 0.156559 0.105920
O O14 0.252670 0.629129 0.444826
O O15 0.000000 0.639444 0.408423
O O16 0.752996 0.784879 0.107000
O O17 0.000000 0.748425 0.103877
O O18 0.000000 0.913020 0.928438
O O19 0.500000 0.199375 0.631902
#
# Coordination Sequence:
#
# PCOD8175916 Si02
#       8
#     8   8   8   8   8   8   8   8
#     4  10  22  40  62  92 129 170 212 262 323 379
#     4  11  22  40  65  91 127 172 212 263 314 384
#     4  11  23  41  67  95 129 168 216 270 318 378
#     4  10  21  41  65  92 124 166 217 264 315 375
#     4  11  23  42  67  94 127 171 216 261 316 379
#     4  11  24  44  69  96 128 170 215 263 323 385
#     4  11  24  42  65  97 131 167 212 262 323 384
#     4  11  25  42  64  97 131 168 214 267 324 380
#
# _framework density 21.719052999999999
#
# number of rings (size 3 to 8) (size 9 to 14) (size 15 to 20)
#    0.000    1.250    2.500    3.000    0.000    7.500 
#    0.000    1.875    0.000    0.000    0.000    0.000 
#    0.000    0.000    0.000    0.000    0.000    0.000 
#
# Total GULP energy -396793.367225 kJ/mol
# GULP energy per Si atom -12399.792726 kJ/mol
# Density = 2.166962 g / cm^3
# Si number density = 21.719053 Si / 1000 Ang^3
#
#
#
# Elastic Constant Matrix: (Units=GPa)
#
#
# Indices 1 2 3 4 5 6 
#
# 1 113.9103 48.5566 23.1556 0.0000 0.0000 0.0000
# 2 48.5566 121.0784 20.5515 0.0000 0.0000 0.0000
# 3 23.1556 20.5515 98.7735 0.0000 0.0000 0.0000
# 4 0.0000 0.0000 0.0000 33.8049 0.0000 0.0000
# 5 0.0000 0.0000 0.0000 0.0000 21.4602 0.0000
# 6 0.0000 0.0000 0.0000 0.0000 0.0000 12.6985
#
#
#
# Elastic Compliance Matrix: (Units=1/GPa)
#
#
# Indices 1 2 3 4 5 6 
#
# 1 0.010857 -0.004066 -0.001699 0.000000 0.000000 0.000000
# 2 -0.004066 0.010084 -0.001145 0.000000 0.000000 0.000000
# 3 -0.001699 -0.001145 0.010761 0.000000 0.000000 0.000000
# 4 0.000000 0.000000 0.000000 0.029581 0.000000 0.000000
# 5 0.000000 0.000000 0.000000 0.000000 0.046598 0.000000
# 6 0.000000 0.000000 0.000000 0.000000 0.000000 0.078750
#
#
# Mechanical properties :
#
#
# Convention : Reuss Voigt Hill
#
# Bulk Modulus (GPa) = 55.92240 57.58775 56.75507
# Shear Modulus (GPa) = 24.22340 29.69262 26.95801
#
# Velocity S-wave (km/s) = 3.34324 3.70147 3.52691
# Velocity P-wave (km/s) = 6.38020 6.69629 6.54016
#
# Compressibility (1/GPa) = 0.01788192
#
# Stress axis : x y z
#
# Youngs Moduli (GPa) = 92.10314 99.16740 92.92991
#
# Poissons Ratio (x) = 0.40319 0.15792
# Poissons Ratio (y) = 0.37447 0.10641
# Poissons Ratio (z) = 0.15652 0.11355
#
# Static dielectric constant tensor:
#      x y z
#    x 3.610050 0.000000 0.000000 
#    y 0.000000 4.072820 0.000000 
#    z 0.000000 0.000000 3.967460 
# 
# 
# High freq. dielectric constant tensor:
#      x y z
#    x 1.837800 0.000000 0.000000 
#    y 0.000000 1.863580 0.000000 
#    z 0.000000 0.000000 1.862320 
# 
# From -- ./inp_files/11801.got.cif
#   From: 2010.03.12/outbox.cif.g09.slc.cpg/sg36_6_cif.got.tgz:11801.got - 2010.04.14 02:13:53.
