data_PCOD8175204
_publ_section_title
;
Structure prediction by ZEFSAII (Michael W. Deem and Ramdas Pophale) SiO2 
 PCOD8175204
Probable space group: C M C 21
;
_chemical_formula_sum "Si O2"
_cell_formula_units_Z 48
_cell_length_a 29.042770
_cell_length_b 10.067447
_cell_length_c 8.981671
_cell_angle_alpha 90.000000
_cell_angle_beta 90.000000
_cell_angle_gamma 90.000000
_cell_volume 2626.119776
_symmetry_space_group_name_H-M "C M C 21"
_symmetry_group_IT_number 36
_symmetry_cell_setting 'orthorhombic'
loop_
_space_group_symop_operation_xyz
x,y,z
-x,-y,1/2+z
x,-y,1/2+z
-x,y,z
1/2+x,1/2+y,z
1/2-x,1/2-y,1/2+z
1/2+x,1/2-y,1/2+z
1/2-x,1/2+y,z
loop_
_atom_site_type_symbol
_atom_site_label
_atom_site_fract_x
_atom_site_fract_y
_atom_site_fract_z
Si Si1 0.052640 0.339337 0.793440
Si Si2 0.947151 0.605388 0.951182
Si Si3 0.384151 0.659817 0.406211
Si Si4 0.885001 0.104644 0.744891
Si Si5 0.722440 0.658235 0.409298
Si Si6 0.221452 0.114107 0.754045
O O1 0.060856 0.389084 0.626446
O O2 0.067603 0.458578 0.901213
O O3 0.084084 0.212666 0.831015
O O4 0.000000 0.297240 0.820092
O O5 0.915023 0.712267 0.867506
O O6 0.000000 0.634558 0.906346
O O7 0.395160 0.608523 0.570769
O O8 0.398611 0.542711 0.295326
O O9 0.330774 0.697722 0.389075
O O10 0.832378 0.137399 0.783589
O O11 0.752274 0.780957 0.355156
O O12 0.734371 0.627748 0.580978
O O13 0.735711 0.532099 0.308604
#
# Coordination Sequence:
#
# PCOD8175204 Si02
#       6
#     8   8   8   8   8   8
#     4   9  18  33  51  72  99 129 162 200 241 287
#     4   9  18  33  51  72  99 129 162 200 241 287
#     4   9  19  34  51  73 100 129 162 201 243 289
#     4   9  19  34  51  73 100 129 162 201 243 289
#     4  10  20  35  53  74 101 132 167 206 249 296
#     4  10  20  35  53  74 101 132 167 206 249 296
#
# _framework density 18.277916000000001
#
# number of rings (size 3 to 8) (size 9 to 14) (size 15 to 20)
#    0.000    2.667    0.000    1.000    0.000    4.667 
#    0.000    3.333    0.000    0.000    0.000    0.000 
#    0.000    0.000    0.000    0.000    0.000    0.000 
#
# Total GULP energy -297665.786765 kJ/mol
# GULP energy per Si atom -12402.741115 kJ/mol
# Density = 1.823632 g / cm^3
# Si number density = 18.277916 Si / 1000 Ang^3
#
#
#
# Elastic Constant Matrix: (Units=GPa)
#
#
# Indices 1 2 3 4 5 6 
#
# 1 49.8021 26.8788 14.2637 0.0000 0.0000 0.0000
# 2 26.8788 36.8828 1.9559 0.0000 0.0000 0.0000
# 3 14.2637 1.9559 37.3562 0.0000 0.0000 0.0000
# 4 0.0000 0.0000 0.0000 36.7150 0.0000 0.0000
# 5 0.0000 0.0000 0.0000 0.0000 23.6650 0.0000
# 6 0.0000 0.0000 0.0000 0.0000 0.0000 42.5358
#
#
#
# Elastic Compliance Matrix: (Units=1/GPa)
#
#
# Indices 1 2 3 4 5 6 
#
# 1 0.038776 -0.027550 -0.013363 0.000000 0.000000 0.000000
# 2 -0.027550 0.046762 0.008071 0.000000 0.000000 0.000000
# 3 -0.013363 0.008071 0.031449 0.000000 0.000000 0.000000
# 4 0.000000 0.000000 0.000000 0.027237 0.000000 0.000000
# 5 0.000000 0.000000 0.000000 0.000000 0.042256 0.000000
# 6 0.000000 0.000000 0.000000 0.000000 0.000000 0.023510
#
#
# Mechanical properties :
#
#
# Convention : Reuss Voigt Hill
#
# Bulk Modulus (GPa) = 19.49203 23.35975 21.42589
# Shear Modulus (GPa) = 17.07799 25.97934 21.52867
#
# Velocity S-wave (km/s) = 3.06003 3.77417 3.43571
# Velocity P-wave (km/s) = 4.81378 5.63920 5.24276
#
# Compressibility (1/GPa) = 0.05130302
#
# Stress axis : x y z
#
# Youngs Moduli (GPa) = 25.78942 21.38491 31.79726
#
# Poissons Ratio (x) = 0.58914 0.42491
# Poissons Ratio (y) = 0.71049 -0.25663
# Poissons Ratio (z) = 0.34463 -0.17259
#
# Static dielectric constant tensor:
#      x y z
#    x 3.391350 0.000000 0.000000 
#    y 0.000000 3.443240 0.000000 
#    z 0.000000 0.000000 3.350710 
# 
# 
# High freq. dielectric constant tensor:
#      x y z
#    x 1.704530 0.000000 0.000000 
#    y 0.000000 1.712960 0.000000 
#    z 0.000000 0.000000 1.707120 
# 
# From -- ./inp_files/5541.got.cif
#   From: 2010.03.12/outbox.cif.g09.slc.cpg/sg36_3_cif.got.tgz:5541.got - 2010.04.14 02:13:53.
