data_PCOD8175600
_publ_section_title
;
Structure prediction by ZEFSAII (Michael W. Deem and Ramdas Pophale) SiO2 
 PCOD8175600
Probable space group: C M C 21
;
_chemical_formula_sum "Si O2"
_cell_formula_units_Z 40
_cell_length_a 16.243609
_cell_length_b 8.850053
_cell_length_c 13.350517
_cell_angle_alpha 90.000000
_cell_angle_beta 90.000000
_cell_angle_gamma 90.000000
_cell_volume 1919.227610
_symmetry_space_group_name_H-M "C M C 21"
_symmetry_group_IT_number 36
_symmetry_cell_setting 'orthorhombic'
loop_
_space_group_symop_operation_xyz
x,y,z
-x,-y,1/2+z
x,-y,1/2+z
-x,y,z
1/2+x,1/2+y,z
1/2-x,1/2-y,1/2+z
1/2+x,1/2-y,1/2+z
1/2-x,1/2+y,z
loop_
_atom_site_type_symbol
_atom_site_label
_atom_site_fract_x
_atom_site_fract_y
_atom_site_fract_z
Si Si1 0.000000 0.128146 0.725091
Si Si2 0.500000 0.038987 0.186256
Si Si3 0.500000 0.117989 0.882974
Si Si4 0.862032 0.539032 0.022285
Si Si5 0.638544 0.542320 0.868975
Si Si6 0.752607 0.207613 0.446132
Si Si7 0.000000 0.936095 0.992419
O O1 0.000000 0.306214 0.750439
O O2 0.000000 0.113758 0.606180
O O3 0.081856 0.050368 0.770045
O O4 0.417217 0.031852 0.121158
O O5 0.500000 0.897617 0.262668
O O6 0.419170 0.033460 0.923971
O O7 0.500000 0.291375 0.918421
O O8 0.810649 0.695246 0.019961
O O9 0.800674 0.397587 0.019756
O O10 0.695769 0.688490 0.876547
O O11 0.694374 0.391702 0.867500
O O12 0.580414 0.535715 0.967890
#
# Coordination Sequence:
#
# PCOD8175600 Si02
#       7
#     4   4   4   8   8   8   4
#     4  11  21  41  66  94 124 166 220 256 319 377
#     4  11  22  39  66  94 121 169 214 261 310 381
#     4  11  20  40  67  87 128 161 216 259 309 368
#     4  10  21  41  65  90 130 164 209 259 317 375
#     4  10  22  40  66  90 125 168 209 258 317 379
#     4  10  20  41  63  93 133 165 202 265 320 373
#     4  11  21  44  65  89 127 170 208 274 310 376
#
# _framework density 20.841718
#
# number of rings (size 3 to 8) (size 9 to 14) (size 15 to 20)
#    0.000    1.600    4.000    1.200    0.000    2.400 
#    7.200   22.000    0.000    0.000    0.000    0.000 
#    0.000    0.000    0.000    0.000    0.000    0.000 
#
# Total GULP energy -248016.157869 kJ/mol
# GULP energy per Si atom -12400.807893 kJ/mol
# Density = 2.079428 g / cm^3
# Si number density = 20.841718 Si / 1000 Ang^3
#
#
#
# Elastic Constant Matrix: (Units=GPa)
#
#
# Indices 1 2 3 4 5 6 
#
# 1 155.4323 74.8453 58.3834 0.0000 0.0000 0.0000
# 2 74.8453 127.5996 58.4667 0.0000 0.0000 0.0000
# 3 58.3834 58.4667 111.1546 0.0000 0.0000 0.0000
# 4 0.0000 0.0000 0.0000 26.1211 0.0000 0.0000
# 5 0.0000 0.0000 0.0000 0.0000 17.9547 0.0000
# 6 0.0000 0.0000 0.0000 0.0000 0.0000 30.0019
#
#
#
# Elastic Compliance Matrix: (Units=1/GPa)
#
#
# Indices 1 2 3 4 5 6 
#
# 1 0.009555 -0.004355 -0.002728 0.000000 0.000000 0.000000
# 2 -0.004355 0.012310 -0.004188 0.000000 0.000000 0.000000
# 3 -0.002728 -0.004188 0.012632 0.000000 0.000000 0.000000
# 4 0.000000 0.000000 0.000000 0.038283 0.000000 0.000000
# 5 0.000000 0.000000 0.000000 0.000000 0.055696 0.000000
# 6 0.000000 0.000000 0.000000 0.000000 0.000000 0.033331
#
#
# Mechanical properties :
#
#
# Convention : Reuss Voigt Hill
#
# Bulk Modulus (GPa) = 83.63906 86.39746 85.01826
# Shear Modulus (GPa) = 26.54839 28.31494 27.43166
#
# Velocity S-wave (km/s) = 3.57292 3.68988 3.63187
# Velocity P-wave (km/s) = 7.56563 7.72643 7.64645
#
# Compressibility (1/GPa) = 0.01195614
#
# Stress axis : x y z
#
# Youngs Moduli (GPa) = 104.65258 81.23344 79.16206
#
# Poissons Ratio (x) = 0.35375 0.21598
# Poissons Ratio (y) = 0.45573 0.33152
# Poissons Ratio (z) = 0.28553 0.34019
#
# Static dielectric constant tensor:
#      x y z
#    x 4.183710 0.000000 0.000000 
#    y 0.000000 3.906070 0.000000 
#    z 0.000000 0.000000 3.325210 
# 
# 
# High freq. dielectric constant tensor:
#      x y z
#    x 1.843240 0.000000 0.000000 
#    y 0.000000 1.823600 0.000000 
#    z 0.000000 0.000000 1.777770 
# 
# From -- ./inp_files/8805.got.cif
#   From: 2010.03.12/outbox.cif.g09.slc.cpg/sg36_5_cif.got.tgz:8805.got - 2010.04.14 02:13:53.
