data_PCOD8175437
_publ_section_title
;
Structure prediction by ZEFSAII (Michael W. Deem and Ramdas Pophale) SiO2 
 PCOD8175437
Probable space group: C M C 21
;
_chemical_formula_sum "Si O2"
_cell_formula_units_Z 64
_cell_length_a 8.810099
_cell_length_b 30.814885
_cell_length_c 12.016450
_cell_angle_alpha 90.000000
_cell_angle_beta 90.000000
_cell_angle_gamma 90.000000
_cell_volume 3262.252132
_symmetry_space_group_name_H-M "C M C 21"
_symmetry_group_IT_number 36
_symmetry_cell_setting 'orthorhombic'
loop_
_space_group_symop_operation_xyz
x,y,z
-x,-y,1/2+z
x,-y,1/2+z
-x,y,z
1/2+x,1/2+y,z
1/2-x,1/2-y,1/2+z
1/2+x,1/2-y,1/2+z
1/2-x,1/2+y,z
loop_
_atom_site_type_symbol
_atom_site_label
_atom_site_fract_x
_atom_site_fract_y
_atom_site_fract_z
Si Si1 0.820009 0.622580 0.166770
Si Si2 0.673344 0.546066 0.786569
Si Si3 0.820690 0.794396 0.278890
Si Si4 0.179175 0.949317 0.818822
Si Si5 0.179806 0.698359 0.324864
Si Si6 0.179384 0.625949 0.911285
Si Si7 0.672498 0.585655 0.557315
Si Si8 0.177051 0.327420 0.067683
O O1 0.755273 0.579418 0.223476
O O2 0.757045 0.665598 0.230284
O O3 0.000000 0.620273 0.175450
O O4 0.765263 0.624634 0.039253
O O5 0.500000 0.550931 0.827494
O O6 0.739267 0.498597 0.812982
O O7 0.769225 0.582395 0.849832
O O8 0.683342 0.549638 0.652943
O O9 0.758378 0.747150 0.313446
O O10 0.746916 0.831300 0.354573
O O11 0.772832 0.797852 0.150726
O O12 0.000000 0.798591 0.291243
O O13 0.000000 0.947781 0.800279
O O14 0.228192 0.933066 0.940291
O O15 0.236184 0.681423 0.443741
O O16 0.000000 0.698790 0.317764
O O17 0.000000 0.629445 0.903223
O O18 0.500000 0.603567 0.548364
O O19 0.787455 0.622906 0.595809
O O20 0.000000 0.317627 0.083177
#
# Coordination Sequence:
#
# PCOD8175437 Si02
#       8
#     8   8   8   8   8   8   8   8
#     4  10  22  42  61  83 119 159 194 242 297 347
#     4  10  22  39  61  86 120 158 193 241 297 348
#     4  11  23  40  62  87 119 158 197 241 298 351
#     4  10  22  38  61  91 118 154 199 243 289 348
#     4   9  21  40  61  85 117 157 194 237 297 351
#     4  11  24  40  60  87 119 155 200 245 292 350
#     4  10  20  37  59  87 118 152 197 242 292 347
#     4  11  21  38  63  88 116 151 198 247 292 348
#
# _framework density 19.61835
#
# number of rings (size 3 to 8) (size 9 to 14) (size 15 to 20)
#    0.000    1.750    2.500    1.125    3.500    1.500 
#    0.000    3.125    0.000    0.000    0.000    0.000 
#    0.000    0.000    0.000    0.000    0.000    0.000 
#
# Total GULP energy -396839.120029 kJ/mol
# GULP energy per Si atom -12401.222501 kJ/mol
# Density = 1.957370 g / cm^3
# Si number density = 19.618350 Si / 1000 Ang^3
#
#
#
# Elastic Constant Matrix: (Units=GPa)
#
#
# Indices 1 2 3 4 5 6 
#
# 1 45.6907 31.6914 30.4968 0.0000 0.0000 0.0000
# 2 31.6914 144.3507 50.7646 0.0000 0.0000 0.0000
# 3 30.4968 50.7646 129.3783 0.0000 0.0000 0.0000
# 4 0.0000 0.0000 0.0000 31.8956 0.0000 0.0000
# 5 0.0000 0.0000 0.0000 0.0000 27.5831 0.0000
# 6 0.0000 0.0000 0.0000 0.0000 0.0000 20.4954
#
#
#
# Elastic Compliance Matrix: (Units=1/GPa)
#
#
# Indices 1 2 3 4 5 6 
#
# 1 0.028268 -0.004481 -0.004905 0.000000 0.000000 0.000000
# 2 -0.004481 0.008747 -0.002376 0.000000 0.000000 0.000000
# 3 -0.004905 -0.002376 0.009818 0.000000 0.000000 0.000000
# 4 0.000000 0.000000 0.000000 0.031352 0.000000 0.000000
# 5 0.000000 0.000000 0.000000 0.000000 0.036254 0.000000
# 6 0.000000 0.000000 0.000000 0.000000 0.000000 0.048791
#
#
# Mechanical properties :
#
#
# Convention : Reuss Voigt Hill
#
# Bulk Modulus (GPa) = 42.90195 60.59170 51.74683
# Shear Modulus (GPa) = 25.70371 29.75928 27.73150
#
# Velocity S-wave (km/s) = 3.62358 3.89898 3.76380
# Velocity P-wave (km/s) = 6.27876 7.15693 6.73218
#
# Compressibility (1/GPa) = 0.02330896
#
# Stress axis : x y z
#
# Youngs Moduli (GPa) = 35.37513 114.32642 101.85720
#
# Poissons Ratio (x) = 0.51232 0.49962
# Poissons Ratio (y) = 0.15852 0.24199
# Poissons Ratio (z) = 0.17352 0.27161
#
# Static dielectric constant tensor:
#      x y z
#    x 3.376480 0.000000 0.000000 
#    y 0.000000 3.722540 0.000000 
#    z 0.000000 0.000000 3.805190 
# 
# 
# High freq. dielectric constant tensor:
#      x y z
#    x 1.747780 0.000000 0.000000 
#    y 0.000000 1.771870 0.000000 
#    z 0.000000 0.000000 1.779890 
# 
# From -- ./inp_files/7166.got.cif
#   From: 2010.03.12/outbox.cif.g09.slc.cpg/sg36_4_cif.got.tgz:7166.got - 2010.04.14 02:13:53.
