data_PCOD8175350
_publ_section_title
;
Structure prediction by ZEFSAII (Michael W. Deem and Ramdas Pophale) SiO2 
 PCOD8175350
Probable space group: C M C 21
;
_chemical_formula_sum "Si O2"
_cell_formula_units_Z 64
_cell_length_a 9.486175
_cell_length_b 28.824806
_cell_length_c 12.337582
_cell_angle_alpha 90.000000
_cell_angle_beta 90.000000
_cell_angle_gamma 90.000000
_cell_volume 3373.553310
_symmetry_space_group_name_H-M "C M C 21"
_symmetry_group_IT_number 36
_symmetry_cell_setting 'orthorhombic'
loop_
_space_group_symop_operation_xyz
x,y,z
-x,-y,1/2+z
x,-y,1/2+z
-x,y,z
1/2+x,1/2+y,z
1/2-x,1/2-y,1/2+z
1/2+x,1/2-y,1/2+z
1/2-x,1/2+y,z
loop_
_atom_site_type_symbol
_atom_site_label
_atom_site_fract_x
_atom_site_fract_y
_atom_site_fract_z
Si Si1 0.659286 0.838921 0.364220
Si Si2 0.336004 0.619079 0.677584
Si Si3 0.335729 0.222663 0.053743
Si Si4 0.837275 0.177623 0.476655
Si Si5 0.658227 0.938596 0.704535
Si Si6 0.835149 0.976633 0.278397
Si Si7 0.847065 0.437885 0.454892
Si Si8 0.667039 0.834381 0.758980
O O1 0.500000 0.827396 0.325466
O O2 0.752321 0.846732 0.257543
O O3 0.725118 0.798629 0.440883
O O4 0.662571 0.883033 0.442409
O O5 0.500000 0.625996 0.704872
O O6 0.303286 0.633220 0.553235
O O7 0.292416 0.565004 0.695005
O O8 0.500000 0.210140 0.053520
O O9 0.273653 0.199693 0.163965
O O10 0.305811 0.277431 0.051522
O O11 0.740127 0.178562 0.371699
O O12 0.000000 0.177215 0.439088
O O13 0.500000 0.945672 0.750028
O O14 0.663389 0.950146 0.579137
O O15 0.710238 0.886722 0.729034
O O16 0.764170 0.974558 0.756809
O O17 0.783311 0.962323 0.397030
O O18 0.000000 0.984914 0.280231
O O19 0.000000 0.454836 0.408743
O O20 0.500000 0.828812 0.774087
#
# Coordination Sequence:
#
# PCOD8175350 Si02
#       8
#     8   8   8   8   8   8   8   8
#     4   9  16  31  57  81 102 135 182 233 276 319
#     4   9  20  37  53  76 113 151 184 224 277 332
#     4   9  18  35  58  82 110 145 181 225 280 330
#     4  10  22  38  56  81 118 157 186 221 279 341
#     4  10  20  36  58  82 109 143 187 236 284 333
#     4  10  21  35  53  80 113 149 189 230 280 338
#     4   9  17  33  55  78 104 139 184 233 281 328
#     4  10  21  39  60  84 113 145 187 234 281 331
#
# _framework density 18.971094999999998
#
# number of rings (size 3 to 8) (size 9 to 14) (size 15 to 20)
#    0.000    2.500    1.250    0.375    1.750    3.000 
#    0.000    3.750    0.000    0.000    0.000    0.000 
#    0.000    0.000    0.000    0.000    0.000    0.000 
#
# Total GULP energy -396672.154661 kJ/mol
# GULP energy per Si atom -12396.004833 kJ/mol
# Density = 1.892792 g / cm^3
# Si number density = 18.971095 Si / 1000 Ang^3
#
#
#
# Elastic Constant Matrix: (Units=GPa)
#
#
# Indices 1 2 3 4 5 6 
#
# 1 56.1338 39.7196 35.8815 0.0000 0.0000 0.0000
# 2 39.7196 97.5303 39.8695 0.0000 0.0000 0.0000
# 3 35.8815 39.8695 87.0003 0.0000 0.0000 0.0000
# 4 0.0000 0.0000 0.0000 26.0448 0.0000 0.0000
# 5 0.0000 0.0000 0.0000 0.0000 29.9417 0.0000
# 6 0.0000 0.0000 0.0000 0.0000 0.0000 23.7987
#
#
#
# Elastic Compliance Matrix: (Units=1/GPa)
#
#
# Indices 1 2 3 4 5 6 
#
# 1 0.028986 -0.008512 -0.008054 0.000000 0.000000 0.000000
# 2 -0.008512 0.015117 -0.003417 0.000000 0.000000 0.000000
# 3 -0.008054 -0.003417 0.016382 0.000000 0.000000 0.000000
# 4 0.000000 0.000000 0.000000 0.038395 0.000000 0.000000
# 5 0.000000 0.000000 0.000000 0.000000 0.033398 0.000000
# 6 0.000000 0.000000 0.000000 0.000000 0.000000 0.042019
#
#
# Mechanical properties :
#
#
# Convention : Reuss Voigt Hill
#
# Bulk Modulus (GPa) = 48.73641 52.40062 50.56852
# Shear Modulus (GPa) = 22.61403 24.30331 23.45867
#
# Velocity S-wave (km/s) = 3.45632 3.58309 3.52027
# Velocity P-wave (km/s) = 6.45552 6.69323 6.57545
#
# Compressibility (1/GPa) = 0.02051854
#
# Stress axis : x y z
#
# Youngs Moduli (GPa) = 34.49957 66.15227 61.04414
#
# Poissons Ratio (x) = 0.56311 0.49163
# Poissons Ratio (y) = 0.29367 0.20857
# Poissons Ratio (z) = 0.27785 0.22603
#
# Static dielectric constant tensor:
#      x y z
#    x 3.349610 0.000000 0.000000 
#    y 0.000000 3.531290 0.000000 
#    z 0.000000 0.000000 3.376530 
# 
# 
# High freq. dielectric constant tensor:
#      x y z
#    x 1.718280 0.000000 0.000000 
#    y 0.000000 1.740340 0.000000 
#    z 0.000000 0.000000 1.733250 
# 
# From -- ./inp_files/7075.got.cif
#   From: 2010.03.12/outbox.cif.g09.slc.cpg/sg36_4_cif.got.tgz:7075.got - 2010.04.14 02:13:53.
