data_PCOD8175840
_publ_section_title
;
Structure prediction by ZEFSAII (Michael W. Deem and Ramdas Pophale) SiO2 
 PCOD8175840
Probable space group: C M C 21
;
_chemical_formula_sum "Si O2"
_cell_formula_units_Z 64
_cell_length_a 9.055579
_cell_length_b 15.346712
_cell_length_c 23.704220
_cell_angle_alpha 90.000000
_cell_angle_beta 90.000000
_cell_angle_gamma 90.000000
_cell_volume 3294.255168
_symmetry_space_group_name_H-M "C M C 21"
_symmetry_group_IT_number 36
_symmetry_cell_setting 'orthorhombic'
loop_
_space_group_symop_operation_xyz
x,y,z
-x,-y,1/2+z
x,-y,1/2+z
-x,y,z
1/2+x,1/2+y,z
1/2-x,1/2-y,1/2+z
1/2+x,1/2-y,1/2+z
1/2-x,1/2+y,z
loop_
_atom_site_type_symbol
_atom_site_label
_atom_site_fract_x
_atom_site_fract_y
_atom_site_fract_z
Si Si1 0.327317 0.723836 0.929940
Si Si2 0.831436 0.024477 0.939928
Si Si3 0.827569 0.122163 0.629366
Si Si4 0.330498 0.548271 0.198514
Si Si5 0.667851 0.460234 0.312808
Si Si6 0.826641 0.717017 0.207246
Si Si7 0.174518 0.282813 0.314696
Si Si8 0.173517 0.379752 0.010295
O O1 0.500000 0.730124 0.915249
O O2 0.287885 0.625697 0.949568
O O3 0.236788 0.749527 0.874427
O O4 0.279740 0.791372 0.978229
O O5 0.807151 0.998116 0.874434
O O6 0.000000 0.008327 0.958312
O O7 0.728139 0.965334 0.978021
O O8 0.780134 0.204758 0.666400
O O9 0.739858 0.124719 0.571859
O O10 0.000000 0.124052 0.615590
O O11 0.782618 0.036460 0.663783
O O12 0.500000 0.572448 0.185974
O O13 0.305421 0.532391 0.265277
O O14 0.226031 0.626994 0.178421
O O15 0.500000 0.422815 0.308285
O O16 0.780417 0.382021 0.302505
O O17 0.740990 0.722509 0.266139
O O18 0.000000 0.716440 0.218665
O O19 0.000000 0.273149 0.314791
O O20 0.000000 0.387310 0.015495
#
# Coordination Sequence:
#
# PCOD8175840 Si02
#       8
#     8   8   8   8   8   8   8   8
#     4   9  21  41  60  84 120 163 198 242 303 358
#     4   9  19  37  61  86 118 158 198 238 298 364
#     4  10  23  44  64  82 119 165 201 242 300 361
#     4  10  21  39  62  90 120 157 202 244 298 362
#     4   9  18  37  61  86 124 162 195 241 301 361
#     4  11  23  40  61  89 122 159 200 248 304 359
#     4  11  21  34  59  92 124 158 200 248 298 357
#     4  11  24  40  62  89 119 154 204 255 294 348
#
# _framework density 19.427759999999999
#
# number of rings (size 3 to 8) (size 9 to 14) (size 15 to 20)
#    0.000    2.000    1.250    2.625    1.750    6.000 
#    0.000    3.750    0.000    0.000    0.000    0.000 
#    0.000    0.000    0.000    0.000    0.000    0.000 
#
# Total GULP energy -396895.288130 kJ/mol
# GULP energy per Si atom -12402.977754 kJ/mol
# Density = 1.938354 g / cm^3
# Si number density = 19.427760 Si / 1000 Ang^3
#
#
#
# Elastic Constant Matrix: (Units=GPa)
#
#
# Indices 1 2 3 4 5 6 
#
# 1 85.8416 61.2458 69.5764 0.0000 0.0000 0.0000
# 2 61.2458 139.2911 80.3129 0.0000 0.0000 0.0000
# 3 69.5764 80.3129 137.9962 0.0000 0.0000 0.0000
# 4 0.0000 0.0000 0.0000 3.6733 0.0000 0.0000
# 5 0.0000 0.0000 0.0000 0.0000 32.3434 0.0000
# 6 0.0000 0.0000 0.0000 0.0000 0.0000 32.0865
#
#
#
# Elastic Compliance Matrix: (Units=1/GPa)
#
#
# Indices 1 2 3 4 5 6 
#
# 1 0.021688 -0.004863 -0.008105 0.000000 0.000000 0.000000
# 2 -0.004863 0.011896 -0.004471 0.000000 0.000000 0.000000
# 3 -0.008105 -0.004471 0.013935 0.000000 0.000000 0.000000
# 4 0.000000 0.000000 0.000000 0.272235 0.000000 0.000000
# 5 0.000000 0.000000 0.000000 0.000000 0.030918 0.000000
# 6 0.000000 0.000000 0.000000 0.000000 0.000000 0.031166
#
#
# Mechanical properties :
#
#
# Convention : Reuss Voigt Hill
#
# Bulk Modulus (GPa) = 79.10913 87.26655 83.18784
# Shear Modulus (GPa) = 11.87849 23.75357 17.81603
#
# Velocity S-wave (km/s) = 2.47537 3.50045 3.03155
# Velocity P-wave (km/s) = 6.99843 7.83285 7.42737
#
# Compressibility (1/GPa) = 0.01264077
#
# Stress axis : x y z
#
# Youngs Moduli (GPa) = 46.10838 84.06524 71.76187
#
# Poissons Ratio (x) = 0.40883 0.58160
# Poissons Ratio (y) = 0.22423 0.32086
# Poissons Ratio (z) = 0.37369 0.37587
#
# Static dielectric constant tensor:
#      x y z
#    x 3.442140 0.000000 0.000000 
#    y 0.000000 3.589510 0.000000 
#    z 0.000000 0.000000 3.567290 
# 
# 
# High freq. dielectric constant tensor:
#      x y z
#    x 1.751490 0.000000 0.000000 
#    y 0.000000 1.761430 0.000000 
#    z 0.000000 0.000000 1.755090 
# 
# From -- ./inp_files/16690.got.cif
#   From: 2010.03.12/outbox.cif.g09.slc.cpg/sg36_9_cif.got.tgz:16690.got - 2010.04.14 02:13:53.
