data_PCOD8175563
_publ_section_title
;
Structure prediction by ZEFSAII (Michael W. Deem and Ramdas Pophale) SiO2 
 PCOD8175563
Probable space group: C M C 21
;
_chemical_formula_sum "Si O2"
_cell_formula_units_Z 64
_cell_length_a 9.236154
_cell_length_b 19.442112
_cell_length_c 18.562068
_cell_angle_alpha 90.000000
_cell_angle_beta 90.000000
_cell_angle_gamma 90.000000
_cell_volume 3333.196871
_symmetry_space_group_name_H-M "C M C 21"
_symmetry_group_IT_number 36
_symmetry_cell_setting 'orthorhombic'
loop_
_space_group_symop_operation_xyz
x,y,z
-x,-y,1/2+z
x,-y,1/2+z
-x,y,z
1/2+x,1/2+y,z
1/2-x,1/2-y,1/2+z
1/2+x,1/2-y,1/2+z
1/2-x,1/2+y,z
loop_
_atom_site_type_symbol
_atom_site_label
_atom_site_fract_x
_atom_site_fract_y
_atom_site_fract_z
Si Si1 0.666891 0.578854 0.669910
Si Si2 0.828710 0.625013 0.530600
Si Si3 0.335615 0.813849 0.704700
Si Si4 0.331915 0.763491 0.548042
Si Si5 0.332000 0.869108 0.427605
Si Si6 0.669645 0.976657 0.902902
Si Si7 0.335096 0.680565 0.792538
Si Si8 0.166475 0.057094 0.257073
O O1 0.500000 0.596705 0.651401
O O2 0.763065 0.586952 0.599443
O O3 0.726812 0.631076 0.730303
O O4 0.685418 0.501950 0.698015
O O5 0.763094 0.700499 0.518999
O O6 0.786247 0.580060 0.461272
O O7 0.000000 0.630569 0.540356
O O8 0.500000 0.841869 0.698985
O O9 0.289892 0.777471 0.630489
O O10 0.322070 0.759493 0.769101
O O11 0.227474 0.875028 0.720439
O O12 0.500000 0.743147 0.540791
O O13 0.294965 0.831977 0.502802
O O14 0.500000 0.864661 0.409631
O O15 0.253057 0.827951 0.364994
O O16 0.282124 0.948433 0.432362
O O17 0.500000 0.974249 0.886530
O O18 0.750494 0.961590 0.829280
O O19 0.500000 0.659252 0.808239
O O20 0.000000 0.068587 0.277388
#
# Coordination Sequence:
#
# PCOD8175563 Si02
#       8
#     8   8   8   8   8   8   8   8
#     4  10  21  41  63  86 117 155 197 243 298 353
#     4  11  24  39  62  91 120 156 200 248 294 352
#     4  10  22  40  63  86 119 160 196 243 299 356
#     4  10  22  42  63  86 120 161 198 241 300 356
#     4  10  22  39  62  88 117 156 201 246 292 351
#     4  10  23  42  60  87 123 159 200 243 295 356
#     4  10  20  39  63  85 115 156 197 240 296 353
#     4  11  24  40  62  91 121 155 199 250 298 351
#
# _framework density 19.200786000000001
#
# number of rings (size 3 to 8) (size 9 to 14) (size 15 to 20)
#    0.000    1.750    2.500    0.750    3.500    4.000 
#    0.000    0.000    0.000    0.000    0.000    0.000 
#    0.000    0.000    0.000    0.000    0.000    0.000 
#
# Total GULP energy -396950.376902 kJ/mol
# GULP energy per Si atom -12404.699278 kJ/mol
# Density = 1.915708 g / cm^3
# Si number density = 19.200786 Si / 1000 Ang^3
#
#
#
# Elastic Constant Matrix: (Units=GPa)
#
#
# Indices 1 2 3 4 5 6 
#
# 1 49.6656 34.1347 40.5509 0.0000 0.0000 0.0000
# 2 34.1347 106.5718 38.2873 0.0000 0.0000 0.0000
# 3 40.5509 38.2873 84.4451 0.0000 0.0000 0.0000
# 4 0.0000 0.0000 0.0000 32.1096 0.0000 0.0000
# 5 0.0000 0.0000 0.0000 0.0000 35.0926 0.0000
# 6 0.0000 0.0000 0.0000 0.0000 0.0000 34.9772
#
#
#
# Elastic Compliance Matrix: (Units=1/GPa)
#
#
# Indices 1 2 3 4 5 6 
#
# 1 0.036479 -0.006440 -0.014598 0.000000 0.000000 0.000000
# 2 -0.006440 0.012346 -0.002505 0.000000 0.000000 0.000000
# 3 -0.014598 -0.002505 0.019988 0.000000 0.000000 0.000000
# 4 0.000000 0.000000 0.000000 0.031143 0.000000 0.000000
# 5 0.000000 0.000000 0.000000 0.000000 0.028496 0.000000
# 6 0.000000 0.000000 0.000000 0.000000 0.000000 0.028590
#
#
# Mechanical properties :
#
#
# Convention : Reuss Voigt Hill
#
# Bulk Modulus (GPa) = 46.02446 51.84759 48.93602
# Shear Modulus (GPa) = 23.65510 28.94987 26.30248
#
# Velocity S-wave (km/s) = 3.51377 3.88718 3.70518
# Velocity P-wave (km/s) = 6.36272 6.87083 6.62166
#
# Compressibility (1/GPa) = 0.02172758
#
# Stress axis : x y z
#
# Youngs Moduli (GPa) = 27.41270 80.99754 50.03054
#
# Poissons Ratio (x) = 0.52161 0.73033
# Poissons Ratio (y) = 0.17653 0.12534
# Poissons Ratio (z) = 0.40016 0.20292
#
# Static dielectric constant tensor:
#      x y z
#    x 3.490860 0.000000 0.000000 
#    y 0.000000 3.673740 0.000000 
#    z 0.000000 0.000000 3.503240 
# 
# 
# High freq. dielectric constant tensor:
#      x y z
#    x 1.741990 0.000000 0.000000 
#    y 0.000000 1.760260 0.000000 
#    z 0.000000 0.000000 1.751970 
# 
# From -- ./inp_files/15726.got.cif
#   From: 2010.03.12/outbox.cif.g09.slc.cpg/sg36_8_cif.got.tgz:15726.got - 2010.04.14 02:13:53.
