data_PCOD8175019
_publ_section_title
;
Structure prediction by ZEFSAII (Michael W. Deem and Ramdas Pophale) SiO2 
 PCOD8175019
Probable space group: C M C 21
;
_chemical_formula_sum "Si O2"
_cell_formula_units_Z 64
_cell_length_a 8.917423
_cell_length_b 23.811909
_cell_length_c 15.216524
_cell_angle_alpha 90.000000
_cell_angle_beta 90.000000
_cell_angle_gamma 90.000000
_cell_volume 3231.089868
_symmetry_space_group_name_H-M "C M C 21"
_symmetry_group_IT_number 36
_symmetry_cell_setting 'orthorhombic'
loop_
_space_group_symop_operation_xyz
x,y,z
-x,-y,1/2+z
x,-y,1/2+z
-x,y,z
1/2+x,1/2+y,z
1/2-x,1/2-y,1/2+z
1/2+x,1/2-y,1/2+z
1/2-x,1/2+y,z
loop_
_atom_site_type_symbol
_atom_site_label
_atom_site_fract_x
_atom_site_fract_y
_atom_site_fract_z
Si Si1 0.677767 0.250706 0.284370
Si Si2 0.321455 0.175173 0.447689
Si Si3 0.673182 0.630341 0.839347
Si Si4 0.168888 0.244000 0.102497
Si Si5 0.674743 0.979022 0.605848
Si Si6 0.670050 0.378640 0.529909
Si Si7 0.323780 0.446692 0.957483
Si Si8 0.171885 0.989494 0.278465
O O1 0.500000 0.250854 0.283135
O O2 0.735219 0.208374 0.360464
O O3 0.746069 0.313112 0.300474
O O4 0.732459 0.233527 0.188356
O O5 0.500000 0.170268 0.446452
O O6 0.269141 0.207992 0.536192
O O7 0.250235 0.113951 0.447191
O O8 0.500000 0.643963 0.857323
O O9 0.694904 0.577706 0.775580
O O10 0.741451 0.613999 0.933370
O O11 0.173359 0.186575 0.049838
O O12 0.000000 0.258951 0.131540
O O13 0.500000 0.987415 0.589599
O O14 0.722994 0.914730 0.591904
O O15 0.762358 0.022022 0.543291
O O16 0.712953 0.988349 0.707256
O O17 0.500000 0.402599 0.536515
O O18 0.500000 0.438480 0.969394
O O19 0.285492 0.484205 0.872480
O O20 0.000000 0.004872 0.254709
#
# Coordination Sequence:
#
# PCOD8175019 Si02
#       8
#     8   8   8   8   8   8   8   8
#     4  10  21  38  62  90 120 157 200 248 305 360
#     4  10  22  41  61  87 128 165 196 247 313 364
#     4   9  17  37  66  88 110 151 204 256 298 348
#     4  10  22  39  62  89 121 161 202 246 299 359
#     4  12  26  41  61  92 128 160 196 251 317 366
#     4  10  19  40  67  87 114 157 209 252 295 359
#     4  11  24  43  66  89 119 164 212 253 297 362
#     4  10  22  41  65  90 118 159 211 253 296 360
#
# _framework density 19.807559000000001
#
# number of rings (size 3 to 8) (size 9 to 14) (size 15 to 20)
#    0.000    1.750    2.500    1.500    3.500    2.500 
#    0.000    0.625    0.000    0.000    0.000    0.000 
#    0.000    0.000    0.000    0.000    0.000    0.000 
#
# Total GULP energy -396767.508701 kJ/mol
# GULP energy per Si atom -12398.984647 kJ/mol
# Density = 1.976248 g / cm^3
# Si number density = 19.807559 Si / 1000 Ang^3
#
#
#
# Elastic Constant Matrix: (Units=GPa)
#
#
# Indices 1 2 3 4 5 6 
#
# 1 47.6919 22.5685 24.4869 0.0000 0.0000 0.0000
# 2 22.5685 93.8668 9.7625 0.0000 0.0000 0.0000
# 3 24.4869 9.7625 84.0453 0.0000 0.0000 0.0000
# 4 0.0000 0.0000 0.0000 28.8734 0.0000 0.0000
# 5 0.0000 0.0000 0.0000 0.0000 25.8811 0.0000
# 6 0.0000 0.0000 0.0000 0.0000 0.0000 29.8675
#
#
#
# Elastic Compliance Matrix: (Units=1/GPa)
#
#
# Indices 1 2 3 4 5 6 
#
# 1 0.027501 -0.005849 -0.007333 0.000000 0.000000 0.000000
# 2 -0.005849 0.012028 0.000307 0.000000 0.000000 0.000000
# 3 -0.007333 0.000307 0.013999 0.000000 0.000000 0.000000
# 4 0.000000 0.000000 0.000000 0.034634 0.000000 0.000000
# 5 0.000000 0.000000 0.000000 0.000000 0.038638 0.000000
# 6 0.000000 0.000000 0.000000 0.000000 0.000000 0.033481
#
#
# Mechanical properties :
#
#
# Convention : Reuss Voigt Hill
#
# Bulk Modulus (GPa) = 36.00062 37.69332 36.84697
# Shear Modulus (GPa) = 25.60277 28.17680 26.88978
#
# Velocity S-wave (km/s) = 3.59914 3.77573 3.68849
# Velocity P-wave (km/s) = 5.95705 6.17084 6.06489
#
# Compressibility (1/GPa) = 0.02777730
#
# Stress axis : x y z
#
# Youngs Moduli (GPa) = 36.36224 83.14048 71.43271
#
# Poissons Ratio (x) = 0.48633 0.52382
# Poissons Ratio (y) = 0.21270 -0.02194
# Poissons Ratio (z) = 0.26665 -0.02554
#
# Static dielectric constant tensor:
#      x y z
#    x 3.374350 0.000000 0.000000 
#    y 0.000000 3.759880 0.000000 
#    z 0.000000 0.000000 3.627700 
# 
# 
# High freq. dielectric constant tensor:
#      x y z
#    x 1.745560 0.000000 0.000000 
#    y 0.000000 1.787290 0.000000 
#    z 0.000000 0.000000 1.781180 
# 
# From -- ./inp_files/11118.got.cif
#   From: 2010.03.12/outbox.cif.g09.slc.cpg/sg36_6_cif.got.tgz:11118.got - 2010.04.14 02:13:53.
