data_PCOD8175935
_publ_section_title
;
Structure prediction by ZEFSAII (Michael W. Deem and Ramdas Pophale) SiO2 
 PCOD8175935
Probable space group: C M C 21
;
_chemical_formula_sum "Si O2"
_cell_formula_units_Z 40
_cell_length_a 13.690921
_cell_length_b 9.713621
_cell_length_c 11.125281
_cell_angle_alpha 90.000000
_cell_angle_beta 90.000000
_cell_angle_gamma 90.000000
_cell_volume 1479.533517
_symmetry_space_group_name_H-M "C M C 21"
_symmetry_group_IT_number 36
_symmetry_cell_setting 'orthorhombic'
loop_
_space_group_symop_operation_xyz
x,y,z
-x,-y,1/2+z
x,-y,1/2+z
-x,y,z
1/2+x,1/2+y,z
1/2-x,1/2-y,1/2+z
1/2+x,1/2-y,1/2+z
1/2-x,1/2+y,z
loop_
_atom_site_type_symbol
_atom_site_label
_atom_site_fract_x
_atom_site_fract_y
_atom_site_fract_z
Si Si1 0.500000 0.864318 0.500000
Si Si2 0.000000 0.321759 0.123153
Si Si3 0.500000 0.082280 0.305169
Si Si4 0.825599 0.364562 0.677741
Si Si5 0.500000 0.393680 0.829238
Si Si6 0.297420 0.206929 0.505603
Si Si7 0.293618 0.474314 0.355187
O O1 0.500000 0.002817 0.426276
O O2 0.398309 0.887075 0.567315
O O3 0.500000 0.717178 0.436751
O O4 0.000000 0.462371 0.199726
O O5 0.089459 0.312947 0.030858
O O6 0.000000 0.186418 0.204484
O O7 0.598559 0.175311 0.287654
O O8 0.750228 0.248664 0.635476
O O9 0.766290 0.497264 0.730364
O O10 0.592947 0.492710 0.836025
O O11 0.277117 0.318322 0.398961
O O12 0.246665 0.066811 0.464399
#
# Coordination Sequence:
#
# PCOD8175935 Si02
#       7
#     4   4   4   8   4   8   8
#     4  10  21  43  70 101 145 182 246 305 370 415
#     4  11  24  45  71 105 148 189 231 297 375 424
#     4  10  23  42  76 106 143 182 252 306 353 435
#     4  11  23  42  72 107 136 189 240 298 360 425
#     4  11  22  46  67 104 142 187 229 304 364 432
#     4  12  26  47  72 107 146 194 238 300 362 435
#     4  12  27  45  74 103 148 187 249 293 361 442
#
# _framework density 27.035547999999999
#
# number of rings (size 3 to 8) (size 9 to 14) (size 15 to 20)
#    0.000    0.800    4.000    3.000    2.800    4.800 
#    0.000    0.000    0.000    0.000    0.000    0.000 
#    0.000    0.000    0.000    0.000    0.000    0.000 
#
# Total GULP energy -247800.240617 kJ/mol
# GULP energy per Si atom -12390.012031 kJ/mol
# Density = 2.697401 g / cm^3
# Si number density = 27.035548 Si / 1000 Ang^3
#
#
#
# Elastic Constant Matrix: (Units=GPa)
#
#
# Indices 1 2 3 4 5 6 
#
# 1 190.3025 14.4780 15.1690 0.0000 0.0000 0.0000
# 2 14.4780 86.2315 8.9896 0.0000 0.0000 0.0000
# 3 15.1690 8.9896 81.1029 0.0000 0.0000 0.0000
# 4 0.0000 0.0000 0.0000 25.8202 0.0000 0.0000
# 5 0.0000 0.0000 0.0000 0.0000 51.2542 0.0000
# 6 0.0000 0.0000 0.0000 0.0000 0.0000 24.3432
#
#
#
# Elastic Compliance Matrix: (Units=1/GPa)
#
#
# Indices 1 2 3 4 5 6 
#
# 1 0.005390 -0.000809 -0.000918 0.000000 0.000000 0.000000
# 2 -0.000809 0.011854 -0.001163 0.000000 0.000000 0.000000
# 3 -0.000918 -0.001163 0.012631 0.000000 0.000000 0.000000
# 4 0.000000 0.000000 0.000000 0.038729 0.000000 0.000000
# 5 0.000000 0.000000 0.000000 0.000000 0.019511 0.000000
# 6 0.000000 0.000000 0.000000 0.000000 0.000000 0.041079
#
#
# Mechanical properties :
#
#
# Convention : Reuss Voigt Hill
#
# Bulk Modulus (GPa) = 41.50439 48.32335 44.91387
# Shear Modulus (GPa) = 34.96391 41.55019 38.25705
#
# Velocity S-wave (km/s) = 3.60009 3.92455 3.76582
# Velocity P-wave (km/s) = 5.71542 6.20072 5.96301
#
# Compressibility (1/GPa) = 0.02409383
#
# Stress axis : x y z
#
# Youngs Moduli (GPa) = 185.54412 84.36153 79.17256
#
# Poissons Ratio (x) = 0.06826 0.07271
# Poissons Ratio (y) = 0.15013 0.09204
# Poissons Ratio (z) = 0.17039 0.09807
#
# Static dielectric constant tensor:
#      x y z
#    x 5.700420 0.000000 0.000000 
#    y 0.000000 4.943550 0.000000 
#    z 0.000000 0.000000 5.842680 
# 
# 
# High freq. dielectric constant tensor:
#      x y z
#    x 2.119990 0.000000 0.000000 
#    y 0.000000 2.077230 0.000000 
#    z 0.000000 0.000000 2.119340 
# 
# From -- ./inp_files/8302.got.cif
#   From: 2010.03.12/outbox.cif.g09.slc.cpg/sg36_5_cif.got.tgz:8302.got - 2010.04.14 02:13:53.
