data_PCOD8175579
_publ_section_title
;
Structure prediction by ZEFSAII (Michael W. Deem and Ramdas Pophale) SiO2 
 PCOD8175579
Probable space group: C M C 21
;
_chemical_formula_sum "Si O2"
_cell_formula_units_Z 40
_cell_length_a 9.096917
_cell_length_b 26.838724
_cell_length_c 8.696524
_cell_angle_alpha 90.000000
_cell_angle_beta 90.000000
_cell_angle_gamma 90.000000
_cell_volume 2123.253244
_symmetry_space_group_name_H-M "C M C 21"
_symmetry_group_IT_number 36
_symmetry_cell_setting 'orthorhombic'
loop_
_space_group_symop_operation_xyz
x,y,z
-x,-y,1/2+z
x,-y,1/2+z
-x,y,z
1/2+x,1/2+y,z
1/2-x,1/2-y,1/2+z
1/2+x,1/2-y,1/2+z
1/2-x,1/2+y,z
loop_
_atom_site_type_symbol
_atom_site_label
_atom_site_fract_x
_atom_site_fract_y
_atom_site_fract_z
Si Si1 0.668321 0.556399 0.716540
Si Si2 0.835359 0.517356 0.011600
Si Si3 0.500000 0.169822 0.434319
Si Si4 0.742217 0.832915 0.186871
Si Si5 0.000000 0.323136 0.437216
Si Si6 0.500000 0.908344 0.686386
Si Si7 0.000000 0.244328 0.682108
O O1 0.500000 0.539133 0.732449
O O2 0.754309 0.543691 0.871388
O O3 0.742131 0.529008 0.571598
O O4 0.673680 0.614803 0.681836
O O5 0.000000 0.500158 0.956139
O O6 0.855073 0.557562 0.151672
O O7 0.354007 0.174160 0.534736
O O8 0.500000 0.114825 0.356073
O O9 0.500000 0.214148 0.313310
O O10 0.644692 0.830451 0.337996
O O11 0.855905 0.788429 0.198491
O O12 0.000000 0.268619 0.513143
O O13 0.000000 0.363716 0.567721
#
# Coordination Sequence:
#
# PCOD8175579 Si02
#       7
#     8   8   4   8   4   4   4
#     4  12  24  40  61  93 131 166 199 261 316 361
#     4  10  23  39  65  90 120 171 212 248 293 375
#     4  10  24  37  66  91 119 158 209 260 303 368
#     4  11  22  39  63  90 122 162 202 253 312 371
#     4  10  20  39  66  84 120 159 208 244 309 364
#     4   9  20  38  62  91 112 157 214 251 278 366
#     4  11  22  42  60  92 121 158 201 263 310 366
#
# _framework density 18.839015
#
# number of rings (size 3 to 8) (size 9 to 14) (size 15 to 20)
#    0.600    0.800    3.000    2.400    7.000    0.000 
#    0.000    0.000    2.200    0.000    0.000    0.000 
#    0.000    0.000    0.000    0.000    0.000    0.000 
#
# Total GULP energy -247993.619641 kJ/mol
# GULP energy per Si atom -12399.680982 kJ/mol
# Density = 1.879614 g / cm^3
# Si number density = 18.839015 Si / 1000 Ang^3
#
#
#
# Elastic Constant Matrix: (Units=GPa)
#
#
# Indices 1 2 3 4 5 6 
#
# 1 124.4390 27.1801 25.5312 0.0000 0.0000 0.0000
# 2 27.1801 93.2115 20.0232 0.0000 0.0000 0.0000
# 3 25.5312 20.0232 65.2653 0.0000 0.0000 0.0000
# 4 0.0000 0.0000 0.0000 34.8817 0.0000 0.0000
# 5 0.0000 0.0000 0.0000 0.0000 14.9638 0.0000
# 6 0.0000 0.0000 0.0000 0.0000 0.0000 40.9309
#
#
#
# Elastic Compliance Matrix: (Units=1/GPa)
#
#
# Indices 1 2 3 4 5 6 
#
# 1 0.009078 -0.002017 -0.002932 0.000000 0.000000 0.000000
# 2 -0.002017 0.011933 -0.002872 0.000000 0.000000 0.000000
# 3 -0.002932 -0.002872 0.017350 0.000000 0.000000 0.000000
# 4 0.000000 0.000000 0.000000 0.028668 0.000000 0.000000
# 5 0.000000 0.000000 0.000000 0.000000 0.066828 0.000000
# 6 0.000000 0.000000 0.000000 0.000000 0.000000 0.024431
#
#
# Mechanical properties :
#
#
# Convention : Reuss Voigt Hill
#
# Bulk Modulus (GPa) = 44.01670 47.59833 45.80752
# Shear Modulus (GPa) = 27.54724 32.16736 29.85730
#
# Velocity S-wave (km/s) = 3.82808 4.13666 3.98536
# Velocity P-wave (km/s) = 6.55395 6.93805 6.74874
#
# Compressibility (1/GPa) = 0.02271865
#
# Stress axis : x y z
#
# Youngs Moduli (GPa) = 110.15233 83.79797 57.63572
#
# Poissons Ratio (x) = 0.16904 0.16902
# Poissons Ratio (y) = 0.22221 0.16553
# Poissons Ratio (z) = 0.32302 0.24067
#
# Static dielectric constant tensor:
#      x y z
#    x 3.327140 0.000000 0.000000 
#    y 0.000000 3.606060 0.000000 
#    z 0.000000 0.000000 3.475840 
# 
# 
# High freq. dielectric constant tensor:
#      x y z
#    x 1.729580 0.000000 0.000000 
#    y 0.000000 1.745620 0.000000 
#    z 0.000000 0.000000 1.736960 
# 
# From -- ./inp_files/2551.got.cif
#   From: 2010.03.12/outbox.cif.g09.slc.cpg/sg36_2_cif.got.tgz:2551.got - 2010.04.14 02:13:53.
