data_PCOD8175671
_publ_section_title
;
Structure prediction by ZEFSAII (Michael W. Deem and Ramdas Pophale) SiO2 
 PCOD8175671
Probable space group: C M C 21
;
_chemical_formula_sum "Si O2"
_cell_formula_units_Z 64
_cell_length_a 9.235614
_cell_length_b 28.784864
_cell_length_c 12.283817
_cell_angle_alpha 90.000000
_cell_angle_beta 90.000000
_cell_angle_gamma 90.000000
_cell_volume 3265.602299
_symmetry_space_group_name_H-M "C M C 21"
_symmetry_group_IT_number 36
_symmetry_cell_setting 'orthorhombic'
loop_
_space_group_symop_operation_xyz
x,y,z
-x,-y,1/2+z
x,-y,1/2+z
-x,y,z
1/2+x,1/2+y,z
1/2-x,1/2-y,1/2+z
1/2+x,1/2-y,1/2+z
1/2-x,1/2+y,z
loop_
_atom_site_type_symbol
_atom_site_label
_atom_site_fract_x
_atom_site_fract_y
_atom_site_fract_z
Si Si1 0.670099 0.410513 0.326830
Si Si2 0.661105 0.917268 0.955731
Si Si3 0.168321 0.971132 0.124532
Si Si4 0.669434 0.284099 0.846345
Si Si5 0.659134 0.818816 0.038817
Si Si6 0.664871 0.817087 0.284791
Si Si7 0.327791 0.865575 0.738574
Si Si8 0.167659 0.074020 0.072562
O O1 0.500000 0.405845 0.311745
O O2 0.731394 0.444842 0.231839
O O3 0.734010 0.359141 0.319181
O O4 0.709517 0.431183 0.445257
O O5 0.500000 0.938185 0.944181
O O6 0.717115 0.899937 0.837735
O O7 0.762607 0.955654 0.009828
O O8 0.662480 0.874483 0.039342
O O9 0.000000 0.960778 0.112682
O O10 0.199475 0.025888 0.135307
O O11 0.500000 0.292112 0.824430
O O12 0.711293 0.229899 0.845333
O O13 0.759135 0.314768 0.759206
O O14 0.710902 0.299131 0.967592
O O15 0.500000 0.802517 0.994970
O O16 0.684435 0.802302 0.160192
O O17 0.500000 0.831470 0.310921
O O18 0.500000 0.860125 0.730725
O O19 0.265440 0.886076 0.626671
O O20 0.000000 0.088298 0.084640
#
# Coordination Sequence:
#
# PCOD8175671 Si02
#       8
#     8   8   8   8   8   8   8   8
#     4  10  22  39  58  88 121 151 195 244 294 350
#     4   9  18  34  57  81 108 144 188 240 289 340
#     4  10  21  36  59  87 115 150 193 241 290 346
#     4  10  21  36  58  87 116 152 199 243 295 353
#     4   9  18  35  55  78 112 150 190 241 294 343
#     4  10  21  38  59  84 116 155 196 242 295 352
#     4  10  22  40  59  84 118 154 197 243 294 350
#     4  10  23  40  59  85 122 160 196 242 297 352
#
# _framework density 19.598223000000001
#
# number of rings (size 3 to 8) (size 9 to 14) (size 15 to 20)
#    0.000    2.250    1.250    1.500    1.750    6.000 
#    0.000    3.750    0.000    0.000    0.000    0.000 
#    0.000    0.000    0.000    0.000    0.000    0.000 
#
# Total GULP energy -396734.043095 kJ/mol
# GULP energy per Si atom -12397.938847 kJ/mol
# Density = 1.955362 g / cm^3
# Si number density = 19.598223 Si / 1000 Ang^3
#
#
#
# Elastic Constant Matrix: (Units=GPa)
#
#
# Indices 1 2 3 4 5 6 
#
# 1 62.0717 42.7561 33.6416 0.0000 0.0000 0.0000
# 2 42.7561 94.7314 39.1856 0.0000 0.0000 0.0000
# 3 33.6416 39.1856 71.8346 0.0000 0.0000 0.0000
# 4 0.0000 0.0000 0.0000 26.6470 0.0000 0.0000
# 5 0.0000 0.0000 0.0000 0.0000 31.9174 0.0000
# 6 0.0000 0.0000 0.0000 0.0000 0.0000 28.6094
#
#
#
# Elastic Compliance Matrix: (Units=1/GPa)
#
#
# Indices 1 2 3 4 5 6 
#
# 1 0.026180 -0.008710 -0.007509 0.000000 0.000000 0.000000
# 2 -0.008710 0.016530 -0.004938 0.000000 0.000000 0.000000
# 3 -0.007509 -0.004938 0.020131 0.000000 0.000000 0.000000
# 4 0.000000 0.000000 0.000000 0.037528 0.000000 0.000000
# 5 0.000000 0.000000 0.000000 0.000000 0.031331 0.000000
# 6 0.000000 0.000000 0.000000 0.000000 0.000000 0.034954
#
#
# Mechanical properties :
#
#
# Convention : Reuss Voigt Hill
#
# Bulk Modulus (GPa) = 48.71715 51.08936 49.90326
# Shear Modulus (GPa) = 23.16858 24.97172 24.07015
#
# Velocity S-wave (km/s) = 3.44201 3.57344 3.50834
# Velocity P-wave (km/s) = 6.38032 6.56894 6.47532
#
# Compressibility (1/GPa) = 0.02052665
#
# Stress axis : x y z
#
# Youngs Moduli (GPa) = 38.19751 60.49671 49.67377
#
# Poissons Ratio (x) = 0.52691 0.37302
# Poissons Ratio (y) = 0.33269 0.24529
# Poissons Ratio (z) = 0.28684 0.29874
#
# Static dielectric constant tensor:
#      x y z
#    x 3.504780 0.000000 0.000000 
#    y 0.000000 3.457720 0.000000 
#    z 0.000000 0.000000 3.563970 
# 
# 
# High freq. dielectric constant tensor:
#      x y z
#    x 1.757610 0.000000 0.000000 
#    y 0.000000 1.757020 0.000000 
#    z 0.000000 0.000000 1.762890 
# 
# From -- ./inp_files/7232.got.cif
#   From: 2010.03.12/outbox.cif.g09.slc.cpg/sg36_4_cif.got.tgz:7232.got - 2010.04.14 02:13:53.
