data_PCOD8175852
_publ_section_title
;
Structure prediction by ZEFSAII (Michael W. Deem and Ramdas Pophale) SiO2 
 PCOD8175852
Probable space group: C M C 21
;
_chemical_formula_sum "Si O2"
_cell_formula_units_Z 64
_cell_length_a 8.997116
_cell_length_b 31.647569
_cell_length_c 11.073999
_cell_angle_alpha 90.000000
_cell_angle_beta 90.000000
_cell_angle_gamma 90.000000
_cell_volume 3153.175586
_symmetry_space_group_name_H-M "C M C 21"
_symmetry_group_IT_number 36
_symmetry_cell_setting 'orthorhombic'
loop_
_space_group_symop_operation_xyz
x,y,z
-x,-y,1/2+z
x,-y,1/2+z
-x,y,z
1/2+x,1/2+y,z
1/2-x,1/2-y,1/2+z
1/2+x,1/2-y,1/2+z
1/2-x,1/2+y,z
loop_
_atom_site_type_symbol
_atom_site_label
_atom_site_fract_x
_atom_site_fract_y
_atom_site_fract_z
Si Si1 0.335222 0.070318 0.372840
Si Si2 0.328562 0.865200 0.067346
Si Si3 0.673427 0.075452 0.023931
Si Si4 0.163987 0.646550 0.187321
Si Si5 0.671400 0.069739 0.752526
Si Si6 0.675628 0.278027 0.027695
Si Si7 0.674541 0.271340 0.751519
Si Si8 0.325602 0.487086 0.704330
O O1 0.500000 0.051065 0.390166
O O2 0.280123 0.092825 0.494157
O O3 0.338097 0.106988 0.274813
O O4 0.229449 0.031948 0.333077
O O5 0.500000 0.852169 0.039662
O O6 0.305896 0.882239 0.203047
O O7 0.222914 0.826680 0.034487
O O8 0.500000 0.064778 0.043328
O O9 0.703696 0.124804 0.059287
O O10 0.770036 0.042288 0.097139
O O11 0.727474 0.071216 0.888331
O O12 0.287059 0.679889 0.227944
O O13 0.000000 0.668450 0.184373
O O14 0.500000 0.056732 0.740599
O O15 0.765081 0.034168 0.683006
O O16 0.500000 0.274554 0.041742
O O17 0.747696 0.255012 0.143872
O O18 0.721248 0.260226 0.892310
O O19 0.500000 0.264102 0.737084
O O20 0.500000 0.488116 0.704762
#
# Coordination Sequence:
#
# PCOD8175852 Si02
#       8
#     8   8   8   8   8   8   8   8
#     4   9  18  35  60  86 114 152 196 238 289 357
#     4  10  21  39  64  91 119 157 202 251 305 367
#     4   9  20  39  59  82 115 155 201 246 297 367
#     4   9  17  34  61  87 113 150 194 243 299 355
#     4  10  22  39  60  85 117 158 203 249 301 367
#     4  11  25  43  65  95 131 167 210 263 319 379
#     4  11  24  41  64  95 128 166 211 257 310 380
#     4  11  23  36  55  85 119 155 199 251 302 352
#
# _framework density 20.296999
#
# number of rings (size 3 to 8) (size 9 to 14) (size 15 to 20)
#    0.000    2.000    1.250    2.625    1.750    6.000 
#    0.000    2.500    0.000    0.000    0.000    0.000 
#    0.000    0.000    0.000    0.000    0.000    0.000 
#
# Total GULP energy -396536.861449 kJ/mol
# GULP energy per Si atom -12391.776920 kJ/mol
# Density = 2.025080 g / cm^3
# Si number density = 20.296999 Si / 1000 Ang^3
#
#
#
# Elastic Constant Matrix: (Units=GPa)
#
#
# Indices 1 2 3 4 5 6 
#
# 1 88.1478 40.0053 55.7508 0.0000 0.0000 0.0000
# 2 40.0053 68.8330 45.1674 0.0000 0.0000 0.0000
# 3 55.7508 45.1674 124.0576 0.0000 0.0000 0.0000
# 4 0.0000 0.0000 0.0000 17.6952 0.0000 0.0000
# 5 0.0000 0.0000 0.0000 0.0000 18.0457 0.0000
# 6 0.0000 0.0000 0.0000 0.0000 0.0000 25.2067
#
#
#
# Elastic Compliance Matrix: (Units=1/GPa)
#
#
# Indices 1 2 3 4 5 6 
#
# 1 0.017960 -0.006756 -0.005611 0.000000 0.000000 0.000000
# 2 -0.006756 0.021630 -0.004839 0.000000 0.000000 0.000000
# 3 -0.005611 -0.004839 0.012344 0.000000 0.000000 0.000000
# 4 0.000000 0.000000 0.000000 0.056512 0.000000 0.000000
# 5 0.000000 0.000000 0.000000 0.000000 0.055415 0.000000
# 6 0.000000 0.000000 0.000000 0.000000 0.000000 0.039672
#
#
# Mechanical properties :
#
#
# Convention : Reuss Voigt Hill
#
# Bulk Modulus (GPa) = 57.07354 62.54285 59.80820
# Shear Modulus (GPa) = 20.50983 21.53053 21.02018
#
# Velocity S-wave (km/s) = 3.18226 3.26049 3.22161
# Velocity P-wave (km/s) = 6.45621 6.71231 6.58550
#
# Compressibility (1/GPa) = 0.01752125
#
# Stress axis : x y z
#
# Youngs Moduli (GPa) = 55.68025 46.23271 81.00982
#
# Poissons Ratio (x) = 0.31235 0.45456
# Poissons Ratio (y) = 0.37618 0.39200
# Poissons Ratio (z) = 0.31243 0.22372
#
# Static dielectric constant tensor:
#      x y z
#    x 3.526590 0.000000 0.000000 
#    y 0.000000 3.616750 0.000000 
#    z 0.000000 0.000000 4.664120 
# 
# 
# High freq. dielectric constant tensor:
#      x y z
#    x 1.775180 0.000000 0.000000 
#    y 0.000000 1.783990 0.000000 
#    z 0.000000 0.000000 1.807420 
# 
# From -- ./inp_files/7199.got.cif
#   From: 2010.03.12/outbox.cif.g09.slc.cpg/sg36_4_cif.got.tgz:7199.got - 2010.04.14 02:13:53.
