data_PCOD8175161
_publ_section_title
;
Structure prediction by ZEFSAII (Michael W. Deem and Ramdas Pophale) SiO2 
 PCOD8175161
Probable space group: C M C 21
;
_chemical_formula_sum "Si O2"
_cell_formula_units_Z 64
_cell_length_a 9.809633
_cell_length_b 28.604019
_cell_length_c 12.186092
_cell_angle_alpha 90.000000
_cell_angle_beta 90.000000
_cell_angle_gamma 90.000000
_cell_volume 3419.355616
_symmetry_space_group_name_H-M "C M C 21"
_symmetry_group_IT_number 36
_symmetry_cell_setting 'orthorhombic'
loop_
_space_group_symop_operation_xyz
x,y,z
-x,-y,1/2+z
x,-y,1/2+z
-x,y,z
1/2+x,1/2+y,z
1/2-x,1/2-y,1/2+z
1/2+x,1/2-y,1/2+z
1/2-x,1/2+y,z
loop_
_atom_site_type_symbol
_atom_site_label
_atom_site_fract_x
_atom_site_fract_y
_atom_site_fract_z
Si Si1 0.652861 0.343988 0.018320
Si Si2 0.149301 0.585022 0.597288
Si Si3 0.344612 0.731813 0.683655
Si Si4 0.156514 0.814260 0.622974
Si Si5 0.659191 0.968579 0.883937
Si Si6 0.157292 0.109588 0.294397
Si Si7 0.846499 0.428643 0.341777
Si Si8 0.658745 0.660236 0.876564
O O1 0.500000 0.361583 0.038702
O O2 0.746080 0.372714 0.101268
O O3 0.668453 0.290915 0.061348
O O4 0.693885 0.352867 0.891606
O O5 0.191510 0.547619 0.506630
O O6 0.150781 0.559946 0.713171
O O7 0.000000 0.605845 0.570048
O O8 0.500000 0.747761 0.705251
O O9 0.248492 0.776555 0.685478
O O10 0.298960 0.696173 0.780377
O O11 0.185567 0.864574 0.679247
O O12 0.190010 0.816304 0.494157
O O13 0.000000 0.799759 0.642939
O O14 0.500000 0.964382 0.850669
O O15 0.747596 0.936310 0.801152
O O16 0.707197 0.022306 0.889386
O O17 0.000000 0.093663 0.303495
O O18 0.746423 0.386829 0.371786
O O19 0.000000 0.416409 0.383363
O O20 0.500000 0.646535 0.866351
#
# Coordination Sequence:
#
# PCOD8175161 Si02
#       8
#     8   8   8   8   8   8   8   8
#     4   9  17  32  54  76 100 132 174 225 266 309
#     4   9  17  31  50  75 105 138 177 221 268 318
#     4  10  21  36  56  81 107 139 181 225 270 324
#     4  10  23  39  56  80 113 148 180 223 275 328
#     4   9  19  34  53  80 112 145 184 228 273 322
#     4   9  19  36  55  78 108 142 182 223 270 324
#     4  10  20  34  55  82 110 144 184 226 274 325
#     4  10  22  40  57  80 113 144 180 225 274 326
#
# _framework density 18.716978000000001
#
# number of rings (size 3 to 8) (size 9 to 14) (size 15 to 20)
#    0.000    2.500    1.250    0.000    1.750    3.500 
#    0.000    1.250    0.000    0.000    0.000    0.000 
#    0.000    0.000    0.000    0.000    0.000    0.000 
#
# Total GULP energy -396653.963850 kJ/mol
# GULP energy per Si atom -12395.436370 kJ/mol
# Density = 1.867438 g / cm^3
# Si number density = 18.716978 Si / 1000 Ang^3
#
#
#
# Elastic Constant Matrix: (Units=GPa)
#
#
# Indices 1 2 3 4 5 6 
#
# 1 81.3386 69.5854 29.4604 0.0000 0.0000 0.0000
# 2 69.5854 116.1119 33.1798 0.0000 0.0000 0.0000
# 3 29.4604 33.1798 66.7990 0.0000 0.0000 0.0000
# 4 0.0000 0.0000 0.0000 22.3462 0.0000 0.0000
# 5 0.0000 0.0000 0.0000 0.0000 21.9486 0.0000
# 6 0.0000 0.0000 0.0000 0.0000 0.0000 32.0160
#
#
#
# Elastic Compliance Matrix: (Units=1/GPa)
#
#
# Indices 1 2 3 4 5 6 
#
# 1 0.026291 -0.014501 -0.004392 0.000000 0.000000 0.000000
# 2 -0.014501 0.018035 -0.002563 0.000000 0.000000 0.000000
# 3 -0.004392 -0.002563 0.018180 0.000000 0.000000 0.000000
# 4 0.000000 0.000000 0.000000 0.044750 0.000000 0.000000
# 5 0.000000 0.000000 0.000000 0.000000 0.045561 0.000000
# 6 0.000000 0.000000 0.000000 0.000000 0.000000 0.031234
#
#
# Mechanical properties :
#
#
# Convention : Reuss Voigt Hill
#
# Bulk Modulus (GPa) = 51.03556 58.74450 54.89003
# Shear Modulus (GPa) = 21.41375 24.06376 22.73876
#
# Velocity S-wave (km/s) = 3.38610 3.58951 3.48928
# Velocity P-wave (km/s) = 6.52792 6.97375 6.75451
#
# Compressibility (1/GPa) = 0.01959418
#
# Stress axis : x y z
#
# Youngs Moduli (GPa) = 38.03650 55.44783 55.00416
#
# Poissons Ratio (x) = 0.80403 0.24159
# Poissons Ratio (y) = 0.55156 0.14097
# Poissons Ratio (z) = 0.16707 0.14211
#
# Static dielectric constant tensor:
#      x y z
#    x 3.514430 0.000000 0.000000 
#    y 0.000000 3.198000 0.000000 
#    z 0.000000 0.000000 3.508710 
# 
# 
# High freq. dielectric constant tensor:
#      x y z
#    x 1.727330 0.000000 0.000000 
#    y 0.000000 1.709580 0.000000 
#    z 0.000000 0.000000 1.729410 
# 
# From -- ./inp_files/7088.got.cif
#   From: 2010.03.12/outbox.cif.g09.slc.cpg/sg36_4_cif.got.tgz:7088.got - 2010.04.14 02:13:53.
