data_PCOD8175253
_publ_section_title
;
Structure prediction by ZEFSAII (Michael W. Deem and Ramdas Pophale) SiO2 
 PCOD8175253
Probable space group: C M C 21
;
_chemical_formula_sum "Si O2"
_cell_formula_units_Z 48
_cell_length_a 9.122750
_cell_length_b 30.325491
_cell_length_c 9.324921
_cell_angle_alpha 90.000000
_cell_angle_beta 90.000000
_cell_angle_gamma 90.000000
_cell_volume 2579.756860
_symmetry_space_group_name_H-M "C M C 21"
_symmetry_group_IT_number 36
_symmetry_cell_setting 'orthorhombic'
loop_
_space_group_symop_operation_xyz
x,y,z
-x,-y,1/2+z
x,-y,1/2+z
-x,y,z
1/2+x,1/2+y,z
1/2-x,1/2-y,1/2+z
1/2+x,1/2-y,1/2+z
1/2-x,1/2+y,z
loop_
_atom_site_type_symbol
_atom_site_label
_atom_site_fract_x
_atom_site_fract_y
_atom_site_fract_z
Si Si1 0.330029 0.210769 0.987700
Si Si2 0.827658 0.538926 0.520770
Si Si3 0.166923 0.111891 0.696913
Si Si4 0.826859 0.122372 0.025004
Si Si5 0.673447 0.953644 0.691983
Si Si6 0.833226 0.211541 0.701939
O O1 0.500000 0.197510 0.987475
O O2 0.278668 0.222002 0.828353
O O3 0.238345 0.170676 0.055495
O O4 0.299242 0.254900 0.075709
O O5 0.766192 0.581689 0.598499
O O6 0.778910 0.537632 0.355537
O O7 0.770169 0.494802 0.598009
O O8 0.000000 0.541757 0.535882
O O9 0.190643 0.161980 0.644043
O O10 0.000000 0.096741 0.677250
O O11 0.213666 0.107493 0.863504
O O12 0.755704 0.089572 0.138445
O O13 0.000000 0.124224 0.048343
O O14 0.500000 0.946482 0.676870
O O15 0.000000 0.216087 0.759868
#
# Coordination Sequence:
#
# PCOD8175253 Si02
#       6
#     8   8   8   8   8   8
#     4  10  20  35  57  82 109 144 183 223 268 317
#     4  10  21  36  56  81 108 139 177 221 266 318
#     4   9  19  36  55  76 106 141 177 218 265 318
#     4  10  21  37  56  79 108 142 180 223 270 319
#     4  10  21  37  56  80 108 139 177 219 266 320
#     4   9  20  37  54  78 111 143 180 224 267 318
#
# _framework density 18.606404999999999
#
# number of rings (size 3 to 8) (size 9 to 14) (size 15 to 20)
#    0.000    2.333    0.000    3.000    0.000    8.667 
#    0.000    3.333    0.000    0.000    0.000    0.000 
#    0.000    0.000    0.000    0.000    0.000    0.000 
#
# Total GULP energy -297667.605533 kJ/mol
# GULP energy per Si atom -12402.816897 kJ/mol
# Density = 1.856406 g / cm^3
# Si number density = 18.606405 Si / 1000 Ang^3
#
#
#
# Elastic Constant Matrix: (Units=GPa)
#
#
# Indices 1 2 3 4 5 6 
#
# 1 40.5087 24.4894 24.7065 0.0000 0.0000 0.0000
# 2 24.4894 76.3400 27.8968 0.0000 0.0000 0.0000
# 3 24.7065 27.8968 64.0784 0.0000 0.0000 0.0000
# 4 0.0000 0.0000 0.0000 38.1915 0.0000 0.0000
# 5 0.0000 0.0000 0.0000 0.0000 32.3863 0.0000
# 6 0.0000 0.0000 0.0000 0.0000 0.0000 34.1591
#
#
#
# Elastic Compliance Matrix: (Units=1/GPa)
#
#
# Indices 1 2 3 4 5 6 
#
# 1 0.035657 -0.007628 -0.010427 0.000000 0.000000 0.000000
# 2 -0.007628 0.017209 -0.004551 0.000000 0.000000 0.000000
# 3 -0.010427 -0.004551 0.021608 0.000000 0.000000 0.000000
# 4 0.000000 0.000000 0.000000 0.026184 0.000000 0.000000
# 5 0.000000 0.000000 0.000000 0.000000 0.030877 0.000000
# 6 0.000000 0.000000 0.000000 0.000000 0.000000 0.029275
#
#
# Mechanical properties :
#
#
# Convention : Reuss Voigt Hill
#
# Bulk Modulus (GPa) = 34.17480 37.23470 35.70475
# Shear Modulus (GPa) = 23.17207 27.86968 25.52088
#
# Velocity S-wave (km/s) = 3.53282 3.87441 3.70755
# Velocity P-wave (km/s) = 5.92015 6.33008 6.12855
#
# Compressibility (1/GPa) = 0.02926133
#
# Stress axis : x y z
#
# Youngs Moduli (GPa) = 28.04475 58.10762 46.28001
#
# Poissons Ratio (x) = 0.44326 0.48257
# Poissons Ratio (y) = 0.21393 0.21062
# Poissons Ratio (z) = 0.29243 0.26445
#
# Static dielectric constant tensor:
#      x y z
#    x 3.406280 0.000000 0.000000 
#    y 0.000000 3.509390 0.000000 
#    z 0.000000 0.000000 3.412440 
# 
# 
# High freq. dielectric constant tensor:
#      x y z
#    x 1.722520 0.000000 0.000000 
#    y 0.000000 1.732630 0.000000 
#    z 0.000000 0.000000 1.718330 
# 
# From -- ./inp_files/2649.got.cif
#   From: 2010.03.12/outbox.cif.g09.slc.cpg/sg36_2_cif.got.tgz:2649.got - 2010.04.14 02:13:53.
