data_PCOD8175963
_publ_section_title
;
Structure prediction by ZEFSAII (Michael W. Deem and Ramdas Pophale) SiO2 
 PCOD8175963
Probable space group: C M C 21
;
_chemical_formula_sum "Si O2"
_cell_formula_units_Z 64
_cell_length_a 22.779092
_cell_length_b 14.296906
_cell_length_c 9.975533
_cell_angle_alpha 90.000000
_cell_angle_beta 90.000000
_cell_angle_gamma 90.000000
_cell_volume 3248.737190
_symmetry_space_group_name_H-M "C M C 21"
_symmetry_group_IT_number 36
_symmetry_cell_setting 'orthorhombic'
loop_
_space_group_symop_operation_xyz
x,y,z
-x,-y,1/2+z
x,-y,1/2+z
-x,y,z
1/2+x,1/2+y,z
1/2-x,1/2-y,1/2+z
1/2+x,1/2-y,1/2+z
1/2-x,1/2+y,z
loop_
_atom_site_type_symbol
_atom_site_label
_atom_site_fract_x
_atom_site_fract_y
_atom_site_fract_z
Si Si1 0.774056 0.695800 0.505860
Si Si2 0.143967 0.225253 0.429223
Si Si3 0.172440 0.405813 0.751808
Si Si4 0.433986 0.418223 0.251713
Si Si5 0.933320 0.713439 0.163943
Si Si6 0.371831 0.477258 0.981216
Si Si7 0.767091 0.895160 0.518845
Si Si8 0.810545 0.387429 0.271201
O O1 0.704752 0.720950 0.512328
O O2 0.792607 0.652572 0.364026
O O3 0.802945 0.797387 0.541245
O O4 0.790375 0.620630 0.617932
O O5 0.090280 0.263103 0.516745
O O6 0.132059 0.117127 0.390071
O O7 0.148224 0.297856 0.305625
O O8 0.108158 0.363418 0.731253
O O9 0.212207 0.405946 0.619008
O O10 0.158158 0.512644 0.793321
O O11 0.500000 0.456064 0.260617
O O12 0.431475 0.306410 0.253204
O O13 0.407706 0.460227 0.115960
O O14 0.400602 0.446458 0.386086
O O15 0.000000 0.674991 0.153522
O O16 0.308381 0.514210 0.030165
O O17 0.746090 0.887459 0.365444
#
# Coordination Sequence:
#
# PCOD8175963 Si02
#       8
#     8   8   8   8   8   8   8   8
#     4  11  23  35  62  92 133 152 200 253 320 365
#     4  10  22  39  59  90 123 165 202 246 304 378
#     4  12  22  40  61  92 123 164 204 258 311 370
#     4  10  23  41  63  90 122 164 213 254 307 378
#     4  10  22  43  66  85 118 171 217 250 297 376
#     4  11  23  36  64  91 126 161 204 255 315 372
#     4  11  23  37  60  93 127 161 198 249 316 380
#     4  11  23  37  60  89 128 160 196 253 308 369
#
# _framework density 19.699960999999998
#
# number of rings (size 3 to 8) (size 9 to 14) (size 15 to 20)
#    0.000    1.250    2.500    4.875    8.750    0.500 
#    0.000    0.625    0.000    0.750    0.000    0.000 
#    0.000    0.000    0.000    0.000    0.000    0.000 
#
# Total GULP energy -396679.548148 kJ/mol
# GULP energy per Si atom -12396.235880 kJ/mol
# Density = 1.965512 g / cm^3
# Si number density = 19.699961 Si / 1000 Ang^3
#
#
#
# Elastic Constant Matrix: (Units=GPa)
#
#
# Indices 1 2 3 4 5 6 
#
# 1 123.0591 47.8834 42.7375 0.0000 0.0000 0.0000
# 2 47.8834 117.7741 32.7855 0.0000 0.0000 0.0000
# 3 42.7375 32.7855 77.9884 0.0000 0.0000 0.0000
# 4 0.0000 0.0000 0.0000 30.7953 0.0000 0.0000
# 5 0.0000 0.0000 0.0000 0.0000 18.9928 0.0000
# 6 0.0000 0.0000 0.0000 0.0000 0.0000 27.9720
#
#
#
# Elastic Compliance Matrix: (Units=1/GPa)
#
#
# Indices 1 2 3 4 5 6 
#
# 1 0.010985 -0.003160 -0.004691 0.000000 0.000000 0.000000
# 2 -0.003160 0.010525 -0.002693 0.000000 0.000000 0.000000
# 3 -0.004691 -0.002693 0.016525 0.000000 0.000000 0.000000
# 4 0.000000 0.000000 0.000000 0.032472 0.000000 0.000000
# 5 0.000000 0.000000 0.000000 0.000000 0.052652 0.000000
# 6 0.000000 0.000000 0.000000 0.000000 0.000000 0.035750
#
#
# Mechanical properties :
#
#
# Convention : Reuss Voigt Hill
#
# Bulk Modulus (GPa) = 59.00808 62.84824 60.92816
# Shear Modulus (GPa) = 26.93273 28.57970 27.75622
#
# Velocity S-wave (km/s) = 3.70151 3.81300 3.75767
# Velocity P-wave (km/s) = 6.94886 7.16640 7.05847
#
# Compressibility (1/GPa) = 0.01694683
#
# Stress axis : x y z
#
# Youngs Moduli (GPa) = 91.03230 95.00874 60.51322
#
# Poissons Ratio (x) = 0.30025 0.28388
# Poissons Ratio (y) = 0.28769 0.16296
# Poissons Ratio (z) = 0.42706 0.25585
#
# Static dielectric constant tensor:
#      x y z
#    x 3.442410 0.000000 0.000000 
#    y 0.000000 4.130760 0.000000 
#    z 0.000000 0.000000 3.410320 
# 
# 
# High freq. dielectric constant tensor:
#      x y z
#    x 1.738340 0.000000 0.000000 
#    y 0.000000 1.791610 0.000000 
#    z 0.000000 0.000000 1.761860 
# 
# From -- ./inp_files/5681.got.cif
#   From: 2010.03.12/outbox.cif.g09.slc.cpg/sg36_3_cif.got.tgz:5681.got - 2010.04.14 02:13:53.
