data_PCOD8175689
_publ_section_title
;
Structure prediction by ZEFSAII (Michael W. Deem and Ramdas Pophale) SiO2 
 PCOD8175689
Probable space group: C M C 21
;
_chemical_formula_sum "Si O2"
_cell_formula_units_Z 56
_cell_length_a 16.221370
_cell_length_b 31.888732
_cell_length_c 5.032425
_cell_angle_alpha 90.000000
_cell_angle_beta 90.000000
_cell_angle_gamma 90.000000
_cell_volume 2603.167372
_symmetry_space_group_name_H-M "C M C 21"
_symmetry_group_IT_number 36
_symmetry_cell_setting 'orthorhombic'
loop_
_space_group_symop_operation_xyz
x,y,z
-x,-y,1/2+z
x,-y,1/2+z
-x,y,z
1/2+x,1/2+y,z
1/2-x,1/2-y,1/2+z
1/2+x,1/2-y,1/2+z
1/2-x,1/2+y,z
loop_
_atom_site_type_symbol
_atom_site_label
_atom_site_fract_x
_atom_site_fract_y
_atom_site_fract_z
Si Si1 0.590677 0.974765 0.774500
Si Si2 0.785240 0.109779 0.559286
Si Si3 0.852824 0.748448 0.564469
Si Si4 0.500000 0.139071 0.026447
Si Si5 0.403468 0.471205 0.050236
Si Si6 0.821807 0.599129 0.071855
Si Si7 0.000000 0.310018 0.031735
Si Si8 0.180811 0.796901 0.065582
O O1 0.500000 0.954229 0.719026
O O2 0.668586 0.947800 0.682693
O O3 0.597532 0.016115 0.588398
O O4 0.850914 0.071855 0.540786
O O5 0.740977 0.120607 0.278673
O O6 0.829889 0.153654 0.628946
O O7 0.715738 0.099759 0.778348
O O8 0.923121 0.716183 0.626240
O O9 0.869222 0.770549 0.283702
O O10 0.774129 0.718620 0.586727
O O11 0.854038 0.786031 0.776973
O O12 0.414379 0.116169 0.088028
O O13 0.500000 0.179550 0.219653
O O14 0.500000 0.148465 0.713006
O O15 0.380911 0.498430 0.307337
O O16 0.500000 0.458466 0.046046
#
# Coordination Sequence:
#
# PCOD8175689 Si02
#       8
#     8   8   8   4   8   8   4   8
#     4  10  21  37  55  77 118 168 207 247 302 348
#     4  12  25  40  67  98 126 166 220 267 317 396
#     4  10  21  39  62  86 124 161 204 250 312 374
#     4  12  24  40  60  89 136 172 212 263 302 356
#     4  10  23  46  71  96 129 167 211 273 351 404
#     4  12  24  39  60  93 129 168 216 259 307 364
#     4  12  24  40  64  95 114 168 218 259 298 374
#     4  10  21  40  61  87 124 166 193 252 322 374
#
# _framework density 21.512253999999999
#
# number of rings (size 3 to 8) (size 9 to 14) (size 15 to 20)
#    0.000    1.143    0.714    6.000    0.000    5.714 
#    2.571    0.000    0.000    0.000    0.000    0.000 
#    0.000    0.000    0.000    0.000    0.000    0.000 
#
# Total GULP energy -347086.740447 kJ/mol
# GULP energy per Si atom -12395.955016 kJ/mol
# Density = 2.146329 g / cm^3
# Si number density = 21.512254 Si / 1000 Ang^3
#
#
#
# Elastic Constant Matrix: (Units=GPa)
#
#
# Indices 1 2 3 4 5 6 
#
# 1 77.6764 35.0095 34.0885 0.0000 0.0000 0.0000
# 2 35.0095 102.4677 15.7136 0.0000 0.0000 0.0000
# 3 34.0885 15.7136 98.8399 0.0000 0.0000 0.0000
# 4 0.0000 0.0000 0.0000 248.2223 0.0000 0.0000
# 5 0.0000 0.0000 0.0000 0.0000 26.1848 0.0000
# 6 0.0000 0.0000 0.0000 0.0000 0.0000 26.0855
#
#
#
# Elastic Compliance Matrix: (Units=1/GPa)
#
#
# Indices 1 2 3 4 5 6 
#
# 1 0.017494 -0.005178 -0.005210 0.000000 0.000000 0.000000
# 2 -0.005178 0.011536 -0.000048 0.000000 0.000000 0.000000
# 3 -0.005210 -0.000048 0.011922 0.000000 0.000000 0.000000
# 4 0.000000 0.000000 0.000000 0.004029 0.000000 0.000000
# 5 0.000000 0.000000 0.000000 0.000000 0.038190 0.000000
# 6 0.000000 0.000000 0.000000 0.000000 0.000000 0.038335
#
#
# Mechanical properties :
#
#
# Convention : Reuss Voigt Hill
#
# Bulk Modulus (GPa) = 49.80349 49.84525 49.82437
# Shear Modulus (GPa) = 33.54077 73.04336 53.29206
#
# Velocity S-wave (km/s) = 3.95289 5.83335 4.98264
# Velocity P-wave (km/s) = 6.63591 8.28201 7.50423
#
# Compressibility (1/GPa) = 0.02007891
#
# Stress axis : x y z
#
# Youngs Moduli (GPa) = 57.16135 86.68707 83.87871
#
# Poissons Ratio (x) = 0.44888 0.43703
# Poissons Ratio (y) = 0.29599 0.00403
# Poissons Ratio (z) = 0.29783 0.00417
#
# Static dielectric constant tensor:
#      x y z
#    x 3.778350 0.000000 0.000000 
#    y 0.000000 3.626820 0.000000 
#    z 0.000000 0.000000 4.020800 
# 
# 
# High freq. dielectric constant tensor:
#      x y z
#    x 1.833830 0.000000 0.000000 
#    y 0.000000 1.842000 0.000000 
#    z 0.000000 0.000000 1.862120 
# 
# From -- ./inp_files/965.got.cif
#   From: 2010.03.12/outbox.cif.g09.slc.cpg/sg36_1_cif.got.tgz:965.got - 2010.04.14 02:13:53.
