data_PCOD8175624
_publ_section_title
;
Structure prediction by ZEFSAII (Michael W. Deem and Ramdas Pophale) SiO2 
 PCOD8175624
Probable space group: C M C 21
;
_chemical_formula_sum "Si O2"
_cell_formula_units_Z 64
_cell_length_a 9.086278
_cell_length_b 28.800460
_cell_length_c 13.809469
_cell_angle_alpha 90.000000
_cell_angle_beta 90.000000
_cell_angle_gamma 90.000000
_cell_volume 3613.785941
_symmetry_space_group_name_H-M "C M C 21"
_symmetry_group_IT_number 36
_symmetry_cell_setting 'orthorhombic'
loop_
_space_group_symop_operation_xyz
x,y,z
-x,-y,1/2+z
x,-y,1/2+z
-x,y,z
1/2+x,1/2+y,z
1/2-x,1/2-y,1/2+z
1/2+x,1/2-y,1/2+z
1/2-x,1/2+y,z
loop_
_atom_site_type_symbol
_atom_site_label
_atom_site_fract_x
_atom_site_fract_y
_atom_site_fract_z
Si Si1 0.830336 0.759434 0.422380
Si Si2 0.171481 0.579098 0.112457
Si Si3 0.170203 0.243616 0.704028
Si Si4 0.827711 0.181048 0.528001
Si Si5 0.166208 0.964502 0.789585
Si Si6 0.165962 0.080400 0.481459
Si Si7 0.826688 0.822788 0.597364
Si Si8 0.829530 0.493947 0.452676
O O1 0.796665 0.774023 0.312281
O O2 0.742245 0.712820 0.445368
O O3 0.783366 0.801648 0.492499
O O4 0.000000 0.747503 0.439056
O O5 0.240785 0.547256 0.195368
O O6 0.249676 0.628202 0.108126
O O7 0.000000 0.585988 0.134977
O O8 0.196609 0.553791 0.009783
O O9 0.211964 0.200938 0.633849
O O10 0.268908 0.288348 0.680575
O O11 0.000000 0.257870 0.690465
O O12 0.765299 0.128778 0.519112
O O13 0.000000 0.180124 0.507704
O O14 0.164594 0.920204 0.863127
O O15 0.000000 0.978641 0.760102
O O16 0.242726 0.007229 0.849384
O O17 0.000000 0.073525 0.521589
O O18 0.266743 0.037244 0.517416
O O19 0.000000 0.829648 0.609840
O O20 0.000000 0.502826 0.432014
#
# Coordination Sequence:
#
# PCOD8175624 Si02
#       8
#     8   8   8   8   8   8   8   8
#     4   9  19  34  50  73 104 136 171 214 261 310
#     4  11  22  36  56  79 107 143 180 219 265 317
#     4   9  18  33  52  73 101 137 175 212 258 316
#     4   9  17  31  51  73 100 133 168 209 256 308
#     4   9  19  34  54  79 105 132 170 216 262 311
#     4   8  17  32  50  75 102 129 167 213 260 309
#     4  10  21  35  52  77 108 139 177 221 264 313
#     4   9  19  35  53  75 105 137 170 216 266 314
#
# _framework density 17.709959000000001
#
# number of rings (size 3 to 8) (size 9 to 14) (size 15 to 20)
#    0.750    2.000    0.000    1.125    1.750    3.500 
#    0.000    1.250    0.000    1.500    0.000    0.000 
#    0.000    0.000    0.000    0.000    0.000    0.000 
#
# Total GULP energy -396616.855386 kJ/mol
# GULP energy per Si atom -12394.276731 kJ/mol
# Density = 1.766965 g / cm^3
# Si number density = 17.709959 Si / 1000 Ang^3
#
#
#
# Elastic Constant Matrix: (Units=GPa)
#
#
# Indices 1 2 3 4 5 6 
#
# 1 82.5657 25.5126 28.7167 0.0000 0.0000 0.0000
# 2 25.5126 42.6024 12.3664 0.0000 0.0000 0.0000
# 3 28.7167 12.3664 77.0399 0.0000 0.0000 0.0000
# 4 0.0000 0.0000 0.0000 17.7874 0.0000 0.0000
# 5 0.0000 0.0000 0.0000 0.0000 25.1507 0.0000
# 6 0.0000 0.0000 0.0000 0.0000 0.0000 27.6592
#
#
#
# Elastic Compliance Matrix: (Units=1/GPa)
#
#
# Indices 1 2 3 4 5 6 
#
# 1 0.016365 -0.008422 -0.004748 0.000000 0.000000 0.000000
# 2 -0.008422 0.028954 -0.001508 0.000000 0.000000 0.000000
# 3 -0.004748 -0.001508 0.014992 0.000000 0.000000 0.000000
# 4 0.000000 0.000000 0.000000 0.056220 0.000000 0.000000
# 5 0.000000 0.000000 0.000000 0.000000 0.039760 0.000000
# 6 0.000000 0.000000 0.000000 0.000000 0.000000 0.036154
#
#
# Mechanical properties :
#
#
# Convention : Reuss Voigt Hill
#
# Bulk Modulus (GPa) = 32.30554 37.26658 34.78606
# Shear Modulus (GPa) = 21.54037 23.16029 22.35033
#
# Velocity S-wave (km/s) = 3.49131 3.62021 3.55635
# Velocity P-wave (km/s) = 5.87651 6.20991 6.04551
#
# Compressibility (1/GPa) = 0.03095445
#
# Stress axis : x y z
#
# Youngs Moduli (GPa) = 61.10417 34.53713 66.70071
#
# Poissons Ratio (x) = 0.29088 0.31672
# Poissons Ratio (y) = 0.51463 0.10061
# Poissons Ratio (z) = 0.29014 0.05209
#
# Static dielectric constant tensor:
#      x y z
#    x 3.329350 0.000000 0.000000 
#    y 0.000000 3.134900 0.000000 
#    z 0.000000 0.000000 3.248340 
# 
# 
# High freq. dielectric constant tensor:
#      x y z
#    x 1.691820 0.000000 0.000000 
#    y 0.000000 1.667520 0.000000 
#    z 0.000000 0.000000 1.674560 
# 
# From -- ./inp_files/11209.got.cif
#   From: 2010.03.12/outbox.cif.g09.slc.cpg/sg36_6_cif.got.tgz:11209.got - 2010.04.14 02:13:53.
