data_PCOD8175173
_publ_section_title
;
Structure prediction by ZEFSAII (Michael W. Deem and Ramdas Pophale) SiO2 
 PCOD8175173
Probable space group: C M C 21
;
_chemical_formula_sum "Si O2"
_cell_formula_units_Z 64
_cell_length_a 8.899008
_cell_length_b 19.945222
_cell_length_c 19.756554
_cell_angle_alpha 90.000000
_cell_angle_beta 90.000000
_cell_angle_gamma 90.000000
_cell_volume 3506.643917
_symmetry_space_group_name_H-M "C M C 21"
_symmetry_group_IT_number 36
_symmetry_cell_setting 'orthorhombic'
loop_
_space_group_symop_operation_xyz
x,y,z
-x,-y,1/2+z
x,-y,1/2+z
-x,y,z
1/2+x,1/2+y,z
1/2-x,1/2-y,1/2+z
1/2+x,1/2-y,1/2+z
1/2-x,1/2+y,z
loop_
_atom_site_type_symbol
_atom_site_label
_atom_site_fract_x
_atom_site_fract_y
_atom_site_fract_z
Si Si1 0.175014 0.079345 0.045290
Si Si2 0.821557 0.976597 0.288562
Si Si3 0.172650 0.192883 0.944020
Si Si4 0.176752 0.973854 0.933654
Si Si5 0.822926 0.339135 0.305206
Si Si6 0.325803 0.206768 0.270975
Si Si7 0.327892 0.839970 0.918486
Si Si8 0.675408 0.920503 0.687704
O O1 0.278160 0.072140 0.110324
O O2 0.000000 0.070384 0.064387
O O3 0.205057 0.152029 0.012172
O O4 0.231123 0.023273 0.992588
O O5 0.751394 0.904412 0.271742
O O6 0.000000 0.970745 0.288105
O O7 0.759099 0.001531 0.361383
O O8 0.771044 0.028015 0.231400
O O9 0.275448 0.166414 0.883457
O O10 0.204035 0.271164 0.959372
O O11 0.000000 0.182493 0.920232
O O12 0.231147 0.899124 0.951202
O O13 0.000000 0.974080 0.929807
O O14 0.770068 0.274395 0.262189
O O15 0.000000 0.345472 0.300057
O O16 0.500000 0.227380 0.273327
O O17 0.279977 0.170334 0.340693
O O18 0.288763 0.155682 0.210476
O O19 0.500000 0.861850 0.923771
O O20 0.500000 0.936678 0.696995
#
# Coordination Sequence:
#
# PCOD8175173 Si02
#       8
#     8   8   8   8   8   8   8   8
#     4  10  21  39  58  79 111 155 197 232 283 349
#     4  11  21  37  59  83 115 154 192 235 289 343
#     4   9  18  36  56  78 111 150 187 226 282 341
#     4  10  20  34  56  83 112 147 190 233 278 339
#     4  11  21  32  55  88 115 141 187 240 282 329
#     4   9  19  36  55  78 113 150 183 227 286 342
#     4   9  17  31  55  82 109 141 180 233 286 326
#     4  11  23  39  58  85 116 150 194 240 288 345
#
# _framework density 18.251069000000001
#
# number of rings (size 3 to 8) (size 9 to 14) (size 15 to 20)
#    0.000    2.000    2.500    2.625    0.000    4.500 
#    0.000    1.250    0.000    6.000    0.000    0.000 
#    0.000    0.000    0.000    0.000    0.000    0.000 
#
# Total GULP energy -396867.256362 kJ/mol
# GULP energy per Si atom -12402.101761 kJ/mol
# Density = 1.820953 g / cm^3
# Si number density = 18.251069 Si / 1000 Ang^3
#
#
#
# Elastic Constant Matrix: (Units=GPa)
#
#
# Indices 1 2 3 4 5 6 
#
# 1 72.1265 51.3026 34.9153 0.0000 0.0000 0.0000
# 2 51.3026 136.6578 55.7376 0.0000 0.0000 0.0000
# 3 34.9153 55.7376 93.5110 0.0000 0.0000 0.0000
# 4 0.0000 0.0000 0.0000 26.1892 0.0000 0.0000
# 5 0.0000 0.0000 0.0000 0.0000 25.9891 0.0000
# 6 0.0000 0.0000 0.0000 0.0000 0.0000 33.4038
#
#
#
# Elastic Compliance Matrix: (Units=1/GPa)
#
#
# Indices 1 2 3 4 5 6 
#
# 1 0.019960 -0.005884 -0.003945 0.000000 0.000000 0.000000
# 2 -0.005884 0.011402 -0.004600 0.000000 0.000000 0.000000
# 3 -0.003945 -0.004600 0.014909 0.000000 0.000000 0.000000
# 4 0.000000 0.000000 0.000000 0.038184 0.000000 0.000000
# 5 0.000000 0.000000 0.000000 0.000000 0.038478 0.000000
# 6 0.000000 0.000000 0.000000 0.000000 0.000000 0.029937
#
#
# Mechanical properties :
#
#
# Convention : Reuss Voigt Hill
#
# Bulk Modulus (GPa) = 57.42840 65.13402 61.28121
# Shear Modulus (GPa) = 26.66236 27.80576 27.23406
#
# Velocity S-wave (km/s) = 3.82627 3.90746 3.86708
# Velocity P-wave (km/s) = 7.14525 7.49152 7.32043
#
# Compressibility (1/GPa) = 0.01741299
#
# Stress axis : x y z
#
# Youngs Moduli (GPa) = 50.10145 87.70134 67.07508
#
# Poissons Ratio (x) = 0.51601 0.26464
# Poissons Ratio (y) = 0.29478 0.30851
# Poissons Ratio (z) = 0.19767 0.40338
#
# Static dielectric constant tensor:
#      x y z
#    x 3.244730 0.000000 0.000000 
#    y 0.000000 3.624970 0.000000 
#    z 0.000000 0.000000 3.151780 
# 
# 
# High freq. dielectric constant tensor:
#      x y z
#    x 1.703810 0.000000 0.000000 
#    y 0.000000 1.723010 0.000000 
#    z 0.000000 0.000000 1.676940 
# 
# From -- ./inp_files/13930.got.cif
#   From: 2010.03.12/outbox.cif.g09.slc.cpg/sg36_7_cif.got.tgz:13930.got - 2010.04.14 02:13:53.
