data_PCOD8175238
_publ_section_title
;
Structure prediction by ZEFSAII (Michael W. Deem and Ramdas Pophale) SiO2 
 PCOD8175238
Probable space group: C M C 21
;
_chemical_formula_sum "Si O2"
_cell_formula_units_Z 64
_cell_length_a 8.903456
_cell_length_b 19.951577
_cell_length_c 19.552036
_cell_angle_alpha 90.000000
_cell_angle_beta 90.000000
_cell_angle_gamma 90.000000
_cell_volume 3473.184335
_symmetry_space_group_name_H-M "C M C 21"
_symmetry_group_IT_number 36
_symmetry_cell_setting 'orthorhombic'
loop_
_space_group_symop_operation_xyz
x,y,z
-x,-y,1/2+z
x,-y,1/2+z
-x,y,z
1/2+x,1/2+y,z
1/2-x,1/2-y,1/2+z
1/2+x,1/2-y,1/2+z
1/2-x,1/2+y,z
loop_
_atom_site_type_symbol
_atom_site_label
_atom_site_fract_x
_atom_site_fract_y
_atom_site_fract_z
Si Si1 0.177016 0.321915 0.507980
Si Si2 0.825912 0.075233 0.107191
Si Si3 0.674013 0.938264 0.108344
Si Si4 0.171011 0.324722 0.856066
Si Si5 0.324347 0.328931 0.365751
Si Si6 0.326651 0.431150 0.765457
Si Si7 0.173188 0.317840 0.012026
Si Si8 0.173743 0.431935 0.266824
O O1 0.229304 0.370041 0.568241
O O2 0.245238 0.347698 0.436752
O O3 0.227671 0.247097 0.526699
O O4 0.000000 0.324135 0.501845
O O5 0.793933 0.086858 0.187052
O O6 0.000000 0.083412 0.088554
O O7 0.772799 0.001321 0.085216
O O8 0.500000 0.955669 0.095436
O O9 0.726902 0.875574 0.063254
O O10 0.703731 0.919848 0.186942
O O11 0.212452 0.247143 0.844747
O O12 0.283596 0.367413 0.810481
O O13 0.000000 0.339207 0.833556
O O14 0.195603 0.344306 0.935072
O O15 0.500000 0.339257 0.377085
O O16 0.266909 0.375909 0.305781
O O17 0.500000 0.449107 0.776869
O O18 0.229125 0.494654 0.789256
O O19 0.000000 0.297852 0.024408
O O20 0.000000 0.425261 0.286188
#
# Coordination Sequence:
#
# PCOD8175238 Si02
#       8
#     8   8   8   8   8   8   8   8
#     4  11  22  36  56  81 108 139 178 221 265 317
#     4  10  21  37  55  77 108 144 181 222 268 317
#     4   9  19  36  57  80 108 142 180 223 268 316
#     4   9  19  35  55  78 107 141 175 220 271 317
#     4  10  21  38  57  78 108 142 176 218 268 320
#     4  10  21  36  55  78 107 144 183 223 266 316
#     4   9  19  37  57  79 109 141 174 216 268 319
#     4  10  20  35  56  81 109 141 179 223 268 316
#
# _framework density 18.426894000000001
#
# number of rings (size 3 to 8) (size 9 to 14) (size 15 to 20)
#    0.000    2.250    0.000    3.375    0.000    7.000 
#    0.000    7.500    0.000    0.000    0.000    0.000 
#    0.000    0.000    0.000    0.000    0.000    0.000 
#
# Total GULP energy -396952.015562 kJ/mol
# GULP energy per Si atom -12404.750486 kJ/mol
# Density = 1.838495 g / cm^3
# Si number density = 18.426894 Si / 1000 Ang^3
#
#
#
# Elastic Constant Matrix: (Units=GPa)
#
#
# Indices 1 2 3 4 5 6 
#
# 1 99.8381 57.7303 47.9571 0.0000 0.0000 0.0000
# 2 57.7303 105.4197 68.6861 0.0000 0.0000 0.0000
# 3 47.9571 68.6861 80.8992 0.0000 0.0000 0.0000
# 4 0.0000 0.0000 0.0000 36.3977 0.0000 0.0000
# 5 0.0000 0.0000 0.0000 0.0000 31.1065 0.0000
# 6 0.0000 0.0000 0.0000 0.0000 0.0000 37.0827
#
#
#
# Elastic Compliance Matrix: (Units=1/GPa)
#
#
# Indices 1 2 3 4 5 6 
#
# 1 0.015322 -0.005534 -0.004384 0.000000 0.000000 0.000000
# 2 -0.005534 0.023229 -0.016442 0.000000 0.000000 0.000000
# 3 -0.004384 -0.016442 0.028919 0.000000 0.000000 0.000000
# 4 0.000000 0.000000 0.000000 0.027474 0.000000 0.000000
# 5 0.000000 0.000000 0.000000 0.000000 0.032148 0.000000
# 6 0.000000 0.000000 0.000000 0.000000 0.000000 0.026967
#
#
# Mechanical properties :
#
#
# Convention : Reuss Voigt Hill
#
# Bulk Modulus (GPa) = 67.79350 70.54487 69.16919
# Shear Modulus (GPa) = 23.61871 28.36962 25.99416
#
# Velocity S-wave (km/s) = 3.58404 3.92800 3.75996
# Velocity P-wave (km/s) = 7.34830 7.67717 7.51454
#
# Compressibility (1/GPa) = 0.01475068
#
# Stress axis : x y z
#
# Youngs Moduli (GPa) = 65.26408 43.04954 34.57878
#
# Poissons Ratio (x) = 0.23825 0.15160
# Poissons Ratio (y) = 0.36119 0.56853
# Poissons Ratio (z) = 0.28614 0.70780
#
# Static dielectric constant tensor:
#      x y z
#    x 3.422460 0.000000 0.000000 
#    y 0.000000 3.373550 0.000000 
#    z 0.000000 0.000000 3.378310 
# 
# 
# High freq. dielectric constant tensor:
#      x y z
#    x 1.722540 0.000000 0.000000 
#    y 0.000000 1.717200 0.000000 
#    z 0.000000 0.000000 1.714070 
# 
# From -- ./inp_files/13801.got.cif
#   From: 2010.03.12/outbox.cif.g09.slc.cpg/sg36_7_cif.got.tgz:13801.got - 2010.04.14 02:13:53.
