data_PCOD8175041
_publ_section_title
;
Structure prediction by ZEFSAII (Michael W. Deem and Ramdas Pophale) SiO2 
 PCOD8175041
Probable space group: C M C 21
;
_chemical_formula_sum "Si O2"
_cell_formula_units_Z 28
_cell_length_a 17.376803
_cell_length_b 15.956668
_cell_length_c 4.832079
_cell_angle_alpha 90.000000
_cell_angle_beta 90.000000
_cell_angle_gamma 90.000000
_cell_volume 1339.818939
_symmetry_space_group_name_H-M "C M C 21"
_symmetry_group_IT_number 36
_symmetry_cell_setting 'orthorhombic'
loop_
_space_group_symop_operation_xyz
x,y,z
-x,-y,1/2+z
x,-y,1/2+z
-x,y,z
1/2+x,1/2+y,z
1/2-x,1/2-y,1/2+z
1/2+x,1/2-y,1/2+z
1/2-x,1/2+y,z
loop_
_atom_site_type_symbol
_atom_site_label
_atom_site_fract_x
_atom_site_fract_y
_atom_site_fract_z
Si Si1 0.791628 0.715511 0.140820
Si Si2 0.500000 0.556134 0.792287
Si Si3 0.914710 0.167762 0.422695
Si Si4 0.292193 0.441995 0.630305
O O1 0.778187 0.755601 0.440656
O O2 0.785510 0.614297 0.165430
O O3 0.873271 0.746567 0.020166
O O4 0.500000 0.467081 0.617469
O O5 0.424504 0.607910 0.695415
O O6 0.865274 0.117243 0.197518
O O7 0.000000 0.190450 0.299252
O O8 0.292908 0.475328 0.318618
#
# Coordination Sequence:
#
# PCOD8175041 Si02
#       4
#     8   4   8   8
#     4  10  21  39  56  81 116 160 204 234 293 367
#     4  10  20  32  50  82 116 140 176 226 294 350
#     4   9  21  37  57  84 118 155 188 242 299 362
#     4  11  21  35  57  83 115 151 192 246 292 347
#
# _framework density 20.898346
#
# number of rings (size 3 to 8) (size 9 to 14) (size 15 to 20)
#    0.857    1.143    0.000    5.143    0.000    4.571 
#    0.000    0.000    0.000    1.714    0.000    0.000 
#    0.000    0.000    0.000    0.000    0.000    0.000 
#
# Total GULP energy -173467.058561 kJ/mol
# GULP energy per Si atom -12390.504183 kJ/mol
# Density = 2.085078 g / cm^3
# Si number density = 20.898346 Si / 1000 Ang^3
#
#
#
# Elastic Constant Matrix: (Units=GPa)
#
#
# Indices 1 2 3 4 5 6 
#
# 1 103.4356 71.2404 -2.9101 0.0000 0.0000 0.0000
# 2 71.2404 93.3068 9.9167 0.0000 0.0000 0.0000
# 3 -2.9101 9.9167 51.7103 0.0000 0.0000 0.0000
# 4 0.0000 0.0000 0.0000 29.8912 0.0000 0.0000
# 5 0.0000 0.0000 0.0000 0.0000 22.5850 0.0000
# 6 0.0000 0.0000 0.0000 0.0000 0.0000 41.3358
#
#
#
# Elastic Compliance Matrix: (Units=1/GPa)
#
#
# Indices 1 2 3 4 5 6 
#
# 1 0.021334 -0.016758 0.004414 0.000000 0.000000 0.000000
# 2 -0.016758 0.024103 -0.005565 0.000000 0.000000 0.000000
# 3 0.004414 -0.005565 0.020654 0.000000 0.000000 0.000000
# 4 0.000000 0.000000 0.000000 0.033455 0.000000 0.000000
# 5 0.000000 0.000000 0.000000 0.000000 0.044277 0.000000
# 6 0.000000 0.000000 0.000000 0.000000 0.000000 0.024192
#
#
# Mechanical properties :
#
#
# Convention : Reuss Voigt Hill
#
# Bulk Modulus (GPa) = 33.03196 44.99410 39.01303
# Shear Modulus (GPa) = 23.37278 30.10944 26.74111
#
# Velocity S-wave (km/s) = 3.34788 3.79985 3.58100
# Velocity P-wave (km/s) = 5.54840 6.38972 5.98386
#
# Compressibility (1/GPa) = 0.03027371
#
# Stress axis : x y z
#
# Youngs Moduli (GPa) = 46.87422 41.48796 48.41623
#
# Poissons Ratio (x) = 0.69524 -0.21372
# Poissons Ratio (y) = 0.78550 0.26946
# Poissons Ratio (z) = -0.20692 0.23090
#
# Static dielectric constant tensor:
#      x y z
#    x 3.729160 0.000000 0.000000 
#    y 0.000000 3.793850 0.000000 
#    z 0.000000 0.000000 3.686050 
# 
# 
# High freq. dielectric constant tensor:
#      x y z
#    x 1.785030 0.000000 0.000000 
#    y 0.000000 1.799230 0.000000 
#    z 0.000000 0.000000 1.835830 
# 
# From -- ./inp_files/1272.got.cif
#   From: 2010.03.12/outbox.cif.g09.slc.cpg/sg36_1_cif.got.tgz:1272.got - 2010.04.14 02:13:53.
