data_PCOD8175466
_publ_section_title
;
Structure prediction by ZEFSAII (Michael W. Deem and Ramdas Pophale) SiO2 
 PCOD8175466
Probable space group: C M C 21
;
_chemical_formula_sum "Si O2"
_cell_formula_units_Z 64
_cell_length_a 8.669651
_cell_length_b 24.371772
_cell_length_c 14.855972
_cell_angle_alpha 90.000000
_cell_angle_beta 90.000000
_cell_angle_gamma 90.000000
_cell_volume 3138.989001
_symmetry_space_group_name_H-M "C M C 21"
_symmetry_group_IT_number 36
_symmetry_cell_setting 'orthorhombic'
loop_
_space_group_symop_operation_xyz
x,y,z
-x,-y,1/2+z
x,-y,1/2+z
-x,y,z
1/2+x,1/2+y,z
1/2-x,1/2-y,1/2+z
1/2+x,1/2-y,1/2+z
1/2-x,1/2+y,z
loop_
_atom_site_type_symbol
_atom_site_label
_atom_site_fract_x
_atom_site_fract_y
_atom_site_fract_z
Si Si1 0.325118 0.252276 0.171620
Si Si2 0.680308 0.137284 0.670636
Si Si3 0.680819 0.867570 0.660372
Si Si4 0.676932 0.133214 0.463741
Si Si5 0.323773 0.627875 0.966256
Si Si6 0.173770 0.247813 0.988119
Si Si7 0.819141 0.444982 0.319750
Si Si8 0.678947 0.562673 0.313425
O O1 0.500000 0.265397 0.195885
O O2 0.229055 0.303334 0.210816
O O3 0.277438 0.191487 0.206731
O O4 0.303062 0.249021 0.064369
O O5 0.500000 0.134942 0.677054
O O6 0.734361 0.129168 0.567533
O O7 0.745365 0.088634 0.733349
O O8 0.500000 0.869772 0.636236
O O9 0.779607 0.877181 0.570827
O O10 0.720504 0.914446 0.731401
O O11 0.500000 0.113264 0.454366
O O12 0.692818 0.196652 0.429093
O O13 0.785272 0.094600 0.405445
O O14 0.500000 0.608074 0.954149
O O15 0.306377 0.691435 0.932247
O O16 0.209550 0.590505 0.909051
O O17 0.000000 0.249245 0.031432
O O18 0.720829 0.499718 0.327200
O O19 0.000000 0.458665 0.312653
O O20 0.500000 0.569108 0.290515
#
# Coordination Sequence:
#
# PCOD8175466 Si02
#       8
#     8   8   8   8   8   8   8   8
#     4   9  17  30  55  88 118 146 182 227 279 339
#     4   9  20  38  61  86 114 149 188 230 283 341
#     4  10  21  39  61  86 117 155 191 228 282 346
#     4   9  18  37  61  85 115 151 187 229 284 346
#     4  10  20  37  61  90 120 150 186 234 286 336
#     4   8  16  32  56  84 117 151 183 223 278 341
#     4  11  24  42  60  81 112 153 198 241 285 344
#     4  12  26  41  57  82 113 149 197 250 291 333
#
# _framework density 20.388729999999999
#
# number of rings (size 3 to 8) (size 9 to 14) (size 15 to 20)
#    0.000    2.250    0.000    3.375    0.000    7.000 
#    0.000    7.500    0.000    0.000    0.000    0.000 
#    0.000    0.000    0.000    0.000    0.000    0.000 
#
# Total GULP energy -396655.799848 kJ/mol
# GULP energy per Si atom -12395.493745 kJ/mol
# Density = 2.034232 g / cm^3
# Si number density = 20.388730 Si / 1000 Ang^3
#
#
#
# Elastic Constant Matrix: (Units=GPa)
#
#
# Indices 1 2 3 4 5 6 
#
# 1 48.8286 26.2301 15.7456 0.0000 0.0000 0.0000
# 2 26.2301 138.2195 44.9177 0.0000 0.0000 0.0000
# 3 15.7456 44.9177 71.7916 0.0000 0.0000 0.0000
# 4 0.0000 0.0000 0.0000 37.4837 0.0000 0.0000
# 5 0.0000 0.0000 0.0000 0.0000 25.7387 0.0000
# 6 0.0000 0.0000 0.0000 0.0000 0.0000 28.5752
#
#
#
# Elastic Compliance Matrix: (Units=1/GPa)
#
#
# Indices 1 2 3 4 5 6 
#
# 1 0.023289 -0.003464 -0.002941 0.000000 0.000000 0.000000
# 2 -0.003464 0.009597 -0.005245 0.000000 0.000000 0.000000
# 3 -0.002941 -0.005245 0.017855 0.000000 0.000000 0.000000
# 4 0.000000 0.000000 0.000000 0.026678 0.000000 0.000000
# 5 0.000000 0.000000 0.000000 0.000000 0.038852 0.000000
# 6 0.000000 0.000000 0.000000 0.000000 0.000000 0.034995
#
#
# Mechanical properties :
#
#
# Convention : Reuss Voigt Hill
#
# Bulk Modulus (GPa) = 36.43936 48.06960 42.25448
# Shear Modulus (GPa) = 27.21649 29.82260 28.51954
#
# Velocity S-wave (km/s) = 3.65756 3.82868 3.74410
# Velocity P-wave (km/s) = 5.97897 6.57060 6.28175
#
# Compressibility (1/GPa) = 0.02744285
#
# Stress axis : x y z
#
# Youngs Moduli (GPa) = 42.93902 104.20396 56.00527
#
# Poissons Ratio (x) = 0.36096 0.16468
# Poissons Ratio (y) = 0.14874 0.29372
# Poissons Ratio (z) = 0.12626 0.54650
#
# Static dielectric constant tensor:
#      x y z
#    x 3.565970 0.000000 0.000000 
#    y 0.000000 2.972830 0.000000 
#    z 0.000000 0.000000 3.531840 
# 
# 
# High freq. dielectric constant tensor:
#      x y z
#    x 1.792160 0.000000 0.000000 
#    y 0.000000 1.806440 0.000000 
#    z 0.000000 0.000000 1.774270 
# 
# From -- ./inp_files/11088.got.cif
#   From: 2010.03.12/outbox.cif.g09.slc.cpg/sg36_6_cif.got.tgz:11088.got - 2010.04.14 02:13:53.
