data_PCOD8175645
_publ_section_title
;
Structure prediction by ZEFSAII (Michael W. Deem and Ramdas Pophale) SiO2 
 PCOD8175645
Probable space group: C M C 21
;
_chemical_formula_sum "Si O2"
_cell_formula_units_Z 48
_cell_length_a 8.827014
_cell_length_b 30.928918
_cell_length_c 9.418879
_cell_angle_alpha 90.000000
_cell_angle_beta 90.000000
_cell_angle_gamma 90.000000
_cell_volume 2571.448082
_symmetry_space_group_name_H-M "C M C 21"
_symmetry_group_IT_number 36
_symmetry_cell_setting 'orthorhombic'
loop_
_space_group_symop_operation_xyz
x,y,z
-x,-y,1/2+z
x,-y,1/2+z
-x,y,z
1/2+x,1/2+y,z
1/2-x,1/2-y,1/2+z
1/2+x,1/2-y,1/2+z
1/2-x,1/2+y,z
loop_
_atom_site_type_symbol
_atom_site_label
_atom_site_fract_x
_atom_site_fract_y
_atom_site_fract_z
Si Si1 0.321679 0.705979 0.822170
Si Si2 0.820578 0.713905 0.514853
Si Si3 0.820251 0.363619 0.821714
Si Si4 0.678199 0.132346 0.999024
Si Si5 0.319269 0.958811 0.837689
Si Si6 0.178865 0.464422 0.523929
O O1 0.500000 0.705169 0.802502
O O2 0.250525 0.715123 0.669649
O O3 0.270742 0.743257 0.931012
O O4 0.266029 0.660655 0.884327
O O5 0.755011 0.673260 0.425048
O O6 0.000000 0.710480 0.530764
O O7 0.763760 0.357252 0.659163
O O8 0.768256 0.410392 0.883458
O O9 0.000000 0.361323 0.817091
O O10 0.500000 0.141558 0.985754
O O11 0.716634 0.082613 0.958810
O O12 0.500000 0.961279 0.837575
O O13 0.254460 0.967684 0.681410
O O14 0.247452 0.996057 0.936215
O O15 0.000000 0.470396 0.528670
#
# Coordination Sequence:
#
# PCOD8175645 Si02
#       6
#     8   8   8   8   8   8
#     4  11  23  36  52  76 102 128 162 203 244 290
#     4  10  21  36  53  73  98 130 164 200 247 295
#     4   8  15  29  49  72  99 130 164 205 249 292
#     4   9  17  32  52  73 101 135 167 200 243 292
#     4   8  13  22  38  66 100 126 155 199 246 287
#     4   8  14  23  39  66  98 129 158 195 243 288
#
# _framework density 18.666523999999999
#
# number of rings (size 3 to 8) (size 9 to 14) (size 15 to 20)
#    0.000    3.000    0.000    3.500    0.000    4.000 
#    0.000    5.833    0.000    0.000    0.000   10.500 
#    0.000    0.000    0.000    0.000    0.000    0.000 
#
# Total GULP energy -297456.899638 kJ/mol
# GULP energy per Si atom -12394.037485 kJ/mol
# Density = 1.862404 g / cm^3
# Si number density = 18.666524 Si / 1000 Ang^3
#
#
#
# Elastic Constant Matrix: (Units=GPa)
#
#
# Indices 1 2 3 4 5 6 
#
# 1 19.0522 20.9295 22.4199 0.0000 0.0000 0.0000
# 2 20.9295 122.6008 53.7302 0.0000 0.0000 0.0000
# 3 22.4199 53.7302 97.6395 0.0000 0.0000 0.0000
# 4 0.0000 0.0000 0.0000 43.1716 0.0000 0.0000
# 5 0.0000 0.0000 0.0000 0.0000 20.1189 0.0000
# 6 0.0000 0.0000 0.0000 0.0000 0.0000 16.1772
#
#
#
# Elastic Compliance Matrix: (Units=1/GPa)
#
#
# Indices 1 2 3 4 5 6 
#
# 1 0.076274 -0.007044 -0.013638 0.000000 0.000000 0.000000
# 2 -0.007044 0.011399 -0.004656 0.000000 0.000000 0.000000
# 3 -0.013638 -0.004656 0.015935 0.000000 0.000000 0.000000
# 4 0.000000 0.000000 0.000000 0.023163 0.000000 0.000000
# 5 0.000000 0.000000 0.000000 0.000000 0.049704 0.000000
# 6 0.000000 0.000000 0.000000 0.000000 0.000000 0.061815
#
#
# Mechanical properties :
#
#
# Convention : Reuss Voigt Hill
#
# Bulk Modulus (GPa) = 18.89153 48.16131 33.52642
# Shear Modulus (GPa) = 16.30733 25.37441 20.84087
#
# Velocity S-wave (km/s) = 2.95890 3.69094 3.34501
# Velocity P-wave (km/s) = 4.67076 6.63483 5.73746
#
# Compressibility (1/GPa) = 0.05293376
#
# Stress axis : x y z
#
# Youngs Moduli (GPa) = 13.11066 87.72403 62.75466
#
# Poissons Ratio (x) = 0.61795 0.85582
# Poissons Ratio (y) = 0.09235 0.29215
# Poissons Ratio (z) = 0.17880 0.40840
#
# Static dielectric constant tensor:
#      x y z
#    x 2.832180 0.000000 0.000000 
#    y 0.000000 3.857580 0.000000 
#    z 0.000000 0.000000 3.600360 
# 
# 
# High freq. dielectric constant tensor:
#      x y z
#    x 1.663770 0.000000 0.000000 
#    y 0.000000 1.744020 0.000000 
#    z 0.000000 0.000000 1.725440 
# 
# From -- ./inp_files/2688.got.cif
#   From: 2010.03.12/outbox.cif.g09.slc.cpg/sg36_2_cif.got.tgz:2688.got - 2010.04.14 02:13:53.
