data_PCOD8175621
_publ_section_title
;
Structure prediction by ZEFSAII (Michael W. Deem and Ramdas Pophale) SiO2 
 PCOD8175621
Probable space group: C M C 21
;
_chemical_formula_sum "Si O2"
_cell_formula_units_Z 48
_cell_length_a 9.008565
_cell_length_b 24.002291
_cell_length_c 11.944529
_cell_angle_alpha 90.000000
_cell_angle_beta 90.000000
_cell_angle_gamma 90.000000
_cell_volume 2582.720100
_symmetry_space_group_name_H-M "C M C 21"
_symmetry_group_IT_number 36
_symmetry_cell_setting 'orthorhombic'
loop_
_space_group_symop_operation_xyz
x,y,z
-x,-y,1/2+z
x,-y,1/2+z
-x,y,z
1/2+x,1/2+y,z
1/2-x,1/2-y,1/2+z
1/2+x,1/2-y,1/2+z
1/2-x,1/2+y,z
loop_
_atom_site_type_symbol
_atom_site_label
_atom_site_fract_x
_atom_site_fract_y
_atom_site_fract_z
Si Si1 0.826930 0.834887 0.699200
Si Si2 0.174264 0.141237 0.454673
Si Si3 0.674352 0.889700 0.288837
Si Si4 0.176341 0.418370 0.531514
Si Si5 0.174971 0.710674 0.639129
Si Si6 0.324341 0.043465 0.576436
O O1 0.786718 0.845575 0.827254
O O2 0.736824 0.877740 0.625112
O O3 0.775117 0.772788 0.668034
O O4 0.000000 0.843040 0.675585
O O5 0.241373 0.191370 0.527694
O O6 0.246632 0.082010 0.484083
O O7 0.000000 0.138341 0.476662
O O8 0.500000 0.893296 0.303587
O O9 0.745009 0.901063 0.410688
O O10 0.721988 0.829011 0.243084
O O11 0.725860 0.936823 0.200311
O O12 0.230196 0.480671 0.559142
O O13 0.000000 0.414784 0.532813
O O14 0.000000 0.705367 0.617444
O O15 0.500000 0.050004 0.560267
#
# Coordination Sequence:
#
# PCOD8175621 Si02
#       6
#     8   8   8   8   8   8
#     4  10  23  38  54  81 117 148 177 224 282 326
#     4  10  21  37  58  83 111 145 182 225 277 329
#     4   8  16  33  55  79 106 139 178 224 272 313
#     4  10  21  34  58  86 108 143 188 227 265 324
#     4   9  19  38  59  77 109 150 182 222 275 327
#     4   9  19  36  58  82 111 145 183 226 273 325
#
# _framework density 18.585056999999999
#
# number of rings (size 3 to 8) (size 9 to 14) (size 15 to 20)
#    0.000    2.667    0.000    1.500    4.667    2.667 
#    0.000    3.333    0.000    0.000    0.000    0.000 
#    0.000    0.000    0.000    0.000    0.000    0.000 
#
# Total GULP energy -297601.422198 kJ/mol
# GULP energy per Si atom -12400.059258 kJ/mol
# Density = 1.854276 g / cm^3
# Si number density = 18.585057 Si / 1000 Ang^3
#
#
#
# Elastic Constant Matrix: (Units=GPa)
#
#
# Indices 1 2 3 4 5 6 
#
# 1 37.0787 45.3944 45.7065 0.0000 0.0000 0.0000
# 2 45.3944 183.8056 92.8791 0.0000 0.0000 0.0000
# 3 45.7065 92.8791 139.4839 0.0000 0.0000 0.0000
# 4 0.0000 0.0000 0.0000 23.8235 0.0000 0.0000
# 5 0.0000 0.0000 0.0000 0.0000 27.0783 0.0000
# 6 0.0000 0.0000 0.0000 0.0000 0.0000 23.6833
#
#
#
# Elastic Compliance Matrix: (Units=1/GPa)
#
#
# Indices 1 2 3 4 5 6 
#
# 1 0.049342 -0.006052 -0.012139 0.000000 0.000000 0.000000
# 2 -0.006052 0.008942 -0.003971 0.000000 0.000000 0.000000
# 3 -0.012139 -0.003971 0.013791 0.000000 0.000000 0.000000
# 4 0.000000 0.000000 0.000000 0.041975 0.000000 0.000000
# 5 0.000000 0.000000 0.000000 0.000000 0.036930 0.000000
# 6 0.000000 0.000000 0.000000 0.000000 0.000000 0.042224
#
#
# Mechanical properties :
#
#
# Convention : Reuss Voigt Hill
#
# Bulk Modulus (GPa) = 36.03386 80.92536 58.47961
# Shear Modulus (GPa) = 20.26107 26.67623 23.46865
#
# Velocity S-wave (km/s) = 3.30537 3.79272 3.55740
# Velocity P-wave (km/s) = 5.83078 7.92575 6.95757
#
# Compressibility (1/GPa) = 0.02775167
#
# Stress axis : x y z
#
# Youngs Moduli (GPa) = 20.26653 111.83415 72.51096
#
# Poissons Ratio (x) = 0.67686 0.88018
# Poissons Ratio (y) = 0.12266 0.28793
# Poissons Ratio (z) = 0.24601 0.44408
#
# Static dielectric constant tensor:
#      x y z
#    x 3.164230 0.000000 0.000000 
#    y 0.000000 3.596610 0.000000 
#    z 0.000000 0.000000 3.603570 
# 
# 
# High freq. dielectric constant tensor:
#      x y z
#    x 1.696290 0.000000 0.000000 
#    y 0.000000 1.731890 0.000000 
#    z 0.000000 0.000000 1.730760 
# 
# From -- ./inp_files/6701.got.cif
#   From: 2010.03.12/outbox.cif.g09.slc.cpg/sg36_4_cif.got.tgz:6701.got - 2010.04.14 02:13:53.
