data_PCOD8175605
_publ_section_title
;
Structure prediction by ZEFSAII (Michael W. Deem and Ramdas Pophale) SiO2 
 PCOD8175605
Probable space group: C M C 21
;
_chemical_formula_sum "Si O2"
_cell_formula_units_Z 64
_cell_length_a 9.068362
_cell_length_b 23.727849
_cell_length_c 15.045313
_cell_angle_alpha 90.000000
_cell_angle_beta 90.000000
_cell_angle_gamma 90.000000
_cell_volume 3237.340985
_symmetry_space_group_name_H-M "C M C 21"
_symmetry_group_IT_number 36
_symmetry_cell_setting 'orthorhombic'
loop_
_space_group_symop_operation_xyz
x,y,z
-x,-y,1/2+z
x,-y,1/2+z
-x,y,z
1/2+x,1/2+y,z
1/2-x,1/2-y,1/2+z
1/2+x,1/2-y,1/2+z
1/2-x,1/2+y,z
loop_
_atom_site_type_symbol
_atom_site_label
_atom_site_fract_x
_atom_site_fract_y
_atom_site_fract_z
Si Si1 0.336089 0.740665 0.489130
Si Si2 0.327913 0.726162 0.820518
Si Si3 0.672112 0.003981 0.813485
Si Si4 0.175044 0.928611 0.670341
Si Si5 0.335472 0.377413 0.065839
Si Si6 0.671933 0.809289 0.666606
Si Si7 0.330967 0.874265 0.240393
Si Si8 0.171954 0.001012 0.498038
O O1 0.500000 0.759262 0.457126
O O2 0.211213 0.756063 0.419558
O O3 0.332249 0.673268 0.496333
O O4 0.298151 0.770653 0.581434
O O5 0.500000 0.718540 0.809146
O O6 0.271675 0.773258 0.751031
O O7 0.256758 0.665282 0.807274
O O8 0.500000 0.988712 0.820175
O O9 0.754465 0.954766 0.759567
O O10 0.734885 0.014932 0.911660
O O11 0.701101 0.060955 0.760220
O O12 0.231984 0.865363 0.658887
O O13 0.000000 0.928971 0.682424
O O14 0.222240 0.963488 0.582399
O O15 0.500000 0.383929 0.107513
O O16 0.219410 0.362088 0.140962
O O17 0.289704 0.434157 0.016356
O O18 0.500000 0.825483 0.675695
O O19 0.500000 0.858380 0.250564
O O20 0.000000 0.991555 0.477790
#
# Coordination Sequence:
#
# PCOD8175605 Si02
#       8
#     8   8   8   8   8   8   8   8
#     4  10  22  41  64  91 123 161 203 253 312 366
#     4  11  24  42  64  91 123 164 207 253 307 363
#     4  11  25  42  63  92 126 165 206 252 309 368
#     4  11  24  42  65  92 125 164 207 256 307 363
#     4  10  20  41  67  90 120 157 202 259 314 363
#     4  10  23  43  63  87 126 167 202 248 311 369
#     4  11  23  40  64  93 122 159 206 256 308 363
#     4  10  23  41  64  94 123 159 207 257 310 365
#
# _framework density 19.769311999999999
#
# number of rings (size 3 to 8) (size 9 to 14) (size 15 to 20)
#    0.000    1.500    2.500    1.500    3.500    5.000 
#    0.000    0.000    0.000    0.000    0.000    0.000 
#    0.000    0.000    0.000    0.000    0.000    0.000 
#
# Total GULP energy -396920.068751 kJ/mol
# GULP energy per Si atom -12403.752148 kJ/mol
# Density = 1.972432 g / cm^3
# Si number density = 19.769312 Si / 1000 Ang^3
#
#
#
# Elastic Constant Matrix: (Units=GPa)
#
#
# Indices 1 2 3 4 5 6 
#
# 1 72.8016 43.1005 34.6478 0.0000 0.0000 0.0000
# 2 43.1005 64.7566 -0.7078 0.0000 0.0000 0.0000
# 3 34.6478 -0.7078 80.2996 0.0000 0.0000 0.0000
# 4 0.0000 0.0000 0.0000 20.7696 0.0000 0.0000
# 5 0.0000 0.0000 0.0000 0.0000 38.5622 0.0000
# 6 0.0000 0.0000 0.0000 0.0000 0.0000 33.4183
#
#
#
# Elastic Compliance Matrix: (Units=1/GPa)
#
#
# Indices 1 2 3 4 5 6 
#
# 1 0.034777 -0.023313 -0.015211 0.000000 0.000000 0.000000
# 2 -0.023313 0.031072 0.010333 0.000000 0.000000 0.000000
# 3 -0.015211 0.010333 0.019108 0.000000 0.000000 0.000000
# 4 0.000000 0.000000 0.000000 0.048147 0.000000 0.000000
# 5 0.000000 0.000000 0.000000 0.000000 0.025932 0.000000
# 6 0.000000 0.000000 0.000000 0.000000 0.000000 0.029924
#
#
# Mechanical properties :
#
#
# Convention : Reuss Voigt Hill
#
# Bulk Modulus (GPa) = 34.99626 41.32653 38.16139
# Shear Modulus (GPa) = 19.61798 27.93785 23.77791
#
# Velocity S-wave (km/s) = 3.15357 3.76332 3.47186
# Velocity P-wave (km/s) = 5.56783 6.31136 5.95122
#
# Compressibility (1/GPa) = 0.02857449
#
# Stress axis : x y z
#
# Youngs Moduli (GPa) = 28.75430 32.18316 52.33459
#
# Poissons Ratio (x) = 0.75030 0.79608
# Poissons Ratio (y) = 0.67036 -0.54078
# Poissons Ratio (z) = 0.43739 -0.33255
#
# Static dielectric constant tensor:
#      x y z
#    x 3.605770 0.000000 0.000000 
#    y 0.000000 3.762520 0.000000 
#    z 0.000000 0.000000 3.571060 
# 
# 
# High freq. dielectric constant tensor:
#      x y z
#    x 1.771550 0.000000 0.000000 
#    y 0.000000 1.783580 0.000000 
#    z 0.000000 0.000000 1.771610 
# 
# From -- ./inp_files/10883.got.cif
#   From: 2010.03.12/outbox.cif.g09.slc.cpg/sg36_6_cif.got.tgz:10883.got - 2010.04.14 02:13:53.
