data_PCOD8175292
_publ_section_title
;
Structure prediction by ZEFSAII (Michael W. Deem and Ramdas Pophale) SiO2 
 PCOD8175292
Probable space group: C M C 21
;
_chemical_formula_sum "Si O2"
_cell_formula_units_Z 64
_cell_length_a 9.002739
_cell_length_b 28.355762
_cell_length_c 12.428176
_cell_angle_alpha 90.000000
_cell_angle_beta 90.000000
_cell_angle_gamma 90.000000
_cell_volume 3172.658859
_symmetry_space_group_name_H-M "C M C 21"
_symmetry_group_IT_number 36
_symmetry_cell_setting 'orthorhombic'
loop_
_space_group_symop_operation_xyz
x,y,z
-x,-y,1/2+z
x,-y,1/2+z
-x,y,z
1/2+x,1/2+y,z
1/2-x,1/2-y,1/2+z
1/2+x,1/2-y,1/2+z
1/2-x,1/2+y,z
loop_
_atom_site_type_symbol
_atom_site_label
_atom_site_fract_x
_atom_site_fract_y
_atom_site_fract_z
Si Si1 0.333712 0.344462 0.976360
Si Si2 0.173186 0.580182 0.604025
Si Si3 0.329696 0.772668 0.843958
Si Si4 0.325316 0.834611 0.644134
Si Si5 0.673408 0.985806 0.902469
Si Si6 0.167237 0.088942 0.270941
Si Si7 0.675523 0.426474 0.325879
Si Si8 0.670957 0.672579 0.924278
O O1 0.500000 0.335985 0.020583
O O2 0.263290 0.294631 0.942684
O O3 0.334669 0.377293 0.872877
O O4 0.237505 0.369009 0.069344
O O5 0.204532 0.541177 0.513301
O O6 0.256477 0.562622 0.709647
O O7 0.000000 0.586149 0.627424
O O8 0.500000 0.786310 0.865646
O O9 0.279725 0.793741 0.728976
O O10 0.305129 0.716429 0.843056
O O11 0.500000 0.843275 0.642747
O O12 0.247282 0.884206 0.673096
O O13 0.270441 0.818033 0.528394
O O14 0.500000 0.992666 0.880959
O O15 0.741259 0.957763 0.800711
O O16 0.754321 0.036332 0.909840
O O17 0.000000 0.075094 0.236324
O O18 0.500000 0.432888 0.321609
O O19 0.722656 0.374299 0.362930
O O20 0.500000 0.668583 0.960808
#
# Coordination Sequence:
#
# PCOD8175292 Si02
#       8
#     8   8   8   8   8   8   8   8
#     4   9  17  31  55  86 114 141 182 232 279 333
#     4  10  21  38  60  85 115 151 189 233 286 340
#     4   9  19  37  58  81 112 150 192 237 285 338
#     4  10  20  35  58  86 115 149 190 237 288 339
#     4  10  21  38  60  85 113 147 190 237 284 339
#     4   9  17  32  56  84 113 145 183 229 279 333
#     4  11  24  40  58  82 115 153 192 236 284 336
#     4  10  23  41  57  79 115 154 192 235 283 338
#
# _framework density 20.172355
#
# number of rings (size 3 to 8) (size 9 to 14) (size 15 to 20)
#    0.000    2.250    0.000    2.250    0.000    8.500 
#    0.000    3.750    0.000    0.000    0.000    0.000 
#    0.000    0.000    0.000    0.000    0.000    0.000 
#
# Total GULP energy -396895.549445 kJ/mol
# GULP energy per Si atom -12402.985920 kJ/mol
# Density = 2.012644 g / cm^3
# Si number density = 20.172355 Si / 1000 Ang^3
#
#
#
# Elastic Constant Matrix: (Units=GPa)
#
#
# Indices 1 2 3 4 5 6 
#
# 1 120.9292 59.9085 49.0408 0.0000 0.0000 0.0000
# 2 59.9085 134.0972 40.3960 0.0000 0.0000 0.0000
# 3 49.0408 40.3960 82.6890 0.0000 0.0000 0.0000
# 4 0.0000 0.0000 0.0000 23.6927 0.0000 0.0000
# 5 0.0000 0.0000 0.0000 0.0000 33.6647 0.0000
# 6 0.0000 0.0000 0.0000 0.0000 0.0000 33.1320
#
#
#
# Elastic Compliance Matrix: (Units=1/GPa)
#
#
# Indices 1 2 3 4 5 6 
#
# 1 0.012416 -0.003903 -0.005457 0.000000 0.000000 0.000000
# 2 -0.003903 0.009971 -0.002556 0.000000 0.000000 0.000000
# 3 -0.005457 -0.002556 0.016579 0.000000 0.000000 0.000000
# 4 0.000000 0.000000 0.000000 0.042207 0.000000 0.000000
# 5 0.000000 0.000000 0.000000 0.000000 0.029705 0.000000
# 6 0.000000 0.000000 0.000000 0.000000 0.000000 0.030182
#
#
# Mechanical properties :
#
#
# Convention : Reuss Voigt Hill
#
# Bulk Modulus (GPa) = 66.07988 70.71177 68.39582
# Shear Modulus (GPa) = 29.42282 30.65589 30.03936
#
# Velocity S-wave (km/s) = 3.82327 3.90256 3.86312
# Velocity P-wave (km/s) = 7.23316 7.44557 7.34013
#
# Compressibility (1/GPa) = 0.01513320
#
# Stress axis : x y z
#
# Youngs Moduli (GPa) = 80.54292 100.29041 60.31857
#
# Poissons Ratio (x) = 0.39143 0.32914
# Poissons Ratio (y) = 0.31436 0.15420
# Poissons Ratio (z) = 0.43950 0.25638
#
# Static dielectric constant tensor:
#      x y z
#    x 3.768000 0.000000 0.000000 
#    y 0.000000 3.695410 0.000000 
#    z 0.000000 0.000000 3.440610 
# 
# 
# High freq. dielectric constant tensor:
#      x y z
#    x 1.796290 0.000000 0.000000 
#    y 0.000000 1.786990 0.000000 
#    z 0.000000 0.000000 1.770140 
# 
# From -- ./inp_files/7148.got.cif
#   From: 2010.03.12/outbox.cif.g09.slc.cpg/sg36_4_cif.got.tgz:7148.got - 2010.04.14 02:13:53.
