data_PCOD8175808
_publ_section_title
;
Structure prediction by ZEFSAII (Michael W. Deem and Ramdas Pophale) SiO2 
 PCOD8175808
Probable space group: C M C 21
;
_chemical_formula_sum "Si O2"
_cell_formula_units_Z 64
_cell_length_a 24.310088
_cell_length_b 10.980567
_cell_length_c 11.508958
_cell_angle_alpha 90.000000
_cell_angle_beta 90.000000
_cell_angle_gamma 90.000000
_cell_volume 3072.184561
_symmetry_space_group_name_H-M "C M C 21"
_symmetry_group_IT_number 36
_symmetry_cell_setting 'orthorhombic'
loop_
_space_group_symop_operation_xyz
x,y,z
-x,-y,1/2+z
x,-y,1/2+z
-x,y,z
1/2+x,1/2+y,z
1/2-x,1/2-y,1/2+z
1/2+x,1/2-y,1/2+z
1/2-x,1/2+y,z
loop_
_atom_site_type_symbol
_atom_site_label
_atom_site_fract_x
_atom_site_fract_y
_atom_site_fract_z
Si Si1 0.856001 0.451087 0.739690
Si Si2 0.562033 0.342493 0.615158
Si Si3 0.873598 0.079554 0.683304
Si Si4 0.745225 0.295985 0.509674
Si Si5 0.061320 0.642235 0.805235
Si Si6 0.250543 0.453767 0.150540
Si Si7 0.633016 0.266608 0.397928
Si Si8 0.135349 0.285651 0.514244
O O1 0.906238 0.543377 0.731028
O O2 0.797390 0.521529 0.745813
O O3 0.865263 0.373291 0.856611
O O4 0.857488 0.371712 0.624681
O O5 0.500000 0.367825 0.569791
O O6 0.590375 0.462521 0.662226
O O7 0.559996 0.262405 0.729592
O O8 0.597125 0.278532 0.513973
O O9 0.809742 0.053879 0.711019
O O10 0.894821 0.150504 0.797743
O O11 0.881152 0.154100 0.563670
O O12 0.745498 0.427605 0.569723
O O13 0.735795 0.176391 0.590994
O O14 0.696563 0.303162 0.416642
O O15 0.805243 0.278341 0.449490
O O16 0.000000 0.594080 0.830419
O O17 0.089253 0.666443 0.928777
#
# Coordination Sequence:
#
# PCOD8175808 Si02
#       8
#     8   8   8   8   8   8   8   8
#     4  10  24  41  67  97 133 171 218 271 336 395
#     4  11  26  45  66  95 131 174 225 276 331 396
#     4  10  23  43  67  97 133 172 219 273 333 398
#     4  10  21  38  67  98 138 176 214 271 336 400
#     4  11  26  43  67  94 128 176 223 276 328 386
#     4  10  21  40  64  99 139 176 216 273 333 402
#     4  11  24  42  67 100 131 174 219 270 337 404
#     4   9  23  44  63  98 131 171 218 268 334 397
#
# _framework density 20.832082
#
# number of rings (size 3 to 8) (size 9 to 14) (size 15 to 20)
#    0.000    1.750    1.250    1.500    8.750    3.000 
#    0.000    2.500    0.000    0.000    0.000    0.000 
#    0.000    0.000    0.000    0.000    0.000    0.000 
#
# Total GULP energy -396648.452564 kJ/mol
# GULP energy per Si atom -12395.264143 kJ/mol
# Density = 2.078467 g / cm^3
# Si number density = 20.832082 Si / 1000 Ang^3
#
#
#
# Elastic Constant Matrix: (Units=GPa)
#
#
# Indices 1 2 3 4 5 6 
#
# 1 131.1249 21.9904 14.7814 0.0000 0.0000 0.0000
# 2 21.9904 82.6722 -3.6385 0.0000 0.0000 0.0000
# 3 14.7814 -3.6385 35.8608 0.0000 0.0000 0.0000
# 4 0.0000 0.0000 0.0000 15.9260 0.0000 0.0000
# 5 0.0000 0.0000 0.0000 0.0000 31.2258 0.0000
# 6 0.0000 0.0000 0.0000 0.0000 0.0000 26.6690
#
#
#
# Elastic Compliance Matrix: (Units=1/GPa)
#
#
# Indices 1 2 3 4 5 6 
#
# 1 0.008451 -0.002412 -0.003728 0.000000 0.000000 0.000000
# 2 -0.002412 0.012839 0.002297 0.000000 0.000000 0.000000
# 3 -0.003728 0.002297 0.029655 0.000000 0.000000 0.000000
# 4 0.000000 0.000000 0.000000 0.062790 0.000000 0.000000
# 5 0.000000 0.000000 0.000000 0.000000 0.032025 0.000000
# 6 0.000000 0.000000 0.000000 0.000000 0.000000 0.037497
#
#
# Mechanical properties :
#
#
# Convention : Reuss Voigt Hill
#
# Bulk Modulus (GPa) = 23.11692 35.10272 29.10982
# Shear Modulus (GPa) = 24.34713 29.19915 26.77314
#
# Velocity S-wave (km/s) = 3.42238 3.74791 3.58884
# Velocity P-wave (km/s) = 5.17086 5.96792 5.58363
#
# Compressibility (1/GPa) = 0.04325835
#
# Stress axis : x y z
#
# Youngs Moduli (GPa) = 118.32786 77.88993 33.72075
#
# Poissons Ratio (x) = 0.18787 0.12572
# Poissons Ratio (y) = 0.28541 -0.07745
# Poissons Ratio (z) = 0.44115 -0.17890
#
# Static dielectric constant tensor:
#      x y z
#    x 4.116080 0.000000 0.000000 
#    y 0.000000 4.060200 0.000000 
#    z 0.000000 0.000000 3.554920 
# 
# 
# High freq. dielectric constant tensor:
#      x y z
#    x 1.819580 0.000000 0.000000 
#    y 0.000000 1.832420 0.000000 
#    z 0.000000 0.000000 1.802420 
# 
# From -- ./inp_files/9512.got.cif
#   From: 2010.03.12/outbox.cif.g09.slc.cpg/sg36_5_cif.got.tgz:9512.got - 2010.04.14 02:13:53.
