data_PCOD8175273
_publ_section_title
;
Structure prediction by ZEFSAII (Michael W. Deem and Ramdas Pophale) SiO2 
 PCOD8175273
Probable space group: C M C 21
;
_chemical_formula_sum "Si O2"
_cell_formula_units_Z 64
_cell_length_a 9.016505
_cell_length_b 23.885810
_cell_length_c 15.202590
_cell_angle_alpha 90.000000
_cell_angle_beta 90.000000
_cell_angle_gamma 90.000000
_cell_volume 3274.128984
_symmetry_space_group_name_H-M "C M C 21"
_symmetry_group_IT_number 36
_symmetry_cell_setting 'orthorhombic'
loop_
_space_group_symop_operation_xyz
x,y,z
-x,-y,1/2+z
x,-y,1/2+z
-x,y,z
1/2+x,1/2+y,z
1/2-x,1/2-y,1/2+z
1/2+x,1/2-y,1/2+z
1/2-x,1/2+y,z
loop_
_atom_site_type_symbol
_atom_site_label
_atom_site_fract_x
_atom_site_fract_y
_atom_site_fract_z
Si Si1 0.175851 0.393839 0.027830
Si Si2 0.675849 0.176043 0.359583
Si Si3 0.326603 0.500941 0.961969
Si Si4 0.829537 0.395154 0.698336
Si Si5 0.674619 0.697296 0.867596
Si Si6 0.671281 0.500309 0.260439
Si Si7 0.826392 0.121744 0.703212
Si Si8 0.171777 0.382847 0.500449
O O1 0.234434 0.363688 0.115681
O O2 0.000000 0.399547 0.030145
O O3 0.231085 0.356856 0.945719
O O4 0.246599 0.455647 0.023464
O O5 0.500000 0.177165 0.355065
O O6 0.740486 0.145745 0.272332
O O7 0.734391 0.239405 0.362501
O O8 0.500000 0.501968 0.984566
O O9 0.296589 0.484205 0.861306
O O10 0.261697 0.561713 0.978523
O O11 0.753479 0.455823 0.698127
O O12 0.808568 0.367301 0.603079
O O13 0.000000 0.406000 0.720784
O O14 0.500000 0.693183 0.888165
O O15 0.712382 0.668397 0.775091
O O16 0.762814 0.668582 0.946423
O O17 0.500000 0.504503 0.237343
O O18 0.728159 0.437799 0.241181
O O19 0.000000 0.121525 0.680702
O O20 0.000000 0.392259 0.476424
#
# Coordination Sequence:
#
# PCOD8175273 Si02
#       8
#     8   8   8   8   8   8   8   8
#     4  11  22  37  59  89 119 153 192 237 294 344
#     4   9  20  39  61  82 112 154 197 238 286 345
#     4  11  21  37  60  86 118 155 193 234 285 348
#     4  10  21  38  58  84 116 152 188 229 288 349
#     4  10  21  41  63  81 110 157 201 237 286 345
#     4  10  20  35  57  86 113 146 191 235 283 338
#     4  10  21  38  59  85 114 150 195 239 288 347
#     4  11  23  37  59  91 120 149 189 241 296 342
#
# _framework density 19.547183
#
# number of rings (size 3 to 8) (size 9 to 14) (size 15 to 20)
#    0.000    1.750    2.500    1.875    0.000    5.500 
#    0.000    3.125    0.000    0.000    0.000    0.000 
#    0.000    0.000    0.000    0.000    0.000    0.000 
#
# Total GULP energy -396933.907698 kJ/mol
# GULP energy per Si atom -12404.184616 kJ/mol
# Density = 1.950269 g / cm^3
# Si number density = 19.547183 Si / 1000 Ang^3
#
#
#
# Elastic Constant Matrix: (Units=GPa)
#
#
# Indices 1 2 3 4 5 6 
#
# 1 63.4487 36.1620 49.8449 0.0000 0.0000 0.0000
# 2 36.1620 131.0530 46.3281 0.0000 0.0000 0.0000
# 3 49.8449 46.3281 106.9480 0.0000 0.0000 0.0000
# 4 0.0000 0.0000 0.0000 17.6862 0.0000 0.0000
# 5 0.0000 0.0000 0.0000 0.0000 33.7677 0.0000
# 6 0.0000 0.0000 0.0000 0.0000 0.0000 24.3433
#
#
#
# Elastic Compliance Matrix: (Units=1/GPa)
#
#
# Indices 1 2 3 4 5 6 
#
# 1 0.026106 -0.003427 -0.010683 0.000000 0.000000 0.000000
# 2 -0.003427 0.009460 -0.002501 0.000000 0.000000 0.000000
# 3 -0.010683 -0.002501 0.015412 0.000000 0.000000 0.000000
# 4 0.000000 0.000000 0.000000 0.056541 0.000000 0.000000
# 5 0.000000 0.000000 0.000000 0.000000 0.029614 0.000000
# 6 0.000000 0.000000 0.000000 0.000000 0.000000 0.041079
#
#
# Mechanical properties :
#
#
# Convention : Reuss Voigt Hill
#
# Bulk Modulus (GPa) = 56.31335 62.90220 59.60778
# Shear Modulus (GPa) = 23.00397 26.43375 24.71886
#
# Velocity S-wave (km/s) = 3.43424 3.68136 3.55994
# Velocity P-wave (km/s) = 6.67808 7.09362 6.88898
#
# Compressibility (1/GPa) = 0.01775778
#
# Stress axis : x y z
#
# Youngs Moduli (GPa) = 38.30495 105.70606 64.88271
#
# Poissons Ratio (x) = 0.36228 0.69312
# Poissons Ratio (y) = 0.13128 0.16225
# Poissons Ratio (z) = 0.40920 0.26434
#
# Static dielectric constant tensor:
#      x y z
#    x 3.386240 0.000000 0.000000 
#    y 0.000000 3.571480 0.000000 
#    z 0.000000 0.000000 3.764470 
# 
# 
# High freq. dielectric constant tensor:
#      x y z
#    x 1.746310 0.000000 0.000000 
#    y 0.000000 1.757790 0.000000 
#    z 0.000000 0.000000 1.776070 
# 
# From -- ./inp_files/11030.got.cif
#   From: 2010.03.12/outbox.cif.g09.slc.cpg/sg36_6_cif.got.tgz:11030.got - 2010.04.14 02:13:53.
