data_PCOD8175664
_publ_section_title
;
Structure prediction by ZEFSAII (Michael W. Deem and Ramdas Pophale) SiO2 
 PCOD8175664
Probable space group: C M C 21
;
_chemical_formula_sum "Si O2"
_cell_formula_units_Z 56
_cell_length_a 34.653825
_cell_length_b 13.920728
_cell_length_c 5.225343
_cell_angle_alpha 90.000000
_cell_angle_beta 90.000000
_cell_angle_gamma 90.000000
_cell_volume 2520.739282
_symmetry_space_group_name_H-M "C M C 21"
_symmetry_group_IT_number 36
_symmetry_cell_setting 'orthorhombic'
loop_
_space_group_symop_operation_xyz
x,y,z
-x,-y,1/2+z
x,-y,1/2+z
-x,y,z
1/2+x,1/2+y,z
1/2-x,1/2-y,1/2+z
1/2+x,1/2-y,1/2+z
1/2-x,1/2+y,z
loop_
_atom_site_type_symbol
_atom_site_label
_atom_site_fract_x
_atom_site_fract_y
_atom_site_fract_z
Si Si1 0.154995 0.117368 0.402080
Si Si2 0.090474 0.444438 0.329459
Si Si3 0.457287 0.363872 0.289236
Si Si4 0.275029 0.252611 0.874148
Si Si5 0.123020 0.091886 0.900218
Si Si6 0.818198 0.443947 0.332430
Si Si7 0.042888 0.742340 0.789799
O O1 0.199196 0.150158 0.369531
O O2 0.138071 0.159819 0.668180
O O3 0.149974 0.001933 0.431856
O O4 0.128942 0.152798 0.161415
O O5 0.075520 0.503623 0.573899
O O6 0.136172 0.435680 0.333009
O O7 0.074010 0.338294 0.343731
O O8 0.500000 0.412689 0.318837
O O9 0.421895 0.437644 0.347798
O O10 0.452211 0.281003 0.501224
O O11 0.451845 0.325055 0.002870
O O12 0.243477 0.260208 0.652699
O O13 0.302236 0.162968 0.819550
O O14 0.803032 0.498233 0.585114
O O15 0.000000 0.698520 0.819179
#
# Coordination Sequence:
#
# PCOD8175664 Si02
#       7
#     8   8   8   8   8   8   8
#     4  10  23  43  63  98 123 161 213 262 316 380
#     4  10  21  37  59  86 118 161 211 263 321 377
#     4  10  21  36  59  93 132 175 215 255 315 370
#     4  12  26  47  69  99 129 166 213 262 334 396
#     4  10  21  41  66  95 133 167 218 262 312 369
#     4  10  23  44  64  94 130 165 209 260 321 387
#     4  10  21  36  56  91 128 167 214 264 315 369
#
# _framework density 22.215703000000001
#
# number of rings (size 3 to 8) (size 9 to 14) (size 15 to 20)
#    0.000    1.714    0.000    3.429    4.000    0.571 
#   15.429    2.857    0.000    0.000    0.000    0.000 
#    0.000    0.000    0.000    0.000    0.000    0.000 
#
# Total GULP energy -347059.681930 kJ/mol
# GULP energy per Si atom -12394.988640 kJ/mol
# Density = 2.216514 g / cm^3
# Si number density = 22.215703 Si / 1000 Ang^3
#
#
#
# Elastic Constant Matrix: (Units=GPa)
#
#
# Indices 1 2 3 4 5 6 
#
# 1 78.5955 26.8818 19.9669 0.0000 0.0000 0.0000
# 2 26.8818 70.4903 10.1526 0.0000 0.0000 0.0000
# 3 19.9669 10.1526 162.4088 0.0000 0.0000 0.0000
# 4 0.0000 0.0000 0.0000 21.7860 0.0000 0.0000
# 5 0.0000 0.0000 0.0000 0.0000 26.1263 0.0000
# 6 0.0000 0.0000 0.0000 0.0000 0.0000 26.1878
#
#
#
# Elastic Compliance Matrix: (Units=1/GPa)
#
#
# Indices 1 2 3 4 5 6 
#
# 1 0.014985 -0.005499 -0.001499 0.000000 0.000000 0.000000
# 2 -0.005499 0.016333 -0.000345 0.000000 0.000000 0.000000
# 3 -0.001499 -0.000345 0.006363 0.000000 0.000000 0.000000
# 4 0.000000 0.000000 0.000000 0.045901 0.000000 0.000000
# 5 0.000000 0.000000 0.000000 0.000000 0.038276 0.000000
# 6 0.000000 0.000000 0.000000 0.000000 0.000000 0.038186
#
#
# Mechanical properties :
#
#
# Convention : Reuss Voigt Hill
#
# Bulk Modulus (GPa) = 43.48496 47.27746 45.38121
# Shear Modulus (GPa) = 27.41330 31.78623 29.59977
#
# Velocity S-wave (km/s) = 3.51659 3.78670 3.65414
# Velocity P-wave (km/s) = 6.00874 6.35972 6.18672
#
# Compressibility (1/GPa) = 0.02299646
#
# Stress axis : x y z
#
# Youngs Moduli (GPa) = 66.73444 61.22577 157.15607
#
# Poissons Ratio (x) = 0.33666 0.23550
# Poissons Ratio (y) = 0.36695 0.05422
# Poissons Ratio (z) = 0.10000 0.02112
#
# Static dielectric constant tensor:
#      x y z
#    x 4.055460 0.000000 0.000000 
#    y 0.000000 3.544530 0.000000 
#    z 0.000000 0.000000 5.150210 
# 
# 
# High freq. dielectric constant tensor:
#      x y z
#    x 1.874510 0.000000 0.000000 
#    y 0.000000 1.838130 0.000000 
#    z 0.000000 0.000000 1.913230 
# 
# From -- ./inp_files/1862.got.cif
#   From: 2010.03.12/outbox.cif.g09.slc.cpg/sg36_1_cif.got.tgz:1862.got - 2010.04.14 02:13:53.
