data_PCOD8175424
_publ_section_title
;
Structure prediction by ZEFSAII (Michael W. Deem and Ramdas Pophale) SiO2 
 PCOD8175424
Probable space group: C M C 21
;
_chemical_formula_sum "Si O2"
_cell_formula_units_Z 64
_cell_length_a 10.511573
_cell_length_b 8.775942
_cell_length_c 32.923831
_cell_angle_alpha 90.000000
_cell_angle_beta 90.000000
_cell_angle_gamma 90.000000
_cell_volume 3037.189004
_symmetry_space_group_name_H-M "C M C 21"
_symmetry_group_IT_number 36
_symmetry_cell_setting 'orthorhombic'
loop_
_space_group_symop_operation_xyz
x,y,z
-x,-y,1/2+z
x,-y,1/2+z
-x,y,z
1/2+x,1/2+y,z
1/2-x,1/2-y,1/2+z
1/2+x,1/2-y,1/2+z
1/2-x,1/2+y,z
loop_
_atom_site_type_symbol
_atom_site_label
_atom_site_fract_x
_atom_site_fract_y
_atom_site_fract_z
Si Si1 0.140693 0.172475 0.256930
Si Si2 0.358077 0.639680 0.432035
Si Si3 0.724354 0.589839 0.810142
Si Si4 0.359332 0.827437 0.038579
Si Si5 0.855465 0.549291 0.624506
Si Si6 0.644204 0.358464 0.666941
Si Si7 0.357973 0.858269 0.863985
Si Si8 0.224095 0.590552 0.985755
O O1 0.221857 0.312012 0.273280
O O2 0.192097 0.116384 0.213220
O O3 0.000000 0.236028 0.250176
O O4 0.134729 0.036115 0.289656
O O5 0.500000 0.624933 0.412997
O O6 0.250058 0.640649 0.397994
O O7 0.336718 0.493684 0.460950
O O8 0.354466 0.798730 0.456305
O O9 0.645892 0.697685 0.840396
O O10 0.836162 0.502065 0.834365
O O11 0.500000 0.764221 0.045688
O O12 0.306102 0.887170 0.081296
O O13 0.277286 0.685834 0.023498
O O14 0.364983 0.960258 0.004598
O O15 0.749360 0.428155 0.637192
O O16 0.858247 0.679455 0.658323
O O17 0.000000 0.479817 0.620561
O O18 0.500000 0.425704 0.660204
O O19 0.500000 0.874368 0.882838
#
# Coordination Sequence:
#
# PCOD8175424 Si02
#       8
#     8   8   8   8   8   8   8   8
#     4  10  20  37  59  82 113 151 189 233 282 333
#     4  11  24  40  60  86 115 149 189 234 285 341
#     4  10  22  38  59  84 113 147 191 236 281 335
#     4  10  20  37  59  82 113 151 189 233 282 333
#     4  10  21  37  58  86 118 152 191 234 283 338
#     4  10  21  37  58  86 118 152 191 234 283 338
#     4  11  24  40  60  86 115 149 189 234 285 341
#     4  10  22  38  59  84 113 147 191 236 281 335
#
# _framework density 21.072118
#
# number of rings (size 3 to 8) (size 9 to 14) (size 15 to 20)
#    0.000    1.750    0.000    3.750    0.000    8.500 
#    0.000    6.250    0.000    0.000    0.000    0.000 
#    0.000    0.000    0.000    0.000    0.000    0.000 
#
# Total GULP energy -396721.808248 kJ/mol
# GULP energy per Si atom -12397.556508 kJ/mol
# Density = 2.102416 g / cm^3
# Si number density = 21.072118 Si / 1000 Ang^3
#
#
#
# Elastic Constant Matrix: (Units=GPa)
#
#
# Indices 1 2 3 4 5 6 
#
# 1 116.3835 20.3374 36.3291 0.0000 0.0000 0.0000
# 2 20.3374 75.0712 12.6723 0.0000 0.0000 0.0000
# 3 36.3291 12.6723 96.0782 0.0000 0.0000 0.0000
# 4 0.0000 0.0000 0.0000 28.3530 0.0000 0.0000
# 5 0.0000 0.0000 0.0000 0.0000 30.0347 0.0000
# 6 0.0000 0.0000 0.0000 0.0000 0.0000 11.2281
#
#
#
# Elastic Compliance Matrix: (Units=1/GPa)
#
#
# Indices 1 2 3 4 5 6 
#
# 1 0.010065 -0.002132 -0.003525 0.000000 0.000000 0.000000
# 2 -0.002132 0.014076 -0.001050 0.000000 0.000000 0.000000
# 3 -0.003525 -0.001050 0.011879 0.000000 0.000000 0.000000
# 4 0.000000 0.000000 0.000000 0.035270 0.000000 0.000000
# 5 0.000000 0.000000 0.000000 0.000000 0.033295 0.000000
# 6 0.000000 0.000000 0.000000 0.000000 0.000000 0.089062
#
#
# Mechanical properties :
#
#
# Convention : Reuss Voigt Hill
#
# Bulk Modulus (GPa) = 44.23526 47.35673 45.79599
# Shear Modulus (GPa) = 23.29961 28.46943 25.88452
#
# Velocity S-wave (km/s) = 3.32883 3.67965 3.50862
# Velocity P-wave (km/s) = 5.98437 6.36989 6.18014
#
# Compressibility (1/GPa) = 0.02260640
#
# Stress axis : x y z
#
# Youngs Moduli (GPa) = 99.35415 71.04539 84.17886
#
# Poissons Ratio (x) = 0.15145 0.29670
# Poissons Ratio (y) = 0.21180 0.08842
# Poissons Ratio (z) = 0.35019 0.07463
#
# Static dielectric constant tensor:
#      x y z
#    x 3.603850 0.000000 0.000000 
#    y 0.000000 3.815690 0.000000 
#    z 0.000000 0.000000 3.935760 
# 
# 
# High freq. dielectric constant tensor:
#      x y z
#    x 1.816810 0.000000 0.000000 
#    y 0.000000 1.825630 0.000000 
#    z 0.000000 0.000000 1.835550 
# 
# From -- ./inp_files/17389.got.cif
#   From: 2010.03.12/outbox.cif.g09.slc.cpg/sg36_9_cif.got.tgz:17389.got - 2010.04.14 02:13:53.
