data_PCOD8175463
_publ_section_title
;
Structure prediction by ZEFSAII (Michael W. Deem and Ramdas Pophale) SiO2 
 PCOD8175463
Probable space group: C M C 21
;
_chemical_formula_sum "Si O2"
_cell_formula_units_Z 64
_cell_length_a 8.902934
_cell_length_b 22.532495
_cell_length_c 16.433212
_cell_angle_alpha 90.000000
_cell_angle_beta 90.000000
_cell_angle_gamma 90.000000
_cell_volume 3296.589684
_symmetry_space_group_name_H-M "C M C 21"
_symmetry_group_IT_number 36
_symmetry_cell_setting 'orthorhombic'
loop_
_space_group_symop_operation_xyz
x,y,z
-x,-y,1/2+z
x,-y,1/2+z
-x,y,z
1/2+x,1/2+y,z
1/2-x,1/2-y,1/2+z
1/2+x,1/2-y,1/2+z
1/2-x,1/2+y,z
loop_
_atom_site_type_symbol
_atom_site_label
_atom_site_fract_x
_atom_site_fract_y
_atom_site_fract_z
Si Si1 0.676128 0.859721 0.904070
Si Si2 0.828830 0.047804 0.300976
Si Si3 0.667326 0.894157 0.664131
Si Si4 0.827768 0.475099 0.516390
Si Si5 0.826839 0.341750 0.214728
Si Si6 0.330109 0.221497 0.252234
Si Si7 0.678365 0.599710 0.559440
Si Si8 0.172400 0.561797 0.839059
O O1 0.500000 0.857782 0.919904
O O2 0.722823 0.924579 0.870918
O O3 0.723871 0.810430 0.836704
O O4 0.760717 0.854110 0.990510
O O5 0.803060 0.079646 0.215990
O O6 0.000000 0.053785 0.328761
O O7 0.779162 0.980467 0.285941
O O8 0.500000 0.913758 0.695850
O O9 0.692664 0.917637 0.573798
O O10 0.677603 0.823131 0.674905
O O11 0.732640 0.532027 0.544755
O O12 0.773950 0.446174 0.431821
O O13 0.000000 0.496501 0.513871
O O14 0.777971 0.274564 0.228548
O O15 0.733097 0.375926 0.146092
O O16 0.802668 0.372738 0.302813
O O17 0.000000 0.343151 0.187831
O O18 0.500000 0.244750 0.264091
O O19 0.500000 0.600277 0.557682
O O20 0.000000 0.542575 0.828517
#
# Coordination Sequence:
#
# PCOD8175463 Si02
#       8
#     8   8   8   8   8   8   8   8
#     4  10  20  38  63  87 117 156 195 240 296 358
#     4  11  20  31  54  87 118 148 186 236 290 343
#     4   9  19  36  59  84 112 153 195 235 290 354
#     4  10  20  37  61  87 118 153 194 241 296 362
#     4  11  24  41  60  85 120 164 207 244 296 358
#     4   9  20  40  62  85 116 153 198 247 294 348
#     4  12  24  38  60  92 123 154 198 250 303 354
#     4  10  21  37  57  81 116 159 195 235 289 357
#
# _framework density 19.414002
#
# number of rings (size 3 to 8) (size 9 to 14) (size 15 to 20)
#    0.000    1.750    1.250    4.500    0.000    7.000 
#    2.250    0.000    0.000    0.000    0.000    0.000 
#    0.000    0.000    0.000    0.000    0.000    0.000 
#
# Total GULP energy -396630.390945 kJ/mol
# GULP energy per Si atom -12394.699717 kJ/mol
# Density = 1.936981 g / cm^3
# Si number density = 19.414002 Si / 1000 Ang^3
#
#
#
# Elastic Constant Matrix: (Units=GPa)
#
#
# Indices 1 2 3 4 5 6 
#
# 1 106.9192 52.8353 47.0874 0.0000 0.0000 0.0000
# 2 52.8353 109.0008 62.0331 0.0000 0.0000 0.0000
# 3 47.0874 62.0331 103.5367 0.0000 0.0000 0.0000
# 4 0.0000 0.0000 0.0000 24.5113 0.0000 0.0000
# 5 0.0000 0.0000 0.0000 0.0000 24.5652 0.0000
# 6 0.0000 0.0000 0.0000 0.0000 0.0000 30.8270
#
#
#
# Elastic Compliance Matrix: (Units=1/GPa)
#
#
# Indices 1 2 3 4 5 6 
#
# 1 0.012976 -0.004448 -0.003236 0.000000 0.000000 0.000000
# 2 -0.004448 0.015446 -0.007231 0.000000 0.000000 0.000000
# 3 -0.003236 -0.007231 0.015463 0.000000 0.000000 0.000000
# 4 0.000000 0.000000 0.000000 0.040798 0.000000 0.000000
# 5 0.000000 0.000000 0.000000 0.000000 0.040708 0.000000
# 6 0.000000 0.000000 0.000000 0.000000 0.000000 0.032439
#
#
# Mechanical properties :
#
#
# Convention : Reuss Voigt Hill
#
# Bulk Modulus (GPa) = 71.15746 71.48537 71.32141
# Shear Modulus (GPa) = 25.99495 26.48076 26.23786
#
# Velocity S-wave (km/s) = 3.66318 3.69725 3.68025
# Velocity P-wave (km/s) = 7.39081 7.42480 7.40782
#
# Compressibility (1/GPa) = 0.01405334
#
# Stress axis : x y z
#
# Youngs Moduli (GPa) = 77.06400 64.74327 64.67123
#
# Poissons Ratio (x) = 0.28798 0.20931
# Poissons Ratio (y) = 0.34278 0.46765
# Poissons Ratio (z) = 0.24942 0.46817
#
# Static dielectric constant tensor:
#      x y z
#    x 3.486570 0.000000 0.000000 
#    y 0.000000 3.421610 0.000000 
#    z 0.000000 0.000000 3.731440 
# 
# 
# High freq. dielectric constant tensor:
#      x y z
#    x 1.754430 0.000000 0.000000 
#    y 0.000000 1.739970 0.000000 
#    z 0.000000 0.000000 1.757660 
# 
# From -- ./inp_files/11060.got.cif
#   From: 2010.03.12/outbox.cif.g09.slc.cpg/sg36_6_cif.got.tgz:11060.got - 2010.04.14 02:13:53.
