data_PCOD8175973
_publ_section_title
;
Structure prediction by ZEFSAII (Michael W. Deem and Ramdas Pophale) SiO2 
 PCOD8175973
Probable space group: C M C 21
;
_chemical_formula_sum "Si O2"
_cell_formula_units_Z 56
_cell_length_a 14.315959
_cell_length_b 9.009088
_cell_length_c 20.523153
_cell_angle_alpha 90.000000
_cell_angle_beta 90.000000
_cell_angle_gamma 90.000000
_cell_volume 2646.947685
_symmetry_space_group_name_H-M "C M C 21"
_symmetry_group_IT_number 36
_symmetry_cell_setting 'orthorhombic'
loop_
_space_group_symop_operation_xyz
x,y,z
-x,-y,1/2+z
x,-y,1/2+z
-x,y,z
1/2+x,1/2+y,z
1/2-x,1/2-y,1/2+z
1/2+x,1/2-y,1/2+z
1/2-x,1/2+y,z
loop_
_atom_site_type_symbol
_atom_site_label
_atom_site_fract_x
_atom_site_fract_y
_atom_site_fract_z
Si Si1 0.392604 0.619083 0.319210
Si Si2 0.891498 0.549602 0.859941
Si Si3 0.213896 0.001364 0.936336
Si Si4 0.391498 0.549602 0.691395
Si Si5 0.713896 0.998636 0.114999
Si Si6 0.392604 0.119083 0.232125
Si Si7 0.759765 0.250000 0.025668
O O1 0.500000 0.586634 0.332417
O O2 0.366965 0.790232 0.329443
O O3 0.339950 0.510249 0.368884
O O4 0.366431 0.573906 0.245698
O O5 0.825487 0.518814 0.921993
O O6 0.866431 0.426094 0.805637
O O7 0.000000 0.540559 0.881626
O O8 0.195507 0.856813 0.980926
O O9 0.179065 0.145866 0.977129
O O10 0.500000 0.540559 0.669709
O O11 0.325487 0.518813 0.629342
O O12 0.366965 0.709768 0.721892
O O13 0.679065 0.854134 0.074206
O O14 0.660050 0.010249 0.182452
O O15 0.695506 0.143187 0.070409
O O16 0.500000 0.086634 0.218918
#
# Coordination Sequence:
#
# PCOD8175973 Si02
#       7
#     8   8   8   8   8   8   8
#     4  10  22  39  62  90 118 150 191 240 297 352
#     4  10  22  39  62  90 118 150 191 240 297 352
#     4  11  21  42  60  86 117 159 190 248 282 343
#     4  10  22  39  62  90 118 150 191 240 297 352
#     4  11  21  42  60  86 117 159 190 248 282 343
#     4  10  22  39  62  90 118 150 191 240 297 352
#     4  10  24  38  60  84 118 156 208 230 280 342
#
# _framework density 21.156444
#
# number of rings (size 3 to 8) (size 9 to 14) (size 15 to 20)
#    0.000    1.714    2.857    0.857    4.000    2.286 
#    0.000    8.571    0.000    0.000    0.000    0.000 
#    0.000    0.000    0.000    0.000    0.000    0.000 
#
# Total GULP energy -347147.511265 kJ/mol
# GULP energy per Si atom -12398.125402 kJ/mol
# Density = 2.110829 g / cm^3
# Si number density = 21.156444 Si / 1000 Ang^3
#
#
#
# Elastic Constant Matrix: (Units=GPa)
#
#
# Indices 1 2 3 4 5 6 
#
# 1 58.3166 26.7223 43.6363 0.0000 0.0000 0.0000
# 2 26.7223 115.3229 36.8354 0.0000 0.0000 0.0000
# 3 43.6363 36.8354 85.5228 0.0000 0.0000 0.0000
# 4 0.0000 0.0000 0.0000 43.2103 0.0000 0.0000
# 5 0.0000 0.0000 0.0000 0.0000 14.6385 0.0000
# 6 0.0000 0.0000 0.0000 0.0000 0.0000 18.8949
#
#
#
# Elastic Compliance Matrix: (Units=1/GPa)
#
#
# Indices 1 2 3 4 5 6 
#
# 1 0.028232 -0.002250 -0.013436 0.000000 0.000000 0.000000
# 2 -0.002250 0.010234 -0.003260 0.000000 0.000000 0.000000
# 3 -0.013436 -0.003260 0.019952 0.000000 0.000000 0.000000
# 4 0.000000 0.000000 0.000000 0.023143 0.000000 0.000000
# 5 0.000000 0.000000 0.000000 0.000000 0.068313 0.000000
# 6 0.000000 0.000000 0.000000 0.000000 0.000000 0.052924
#
#
# Mechanical properties :
#
#
# Convention : Reuss Voigt Hill
#
# Bulk Modulus (GPa) = 48.71666 52.61669 50.66667
# Shear Modulus (GPa) = 20.19941 25.47998 22.83969
#
# Velocity S-wave (km/s) = 3.09328 3.47415 3.28923
# Velocity P-wave (km/s) = 5.98621 6.40447 6.19887
#
# Compressibility (1/GPa) = 0.02052686
#
# Stress axis : x y z
#
# Youngs Moduli (GPa) = 35.42019 97.71430 50.12015
#
# Poissons Ratio (x) = 0.21990 0.67340
# Poissons Ratio (y) = 0.07971 0.16337
# Poissons Ratio (z) = 0.47590 0.31851
#
# Static dielectric constant tensor:
#      x y z
#    x 3.531630 0.000000 0.000000 
#    y 0.000000 4.082400 0.000000 
#    z 0.000000 0.000000 3.873400 
# 
# 
# High freq. dielectric constant tensor:
#      x y z
#    x 1.791960 0.000000 0.000000 
#    y 0.000000 1.846760 0.000000 
#    z 0.000000 0.000000 1.837280 
# 
# From -- ./inp_files/4197.got.cif
#   From: 2010.03.12/outbox.cif.g09.slc.cpg/sg36_3_cif.got.tgz:4197.got - 2010.04.14 02:13:53.
