data_PCOD8175614
_publ_section_title
;
Structure prediction by ZEFSAII (Michael W. Deem and Ramdas Pophale) SiO2 
 PCOD8175614
Probable space group: C M C 21
;
_chemical_formula_sum "Si O2"
_cell_formula_units_Z 48
_cell_length_a 17.444817
_cell_length_b 15.141939
_cell_length_c 8.942372
_cell_angle_alpha 90.000000
_cell_angle_beta 90.000000
_cell_angle_gamma 90.000000
_cell_volume 2362.112853
_symmetry_space_group_name_H-M "C M C 21"
_symmetry_group_IT_number 36
_symmetry_cell_setting 'orthorhombic'
loop_
_space_group_symop_operation_xyz
x,y,z
-x,-y,1/2+z
x,-y,1/2+z
-x,y,z
1/2+x,1/2+y,z
1/2-x,1/2-y,1/2+z
1/2+x,1/2-y,1/2+z
1/2-x,1/2+y,z
loop_
_atom_site_type_symbol
_atom_site_label
_atom_site_fract_x
_atom_site_fract_y
_atom_site_fract_z
Si Si1 0.912856 0.901006 0.854860
Si Si2 0.278087 0.622695 0.862996
Si Si3 0.586777 0.737010 0.762337
Si Si4 0.372798 0.785053 0.434518
Si Si5 0.500000 0.894049 0.823748
Si Si6 0.177164 0.003984 0.609364
Si Si7 0.000000 0.421480 0.476153
O O1 0.904712 0.795507 0.835214
O O2 0.881163 0.948340 0.708878
O O3 0.000000 0.929387 0.872307
O O4 0.869367 0.929831 0.004526
O O5 0.361735 0.670092 0.858840
O O6 0.211786 0.694904 0.872804
O O7 0.267394 0.562035 0.715665
O O8 0.271991 0.562362 0.010706
O O9 0.500000 0.697921 0.732426
O O10 0.629571 0.754936 0.606606
O O11 0.575409 0.831296 0.848899
O O12 0.425554 0.871310 0.412542
O O13 0.500000 0.924781 0.653184
O O14 0.500000 0.976731 0.930812
#
# Coordination Sequence:
#
# PCOD8175614 Si02
#       7
#     8   8   8   8   4   8   4
#     4  11  21  41  64  93 126 170 218 265 332 393
#     4  11  24  42  66  96 134 171 222 266 339 388
#     4   9  20  43  67  92 128 175 213 271 334 394
#     4  11  22  39  68  89 131 168 215 269 328 390
#     4   8  20  40  68  87 121 164 216 259 329 372
#     4  10  25  40  60  97 131 171 213 275 323 400
#     4  10  20  44  60  93 117 170 206 269 317 396
#
# _framework density 20.320789000000001
#
# number of rings (size 3 to 8) (size 9 to 14) (size 15 to 20)
#    0.500    1.333    3.333    0.500    2.333    6.000 
#    6.000    0.000    0.000    0.000    0.000    0.000 
#    0.000    0.000    0.000    0.000    0.000    0.000 
#
# Total GULP energy -297519.289977 kJ/mol
# GULP energy per Si atom -12396.637082 kJ/mol
# Density = 2.027454 g / cm^3
# Si number density = 20.320789 Si / 1000 Ang^3
#
#
#
# Elastic Constant Matrix: (Units=GPa)
#
#
# Indices 1 2 3 4 5 6 
#
# 1 81.8590 12.1331 29.6040 0.0000 0.0000 0.0000
# 2 12.1331 99.3985 35.7945 0.0000 0.0000 0.0000
# 3 29.6040 35.7945 77.4178 0.0000 0.0000 0.0000
# 4 0.0000 0.0000 0.0000 24.9849 0.0000 0.0000
# 5 0.0000 0.0000 0.0000 0.0000 20.8309 0.0000
# 6 0.0000 0.0000 0.0000 0.0000 0.0000 32.2814
#
#
#
# Elastic Compliance Matrix: (Units=1/GPa)
#
#
# Indices 1 2 3 4 5 6 
#
# 1 0.014182 0.000266 -0.005546 0.000000 0.000000 0.000000
# 2 0.000266 0.012075 -0.005685 0.000000 0.000000 0.000000
# 3 -0.005546 -0.005685 0.017666 0.000000 0.000000 0.000000
# 4 0.000000 0.000000 0.000000 0.040024 0.000000 0.000000
# 5 0.000000 0.000000 0.000000 0.000000 0.048006 0.000000
# 6 0.000000 0.000000 0.000000 0.000000 0.000000 0.030978
#
#
# Mechanical properties :
#
#
# Convention : Reuss Voigt Hill
#
# Bulk Modulus (GPa) = 45.46722 45.97096 45.71909
# Shear Modulus (GPa) = 26.01559 27.69569 26.85564
#
# Velocity S-wave (km/s) = 3.58193 3.69579 3.63930
# Velocity P-wave (km/s) = 6.28731 6.39402 6.34089
#
# Compressibility (1/GPa) = 0.02199387
#
# Stress axis : x y z
#
# Youngs Moduli (GPa) = 70.50951 82.81449 56.60535
#
# Poissons Ratio (x) = -0.02204 0.31395
# Poissons Ratio (y) = -0.01876 0.32179
# Poissons Ratio (z) = 0.39107 0.47078
#
# Static dielectric constant tensor:
#      x y z
#    x 3.448100 0.000000 0.000000 
#    y 0.000000 3.884470 0.000000 
#    z 0.000000 0.000000 3.539210 
# 
# 
# High freq. dielectric constant tensor:
#      x y z
#    x 1.775890 0.000000 0.000000 
#    y 0.000000 1.809360 0.000000 
#    z 0.000000 0.000000 1.782190 
# 
# From -- ./inp_files/4690.got.cif
#   From: 2010.03.12/outbox.cif.g09.slc.cpg/sg36_3_cif.got.tgz:4690.got - 2010.04.14 02:13:53.
