data_PCOD8175102
_publ_section_title
;
Structure prediction by ZEFSAII (Michael W. Deem and Ramdas Pophale) SiO2 
 PCOD8175102
Probable space group: C M C 21
;
_chemical_formula_sum "Si O2"
_cell_formula_units_Z 44
_cell_length_a 14.847406
_cell_length_b 17.859034
_cell_length_c 8.220022
_cell_angle_alpha 90.000000
_cell_angle_beta 90.000000
_cell_angle_gamma 90.000000
_cell_volume 2179.623734
_symmetry_space_group_name_H-M "C M C 21"
_symmetry_group_IT_number 36
_symmetry_cell_setting 'orthorhombic'
loop_
_space_group_symop_operation_xyz
x,y,z
-x,-y,1/2+z
x,-y,1/2+z
-x,y,z
1/2+x,1/2+y,z
1/2-x,1/2-y,1/2+z
1/2+x,1/2-y,1/2+z
1/2-x,1/2+y,z
loop_
_atom_site_type_symbol
_atom_site_label
_atom_site_fract_x
_atom_site_fract_y
_atom_site_fract_z
Si Si1 0.326723 0.682046 0.232390
Si Si2 0.806337 0.672818 0.515681
Si Si3 0.000000 0.220131 0.719752
Si Si4 0.500000 0.823621 0.030263
Si Si5 0.500000 0.744786 0.370208
Si Si6 0.103725 0.050453 0.029500
Si Si7 0.351379 0.402263 0.189848
O O1 0.235218 0.682106 0.336632
O O2 0.320585 0.744572 0.092061
O O3 0.409928 0.695198 0.354391
O O4 0.342306 0.600259 0.158613
O O5 0.905589 0.633448 0.498656
O O6 0.747882 0.619850 0.630503
O O7 0.000000 0.256331 0.897776
O O8 0.000000 0.275493 0.558586
O O9 0.089089 0.171193 0.704184
O O10 0.500000 0.803762 0.223079
O O11 0.000000 0.078060 0.011796
O O12 0.104118 0.962857 0.070612
O O13 0.157980 0.058585 0.863187
#
# Coordination Sequence:
#
# PCOD8175102 Si02
#       7
#     8   8   4   4   4   8   8
#     4  11  21  37  60  88 128 167 211 258 327 386
#     4  11  23  39  59  89 123 173 217 271 309 381
#     4  12  20  37  61  94 126 171 200 258 326 401
#     4  10  24  42  59  87 128 168 227 277 303 360
#     4  10  20  33  60  87 128 161 203 251 323 385
#     4  12  23  39  62  96 135 168 198 264 346 410
#     4  12  24  37  61  92 133 169 211 254 332 408
#
# _framework density 20.186971
#
# number of rings (size 3 to 8) (size 9 to 14) (size 15 to 20)
#    0.000    0.727    4.545    5.455    0.000    0.000 
#    0.000    0.000    0.000    4.364    0.000    0.000 
#    0.000    0.000    0.000    0.000    0.000    0.000 
#
# Total GULP energy -272680.626499 kJ/mol
# GULP energy per Si atom -12394.573932 kJ/mol
# Density = 2.014102 g / cm^3
# Si number density = 20.186971 Si / 1000 Ang^3
#
#
#
# Elastic Constant Matrix: (Units=GPa)
#
#
# Indices 1 2 3 4 5 6 
#
# 1 162.7023 22.3155 32.3700 0.0000 0.0000 0.0000
# 2 22.3155 49.7148 19.4617 0.0000 0.0000 0.0000
# 3 32.3700 19.4617 100.4586 0.0000 0.0000 0.0000
# 4 0.0000 0.0000 0.0000 27.2851 0.0000 0.0000
# 5 0.0000 0.0000 0.0000 0.0000 39.0688 0.0000
# 6 0.0000 0.0000 0.0000 0.0000 0.0000 23.7322
#
#
#
# Elastic Compliance Matrix: (Units=1/GPa)
#
#
# Indices 1 2 3 4 5 6 
#
# 1 0.006818 -0.002381 -0.001736 0.000000 0.000000 0.000000
# 2 -0.002381 0.022597 -0.003610 0.000000 0.000000 0.000000
# 3 -0.001736 -0.003610 0.011213 0.000000 0.000000 0.000000
# 4 0.000000 0.000000 0.000000 0.036650 0.000000 0.000000
# 5 0.000000 0.000000 0.000000 0.000000 0.025596 0.000000
# 6 0.000000 0.000000 0.000000 0.000000 0.000000 0.042137
#
#
# Mechanical properties :
#
#
# Convention : Reuss Voigt Hill
#
# Bulk Modulus (GPa) = 39.72384 51.24113 45.48248
# Shear Modulus (GPa) = 29.61098 33.93244 31.77171
#
# Velocity S-wave (km/s) = 3.83408 4.10434 3.97151
# Velocity P-wave (km/s) = 6.27064 6.92092 6.60379
#
# Compressibility (1/GPa) = 0.02517380
#
# Stress axis : x y z
#
# Youngs Moduli (GPa) = 146.66900 44.25393 89.18160
#
# Poissons Ratio (x) = 0.10537 0.15479
# Poissons Ratio (y) = 0.34921 0.32199
# Poissons Ratio (z) = 0.25457 0.15978
#
# Static dielectric constant tensor:
#      x y z
#    x 4.000380 0.000000 0.000000 
#    y 0.000000 3.230210 0.000000 
#    z 0.000000 0.000000 3.974490 
# 
# 
# High freq. dielectric constant tensor:
#      x y z
#    x 1.792560 0.000000 0.000000 
#    y 0.000000 1.735880 0.000000 
#    z 0.000000 0.000000 1.814520 
# 
# From -- ./inp_files/3957.got.cif
#   From: 2010.03.12/outbox.cif.g09.slc.cpg/sg36_2_cif.got.tgz:3957.got - 2010.04.14 02:13:53.
