data_PCOD8175583
_publ_section_title
;
Structure prediction by ZEFSAII (Michael W. Deem and Ramdas Pophale) SiO2 
 PCOD8175583
Probable space group: C M C 21
;
_chemical_formula_sum "Si O2"
_cell_formula_units_Z 48
_cell_length_a 26.863319
_cell_length_b 9.970409
_cell_length_c 8.557656
_cell_angle_alpha 90.000000
_cell_angle_beta 90.000000
_cell_angle_gamma 90.000000
_cell_volume 2292.067843
_symmetry_space_group_name_H-M "C M C 21"
_symmetry_group_IT_number 36
_symmetry_cell_setting 'orthorhombic'
loop_
_space_group_symop_operation_xyz
x,y,z
-x,-y,1/2+z
x,-y,1/2+z
-x,y,z
1/2+x,1/2+y,z
1/2-x,1/2-y,1/2+z
1/2+x,1/2-y,1/2+z
1/2-x,1/2+y,z
loop_
_atom_site_type_symbol
_atom_site_label
_atom_site_fract_x
_atom_site_fract_y
_atom_site_fract_z
Si Si1 0.055972 0.411342 0.198700
Si Si2 0.944338 0.685406 0.045403
Si Si3 0.152913 0.829838 0.050785
Si Si4 0.188508 0.077984 0.882599
Si Si5 0.695746 0.078566 0.881240
Si Si6 0.154194 0.336969 0.053653
O O1 0.067701 0.381717 0.378607
O O2 0.095312 0.332206 0.091537
O O3 0.000000 0.365884 0.151183
O O4 0.061869 0.571039 0.176403
O O5 0.000000 0.746218 0.048763
O O6 0.905875 0.805052 0.079427
O O7 0.178854 0.880997 0.206164
O O8 0.178766 0.691892 0.001994
O O9 0.159115 0.940471 0.916031
O O10 0.246455 0.050330 0.907330
O O11 0.170103 0.189707 0.003052
O O12 0.685797 0.120542 0.704297
O O13 0.665579 0.942106 0.915595
#
# Coordination Sequence:
#
# PCOD8175583 Si02
#       6
#     8   8   8   8   8   8
#     4  10  20  39  67  98 126 159 207 265 323 374
#     4  10  22  42  69  97 127 165 211 270 325 386
#     4  12  25  45  63  93 130 172 217 266 324 387
#     4  12  27  41  63  92 132 176 212 265 323 384
#     4  12  23  42  66  93 129 170 221 264 316 383
#     4  12  23  41  66  99 126 166 218 266 323 380
#
# _framework density 20.941787999999999
#
# number of rings (size 3 to 8) (size 9 to 14) (size 15 to 20)
#    0.000    0.667    3.333    5.000    2.333    0.000 
#    0.000    1.667    0.000    0.000    0.000    0.000 
#    0.000    0.000    0.000    0.000    0.000    0.000 
#
# Total GULP energy -297762.990956 kJ/mol
# GULP energy per Si atom -12406.791290 kJ/mol
# Density = 2.089412 g / cm^3
# Si number density = 20.941788 Si / 1000 Ang^3
#
#
#
# Elastic Constant Matrix: (Units=GPa)
#
#
# Indices 1 2 3 4 5 6 
#
# 1 130.0939 41.9996 16.0466 0.0000 0.0000 0.0000
# 2 41.9996 64.6300 0.8513 0.0000 0.0000 0.0000
# 3 16.0466 0.8513 54.5931 0.0000 0.0000 0.0000
# 4 0.0000 0.0000 0.0000 30.8212 0.0000 0.0000
# 5 0.0000 0.0000 0.0000 0.0000 27.2426 0.0000
# 6 0.0000 0.0000 0.0000 0.0000 0.0000 24.4338
#
#
#
# Elastic Compliance Matrix: (Units=1/GPa)
#
#
# Indices 1 2 3 4 5 6 
#
# 1 0.010162 -0.006566 -0.002885 0.000000 0.000000 0.000000
# 2 -0.006566 0.019718 0.001622 0.000000 0.000000 0.000000
# 3 -0.002885 0.001622 0.019140 0.000000 0.000000 0.000000
# 4 0.000000 0.000000 0.000000 0.032445 0.000000 0.000000
# 5 0.000000 0.000000 0.000000 0.000000 0.036707 0.000000
# 6 0.000000 0.000000 0.000000 0.000000 0.000000 0.040927
#
#
# Mechanical properties :
#
#
# Convention : Reuss Voigt Hill
#
# Bulk Modulus (GPa) = 29.97227 40.79022 35.38124
# Shear Modulus (GPa) = 26.89946 29.19416 28.04681
#
# Velocity S-wave (km/s) = 3.58786 3.73777 3.66358
# Velocity P-wave (km/s) = 5.61310 6.17641 5.90148
#
# Compressibility (1/GPa) = 0.03336417
#
# Stress axis : x y z
#
# Youngs Moduli (GPa) = 98.40276 50.71462 52.24687
#
# Poissons Ratio (x) = 0.33299 0.15071
# Poissons Ratio (y) = 0.64611 -0.08477
# Poissons Ratio (z) = 0.28386 -0.08228
#
# Static dielectric constant tensor:
#      x y z
#    x 4.106430 0.000000 0.000000 
#    y 0.000000 3.783070 0.000000 
#    z 0.000000 0.000000 3.802400 
# 
# 
# High freq. dielectric constant tensor:
#      x y z
#    x 1.838040 0.000000 0.000000 
#    y 0.000000 1.801260 0.000000 
#    z 0.000000 0.000000 1.830090 
# 
# From -- ./inp_files/5964.got.cif
#   From: 2010.03.12/outbox.cif.g09.slc.cpg/sg36_3_cif.got.tgz:5964.got - 2010.04.14 02:13:53.
