data_PCOD8175314
_publ_section_title
;
Structure prediction by ZEFSAII (Michael W. Deem and Ramdas Pophale) SiO2 
 PCOD8175314
Probable space group: C M C 21
;
_chemical_formula_sum "Si O2"
_cell_formula_units_Z 64
_cell_length_a 19.477654
_cell_length_b 9.136195
_cell_length_c 18.848682
_cell_angle_alpha 90.000000
_cell_angle_beta 90.000000
_cell_angle_gamma 90.000000
_cell_volume 3354.153970
_symmetry_space_group_name_H-M "C M C 21"
_symmetry_group_IT_number 36
_symmetry_cell_setting 'orthorhombic'
loop_
_space_group_symop_operation_xyz
x,y,z
-x,-y,1/2+z
x,-y,1/2+z
-x,y,z
1/2+x,1/2+y,z
1/2-x,1/2-y,1/2+z
1/2+x,1/2-y,1/2+z
1/2-x,1/2+y,z
loop_
_atom_site_type_symbol
_atom_site_label
_atom_site_fract_x
_atom_site_fract_y
_atom_site_fract_z
Si Si1 0.335666 0.833687 0.254690
Si Si2 0.792678 0.018367 0.268616
Si Si3 0.579840 0.131672 0.890110
Si Si4 0.315065 0.582926 0.919041
Si Si5 0.184454 0.708861 0.601259
Si Si6 0.325615 0.547172 0.617190
Si Si7 0.080441 0.898179 0.995255
Si Si8 0.680088 0.908347 0.954748
O O1 0.287159 0.972393 0.268495
O O2 0.287987 0.692936 0.267024
O O3 0.399130 0.828700 0.309210
O O4 0.359708 0.832321 0.171910
O O5 0.829918 0.964466 0.338848
O O6 0.837941 0.960713 0.201955
O O7 0.500000 0.096985 0.890379
O O8 0.598355 0.259645 0.945676
O O9 0.619288 0.986335 0.912880
O O10 0.383378 0.540613 0.962067
O O11 0.301579 0.755320 0.917806
O O12 0.249214 0.504064 0.953945
O O13 0.262078 0.654185 0.606576
O O14 0.152228 0.624382 0.534171
O O15 0.187393 0.883000 0.587309
O O16 0.389536 0.620946 0.575199
O O17 0.000000 0.927161 0.000390
#
# Coordination Sequence:
#
# PCOD8175314 Si02
#       8
#     8   8   8   8   8   8   8   8
#     4  10  20  37  59  88 120 151 194 244 303 359
#     4  10  20  35  60  92 117 147 195 247 300 346
#     4  11  25  42  59  83 121 163 203 248 302 363
#     4  12  21  36  63  91 118 152 196 251 292 352
#     4  10  20  35  59  92 117 149 193 249 300 347
#     4  10  21  37  57  91 121 150 193 249 301 355
#     4  11  23  40  59  83 120 161 199 243 299 359
#     4  12  22  36  62  92 120 151 201 251 297 349
#
# _framework density 19.080815999999999
#
# number of rings (size 3 to 8) (size 9 to 14) (size 15 to 20)
#    0.000    1.250    5.000    1.500    1.750    0.500 
#    0.000    3.750    0.000    1.500    0.000    0.000 
#    0.000    0.000    0.000    0.000    0.000    0.000 
#
# Total GULP energy -396714.871428 kJ/mol
# GULP energy per Si atom -12397.339732 kJ/mol
# Density = 1.903739 g / cm^3
# Si number density = 19.080816 Si / 1000 Ang^3
#
#
#
# Elastic Constant Matrix: (Units=GPa)
#
#
# Indices 1 2 3 4 5 6 
#
# 1 88.0334 36.3513 47.4518 0.0000 0.0000 0.0000
# 2 36.3513 99.4915 33.7922 0.0000 0.0000 0.0000
# 3 47.4518 33.7922 151.0728 0.0000 0.0000 0.0000
# 4 0.0000 0.0000 0.0000 28.3699 0.0000 0.0000
# 5 0.0000 0.0000 0.0000 0.0000 27.6291 0.0000
# 6 0.0000 0.0000 0.0000 0.0000 0.0000 20.7581
#
#
#
# Elastic Compliance Matrix: (Units=1/GPa)
#
#
# Indices 1 2 3 4 5 6 
#
# 1 0.015169 -0.004247 -0.003815 0.000000 0.000000 0.000000
# 2 -0.004247 0.012066 -0.001365 0.000000 0.000000 0.000000
# 3 -0.003815 -0.001365 0.008123 0.000000 0.000000 0.000000
# 4 0.000000 0.000000 0.000000 0.035249 0.000000 0.000000
# 5 0.000000 0.000000 0.000000 0.000000 0.036194 0.000000
# 6 0.000000 0.000000 0.000000 0.000000 0.000000 0.048174
#
#
# Mechanical properties :
#
#
# Convention : Reuss Voigt Hill
#
# Bulk Modulus (GPa) = 60.58659 63.75427 62.17043
# Shear Modulus (GPa) = 27.88163 30.08491 28.98327
#
# Velocity S-wave (km/s) = 3.82676 3.97509 3.90163
# Velocity P-wave (km/s) = 7.16568 7.38605 7.27670
#
# Compressibility (1/GPa) = 0.01650530
#
# Stress axis : x y z
#
# Youngs Moduli (GPa) = 65.92355 82.87480 123.10909
#
# Poissons Ratio (x) = 0.35194 0.46962
# Poissons Ratio (y) = 0.27996 0.16806
# Poissons Ratio (z) = 0.25148 0.11314
#
# Static dielectric constant tensor:
#      x y z
#    x 3.079570 0.000000 0.000000 
#    y 0.000000 3.573390 0.000000 
#    z 0.000000 0.000000 4.118070 
# 
# 
# High freq. dielectric constant tensor:
#      x y z
#    x 1.694290 0.000000 0.000000 
#    y 0.000000 1.749210 0.000000 
#    z 0.000000 0.000000 1.770740 
# 
# From -- ./inp_files/16235.got.cif
#   From: 2010.03.12/outbox.cif.g09.slc.cpg/sg36_9_cif.got.tgz:16235.got - 2010.04.14 02:13:53.
