data_PCOD8175080
_publ_section_title
;
Structure prediction by ZEFSAII (Michael W. Deem and Ramdas Pophale) SiO2 
 PCOD8175080
Probable space group: C M C 21
;
_chemical_formula_sum "Si O2"
_cell_formula_units_Z 64
_cell_length_a 9.959324
_cell_length_b 32.473218
_cell_length_c 10.592401
_cell_angle_alpha 90.000000
_cell_angle_beta 90.000000
_cell_angle_gamma 90.000000
_cell_volume 3425.702171
_symmetry_space_group_name_H-M "C M C 21"
_symmetry_group_IT_number 36
_symmetry_cell_setting 'orthorhombic'
loop_
_space_group_symop_operation_xyz
x,y,z
-x,-y,1/2+z
x,-y,1/2+z
-x,y,z
1/2+x,1/2+y,z
1/2-x,1/2-y,1/2+z
1/2+x,1/2-y,1/2+z
1/2-x,1/2+y,z
loop_
_atom_site_type_symbol
_atom_site_label
_atom_site_fract_x
_atom_site_fract_y
_atom_site_fract_z
Si Si1 0.839701 0.975966 0.539430
Si Si2 0.655713 0.462450 0.822911
Si Si3 0.852432 0.673676 0.057735
Si Si4 0.353898 0.911764 0.422259
Si Si5 0.340594 0.214528 0.811043
Si Si6 0.347465 0.693927 0.263490
Si Si7 0.848507 0.878744 0.945301
Si Si8 0.155626 0.634390 0.670393
O O1 0.787557 0.979081 0.686560
O O2 0.769758 0.936916 0.476448
O O3 0.000000 0.969448 0.536598
O O4 0.791794 0.013935 0.449590
O O5 0.500000 0.471259 0.815381
O O6 0.687447 0.413827 0.840895
O O7 0.746406 0.670219 0.168005
O O8 0.000000 0.688712 0.105399
O O9 0.869020 0.629089 0.001642
O O10 0.791407 0.704442 0.952389
O O11 0.500000 0.934848 0.429463
O O12 0.323193 0.899410 0.278552
O O13 0.500000 0.212475 0.813000
O O14 0.288113 0.260068 0.779076
O O15 0.289863 0.179712 0.712820
O O16 0.500000 0.695679 0.212986
O O17 0.340121 0.667393 0.390755
O O18 0.743116 0.882483 0.056505
O O19 0.000000 0.887066 0.995509
O O20 0.000000 0.637312 0.629508
#
# Coordination Sequence:
#
# PCOD8175080 Si02
#       8
#     8   8   8   8   8   8   8   8
#     4  10  20  36  60  84 109 146 185 223 271 332
#     4   9  20  36  55  83 116 145 180 227 280 330
#     4   9  18  34  54  73 100 138 176 214 265 329
#     4   9  19  36  56  79 107 140 178 224 274 321
#     4   8  17  34  52  73 105 142 175 217 272 322
#     4  10  20  33  52  77 107 140 175 224 273 314
#     4  10  21  35  53  80 113 143 179 228 280 324
#     4   9  19  36  56  77 107 146 184 221 271 330
#
# _framework density 18.682300000000001
#
# number of rings (size 3 to 8) (size 9 to 14) (size 15 to 20)
#    0.000    2.750    0.000    2.250    3.500    2.500 
#    0.000    4.375    0.000    0.000    0.000    0.000 
#    0.000    0.000    0.000    0.000    0.000    0.000 
#
# Total GULP energy -396502.233903 kJ/mol
# GULP energy per Si atom -12390.694809 kJ/mol
# Density = 1.863978 g / cm^3
# Si number density = 18.682300 Si / 1000 Ang^3
#
#
#
# Elastic Constant Matrix: (Units=GPa)
#
#
# Indices 1 2 3 4 5 6 
#
# 1 63.2284 18.8730 49.9616 0.0000 0.0000 0.0000
# 2 18.8730 55.4446 49.3981 0.0000 0.0000 0.0000
# 3 49.9616 49.3981 106.3603 0.0000 0.0000 0.0000
# 4 0.0000 0.0000 0.0000 8.1957 0.0000 0.0000
# 5 0.0000 0.0000 0.0000 0.0000 13.2306 0.0000
# 6 0.0000 0.0000 0.0000 0.0000 0.0000 24.3255
#
#
#
# Elastic Compliance Matrix: (Units=1/GPa)
#
#
# Indices 1 2 3 4 5 6 
#
# 1 0.025522 0.003401 -0.013568 0.000000 0.000000 0.000000
# 2 0.003401 0.031220 -0.016098 0.000000 0.000000 0.000000
# 3 -0.013568 -0.016098 0.023252 0.000000 0.000000 0.000000
# 4 0.000000 0.000000 0.000000 0.122016 0.000000 0.000000
# 5 0.000000 0.000000 0.000000 0.000000 0.075582 0.000000
# 6 0.000000 0.000000 0.000000 0.000000 0.000000 0.041109
#
#
# Mechanical properties :
#
#
# Convention : Reuss Voigt Hill
#
# Bulk Modulus (GPa) = 36.41062 51.27763 43.84412
# Shear Modulus (GPa) = 13.14457 16.27041 14.70749
#
# Velocity S-wave (km/s) = 2.65539 2.95430 2.80883
# Velocity P-wave (km/s) = 5.37896 6.25651 5.83426
#
# Compressibility (1/GPa) = 0.02746452
#
# Stress axis : x y z
#
# Youngs Moduli (GPa) = 39.18239 32.03033 43.00735
#
# Poissons Ratio (x) = -0.10893 0.58353
# Poissons Ratio (y) = -0.13326 0.69232
# Poissons Ratio (z) = 0.53163 0.51561
#
# Static dielectric constant tensor:
#      x y z
#    x 3.373280 0.000000 0.000000 
#    y 0.000000 3.600770 0.000000 
#    z 0.000000 0.000000 3.605180 
# 
# 
# High freq. dielectric constant tensor:
#      x y z
#    x 1.701760 0.000000 0.000000 
#    y 0.000000 1.725110 0.000000 
#    z 0.000000 0.000000 1.722740 
# 
# From -- ./inp_files/3580.got.cif
#   From: 2010.03.12/outbox.cif.g09.slc.cpg/sg36_2_cif.got.tgz:3580.got - 2010.04.14 02:13:53.
