data_PCOD8175596
_publ_section_title
;
Structure prediction by ZEFSAII (Michael W. Deem and Ramdas Pophale) SiO2 
 PCOD8175596
Probable space group: C M C 21
;
_chemical_formula_sum "Si O2"
_cell_formula_units_Z 48
_cell_length_a 8.853120
_cell_length_b 27.115364
_cell_length_c 9.959813
_cell_angle_alpha 90.000000
_cell_angle_beta 90.000000
_cell_angle_gamma 90.000000
_cell_volume 2390.908600
_symmetry_space_group_name_H-M "C M C 21"
_symmetry_group_IT_number 36
_symmetry_cell_setting 'orthorhombic'
loop_
_space_group_symop_operation_xyz
x,y,z
-x,-y,1/2+z
x,-y,1/2+z
-x,y,z
1/2+x,1/2+y,z
1/2-x,1/2-y,1/2+z
1/2+x,1/2-y,1/2+z
1/2-x,1/2+y,z
loop_
_atom_site_type_symbol
_atom_site_label
_atom_site_fract_x
_atom_site_fract_y
_atom_site_fract_z
Si Si1 0.824031 0.928085 0.407010
Si Si2 0.325649 0.385213 0.696576
Si Si3 0.178004 0.792400 0.054667
Si Si4 0.177767 0.606932 0.644571
Si Si5 0.175566 0.959594 0.933881
Si Si6 0.322716 0.214725 0.278807
O O1 0.785015 0.905107 0.550375
O O2 0.730102 0.897754 0.297859
O O3 0.000000 0.922869 0.372297
O O4 0.773095 0.984841 0.404296
O O5 0.500000 0.368904 0.707312
O O6 0.289013 0.428261 0.801575
O O7 0.220415 0.339098 0.726728
O O8 0.249651 0.845497 0.076783
O O9 0.228221 0.754943 0.170130
O O10 0.000000 0.799058 0.047587
O O11 0.236730 0.770739 0.914444
O O12 0.229731 0.559396 0.560582
O O13 0.000000 0.612468 0.638905
O O14 0.000000 0.957668 0.974352
O O15 0.500000 0.216507 0.305843
#
# Coordination Sequence:
#
# PCOD8175596 Si02
#       6
#     8   8   8   8   8   8
#     4  10  22  40  64  94 126 168 216 255 302 372
#     4  10  21  38  64  93 124 165 208 257 308 365
#     4  11  25  45  67  92 124 165 208 252 309 379
#     4  12  25  40  62  94 130 167 207 260 316 363
#     4  10  20  40  67  92 122 166 215 258 307 371
#     4  11  25  43  66  95 124 159 204 260 316 370
#
# _framework density 20.076051
#
# number of rings (size 3 to 8) (size 9 to 14) (size 15 to 20)
#    0.000    1.333    1.667    3.500    2.333    6.667 
#    0.000    1.667    0.000    0.000    0.000    0.000 
#    0.000    0.000    0.000    0.000    0.000    0.000 
#
# Total GULP energy -297782.081997 kJ/mol
# GULP energy per Si atom -12407.586750 kJ/mol
# Density = 2.003036 g / cm^3
# Si number density = 20.076051 Si / 1000 Ang^3
#
#
#
# Elastic Constant Matrix: (Units=GPa)
#
#
# Indices 1 2 3 4 5 6 
#
# 1 79.4828 35.0192 51.9488 0.0000 0.0000 0.0000
# 2 35.0192 78.5528 38.5710 0.0000 0.0000 0.0000
# 3 51.9488 38.5710 144.4542 0.0000 0.0000 0.0000
# 4 0.0000 0.0000 0.0000 36.7617 0.0000 0.0000
# 5 0.0000 0.0000 0.0000 0.0000 33.2748 0.0000
# 6 0.0000 0.0000 0.0000 0.0000 0.0000 26.1113
#
#
#
# Elastic Compliance Matrix: (Units=1/GPa)
#
#
# Indices 1 2 3 4 5 6 
#
# 1 0.018434 -0.005712 -0.005104 0.000000 0.000000 0.000000
# 2 -0.005712 0.016421 -0.002331 0.000000 0.000000 0.000000
# 3 -0.005104 -0.002331 0.009380 0.000000 0.000000 0.000000
# 4 0.000000 0.000000 0.000000 0.027202 0.000000 0.000000
# 5 0.000000 0.000000 0.000000 0.000000 0.030053 0.000000
# 6 0.000000 0.000000 0.000000 0.000000 0.000000 0.038298
#
#
# Mechanical properties :
#
#
# Convention : Reuss Voigt Hill
#
# Bulk Modulus (GPa) = 55.73347 61.50753 58.62050
# Shear Modulus (GPa) = 29.05942 31.02627 30.04284
#
# Velocity S-wave (km/s) = 3.80869 3.93547 3.87260
# Velocity P-wave (km/s) = 6.86752 7.16619 7.01845
#
# Compressibility (1/GPa) = 0.01794254
#
# Stress axis : x y z
#
# Youngs Moduli (GPa) = 54.24819 60.89796 106.60479
#
# Poissons Ratio (x) = 0.34783 0.54412
# Poissons Ratio (y) = 0.30985 0.24845
# Poissons Ratio (z) = 0.27689 0.14193
#
# Static dielectric constant tensor:
#      x y z
#    x 3.555460 0.000000 0.000000 
#    y 0.000000 3.710590 0.000000 
#    z 0.000000 0.000000 3.858570 
# 
# 
# High freq. dielectric constant tensor:
#      x y z
#    x 1.776900 0.000000 0.000000 
#    y 0.000000 1.790760 0.000000 
#    z 0.000000 0.000000 1.803310 
# 
# From -- ./inp_files/2657.got.cif
#   From: 2010.03.12/outbox.cif.g09.slc.cpg/sg36_2_cif.got.tgz:2657.got - 2010.04.14 02:13:53.
