data_PCOD8175432
_publ_section_title
;
Structure prediction by ZEFSAII (Michael W. Deem and Ramdas Pophale) SiO2 
 PCOD8175432
Probable space group: C M C 21
;
_chemical_formula_sum "Si O2"
_cell_formula_units_Z 64
_cell_length_a 8.961482
_cell_length_b 15.319501
_cell_length_c 24.058613
_cell_angle_alpha 90.000000
_cell_angle_beta 90.000000
_cell_angle_gamma 90.000000
_cell_volume 3302.897090
_symmetry_space_group_name_H-M "C M C 21"
_symmetry_group_IT_number 36
_symmetry_cell_setting 'orthorhombic'
loop_
_space_group_symop_operation_xyz
x,y,z
-x,-y,1/2+z
x,-y,1/2+z
-x,y,z
1/2+x,1/2+y,z
1/2-x,1/2-y,1/2+z
1/2+x,1/2-y,1/2+z
1/2-x,1/2+y,z
loop_
_atom_site_type_symbol
_atom_site_label
_atom_site_fract_x
_atom_site_fract_y
_atom_site_fract_z
Si Si1 0.668987 0.974005 0.630570
Si Si2 0.321560 0.236493 0.250713
Si Si3 0.677688 0.364355 0.445916
Si Si4 0.671466 0.480498 0.023371
Si Si5 0.323609 0.960184 0.751992
Si Si6 0.677329 0.119155 0.826963
Si Si7 0.331366 0.770299 0.627543
Si Si8 0.174408 0.786969 0.010967
O O1 0.500000 0.007660 0.628457
O O2 0.679573 0.872515 0.616429
O O3 0.757342 0.026744 0.584128
O O4 0.740805 0.989952 0.691729
O O5 0.500000 0.248569 0.255485
O O6 0.236076 0.299960 0.291668
O O7 0.261547 0.254667 0.187632
O O8 0.273270 0.137878 0.267784
O O9 0.500000 0.364503 0.440726
O O10 0.738615 0.442164 0.485487
O O11 0.748210 0.380254 0.386441
O O12 0.732036 0.271363 0.468542
O O13 0.500000 0.500931 0.033338
O O14 0.695534 0.387610 0.992782
O O15 0.500000 0.958532 0.744434
O O16 0.271429 0.028498 0.798411
O O17 0.500000 0.125629 0.832244
O O18 0.500000 0.738060 0.630853
O O19 0.258286 0.724276 0.573649
O O20 0.000000 0.759232 0.008978
#
# Coordination Sequence:
#
# PCOD8175432 Si02
#       8
#     8   8   8   8   8   8   8   8
#     4   9  16  32  58  84 114 152 189 224 270 338
#     4   9  18  36  59  85 115 151 189 230 276 335
#     4  11  24  42  57  79 114 151 191 240 285 332
#     4  10  22  36  55  85 118 146 183 237 289 331
#     4   8  18  36  57  83 116 151 187 227 276 337
#     4  11  23  39  59  83 111 150 193 237 283 334
#     4   8  15  30  56  84 114 150 185 220 273 339
#     4  10  20  37  59  85 114 151 189 229 282 342
#
# _framework density 19.376926999999998
#
# number of rings (size 3 to 8) (size 9 to 14) (size 15 to 20)
#    0.000    2.500    1.250    2.250    1.750    2.000 
#    0.000    7.500    0.000    0.000    0.000    0.000 
#    0.000    0.000    0.000    0.000    0.000    0.000 
#
# Total GULP energy -396646.296629 kJ/mol
# GULP energy per Si atom -12395.196770 kJ/mol
# Density = 1.933282 g / cm^3
# Si number density = 19.376927 Si / 1000 Ang^3
#
#
#
# Elastic Constant Matrix: (Units=GPa)
#
#
# Indices 1 2 3 4 5 6 
#
# 1 49.6127 29.4236 34.2653 0.0000 0.0000 0.0000
# 2 29.4236 82.8277 41.3826 0.0000 0.0000 0.0000
# 3 34.2653 41.3826 110.7215 0.0000 0.0000 0.0000
# 4 0.0000 0.0000 0.0000 23.1306 0.0000 0.0000
# 5 0.0000 0.0000 0.0000 0.0000 25.5240 0.0000
# 6 0.0000 0.0000 0.0000 0.0000 0.0000 23.4174
#
#
#
# Elastic Compliance Matrix: (Units=1/GPa)
#
#
# Indices 1 2 3 4 5 6 
#
# 1 0.028646 -0.007066 -0.006224 0.000000 0.000000 0.000000
# 2 -0.007066 0.016589 -0.004013 0.000000 0.000000 0.000000
# 3 -0.006224 -0.004013 0.012458 0.000000 0.000000 0.000000
# 4 0.000000 0.000000 0.000000 0.043233 0.000000 0.000000
# 5 0.000000 0.000000 0.000000 0.000000 0.039179 0.000000
# 6 0.000000 0.000000 0.000000 0.000000 0.000000 0.042703
#
#
# Mechanical properties :
#
#
# Convention : Reuss Voigt Hill
#
# Bulk Modulus (GPa) = 43.31841 50.36720 46.84281
# Shear Modulus (GPa) = 22.21149 23.62042 22.91596
#
# Velocity S-wave (km/s) = 3.38936 3.49520 3.44269
# Velocity P-wave (km/s) = 6.14176 6.50680 6.32691
#
# Compressibility (1/GPa) = 0.02308487
#
# Stress axis : x y z
#
# Youngs Moduli (GPa) = 34.90949 60.28238 80.27124
#
# Poissons Ratio (x) = 0.42598 0.49960
# Poissons Ratio (y) = 0.24668 0.32215
# Poissons Ratio (z) = 0.21727 0.24193
#
# Static dielectric constant tensor:
#      x y z
#    x 3.232870 0.000000 0.000000 
#    y 0.000000 3.626730 0.000000 
#    z 0.000000 0.000000 3.717180 
# 
# 
# High freq. dielectric constant tensor:
#      x y z
#    x 1.722050 0.000000 0.000000 
#    y 0.000000 1.759660 0.000000 
#    z 0.000000 0.000000 1.758740 
# 
# From -- ./inp_files/16538.got.cif
#   From: 2010.03.12/outbox.cif.g09.slc.cpg/sg36_9_cif.got.tgz:16538.got - 2010.04.14 02:13:53.
