data_PCOD8175191
_publ_section_title
;
Structure prediction by ZEFSAII (Michael W. Deem and Ramdas Pophale) SiO2 
 PCOD8175191
Probable space group: C M C 21
;
_chemical_formula_sum "Si O2"
_cell_formula_units_Z 64
_cell_length_a 9.223455
_cell_length_b 31.725345
_cell_length_c 10.839022
_cell_angle_alpha 90.000000
_cell_angle_beta 90.000000
_cell_angle_gamma 90.000000
_cell_volume 3171.685265
_symmetry_space_group_name_H-M "C M C 21"
_symmetry_group_IT_number 36
_symmetry_cell_setting 'orthorhombic'
loop_
_space_group_symop_operation_xyz
x,y,z
-x,-y,1/2+z
x,-y,1/2+z
-x,y,z
1/2+x,1/2+y,z
1/2-x,1/2-y,1/2+z
1/2+x,1/2-y,1/2+z
1/2-x,1/2+y,z
loop_
_atom_site_type_symbol
_atom_site_label
_atom_site_fract_x
_atom_site_fract_y
_atom_site_fract_z
Si Si1 0.660814 0.158073 0.915290
Si Si2 0.328924 0.280733 0.996476
Si Si3 0.826893 0.226372 0.782179
Si Si4 0.157423 0.432068 0.306098
Si Si5 0.168906 0.941290 0.077054
Si Si6 0.170478 0.129941 0.401379
Si Si7 0.829611 0.123518 0.129062
Si Si8 0.667113 0.534312 0.012910
O O1 0.500000 0.179214 0.930135
O O2 0.757518 0.181008 0.811989
O O3 0.639149 0.110075 0.882175
O O4 0.746664 0.157600 0.044633
O O5 0.500000 0.274966 0.973159
O O6 0.289567 0.264273 0.136303
O O7 0.244046 0.257134 0.885442
O O8 0.283495 0.329957 0.984671
O O9 0.000000 0.225693 0.799920
O O10 0.247142 0.419695 0.187282
O O11 0.242983 0.465997 0.386959
O O12 0.000000 0.450807 0.271943
O O13 0.000000 0.934371 0.098941
O O14 0.221809 0.914634 0.958635
O O15 0.210186 0.990540 0.077226
O O16 0.235370 0.132725 0.264129
O O17 0.000000 0.128903 0.385794
O O18 0.000000 0.132613 0.115530
O O19 0.796970 0.074347 0.098576
O O20 0.500000 0.533798 0.973985
#
# Coordination Sequence:
#
# PCOD8175191 Si02
#       8
#     8   8   8   8   8   8   8   8
#     4  10  21  38  60  85 116 154 196 242 296 358
#     4  10  23  42  62  90 126 161 202 251 305 366
#     4  11  24  41  65  93 122 158 202 251 305 364
#     4  10  21  36  54  78 113 151 189 235 292 355
#     4  10  20  34  58  84 112 150 194 246 294 345
#     4   9  19  36  59  85 118 155 195 245 300 356
#     4   9  18  34  57  87 118 153 199 246 298 358
#     4   9  19  33  55  84 113 148 195 246 290 344
#
# _framework density 20.178546999999998
#
# number of rings (size 3 to 8) (size 9 to 14) (size 15 to 20)
#    0.000    2.250    0.000    1.875    3.500    4.000 
#    0.000    1.250    0.000    0.000    0.000    0.000 
#    0.000    0.000    0.000    0.000    0.000    0.000 
#
# Total GULP energy -396514.615691 kJ/mol
# GULP energy per Si atom -12391.081740 kJ/mol
# Density = 2.013262 g / cm^3
# Si number density = 20.178547 Si / 1000 Ang^3
#
#
#
# Elastic Constant Matrix: (Units=GPa)
#
#
# Indices 1 2 3 4 5 6 
#
# 1 75.0163 35.7518 57.2492 0.0000 0.0000 0.0000
# 2 35.7518 69.9891 35.9415 0.0000 0.0000 0.0000
# 3 57.2492 35.9415 153.3418 0.0000 0.0000 0.0000
# 4 0.0000 0.0000 0.0000 23.5281 0.0000 0.0000
# 5 0.0000 0.0000 0.0000 0.0000 11.8753 0.0000
# 6 0.0000 0.0000 0.0000 0.0000 0.0000 20.9054
#
#
#
# Elastic Compliance Matrix: (Units=1/GPa)
#
#
# Indices 1 2 3 4 5 6 
#
# 1 0.021958 -0.007966 -0.006331 0.000000 0.000000 0.000000
# 2 -0.007966 0.019133 -0.001511 0.000000 0.000000 0.000000
# 3 -0.006331 -0.001511 0.009239 0.000000 0.000000 0.000000
# 4 0.000000 0.000000 0.000000 0.042502 0.000000 0.000000
# 5 0.000000 0.000000 0.000000 0.000000 0.084209 0.000000
# 6 0.000000 0.000000 0.000000 0.000000 0.000000 0.047834
#
#
# Mechanical properties :
#
#
# Convention : Reuss Voigt Hill
#
# Bulk Modulus (GPa) = 53.43086 61.80357 57.61722
# Shear Modulus (GPa) = 19.03108 22.55541 20.79325
#
# Velocity S-wave (km/s) = 3.07438 3.34697 3.21357
# Velocity P-wave (km/s) = 6.25611 6.75508 6.51038
#
# Compressibility (1/GPa) = 0.01871578
#
# Stress axis : x y z
#
# Youngs Moduli (GPa) = 45.54104 52.26681 108.23625
#
# Poissons Ratio (x) = 0.41633 0.68524
# Poissons Ratio (y) = 0.36276 0.16350
# Poissons Ratio (z) = 0.28832 0.07895
#
# Static dielectric constant tensor:
#      x y z
#    x 3.772300 0.000000 0.000000 
#    y 0.000000 3.669480 0.000000 
#    z 0.000000 0.000000 3.842620 
# 
# 
# High freq. dielectric constant tensor:
#      x y z
#    x 1.772710 0.000000 0.000000 
#    y 0.000000 1.786650 0.000000 
#    z 0.000000 0.000000 1.792870 
# 
# From -- ./inp_files/7130.got.cif
#   From: 2010.03.12/outbox.cif.g09.slc.cpg/sg36_4_cif.got.tgz:7130.got - 2010.04.14 02:13:53.
