data_PCOD8175865
_publ_section_title
;
Structure prediction by ZEFSAII (Michael W. Deem and Ramdas Pophale) SiO2 
 PCOD8175865
Probable space group: C M C 21
;
_chemical_formula_sum "Si O2"
_cell_formula_units_Z 64
_cell_length_a 9.146351
_cell_length_b 23.821307
_cell_length_c 15.177836
_cell_angle_alpha 90.000000
_cell_angle_beta 90.000000
_cell_angle_gamma 90.000000
_cell_volume 3306.917085
_symmetry_space_group_name_H-M "C M C 21"
_symmetry_group_IT_number 36
_symmetry_cell_setting 'orthorhombic'
loop_
_space_group_symop_operation_xyz
x,y,z
-x,-y,1/2+z
x,-y,1/2+z
-x,y,z
1/2+x,1/2+y,z
1/2-x,1/2-y,1/2+z
1/2+x,1/2-y,1/2+z
1/2-x,1/2+y,z
loop_
_atom_site_type_symbol
_atom_site_label
_atom_site_fract_x
_atom_site_fract_y
_atom_site_fract_z
Si Si1 0.333874 0.741084 0.489130
Si Si2 0.326486 0.741684 0.811346
Si Si3 0.666270 0.009778 0.809281
Si Si4 0.327149 0.944170 0.635198
Si Si5 0.337880 0.377059 0.082517
Si Si6 0.673242 0.816168 0.649045
Si Si7 0.334680 0.866274 0.253289
Si Si8 0.168285 0.009695 0.484427
O O1 0.500000 0.756633 0.461651
O O2 0.231914 0.737790 0.404535
O O3 0.326383 0.680601 0.531687
O O4 0.271524 0.786592 0.559090
O O5 0.500000 0.741491 0.812973
O O6 0.265828 0.782648 0.734258
O O7 0.272030 0.678710 0.796193
O O8 0.500000 0.989976 0.826758
O O9 0.721944 0.982431 0.717706
O O10 0.769649 0.989129 0.886394
O O11 0.676011 0.076844 0.808557
O O12 0.500000 0.946814 0.620332
O O13 0.273375 0.880447 0.652201
O O14 0.252521 0.966170 0.546625
O O15 0.500000 0.382320 0.125702
O O16 0.212483 0.380181 0.154590
O O17 0.309473 0.427045 0.015526
O O18 0.500000 0.812220 0.651236
O O19 0.500000 0.843213 0.252675
O O20 0.000000 0.991320 0.482626
#
# Coordination Sequence:
#
# PCOD8175865 Si02
#       8
#     8   8   8   8   8   8   8   8
#     4  10  21  40  61  86 119 159 198 237 291 355
#     4  11  23  40  61  90 121 155 196 245 300 350
#     4  10  23  40  61  87 118 158 202 245 290 348
#     4  10  21  41  63  86 117 158 203 245 288 349
#     4  10  21  40  63  86 120 157 194 246 304 351
#     4   9  20  39  62  83 116 159 194 235 295 351
#     4  11  22  39  63  89 115 154 204 248 294 351
#     4  11  24  39  60  91 122 156 195 245 306 355
#
# _framework density 19.353373000000001
#
# number of rings (size 3 to 8) (size 9 to 14) (size 15 to 20)
#    0.000    1.750    2.500    1.125    3.500    2.500 
#    0.000    1.250    0.000    0.000    0.000    0.000 
#    0.000    0.000    0.000    0.000    0.000    0.000 
#
# Total GULP energy -396886.072416 kJ/mol
# GULP energy per Si atom -12402.689763 kJ/mol
# Density = 1.930932 g / cm^3
# Si number density = 19.353373 Si / 1000 Ang^3
#
#
#
# Elastic Constant Matrix: (Units=GPa)
#
#
# Indices 1 2 3 4 5 6 
#
# 1 67.9117 20.4109 32.1411 0.0000 0.0000 0.0000
# 2 20.4109 86.4245 6.6795 0.0000 0.0000 0.0000
# 3 32.1411 6.6795 82.0217 0.0000 0.0000 0.0000
# 4 0.0000 0.0000 0.0000 25.6506 0.0000 0.0000
# 5 0.0000 0.0000 0.0000 0.0000 38.4808 0.0000
# 6 0.0000 0.0000 0.0000 0.0000 0.0000 25.8800
#
#
#
# Elastic Compliance Matrix: (Units=1/GPa)
#
#
# Indices 1 2 3 4 5 6 
#
# 1 0.019368 -0.004013 -0.007263 0.000000 0.000000 0.000000
# 2 -0.004013 0.012476 0.000557 0.000000 0.000000 0.000000
# 3 -0.007263 0.000557 0.014993 0.000000 0.000000 0.000000
# 4 0.000000 0.000000 0.000000 0.038986 0.000000 0.000000
# 5 0.000000 0.000000 0.000000 0.000000 0.025987 0.000000
# 6 0.000000 0.000000 0.000000 0.000000 0.000000 0.038640
#
#
# Mechanical properties :
#
#
# Convention : Reuss Voigt Hill
#
# Bulk Modulus (GPa) = 39.37318 39.42452 39.39885
# Shear Modulus (GPa) = 27.72331 29.81071 28.76701
#
# Velocity S-wave (km/s) = 3.78892 3.92897 3.85958
# Velocity P-wave (km/s) = 6.28727 6.40293 6.34536
#
# Compressibility (1/GPa) = 0.02539800
#
# Stress axis : x y z
#
# Youngs Moduli (GPa) = 51.63024 80.15708 66.69936
#
# Poissons Ratio (x) = 0.32166 0.48443
# Poissons Ratio (y) = 0.20719 -0.03712
# Poissons Ratio (z) = 0.37499 -0.04461
#
# Static dielectric constant tensor:
#      x y z
#    x 2.717460 0.000000 0.000000 
#    y 0.000000 3.672370 0.000000 
#    z 0.000000 0.000000 3.582780 
# 
# 
# High freq. dielectric constant tensor:
#      x y z
#    x 1.740840 0.000000 0.000000 
#    y 0.000000 1.766830 0.000000 
#    z 0.000000 0.000000 1.757720 
# 
# From -- ./inp_files/10968.got.cif
#   From: 2010.03.12/outbox.cif.g09.slc.cpg/sg36_6_cif.got.tgz:10968.got - 2010.04.14 02:13:53.
