data_PCOD8175210
_publ_section_title
;
Structure prediction by ZEFSAII (Michael W. Deem and Ramdas Pophale) SiO2 
 PCOD8175210
Probable space group: C M C 21
;
_chemical_formula_sum "Si O2"
_cell_formula_units_Z 64
_cell_length_a 8.768548
_cell_length_b 19.980587
_cell_length_c 19.969486
_cell_angle_alpha 90.000000
_cell_angle_beta 90.000000
_cell_angle_gamma 90.000000
_cell_volume 3498.668648
_symmetry_space_group_name_H-M "C M C 21"
_symmetry_group_IT_number 36
_symmetry_cell_setting 'orthorhombic'
loop_
_space_group_symop_operation_xyz
x,y,z
-x,-y,1/2+z
x,-y,1/2+z
-x,y,z
1/2+x,1/2+y,z
1/2-x,1/2-y,1/2+z
1/2+x,1/2-y,1/2+z
1/2-x,1/2+y,z
loop_
_atom_site_type_symbol
_atom_site_label
_atom_site_fract_x
_atom_site_fract_y
_atom_site_fract_z
Si Si1 0.821079 0.577676 0.175600
Si Si2 0.320334 0.826711 0.919510
Si Si3 0.177402 0.429655 0.316515
Si Si4 0.178557 0.679054 0.066055
Si Si5 0.820782 0.070648 0.317326
Si Si6 0.826693 0.575464 0.663415
Si Si7 0.319289 0.814452 0.416795
Si Si8 0.322763 0.329335 0.060629
O O1 0.750637 0.627470 0.119624
O O2 0.731116 0.592198 0.243468
O O3 0.792416 0.502428 0.150303
O O4 0.000000 0.589327 0.189779
O O5 0.500000 0.822424 0.916271
O O6 0.263111 0.883508 0.870360
O O7 0.252885 0.755888 0.895742
O O8 0.270721 0.846775 0.994261
O O9 0.276568 0.494390 0.333305
O O10 0.204674 0.406139 0.240543
O O11 0.234173 0.370551 0.364673
O O12 0.000000 0.447524 0.327909
O O13 0.220357 0.754976 0.086572
O O14 0.000000 0.666468 0.067003
O O15 0.239280 0.664564 0.990924
O O16 0.000000 0.080058 0.324309
O O17 0.713030 0.618348 0.618654
O O18 0.000000 0.592994 0.643656
O O19 0.500000 0.804964 0.416311
O O20 0.500000 0.332604 0.041831
#
# Coordination Sequence:
#
# PCOD8175210 Si02
#       8
#     8   8   8   8   8   8   8   8
#     4   9  18  35  55  76 104 140 181 218 260 316
#     4  11  22  37  56  77 105 141 179 219 267 321
#     4   9  19  36  57  80 109 144 179 217 264 320
#     4   8  16  32  54  77 102 134 171 213 259 308
#     4  11  22  36  54  78 108 140 179 226 269 312
#     4   9  18  32  51  77 107 139 175 214 257 312
#     4   9  18  35  57  82 110 138 173 218 266 314
#     4  10  20  35  54  77 105 136 173 219 268 315
#
# _framework density 18.292673000000001
#
# number of rings (size 3 to 8) (size 9 to 14) (size 15 to 20)
#    0.000    2.500    0.000    4.125    0.000    4.500 
#    0.000    8.125    0.000    0.000    0.000    0.000 
#    0.000    0.000    0.000    0.000    0.000    0.000 
#
# Total GULP energy -396827.124903 kJ/mol
# GULP energy per Si atom -12400.847653 kJ/mol
# Density = 1.825104 g / cm^3
# Si number density = 18.292673 Si / 1000 Ang^3
#
#
#
# Elastic Constant Matrix: (Units=GPa)
#
#
# Indices 1 2 3 4 5 6 
#
# 1 58.5826 30.5202 28.9344 0.0000 0.0000 0.0000
# 2 30.5202 101.6417 76.3152 0.0000 0.0000 0.0000
# 3 28.9344 76.3152 97.3260 0.0000 0.0000 0.0000
# 4 0.0000 0.0000 0.0000 -3.7191 0.0000 0.0000
# 5 0.0000 0.0000 0.0000 0.0000 27.9301 0.0000
# 6 0.0000 0.0000 0.0000 0.0000 0.0000 28.0624
#
#
#
# Elastic Compliance Matrix: (Units=1/GPa)
#
#
# Indices 1 2 3 4 5 6 
#
# 1 0.020613 -0.003862 -0.003100 0.000000 0.000000 0.000000
# 2 -0.003862 0.024646 -0.018177 0.000000 0.000000 0.000000
# 3 -0.003100 -0.018177 0.025449 0.000000 0.000000 0.000000
# 4 0.000000 0.000000 0.000000 -0.268879 0.000000 0.000000
# 5 0.000000 0.000000 0.000000 0.000000 0.035804 0.000000
# 6 0.000000 0.000000 0.000000 0.000000 0.000000 0.035635
#
#
# Mechanical properties :
#
#
# Convention : Reuss Voigt Hill
#
# Bulk Modulus (GPa) = 48.94711 58.78775 53.86743
# Shear Modulus (GPa) = -71.79413 18.57338 -26.61037
#
# Velocity S-wave (km/s) = -6.27158 3.18991 -3.81819
# Velocity P-wave (km/s) = 5.06238 6.76568 3.17385
#
# Compressibility (1/GPa) = 0.02043021
#
# Stress axis : x y z
#
# Youngs Moduli (GPa) = 48.51308 40.57416 39.29353
#
# Poissons Ratio (x) = 0.15670 0.12180
# Poissons Ratio (y) = 0.18737 0.71425
# Poissons Ratio (z) = 0.15038 0.73753
#
# Static dielectric constant tensor:
#      x y z
#    x 3.206440 0.000000 0.000000 
#    y 0.000000 105.213190 0.000000 
#    z 0.000000 0.000000 3.539350 
# 
# 
# High freq. dielectric constant tensor:
#      x y z
#    x 1.696210 0.000000 0.000000 
#    y 0.000000 1.712180 0.000000 
#    z 0.000000 0.000000 1.713060 
# 
# From -- ./inp_files/15709.got.cif
#   From: 2010.03.12/outbox.cif.g09.slc.cpg/sg36_8_cif.got.tgz:15709.got - 2010.04.14 02:13:53.
