data_PCOD8175613
_publ_section_title
;
Structure prediction by ZEFSAII (Michael W. Deem and Ramdas Pophale) SiO2 
 PCOD8175613
Probable space group: C M C 21
;
_chemical_formula_sum "Si O2"
_cell_formula_units_Z 48
_cell_length_a 28.326035
_cell_length_b 7.720106
_cell_length_c 9.074252
_cell_angle_alpha 90.000000
_cell_angle_beta 90.000000
_cell_angle_gamma 90.000000
_cell_volume 1984.357362
_symmetry_space_group_name_H-M "C M C 21"
_symmetry_group_IT_number 36
_symmetry_cell_setting 'orthorhombic'
loop_
_space_group_symop_operation_xyz
x,y,z
-x,-y,1/2+z
x,-y,1/2+z
-x,y,z
1/2+x,1/2+y,z
1/2-x,1/2-y,1/2+z
1/2+x,1/2-y,1/2+z
1/2-x,1/2+y,z
loop_
_atom_site_type_symbol
_atom_site_label
_atom_site_fract_x
_atom_site_fract_y
_atom_site_fract_z
Si Si1 0.130233 0.819788 0.018090
Si Si2 0.726658 0.208402 0.968197
Si Si3 0.902020 0.124972 0.827496
Si Si4 0.396113 0.921866 0.051641
Si Si5 0.000000 0.257466 0.753610
Si Si6 0.500000 0.956592 0.046534
Si Si7 0.798285 0.395787 0.154409
O O1 0.131386 0.886584 0.185784
O O2 0.109778 0.623372 0.004202
O O3 0.183928 0.846557 0.957826
O O4 0.099120 0.951589 0.923214
O O5 0.730379 0.121470 0.806994
O O6 0.776765 0.281863 0.020188
O O7 0.708602 0.089565 0.100976
O O8 0.955453 0.135307 0.770964
O O9 0.887315 0.301619 0.910123
O O10 0.355140 0.865203 0.169487
O O11 0.449600 0.883904 0.112599
O O12 0.000000 0.418060 0.871911
O O13 0.000000 0.340543 0.589673
#
# Coordination Sequence:
#
# PCOD8175613 Si02
#       7
#     8   8   8   8   4   4   8
#     4  11  27  44  73 107 150 200 247 306 382 451
#     4  11  27  45  74 106 151 195 248 315 379 458
#     4  11  26  45  72 105 149 194 253 308 373 452
#     4  10  25  45  77 104 154 194 256 305 384 447
#     4  10  22  45  69 109 144 195 252 311 374 441
#     4  10  20  43  75 107 144 197 244 309 366 449
#     4  11  26  45  72 109 145 193 251 309 386 448
#
# _framework density 24.18919
#
# number of rings (size 3 to 8) (size 9 to 14) (size 15 to 20)
#    0.000    1.333    1.667    1.000   16.333    1.333 
#    3.000    0.000    0.000    0.000    0.000    0.000 
#    0.000    0.000    0.000    0.000    0.000    0.000 
#
# Total GULP energy -297358.768690 kJ/mol
# GULP energy per Si atom -12389.948695 kJ/mol
# Density = 2.413413 g / cm^3
# Si number density = 24.189190 Si / 1000 Ang^3
#
#
#
# Elastic Constant Matrix: (Units=GPa)
#
#
# Indices 1 2 3 4 5 6 
#
# 1 158.8575 34.3195 28.8773 0.0000 0.0000 0.0000
# 2 34.3195 97.9710 48.7337 0.0000 0.0000 0.0000
# 3 28.8773 48.7337 98.6837 0.0000 0.0000 0.0000
# 4 0.0000 0.0000 0.0000 44.2614 0.0000 0.0000
# 5 0.0000 0.0000 0.0000 0.0000 30.1128 0.0000
# 6 0.0000 0.0000 0.0000 0.0000 0.0000 32.4488
#
#
#
# Elastic Compliance Matrix: (Units=1/GPa)
#
#
# Indices 1 2 3 4 5 6 
#
# 1 0.006898 -0.001872 -0.001094 0.000000 0.000000 0.000000
# 2 -0.001872 0.014039 -0.006385 0.000000 0.000000 0.000000
# 3 -0.001094 -0.006385 0.013607 0.000000 0.000000 0.000000
# 4 0.000000 0.000000 0.000000 0.022593 0.000000 0.000000
# 5 0.000000 0.000000 0.000000 0.000000 0.033208 0.000000
# 6 0.000000 0.000000 0.000000 0.000000 0.000000 0.030818
#
#
# Mechanical properties :
#
#
# Convention : Reuss Voigt Hill
#
# Bulk Modulus (GPa) = 63.12632 64.37480 63.75056
# Shear Modulus (GPa) = 34.44787 37.60339 36.02563
#
# Velocity S-wave (km/s) = 3.77782 3.94706 3.86337
# Velocity P-wave (km/s) = 6.72182 6.88790 6.80537
#
# Compressibility (1/GPa) = 0.01584125
#
# Stress axis : x y z
#
# Youngs Moduli (GPa) = 144.96299 71.22938 73.49290
#
# Poissons Ratio (x) = 0.13336 0.08040
# Poissons Ratio (y) = 0.27142 0.46926
# Poissons Ratio (z) = 0.15859 0.45481
#
# Static dielectric constant tensor:
#      x y z
#    x 4.892390 0.000000 0.000000 
#    y 0.000000 4.174850 0.000000 
#    z 0.000000 0.000000 4.244190 
# 
# 
# High freq. dielectric constant tensor:
#      x y z
#    x 1.977480 0.000000 0.000000 
#    y 0.000000 1.941920 0.000000 
#    z 0.000000 0.000000 1.952100 
# 
# From -- ./inp_files/6026.got.cif
#   From: 2010.03.12/outbox.cif.g09.slc.cpg/sg36_4_cif.got.tgz:6026.got - 2010.04.14 02:13:53.
