data_PCOD8175162
_publ_section_title
;
Structure prediction by ZEFSAII (Michael W. Deem and Ramdas Pophale) SiO2 
 PCOD8175162
Probable space group: C M C 21
;
_chemical_formula_sum "Si O2"
_cell_formula_units_Z 64
_cell_length_a 9.492239
_cell_length_b 26.852376
_cell_length_c 12.798746
_cell_angle_alpha 90.000000
_cell_angle_beta 90.000000
_cell_angle_gamma 90.000000
_cell_volume 3262.261754
_symmetry_space_group_name_H-M "C M C 21"
_symmetry_group_IT_number 36
_symmetry_cell_setting 'orthorhombic'
loop_
_space_group_symop_operation_xyz
x,y,z
-x,-y,1/2+z
x,-y,1/2+z
-x,y,z
1/2+x,1/2+y,z
1/2-x,1/2-y,1/2+z
1/2+x,1/2-y,1/2+z
1/2-x,1/2+y,z
loop_
_atom_site_type_symbol
_atom_site_label
_atom_site_fract_x
_atom_site_fract_y
_atom_site_fract_z
Si Si1 0.344080 0.048970 0.722810
Si Si2 0.165348 0.306005 0.973709
Si Si3 0.154425 0.473416 0.889936
Si Si4 0.663949 0.492048 0.568063
Si Si5 0.663976 0.127309 0.282513
Si Si6 0.835800 0.877227 0.578618
Si Si7 0.665163 0.302304 0.396506
Si Si8 0.166855 0.337469 0.202019
O O1 0.500000 0.045137 0.670520
O O2 0.290853 0.105271 0.720451
O O3 0.351374 0.028521 0.840491
O O4 0.231894 0.011881 0.673156
O O5 0.224509 0.321528 0.087711
O O6 0.000000 0.313968 0.978088
O O7 0.224131 0.341151 0.880917
O O8 0.207145 0.249351 0.951216
O O9 0.190401 0.430947 0.805221
O O10 0.000000 0.461052 0.938808
O O11 0.272317 0.473321 0.977821
O O12 0.500000 0.501962 0.572022
O O13 0.700545 0.434263 0.552268
O O14 0.500000 0.139189 0.261805
O O15 0.749147 0.142112 0.178610
O O16 0.791963 0.845733 0.477000
O O17 0.000000 0.869958 0.604815
O O18 0.500000 0.304344 0.368907
O O19 0.752586 0.305819 0.289610
O O20 0.000000 0.328424 0.214296
#
# Coordination Sequence:
#
# PCOD8175162 Si02
#       8
#     8   8   8   8   8   8   8   8
#     4  10  20  36  57  82 112 149 189 232 281 331
#     4   9  20  38  60  85 114 151 190 240 298 341
#     4  10  20  34  55  82 113 151 192 235 282 332
#     4  11  22  34  53  82 117 154 190 230 278 338
#     4  10  20  37  61  87 115 150 195 244 286 338
#     4  10  22  38  56  84 121 157 190 233 288 348
#     4  10  22  40  60  83 117 156 191 234 295 350
#     4  10  21  39  62  87 115 148 195 244 286 342
#
# _framework density 19.618290999999999
#
# number of rings (size 3 to 8) (size 9 to 14) (size 15 to 20)
#    0.000    2.000    1.250    1.875    1.750    4.500 
#    0.000    1.250    0.000    0.000    0.000    0.000 
#    0.000    0.000    0.000    0.000    0.000    0.000 
#
# Total GULP energy -396777.610150 kJ/mol
# GULP energy per Si atom -12399.300317 kJ/mol
# Density = 1.957364 g / cm^3
# Si number density = 19.618291 Si / 1000 Ang^3
#
#
#
# Elastic Constant Matrix: (Units=GPa)
#
#
# Indices 1 2 3 4 5 6 
#
# 1 62.7839 29.6657 44.9169 0.0000 0.0000 0.0000
# 2 29.6657 82.1136 23.4456 0.0000 0.0000 0.0000
# 3 44.9169 23.4456 111.2140 0.0000 0.0000 0.0000
# 4 0.0000 0.0000 0.0000 33.5886 0.0000 0.0000
# 5 0.0000 0.0000 0.0000 0.0000 36.0899 0.0000
# 6 0.0000 0.0000 0.0000 0.0000 0.0000 20.3608
#
#
#
# Elastic Compliance Matrix: (Units=1/GPa)
#
#
# Indices 1 2 3 4 5 6 
#
# 1 0.025408 -0.006650 -0.008860 0.000000 0.000000 0.000000
# 2 -0.006650 0.014699 -0.000413 0.000000 0.000000 0.000000
# 3 -0.008860 -0.000413 0.012657 0.000000 0.000000 0.000000
# 4 0.000000 0.000000 0.000000 0.029772 0.000000 0.000000
# 5 0.000000 0.000000 0.000000 0.000000 0.027709 0.000000
# 6 0.000000 0.000000 0.000000 0.000000 0.000000 0.049114
#
#
# Mechanical properties :
#
#
# Convention : Reuss Voigt Hill
#
# Bulk Modulus (GPa) = 47.80440 50.24088 49.02264
# Shear Modulus (GPa) = 25.23000 28.54673 26.88837
#
# Velocity S-wave (km/s) = 3.59004 3.81873 3.70615
# Velocity P-wave (km/s) = 6.45017 6.71628 6.58457
#
# Compressibility (1/GPa) = 0.02091858
#
# Stress axis : x y z
#
# Youngs Moduli (GPa) = 39.35723 68.03396 79.00694
#
# Poissons Ratio (x) = 0.45240 0.70000
# Poissons Ratio (y) = 0.26171 0.03263
# Poissons Ratio (z) = 0.34871 0.02810
#
# Static dielectric constant tensor:
#      x y z
#    x 3.366960 0.000000 0.000000 
#    y 0.000000 3.616750 0.000000 
#    z 0.000000 0.000000 3.531800 
# 
# 
# High freq. dielectric constant tensor:
#      x y z
#    x 1.742540 0.000000 0.000000 
#    y 0.000000 1.769330 0.000000 
#    z 0.000000 0.000000 1.768390 
# 
# From -- ./inp_files/7116.got.cif
#   From: 2010.03.12/outbox.cif.g09.slc.cpg/sg36_4_cif.got.tgz:7116.got - 2010.04.14 02:13:53.
