data_PCOD8175857
_publ_section_title
;
Structure prediction by ZEFSAII (Michael W. Deem and Ramdas Pophale) SiO2 
 PCOD8175857
Probable space group: C M C 21
;
_chemical_formula_sum "Si O2"
_cell_formula_units_Z 48
_cell_length_a 14.349008
_cell_length_b 17.739821
_cell_length_c 8.826945
_cell_angle_alpha 90.000000
_cell_angle_beta 90.000000
_cell_angle_gamma 90.000000
_cell_volume 2246.888553
_symmetry_space_group_name_H-M "C M C 21"
_symmetry_group_IT_number 36
_symmetry_cell_setting 'orthorhombic'
loop_
_space_group_symop_operation_xyz
x,y,z
-x,-y,1/2+z
x,-y,1/2+z
-x,y,z
1/2+x,1/2+y,z
1/2-x,1/2-y,1/2+z
1/2+x,1/2-y,1/2+z
1/2-x,1/2+y,z
loop_
_atom_site_type_symbol
_atom_site_label
_atom_site_fract_x
_atom_site_fract_y
_atom_site_fract_z
Si Si1 0.177911 0.415891 0.546520
Si Si2 0.500000 0.606675 0.177214
Si Si3 0.500000 0.951423 0.738224
Si Si4 0.807270 0.828668 0.745994
Si Si5 0.500000 0.520802 0.474358
Si Si6 0.674442 0.157422 0.740023
Si Si7 0.500000 0.105121 0.584426
Si Si8 0.296215 0.569436 0.531239
O O1 0.092552 0.418488 0.662267
O O2 0.246386 0.349867 0.600914
O O3 0.139575 0.389939 0.384343
O O4 0.233817 0.494136 0.529730
O O5 0.585999 0.660473 0.203044
O O6 0.500000 0.535850 0.295094
O O7 0.500000 0.568766 0.010390
O O8 0.500000 0.040403 0.711710
O O9 0.500000 0.931545 0.916944
O O10 0.796672 0.741451 0.788195
O O11 0.774465 0.883199 0.880706
O O12 0.406261 0.554845 0.548912
O O13 0.592558 0.155302 0.612531
O O14 0.767641 0.118546 0.675986
#
# Coordination Sequence:
#
# PCOD8175857 Si02
#       8
#     8   4   4   8   4   8   4   8
#     4  12  24  42  70 100 134 182 228 283 333 407
#     4  10  21  39  65  91 130 166 220 270 325 387
#     4  12  26  43  70 104 133 173 240 284 332 412
#     4  11  24  43  65 100 138 180 223 279 343 402
#     4  10  22  38  66  96 124 162 220 274 318 384
#     4  12  25  42  68  99 140 178 223 280 346 400
#     4  12  25  44  69  99 137 179 224 288 345 405
#     4  11  23  42  67  97 132 179 227 280 330 406
#
# _framework density 21.362876
#
# number of rings (size 3 to 8) (size 9 to 14) (size 15 to 20)
#    0.000    0.667    3.333    5.000    2.333    0.000 
#    0.000    2.500    0.000    0.000    0.000    0.000 
#    0.000    0.000    0.000    0.000    0.000    0.000 
#
# Total GULP energy -297616.583976 kJ/mol
# GULP energy per Si atom -12400.690999 kJ/mol
# Density = 2.131425 g / cm^3
# Si number density = 21.362876 Si / 1000 Ang^3
#
#
#
# Elastic Constant Matrix: (Units=GPa)
#
#
# Indices 1 2 3 4 5 6 
#
# 1 122.4236 45.6809 47.2024 0.0000 0.0000 0.0000
# 2 45.6809 131.2443 40.3966 0.0000 0.0000 0.0000
# 3 47.2024 40.3966 98.4630 0.0000 0.0000 0.0000
# 4 0.0000 0.0000 0.0000 32.4715 0.0000 0.0000
# 5 0.0000 0.0000 0.0000 0.0000 24.4735 0.0000
# 6 0.0000 0.0000 0.0000 0.0000 0.0000 23.4650
#
#
#
# Elastic Compliance Matrix: (Units=1/GPa)
#
#
# Indices 1 2 3 4 5 6 
#
# 1 0.010666 -0.002448 -0.004109 0.000000 0.000000 0.000000
# 2 -0.002448 0.009282 -0.002635 0.000000 0.000000 0.000000
# 3 -0.004109 -0.002635 0.013207 0.000000 0.000000 0.000000
# 4 0.000000 0.000000 0.000000 0.030796 0.000000 0.000000
# 5 0.000000 0.000000 0.000000 0.000000 0.040860 0.000000
# 6 0.000000 0.000000 0.000000 0.000000 0.000000 0.042617
#
#
# Mechanical properties :
#
#
# Convention : Reuss Voigt Hill
#
# Bulk Modulus (GPa) = 67.69487 68.74342 68.21914
# Shear Modulus (GPa) = 29.28502 30.67207 29.97855
#
# Velocity S-wave (km/s) = 3.70650 3.79326 3.75013
# Velocity P-wave (km/s) = 7.07633 7.17174 7.12419
#
# Compressibility (1/GPa) = 0.01477217
#
# Stress axis : x y z
#
# Youngs Moduli (GPa) = 93.75623 107.73167 75.71779
#
# Poissons Ratio (x) = 0.26369 0.31112
# Poissons Ratio (y) = 0.22948 0.19951
# Poissons Ratio (z) = 0.38524 0.28386
#
# Static dielectric constant tensor:
#      x y z
#    x 4.102260 0.000000 0.000000 
#    y 0.000000 3.677430 0.000000 
#    z 0.000000 0.000000 3.884300 
# 
# 
# High freq. dielectric constant tensor:
#      x y z
#    x 1.855610 0.000000 0.000000 
#    y 0.000000 1.829380 0.000000 
#    z 0.000000 0.000000 1.839530 
# 
# From -- ./inp_files/4047.got.cif
#   From: 2010.03.12/outbox.cif.g09.slc.cpg/sg36_3_cif.got.tgz:4047.got - 2010.04.14 02:13:53.
