data_PCOD8175337
_publ_section_title
;
Structure prediction by ZEFSAII (Michael W. Deem and Ramdas Pophale) SiO2 
 PCOD8175337
Probable space group: C M C 21
;
_chemical_formula_sum "Si O2"
_cell_formula_units_Z 64
_cell_length_a 9.091893
_cell_length_b 15.990442
_cell_length_c 23.186785
_cell_angle_alpha 90.000000
_cell_angle_beta 90.000000
_cell_angle_gamma 90.000000
_cell_volume 3370.973353
_symmetry_space_group_name_H-M "C M C 21"
_symmetry_group_IT_number 36
_symmetry_cell_setting 'orthorhombic'
loop_
_space_group_symop_operation_xyz
x,y,z
-x,-y,1/2+z
x,-y,1/2+z
-x,y,z
1/2+x,1/2+y,z
1/2-x,1/2-y,1/2+z
1/2+x,1/2-y,1/2+z
1/2-x,1/2+y,z
loop_
_atom_site_type_symbol
_atom_site_label
_atom_site_fract_x
_atom_site_fract_y
_atom_site_fract_z
Si Si1 0.827614 0.627499 0.280330
Si Si2 0.826305 0.790623 0.206437
Si Si3 0.831794 0.543039 0.716149
Si Si4 0.834962 0.446053 0.606415
Si Si5 0.667675 0.385975 0.899697
Si Si6 0.827526 0.213748 0.103146
Si Si7 0.332742 0.703972 0.510129
Si Si8 0.830726 0.547908 0.498319
O O1 0.782344 0.709872 0.244454
O O2 0.780110 0.541617 0.248891
O O3 0.743693 0.634203 0.340239
O O4 0.000000 0.627831 0.292593
O O5 0.766847 0.877195 0.234712
O O6 0.747118 0.781859 0.144714
O O7 0.000000 0.797355 0.198293
O O8 0.813837 0.526276 0.647603
O O9 0.000000 0.564083 0.732139
O O10 0.714224 0.378453 0.625120
O O11 0.816484 0.466846 0.538608
O O12 0.000000 0.409577 0.617378
O O13 0.500000 0.414223 0.889579
O O14 0.674971 0.301394 0.939859
O O15 0.751590 0.460768 0.935313
O O16 0.000000 0.227456 0.102419
O O17 0.758601 0.220295 0.038469
O O18 0.500000 0.708576 0.531789
O O19 0.252678 0.620505 0.534153
O O20 0.000000 0.572128 0.488003
#
# Coordination Sequence:
#
# PCOD8175337 Si02
#       8
#     8   8   8   8   8   8   8   8
#     4  10  21  40  64  87 121 163 204 249 301 362
#     4  11  23  40  61  89 123 161 201 251 307 360
#     4  10  21  39  61  90 123 159 201 246 304 365
#     4  10  20  36  56  82 121 158 195 246 300 360
#     4   9  20  36  59  85 115 156 200 251 298 350
#     4  12  23  34  55  86 120 159 201 249 301 363
#     4   9  19  35  55  81 111 149 192 240 295 348
#     4   9  17  32  57  84 110 149 194 236 292 354
#
# _framework density 18.985616
#
# number of rings (size 3 to 8) (size 9 to 14) (size 15 to 20)
#    0.750    1.250    1.250    3.000    0.000    4.000 
#    0.000    1.250    0.000    1.500    0.000    0.000 
#    0.000    0.000    0.000    0.000    0.000    0.000 
#
# Total GULP energy -396481.112768 kJ/mol
# GULP energy per Si atom -12390.034774 kJ/mol
# Density = 1.894240 g / cm^3
# Si number density = 18.985616 Si / 1000 Ang^3
#
#
#
# Elastic Constant Matrix: (Units=GPa)
#
#
# Indices 1 2 3 4 5 6 
#
# 1 120.8072 57.0472 58.2587 0.0000 0.0000 0.0000
# 2 57.0472 105.8386 39.3829 0.0000 0.0000 0.0000
# 3 58.2587 39.3829 103.5494 0.0000 0.0000 0.0000
# 4 0.0000 0.0000 0.0000 23.8397 0.0000 0.0000
# 5 0.0000 0.0000 0.0000 0.0000 31.4607 0.0000
# 6 0.0000 0.0000 0.0000 0.0000 0.0000 31.1775
#
#
#
# Elastic Compliance Matrix: (Units=1/GPa)
#
#
# Indices 1 2 3 4 5 6 
#
# 1 0.013399 -0.005145 -0.005582 0.000000 0.000000 0.000000
# 2 -0.005145 0.012982 -0.002043 0.000000 0.000000 0.000000
# 3 -0.005582 -0.002043 0.013574 0.000000 0.000000 0.000000
# 4 0.000000 0.000000 0.000000 0.041947 0.000000 0.000000
# 5 0.000000 0.000000 0.000000 0.000000 0.031786 0.000000
# 6 0.000000 0.000000 0.000000 0.000000 0.000000 0.032074
#
#
# Mechanical properties :
#
#
# Convention : Reuss Voigt Hill
#
# Bulk Modulus (GPa) = 69.36575 71.06363 70.21469
# Shear Modulus (GPa) = 28.39197 28.99601 28.69399
#
# Velocity S-wave (km/s) = 3.87130 3.91226 3.89183
# Velocity P-wave (km/s) = 7.52315 7.61047 7.56694
#
# Compressibility (1/GPa) = 0.01441634
#
# Stress axis : x y z
#
# Youngs Moduli (GPa) = 74.63244 77.03197 73.66807
#
# Poissons Ratio (x) = 0.39634 0.41119
# Poissons Ratio (y) = 0.38399 0.15047
# Poissons Ratio (z) = 0.41657 0.15734
#
# Static dielectric constant tensor:
#      x y z
#    x 3.468190 0.000000 0.000000 
#    y 0.000000 3.257430 0.000000 
#    z 0.000000 0.000000 3.338270 
# 
# 
# High freq. dielectric constant tensor:
#      x y z
#    x 1.744710 0.000000 0.000000 
#    y 0.000000 1.715770 0.000000 
#    z 0.000000 0.000000 1.727440 
# 
# From -- ./inp_files/16723.got.cif
#   From: 2010.03.12/outbox.cif.g09.slc.cpg/sg36_9_cif.got.tgz:16723.got - 2010.04.14 02:13:53.
