data_PCOD8175415
_publ_section_title
;
Structure prediction by ZEFSAII (Michael W. Deem and Ramdas Pophale) SiO2 
 PCOD8175415
Probable space group: C M C 21
;
_chemical_formula_sum "Si O2"
_cell_formula_units_Z 64
_cell_length_a 8.505098
_cell_length_b 30.366743
_cell_length_c 12.042825
_cell_angle_alpha 90.000000
_cell_angle_beta 90.000000
_cell_angle_gamma 90.000000
_cell_volume 3110.326006
_symmetry_space_group_name_H-M "C M C 21"
_symmetry_group_IT_number 36
_symmetry_cell_setting 'orthorhombic'
loop_
_space_group_symop_operation_xyz
x,y,z
-x,-y,1/2+z
x,-y,1/2+z
-x,y,z
1/2+x,1/2+y,z
1/2-x,1/2-y,1/2+z
1/2+x,1/2-y,1/2+z
1/2-x,1/2+y,z
loop_
_atom_site_type_symbol
_atom_site_label
_atom_site_fract_x
_atom_site_fract_y
_atom_site_fract_z
Si Si1 0.818651 0.801643 0.529840
Si Si2 0.825145 0.321234 0.297960
Si Si3 0.315193 0.871930 0.952000
Si Si4 0.187047 0.444827 0.547284
Si Si5 0.684059 0.373720 0.708288
Si Si6 0.686641 0.043773 0.586345
Si Si7 0.319442 0.709978 0.584777
Si Si8 0.323513 0.078317 0.810165
O O1 0.717654 0.816309 0.425463
O O2 0.766698 0.831514 0.634247
O O3 0.789167 0.750544 0.550990
O O4 0.000000 0.809607 0.502350
O O5 0.704311 0.297128 0.216367
O O6 0.822588 0.372183 0.266604
O O7 0.000000 0.301890 0.278720
O O8 0.500000 0.865943 0.971744
O O9 0.279484 0.870396 0.821902
O O10 0.253515 0.918714 0.000918
O O11 0.227060 0.832489 0.013896
O O12 0.270733 0.418771 0.646169
O O13 0.239465 0.495704 0.547831
O O14 0.257688 0.426795 0.430385
O O15 0.000000 0.438540 0.560485
O O16 0.500000 0.373561 0.735055
O O17 0.500000 0.047528 0.594197
O O18 0.758159 0.050984 0.710526
O O19 0.500000 0.721735 0.561996
O O20 0.500000 0.060458 0.828226
#
# Coordination Sequence:
#
# PCOD8175415 Si02
#       8
#     8   8   8   8   8   8   8   8
#     4  11  25  44  65  90 123 165 212 259 314 374
#     4  11  21  40  67  93 125 161 207 262 316 367
#     4  11  23  42  66  91 124 166 214 262 312 370
#     4  10  20  36  64  94 121 161 211 257 308 367
#     4  11  25  43  61  88 129 167 205 257 318 377
#     4   9  19  35  61  95 123 156 207 261 307 362
#     4  12  26  43  65  94 128 165 208 255 316 380
#     4   9  17  33  59  91 123 155 200 259 307 353
#
# _framework density 20.576620999999999
#
# number of rings (size 3 to 8) (size 9 to 14) (size 15 to 20)
#    0.000    1.500    2.500    2.625    3.500    1.500 
#    0.000    1.250    0.000    0.000    0.000    0.000 
#    0.000    0.000    0.000    0.000    0.000    0.000 
#
# Total GULP energy -396820.301734 kJ/mol
# GULP energy per Si atom -12400.634429 kJ/mol
# Density = 2.052979 g / cm^3
# Si number density = 20.576621 Si / 1000 Ang^3
#
#
#
# Elastic Constant Matrix: (Units=GPa)
#
#
# Indices 1 2 3 4 5 6 
#
# 1 42.3080 17.8294 17.4422 0.0000 0.0000 0.0000
# 2 17.8294 106.4287 26.5194 0.0000 0.0000 0.0000
# 3 17.4422 26.5194 114.5753 0.0000 0.0000 0.0000
# 4 0.0000 0.0000 0.0000 32.2753 0.0000 0.0000
# 5 0.0000 0.0000 0.0000 0.0000 29.4265 0.0000
# 6 0.0000 0.0000 0.0000 0.0000 0.0000 21.9263
#
#
#
# Elastic Compliance Matrix: (Units=1/GPa)
#
#
# Indices 1 2 3 4 5 6 
#
# 1 0.026486 -0.003642 -0.003189 0.000000 0.000000 0.000000
# 2 -0.003642 0.010472 -0.001869 0.000000 0.000000 0.000000
# 3 -0.003189 -0.001869 0.009646 0.000000 0.000000 0.000000
# 4 0.000000 0.000000 0.000000 0.030983 0.000000 0.000000
# 5 0.000000 0.000000 0.000000 0.000000 0.033983 0.000000
# 6 0.000000 0.000000 0.000000 0.000000 0.000000 0.045607
#
#
# Mechanical properties :
#
#
# Convention : Reuss Voigt Hill
#
# Bulk Modulus (GPa) = 34.24371 42.98821 38.61596
# Shear Modulus (GPa) = 27.12773 30.16034 28.64404
#
# Velocity S-wave (km/s) = 3.63488 3.83268 3.73509
# Velocity P-wave (km/s) = 5.85617 6.36577 6.11628
#
# Compressibility (1/GPa) = 0.02920245
#
# Stress axis : x y z
#
# Youngs Moduli (GPa) = 37.75596 95.49328 103.66965
#
# Poissons Ratio (x) = 0.34783 0.33060
# Poissons Ratio (y) = 0.13752 0.19379
# Poissons Ratio (z) = 0.12040 0.17851
#
# Static dielectric constant tensor:
#      x y z
#    x 3.456630 0.000000 0.000000 
#    y 0.000000 3.882490 0.000000 
#    z 0.000000 0.000000 3.868490 
# 
# 
# High freq. dielectric constant tensor:
#      x y z
#    x 1.777910 0.000000 0.000000 
#    y 0.000000 1.810610 0.000000 
#    z 0.000000 0.000000 1.821970 
# 
# From -- ./inp_files/7081.got.cif
#   From: 2010.03.12/outbox.cif.g09.slc.cpg/sg36_4_cif.got.tgz:7081.got - 2010.04.14 02:13:53.
