data_PCOD8175672
_publ_section_title
;
Structure prediction by ZEFSAII (Michael W. Deem and Ramdas Pophale) SiO2 
 PCOD8175672
Probable space group: C M C 21
;
_chemical_formula_sum "Si O2"
_cell_formula_units_Z 64
_cell_length_a 14.072389
_cell_length_b 23.523881
_cell_length_c 9.705396
_cell_angle_alpha 90.000000
_cell_angle_beta 90.000000
_cell_angle_gamma 90.000000
_cell_volume 3212.847158
_symmetry_space_group_name_H-M "C M C 21"
_symmetry_group_IT_number 36
_symmetry_cell_setting 'orthorhombic'
loop_
_space_group_symop_operation_xyz
x,y,z
-x,-y,1/2+z
x,-y,1/2+z
-x,y,z
1/2+x,1/2+y,z
1/2-x,1/2-y,1/2+z
1/2+x,1/2-y,1/2+z
1/2-x,1/2+y,z
loop_
_atom_site_type_symbol
_atom_site_label
_atom_site_fract_x
_atom_site_fract_y
_atom_site_fract_z
Si Si1 0.890531 0.715304 0.608620
Si Si2 0.393411 0.334825 0.497405
Si Si3 0.611232 0.897446 0.581297
Si Si4 0.724434 0.149610 0.824522
Si Si5 0.777784 0.970753 0.262624
Si Si6 0.389963 0.462318 0.535749
Si Si7 0.391705 0.131713 0.382644
Si Si8 0.892805 0.508670 0.430082
O O1 0.879887 0.783253 0.604128
O O2 0.832318 0.696238 0.740587
O O3 0.848430 0.684186 0.470602
O O4 0.000000 0.696675 0.627494
O O5 0.500000 0.334963 0.437318
O O6 0.324839 0.323489 0.368600
O O7 0.372591 0.395527 0.571507
O O8 0.500000 0.883575 0.569406
O O9 0.666248 0.864029 0.462989
O O10 0.653900 0.878616 0.730285
O O11 0.628786 0.965367 0.555737
O O12 0.747469 0.094267 0.732607
O O13 0.859126 0.973579 0.379314
O O14 0.681028 0.001731 0.305841
O O15 0.821810 0.999139 0.128027
O O16 0.500000 0.479531 0.555217
O O17 0.500000 0.146640 0.351872
O O18 0.382699 0.074475 0.476677
O O19 0.000000 0.498500 0.371374
#
# Coordination Sequence:
#
# PCOD8175672 Si02
#       8
#     8   8   8   8   8   8   8   8
#     4  10  21  39  61  87 118 155 197 240 289 350
#     4   9  21  41  61  81 113 157 199 238 291 349
#     4   9  18  33  52  81 120 158 192 232 285 347
#     4  10  21  36  58  88 116 150 190 244 297 346
#     4  10  22  35  58  87 115 149 190 237 298 352
#     4  10  21  41  63  84 111 148 197 252 299 342
#     4   9  19  32  52  78 112 156 195 229 275 340
#     4   9  19  31  48  80 123 157 185 222 277 352
#
# _framework density 19.920026
#
# number of rings (size 3 to 8) (size 9 to 14) (size 15 to 20)
#    0.000    2.500    0.000    0.750    7.000    3.000 
#    0.000    3.750    0.000    0.750    0.000    7.875 
#    0.000    0.000    0.000    0.000    0.000    0.000 
#
# Total GULP energy -396563.166355 kJ/mol
# GULP energy per Si atom -12392.598949 kJ/mol
# Density = 1.987469 g / cm^3
# Si number density = 19.920026 Si / 1000 Ang^3
#
#
#
# Elastic Constant Matrix: (Units=GPa)
#
#
# Indices 1 2 3 4 5 6 
#
# 1 76.5507 22.1406 22.4532 0.0000 0.0000 0.0000
# 2 22.1406 77.7391 32.0168 0.0000 0.0000 0.0000
# 3 22.4532 32.0168 79.7604 0.0000 0.0000 0.0000
# 4 0.0000 0.0000 0.0000 20.9404 0.0000 0.0000
# 5 0.0000 0.0000 0.0000 0.0000 29.8747 0.0000
# 6 0.0000 0.0000 0.0000 0.0000 0.0000 22.7088
#
#
#
# Elastic Compliance Matrix: (Units=1/GPa)
#
#
# Indices 1 2 3 4 5 6 
#
# 1 0.014799 -0.002994 -0.002964 0.000000 0.000000 0.000000
# 2 -0.002994 0.016017 -0.005587 0.000000 0.000000 0.000000
# 3 -0.002964 -0.005587 0.015615 0.000000 0.000000 0.000000
# 4 0.000000 0.000000 0.000000 0.047755 0.000000 0.000000
# 5 0.000000 0.000000 0.000000 0.000000 0.033473 0.000000
# 6 0.000000 0.000000 0.000000 0.000000 0.000000 0.044036
#
#
# Mechanical properties :
#
#
# Convention : Reuss Voigt Hill
#
# Bulk Modulus (GPa) = 42.84349 43.03017 42.93683
# Shear Modulus (GPa) = 24.68363 25.20075 24.94219
#
# Velocity S-wave (km/s) = 3.52396 3.56068 3.54236
# Velocity P-wave (km/s) = 6.17350 6.20910 6.19133
#
# Compressibility (1/GPa) = 0.02334077
#
# Stress axis : x y z
#
# Youngs Moduli (GPa) = 67.57399 62.43333 64.04303
#
# Poissons Ratio (x) = 0.18692 0.18983
# Poissons Ratio (y) = 0.20231 0.35778
# Poissons Ratio (z) = 0.20030 0.34879
#
# Static dielectric constant tensor:
#      x y z
#    x 3.795640 0.000000 0.000000 
#    y 0.000000 3.660580 0.000000 
#    z 0.000000 0.000000 3.381460 
# 
# 
# High freq. dielectric constant tensor:
#      x y z
#    x 1.781290 0.000000 0.000000 
#    y 0.000000 1.769990 0.000000 
#    z 0.000000 0.000000 1.754420 
# 
# From -- ./inp_files/4347.got.cif
#   From: 2010.03.12/outbox.cif.g09.slc.cpg/sg36_3_cif.got.tgz:4347.got - 2010.04.14 02:13:53.
