data_PCOD8175373
_publ_section_title
;
Structure prediction by ZEFSAII (Michael W. Deem and Ramdas Pophale) SiO2 
 PCOD8175373
Probable space group: C M C 21
;
_chemical_formula_sum "Si O2"
_cell_formula_units_Z 48
_cell_length_a 15.092129
_cell_length_b 18.744442
_cell_length_c 8.664723
_cell_angle_alpha 90.000000
_cell_angle_beta 90.000000
_cell_angle_gamma 90.000000
_cell_volume 2451.194134
_symmetry_space_group_name_H-M "C M C 21"
_symmetry_group_IT_number 36
_symmetry_cell_setting 'orthorhombic'
loop_
_space_group_symop_operation_xyz
x,y,z
-x,-y,1/2+z
x,-y,1/2+z
-x,y,z
1/2+x,1/2+y,z
1/2-x,1/2-y,1/2+z
1/2+x,1/2-y,1/2+z
1/2-x,1/2+y,z
loop_
_atom_site_type_symbol
_atom_site_label
_atom_site_fract_x
_atom_site_fract_y
_atom_site_fract_z
Si Si1 0.000000 0.588623 0.269820
Si Si2 0.651833 0.833678 0.162564
Si Si3 0.500000 0.591962 0.157815
Si Si4 0.146743 0.185805 0.302978
Si Si5 0.000000 0.437364 0.127823
Si Si6 0.651021 0.807563 0.807145
Si Si7 0.646130 0.658137 0.657824
Si Si8 0.000000 0.060775 0.798767
O O1 0.000000 0.565779 0.445627
O O2 0.087659 0.633732 0.230942
O O3 0.000000 0.519973 0.164147
O O4 0.627489 0.769723 0.278875
O O5 0.586952 0.899397 0.197655
O O6 0.751442 0.861778 0.186557
O O7 0.638671 0.803389 0.990624
O O8 0.587534 0.638217 0.190461
O O9 0.500000 0.522950 0.265940
O O10 0.500000 0.569723 0.981118
O O11 0.249224 0.171402 0.260192
O O12 0.124196 0.166135 0.477884
O O13 0.621887 0.731235 0.742876
O O14 0.587945 0.594757 0.726043
#
# Coordination Sequence:
#
# PCOD8175373 Si02
#       8
#     4   8   4   8   4   8   8   4
#     4  10  21  36  53  77 111 147 181 218 265 320
#     4   9  19  36  58  84 114 147 182 224 273 325
#     4  12  25  40  57  79 111 149 187 232 287 340
#     4  10  20  36  59  86 112 142 184 229 274 329
#     4  10  21  36  53  77 111 147 181 218 265 320
#     4   9  19  36  58  84 114 147 182 224 273 325
#     4  10  20  36  59  86 112 142 184 229 274 329
#     4  12  25  40  57  79 111 149 187 232 287 340
#
# _framework density 19.582294000000001
#
# number of rings (size 3 to 8) (size 9 to 14) (size 15 to 20)
#    0.000    2.000    0.000    3.500    0.000    5.333 
#    0.000    3.333    0.000    0.000    0.000    0.000 
#    0.000    0.000    0.000    0.000    0.000    0.000 
#
# Total GULP energy -297706.862821 kJ/mol
# GULP energy per Si atom -12404.452618 kJ/mol
# Density = 1.953772 g / cm^3
# Si number density = 19.582294 Si / 1000 Ang^3
#
#
#
# Elastic Constant Matrix: (Units=GPa)
#
#
# Indices 1 2 3 4 5 6 
#
# 1 107.4808 44.4233 11.2284 0.0000 0.0000 0.0000
# 2 44.4233 69.2100 -9.9400 0.0000 0.0000 0.0000
# 3 11.2284 -9.9400 36.4241 0.0000 0.0000 0.0000
# 4 0.0000 0.0000 0.0000 36.2758 0.0000 0.0000
# 5 0.0000 0.0000 0.0000 0.0000 -0.3337 0.0000
# 6 0.0000 0.0000 0.0000 0.0000 0.0000 12.0603
#
#
#
# Elastic Compliance Matrix: (Units=1/GPa)
#
#
# Indices 1 2 3 4 5 6 
#
# 1 0.014264 -0.010186 -0.007177 0.000000 0.000000 0.000000
# 2 -0.010186 0.022312 0.009229 0.000000 0.000000 0.000000
# 3 -0.007177 0.009229 0.032185 0.000000 0.000000 0.000000
# 4 0.000000 0.000000 0.000000 0.027567 0.000000 0.000000
# 5 0.000000 0.000000 0.000000 0.000000 -2.996541 0.000000
# 6 0.000000 0.000000 0.000000 0.000000 0.000000 0.082917
#
#
# Mechanical properties :
#
#
# Convention : Reuss Voigt Hill
#
# Bulk Modulus (GPa) = 19.04995 33.83759 26.44377
# Shear Modulus (GPa) = -1.79628 20.76069 9.48220
#
# Velocity S-wave (km/s) = -0.95880 3.25957 2.20289
# Velocity P-wave (km/s) = 2.91951 5.61102 4.47253
#
# Compressibility (1/GPa) = 0.05249356
#
# Stress axis : x y z
#
# Youngs Moduli (GPa) = 70.10742 44.81817 31.07006
#
# Poissons Ratio (x) = 0.45653 0.22298
# Poissons Ratio (y) = 0.71413 -0.28675
# Poissons Ratio (z) = 0.50315 -0.41363
#
# Static dielectric constant tensor:
#      x y z
#    x 3.845230 0.000000 0.000000 
#    y 0.000000 3.491390 0.000000 
#    z 0.000000 0.000000 3.517690 
# 
# 
# High freq. dielectric constant tensor:
#      x y z
#    x 1.778480 0.000000 0.000000 
#    y 0.000000 1.755600 0.000000 
#    z 0.000000 0.000000 1.762520 
# 
# From -- ./inp_files/4042.got.cif
#   From: 2010.03.12/outbox.cif.g09.slc.cpg/sg36_3_cif.got.tgz:4042.got - 2010.04.14 02:13:53.
