data_PCOD8175189
_publ_section_title
;
Structure prediction by ZEFSAII (Michael W. Deem and Ramdas Pophale) SiO2 
 PCOD8175189
Probable space group: C M C 21
;
_chemical_formula_sum "Si O2"
_cell_formula_units_Z 64
_cell_length_a 8.568342
_cell_length_b 19.870476
_cell_length_c 19.614569
_cell_angle_alpha 90.000000
_cell_angle_beta 90.000000
_cell_angle_gamma 90.000000
_cell_volume 3339.518343
_symmetry_space_group_name_H-M "C M C 21"
_symmetry_group_IT_number 36
_symmetry_cell_setting 'orthorhombic'
loop_
_space_group_symop_operation_xyz
x,y,z
-x,-y,1/2+z
x,-y,1/2+z
-x,y,z
1/2+x,1/2+y,z
1/2-x,1/2-y,1/2+z
1/2+x,1/2-y,1/2+z
1/2-x,1/2+y,z
loop_
_atom_site_type_symbol
_atom_site_label
_atom_site_fract_x
_atom_site_fract_y
_atom_site_fract_z
Si Si1 0.820701 0.810177 0.324500
Si Si2 0.818539 0.198509 0.147531
Si Si3 0.820439 0.518358 0.321237
Si Si4 0.180285 0.017518 0.678169
Si Si5 0.818471 0.654516 0.684984
Si Si6 0.320552 0.579073 0.928061
Si Si7 0.820420 0.417762 0.571959
Si Si8 0.321339 0.164575 0.287040
O O1 0.712167 0.840865 0.265828
O O2 0.781509 0.848269 0.394689
O O3 0.788701 0.730367 0.333669
O O4 0.000000 0.823859 0.303345
O O5 0.763385 0.276289 0.148813
O O6 0.722573 0.159504 0.089427
O O7 0.788493 0.164479 0.220883
O O8 0.000000 0.192816 0.130329
O O9 0.784802 0.498803 0.243613
O O10 0.710510 0.479405 0.373454
O O11 0.786999 0.598082 0.331273
O O12 0.000000 0.500722 0.336630
O O13 0.221900 0.092921 0.652766
O O14 0.000000 0.012345 0.698239
O O15 0.214887 0.966684 0.617151
O O16 0.000000 0.641866 0.672527
O O17 0.500000 0.575453 0.951059
O O18 0.211172 0.568632 0.992839
O O19 0.000000 0.432252 0.587936
O O20 0.500000 0.164127 0.260803
#
# Coordination Sequence:
#
# PCOD8175189 Si02
#       8
#     8   8   8   8   8   8   8   8
#     4   9  18  34  56  83 114 150 191 234 286 343
#     4  10  20  35  57  86 117 150 190 240 291 349
#     4  11  21  35  58  88 120 155 196 244 294 349
#     4  12  23  37  59  87 119 155 198 249 300 352
#     4  10  20  34  57  88 119 149 190 241 291 344
#     4  11  23  39  59  84 117 158 199 246 298 356
#     4  12  25  41  60  83 116 159 202 249 300 360
#     4   9  18  33  56  85 116 150 190 237 286 339
#
# _framework density 19.164441
#
# number of rings (size 3 to 8) (size 9 to 14) (size 15 to 20)
#    0.000    1.500    2.500    3.750    0.000    2.500 
#    0.000    1.250    0.000    6.000    0.000    0.000 
#    0.000    0.000    0.000    0.000    0.000    0.000 
#
# Total GULP energy -396908.163342 kJ/mol
# GULP energy per Si atom -12403.380104 kJ/mol
# Density = 1.912082 g / cm^3
# Si number density = 19.164441 Si / 1000 Ang^3
#
#
#
# Elastic Constant Matrix: (Units=GPa)
#
#
# Indices 1 2 3 4 5 6 
#
# 1 59.9257 26.0347 8.6751 0.0000 0.0000 0.0000
# 2 26.0347 120.3493 38.1243 0.0000 0.0000 0.0000
# 3 8.6751 38.1243 76.7509 0.0000 0.0000 0.0000
# 4 0.0000 0.0000 0.0000 24.4725 0.0000 0.0000
# 5 0.0000 0.0000 0.0000 0.0000 29.3836 0.0000
# 6 0.0000 0.0000 0.0000 0.0000 0.0000 29.3525
#
#
#
# Elastic Compliance Matrix: (Units=1/GPa)
#
#
# Indices 1 2 3 4 5 6 
#
# 1 0.018419 -0.003946 -0.000122 0.000000 0.000000 0.000000
# 2 -0.003946 0.010706 -0.004872 0.000000 0.000000 0.000000
# 3 -0.000122 -0.004872 0.015463 0.000000 0.000000 0.000000
# 4 0.000000 0.000000 0.000000 0.040862 0.000000 0.000000
# 5 0.000000 0.000000 0.000000 0.000000 0.034033 0.000000
# 6 0.000000 0.000000 0.000000 0.000000 0.000000 0.034069
#
#
# Mechanical properties :
#
#
# Convention : Reuss Voigt Hill
#
# Bulk Modulus (GPa) = 37.44093 44.74379 41.09236
# Shear Modulus (GPa) = 27.72625 28.92116 28.32371
#
# Velocity S-wave (km/s) = 3.80775 3.88894 3.84856
# Velocity P-wave (km/s) = 6.23787 6.60023 6.42161
#
# Compressibility (1/GPa) = 0.02670874
#
# Stress axis : x y z
#
# Youngs Moduli (GPa) = 54.29088 93.40446 64.67047
#
# Poissons Ratio (x) = 0.36857 0.00788
# Poissons Ratio (y) = 0.21423 0.31508
# Poissons Ratio (z) = 0.00662 0.45507
#
# Static dielectric constant tensor:
#      x y z
#    x 3.482110 0.000000 0.000000 
#    y 0.000000 3.946930 0.000000 
#    z 0.000000 0.000000 3.151990 
# 
# 
# High freq. dielectric constant tensor:
#      x y z
#    x 1.751770 0.000000 0.000000 
#    y 0.000000 1.764040 0.000000 
#    z 0.000000 0.000000 1.704500 
# 
# From -- ./inp_files/13759.got.cif
#   From: 2010.03.12/outbox.cif.g09.slc.cpg/sg36_7_cif.got.tgz:13759.got - 2010.04.14 02:13:53.
