data_PCOD8175577
_publ_section_title
;
Structure prediction by ZEFSAII (Michael W. Deem and Ramdas Pophale) SiO2 
 PCOD8175577
Probable space group: C M C 21
;
_chemical_formula_sum "Si O2"
_cell_formula_units_Z 64
_cell_length_a 16.767531
_cell_length_b 11.950178
_cell_length_c 15.498695
_cell_angle_alpha 90.000000
_cell_angle_beta 90.000000
_cell_angle_gamma 90.000000
_cell_volume 3105.550702
_symmetry_space_group_name_H-M "C M C 21"
_symmetry_group_IT_number 36
_symmetry_cell_setting 'orthorhombic'
loop_
_space_group_symop_operation_xyz
x,y,z
-x,-y,1/2+z
x,-y,1/2+z
-x,y,z
1/2+x,1/2+y,z
1/2-x,1/2-y,1/2+z
1/2+x,1/2-y,1/2+z
1/2-x,1/2+y,z
loop_
_atom_site_type_symbol
_atom_site_label
_atom_site_fract_x
_atom_site_fract_y
_atom_site_fract_z
Si Si1 0.156674 0.268142 0.018640
Si Si2 0.595007 0.005070 0.071369
Si Si3 0.841570 0.738198 0.018099
Si Si4 0.594931 0.762677 0.335454
Si Si5 0.405045 0.765587 0.836539
Si Si6 0.906600 0.874008 0.174840
Si Si7 0.405625 0.001573 0.767404
Si Si8 0.094162 0.122452 0.173185
O O1 0.120974 0.392219 0.024146
O O2 0.250145 0.265552 0.035188
O O3 0.115638 0.189064 0.087825
O O4 0.135878 0.221437 0.923743
O O5 0.500000 0.020803 0.063171
O O6 0.638737 0.106997 0.023932
O O7 0.625969 0.001012 0.169484
O O8 0.891743 0.804856 0.088596
O O9 0.866154 0.781508 0.923525
O O10 0.500000 0.758702 0.343949
O O11 0.626891 0.683974 0.258501
O O12 0.625765 0.888264 0.315835
O O13 0.500000 0.758361 0.845298
O O14 0.371815 0.689453 0.758476
O O15 0.376424 0.892421 0.818371
O O16 0.000000 0.884647 0.187634
O O17 0.868320 0.997898 0.168921
O O18 0.500000 0.004827 0.762186
O O19 0.000000 0.116864 0.179021
#
# Coordination Sequence:
#
# PCOD8175577 Si02
#       8
#     8   8   8   8   8   8   8   8
#     4  12  26  40  62  97 136 168 206 263 332 383
#     4  11  21  43  73  96 122 171 225 267 312 381
#     4  12  26  40  62  97 136 168 206 263 332 383
#     4  10  20  39  65  93 121 163 217 268 313 376
#     4  10  20  39  65  93 121 163 217 268 313 376
#     4  10  22  42  67  91 120 167 219 261 310 381
#     4   9  17  35  67  96 117 153 219 277 313 357
#     4  10  22  42  67  91 120 167 219 261 310 381
#
# _framework density 20.608262
#
# number of rings (size 3 to 8) (size 9 to 14) (size 15 to 20)
#    0.000    1.500    2.500    3.000    1.750    3.000 
#    0.000    2.500    0.000    0.000    0.000    0.000 
#    0.000    0.000    0.000    0.000    0.000    0.000 
#
# Total GULP energy -396902.022446 kJ/mol
# GULP energy per Si atom -12403.188201 kJ/mol
# Density = 2.056136 g / cm^3
# Si number density = 20.608262 Si / 1000 Ang^3
#
#
#
# Elastic Constant Matrix: (Units=GPa)
#
#
# Indices 1 2 3 4 5 6 
#
# 1 32.2089 12.2017 8.0212 0.0000 0.0000 0.0000
# 2 12.2017 140.8387 63.0115 0.0000 0.0000 0.0000
# 3 8.0212 63.0115 165.5927 0.0000 0.0000 0.0000
# 4 0.0000 0.0000 0.0000 9.6909 0.0000 0.0000
# 5 0.0000 0.0000 0.0000 0.0000 7.3823 0.0000
# 6 0.0000 0.0000 0.0000 0.0000 0.0000 13.6449
#
#
#
# Elastic Compliance Matrix: (Units=1/GPa)
#
#
# Indices 1 2 3 4 5 6 
#
# 1 0.032150 -0.002517 -0.000600 0.000000 0.000000 0.000000
# 2 -0.002517 0.008754 -0.003209 0.000000 0.000000 0.000000
# 3 -0.000600 -0.003209 0.007289 0.000000 0.000000 0.000000
# 4 0.000000 0.000000 0.000000 0.103189 0.000000 0.000000
# 5 0.000000 0.000000 0.000000 0.000000 0.135459 0.000000
# 6 0.000000 0.000000 0.000000 0.000000 0.000000 0.073288
#
#
# Mechanical properties :
#
#
# Convention : Reuss Voigt Hill
#
# Bulk Modulus (GPa) = 28.13591 56.12323 42.12957
# Shear Modulus (GPa) = 12.99956 23.17068 18.08512
#
# Velocity S-wave (km/s) = 2.51429 3.35675 2.96559
# Velocity P-wave (km/s) = 4.70226 6.50509 5.67571
#
# Compressibility (1/GPa) = 0.03554177
#
# Stress axis : x y z
#
# Youngs Moduli (GPa) = 31.10403 114.23073 137.19050
#
# Poissons Ratio (x) = 0.28753 0.08225
# Poissons Ratio (y) = 0.07829 0.44028
# Poissons Ratio (z) = 0.01865 0.36659
#
# Static dielectric constant tensor:
#      x y z
#    x 3.421070 0.000000 0.000000 
#    y 0.000000 4.080230 0.000000 
#    z 0.000000 0.000000 3.902190 
# 
# 
# High freq. dielectric constant tensor:
#      x y z
#    x 1.774260 0.000000 0.000000 
#    y 0.000000 1.811950 0.000000 
#    z 0.000000 0.000000 1.824760 
# 
# From -- ./inp_files/12641.got.cif
#   From: 2010.03.12/outbox.cif.g09.slc.cpg/sg36_7_cif.got.tgz:12641.got - 2010.04.14 02:13:53.
