data_PCOD8175983
_publ_section_title
;
Structure prediction by ZEFSAII (Michael W. Deem and Ramdas Pophale) SiO2 
 PCOD8175983
Probable space group: C M C 21
;
_chemical_formula_sum "Si O2"
_cell_formula_units_Z 56
_cell_length_a 15.174980
_cell_length_b 11.211305
_cell_length_c 14.000603
_cell_angle_alpha 90.000000
_cell_angle_beta 90.000000
_cell_angle_gamma 90.000000
_cell_volume 2381.941197
_symmetry_space_group_name_H-M "C M C 21"
_symmetry_group_IT_number 36
_symmetry_cell_setting 'orthorhombic'
loop_
_space_group_symop_operation_xyz
x,y,z
-x,-y,1/2+z
x,-y,1/2+z
-x,y,z
1/2+x,1/2+y,z
1/2-x,1/2-y,1/2+z
1/2+x,1/2-y,1/2+z
1/2-x,1/2+y,z
loop_
_atom_site_type_symbol
_atom_site_label
_atom_site_fract_x
_atom_site_fract_y
_atom_site_fract_z
Si Si1 0.901533 0.930350 0.708510
Si Si2 0.364796 0.379749 0.906147
Si Si3 0.901560 0.254289 0.580638
Si Si4 0.399799 0.025609 0.205041
Si Si5 0.184170 0.684628 0.359465
Si Si6 0.401489 0.369872 0.501413
Si Si7 0.269066 0.372068 0.210110
O O1 0.905512 0.846304 0.801797
O O2 0.861621 0.874335 0.610323
O O3 0.000000 0.981121 0.686542
O O4 0.832297 0.025569 0.752031
O O5 0.258821 0.396225 0.907551
O O6 0.396057 0.263943 0.966947
O O7 0.402028 0.501427 0.951597
O O8 0.885042 0.390094 0.612540
O O9 0.823383 0.168128 0.616781
O O10 0.000000 0.216955 0.617904
O O11 0.500000 0.975325 0.206627
O O12 0.385637 0.102258 0.302678
O O13 0.330143 0.918554 0.191176
O O14 0.143949 0.767317 0.440698
O O15 0.237486 0.764863 0.283842
O O16 0.500000 0.324154 0.512529
#
# Coordination Sequence:
#
# PCOD8175983 Si02
#       7
#     8   8   8   8   8   8   8
#     4  11  22  38  62  93 125 156 201 260 314 363
#     4  12  23  37  62  95 128 155 207 258 314 362
#     4  10  22  39  66  95 124 164 208 255 311 375
#     4  10  22  42  64  90 124 169 215 250 300 377
#     4  11  23  38  62  93 123 167 204 255 308 374
#     4  11  23  39  62  91 123 162 203 256 315 366
#     4  11  21  39  65  93 125 161 207 256 313 365
#
# _framework density 23.510235999999999
#
# number of rings (size 3 to 8) (size 9 to 14) (size 15 to 20)
#    0.000    1.143    4.286    2.143    2.000    1.143 
#    0.000    2.143    0.000    3.429    0.000    0.000 
#    0.000    0.000    0.000    0.000    0.000    0.000 
#
# Total GULP energy -346942.530819 kJ/mol
# GULP energy per Si atom -12390.804672 kJ/mol
# Density = 2.345673 g / cm^3
# Si number density = 23.510236 Si / 1000 Ang^3
#
#
#
# Elastic Constant Matrix: (Units=GPa)
#
#
# Indices 1 2 3 4 5 6 
#
# 1 158.9776 34.4837 22.6754 0.0000 0.0000 0.0000
# 2 34.4837 40.1319 21.4526 0.0000 0.0000 0.0000
# 3 22.6754 21.4526 142.6355 0.0000 0.0000 0.0000
# 4 0.0000 0.0000 0.0000 13.9379 0.0000 0.0000
# 5 0.0000 0.0000 0.0000 0.0000 -43.7605 0.0000
# 6 0.0000 0.0000 0.0000 0.0000 0.0000 26.4642
#
#
#
# Elastic Compliance Matrix: (Units=1/GPa)
#
#
# Indices 1 2 3 4 5 6 
#
# 1 0.007739 -0.006516 -0.000250 0.000000 0.000000 0.000000
# 2 -0.006516 0.032583 -0.003865 0.000000 0.000000 0.000000
# 3 -0.000250 -0.003865 0.007632 0.000000 0.000000 0.000000
# 4 0.000000 0.000000 0.000000 0.071747 0.000000 0.000000
# 5 0.000000 0.000000 0.000000 0.000000 -0.022852 0.000000
# 6 0.000000 0.000000 0.000000 0.000000 0.000000 0.037787
#
#
# Mechanical properties :
#
#
# Convention : Reuss Voigt Hill
#
# Bulk Modulus (GPa) = 37.46481 55.44094 46.45287
# Shear Modulus (GPa) = 30.34060 16.87054 23.60557
#
# Velocity S-wave (km/s) = 3.59629 2.68168 3.17212
# Velocity P-wave (km/s) = 5.76320 5.76380 5.76350
#
# Compressibility (1/GPa) = 0.02669172
#
# Stress axis : x y z
#
# Youngs Moduli (GPa) = 129.21002 30.69102 131.02879
#
# Poissons Ratio (x) = 0.19999 0.03280
# Poissons Ratio (y) = 0.84197 0.50637
# Poissons Ratio (z) = 0.03234 0.11861
#
# Static dielectric constant tensor:
#      x y z
#    x 4.430830 0.000000 0.000000 
#    y 0.000000 3.856150 0.000000 
#    z 0.000000 0.000000 4.458990 
# 
# 
# High freq. dielectric constant tensor:
#      x y z
#    x 1.942190 0.000000 0.000000 
#    y 0.000000 1.895720 0.000000 
#    z 0.000000 0.000000 1.937820 
# 
# From -- ./inp_files/12160.got.cif
#   From: 2010.03.12/outbox.cif.g09.slc.cpg/sg36_7_cif.got.tgz:12160.got - 2010.04.14 02:13:53.
