data_PCOD8175995
_publ_section_title
;
Structure prediction by ZEFSAII (Michael W. Deem and Ramdas Pophale) SiO2 
 PCOD8175995
Probable space group: C M C 21
;
_chemical_formula_sum "Si O2"
_cell_formula_units_Z 52
_cell_length_a 7.701821
_cell_length_b 33.980098
_cell_length_c 10.828498
_cell_angle_alpha 90.000000
_cell_angle_beta 90.000000
_cell_angle_gamma 90.000000
_cell_volume 2833.911402
_symmetry_space_group_name_H-M "C M C 21"
_symmetry_group_IT_number 36
_symmetry_cell_setting 'orthorhombic'
loop_
_space_group_symop_operation_xyz
x,y,z
-x,-y,1/2+z
x,-y,1/2+z
-x,y,z
1/2+x,1/2+y,z
1/2-x,1/2-y,1/2+z
1/2+x,1/2-y,1/2+z
1/2-x,1/2+y,z
loop_
_atom_site_type_symbol
_atom_site_label
_atom_site_fract_x
_atom_site_fract_y
_atom_site_fract_z
Si Si1 0.500000 0.664493 0.813710
Si Si2 0.702738 0.385052 0.935898
Si Si3 0.306596 0.114946 0.704141
Si Si4 0.204739 0.973790 0.192193
Si Si5 0.307836 0.308299 0.797293
Si Si6 0.500000 0.249015 0.358309
Si Si7 0.204539 0.972994 0.913924
Si Si8 0.000000 0.804642 0.565287
O O1 0.674907 0.644637 0.767838
O O2 0.500000 0.710987 0.775189
O O3 0.500000 0.661034 0.962841
O O4 0.500000 0.384634 0.971299
O O5 0.754478 0.351638 0.838035
O O6 0.752571 0.427810 0.882081
O O7 0.809688 0.376315 0.058871
O O8 0.500000 0.122473 0.756511
O O9 0.250471 0.070401 0.730292
O O10 0.000000 0.979110 0.188380
O O11 0.285730 0.001202 0.301432
O O12 0.277070 0.983631 0.052873
O O13 0.500000 0.298828 0.855492
O O14 0.326525 0.309007 0.648620
O O15 0.172842 0.275399 0.835033
O O16 0.500000 0.261454 0.502323
O O17 0.000000 0.979734 0.916103
#
# Coordination Sequence:
#
# PCOD8175995 Si02
#       8
#     4   8   8   8   8   4   8   4
#     4  10  22  43  53  87 119 149 190 245 288 342
#     4   9  17  35  59  86 117 152 194 242 284 349
#     4  11  21  36  60  85 115 156 199 240 290 347
#     4   9  16  33  52  81 118 150 197 247 288 350
#     4   9  20  41  59  85 119 151 188 238 292 342
#     4  10  22  40  62  86 117 151 192 238 293 351
#     4   8  15  28  52  81 112 152 195 232 295 341
#     4   8  22  43  55  87 120 148 182 247 291 341
#
# _framework density 18.349195999999999
#
# number of rings (size 3 to 8) (size 9 to 14) (size 15 to 20)
#    0.923    1.846    1.538    0.923    1.077    1.846 
#    5.538    3.077    0.000    0.000    0.000    0.000 
#    0.000    0.000    0.000    0.000    0.000    0.000 
#
# Total GULP energy -322090.761766 kJ/mol
# GULP energy per Si atom -12388.106222 kJ/mol
# Density = 1.830743 g / cm^3
# Si number density = 18.349196 Si / 1000 Ang^3
#
#
#
# Elastic Constant Matrix: (Units=GPa)
#
#
# Indices 1 2 3 4 5 6 
#
# 1 54.8437 46.3688 33.7537 0.0000 0.0000 0.0000
# 2 46.3688 149.8540 87.3416 0.0000 0.0000 0.0000
# 3 33.7537 87.3416 113.4853 0.0000 0.0000 0.0000
# 4 0.0000 0.0000 0.0000 42.4301 0.0000 0.0000
# 5 0.0000 0.0000 0.0000 0.0000 3.8938 0.0000
# 6 0.0000 0.0000 0.0000 0.0000 0.0000 5.1063
#
#
#
# Elastic Compliance Matrix: (Units=1/GPa)
#
#
# Indices 1 2 3 4 5 6 
#
# 1 0.025143 -0.006204 -0.002703 0.000000 0.000000 0.000000
# 2 -0.006204 0.013633 -0.008647 0.000000 0.000000 0.000000
# 3 -0.002703 -0.008647 0.016271 0.000000 0.000000 0.000000
# 4 0.000000 0.000000 0.000000 0.023568 0.000000 0.000000
# 5 0.000000 0.000000 0.000000 0.000000 0.256821 0.000000
# 6 0.000000 0.000000 0.000000 0.000000 0.000000 0.195835
#
#
# Mechanical properties :
#
#
# Convention : Reuss Voigt Hill
#
# Bulk Modulus (GPa) = 50.15655 72.56792 61.36223
# Shear Modulus (GPa) = 8.72561 20.33396 14.52979
#
# Velocity S-wave (km/s) = 2.18303 3.33252 2.81703
# Velocity P-wave (km/s) = 5.80930 7.37847 6.64040
#
# Compressibility (1/GPa) = 0.01993758
#
# Stress axis : x y z
#
# Youngs Moduli (GPa) = 39.77259 73.35312 61.46090
#
# Poissons Ratio (x) = 0.45511 0.16614
# Poissons Ratio (y) = 0.24676 0.53144
# Poissons Ratio (z) = 0.10751 0.63427
#
# Static dielectric constant tensor:
#      x y z
#    x 3.139360 0.000000 0.000000 
#    y 0.000000 3.381990 0.000000 
#    z 0.000000 0.000000 3.529620 
# 
# 
# High freq. dielectric constant tensor:
#      x y z
#    x 1.695390 0.000000 0.000000 
#    y 0.000000 1.707890 0.000000 
#    z 0.000000 0.000000 1.700680 
# 
# From -- ./inp_files/7018.got.cif
#   From: 2010.03.12/outbox.cif.g09.slc.cpg/sg36_4_cif.got.tgz:7018.got - 2010.04.14 02:13:53.
