data_PCOD8175793
_publ_section_title
;
Structure prediction by ZEFSAII (Michael W. Deem and Ramdas Pophale) SiO2 
 PCOD8175793
Probable space group: C M C 21
;
_chemical_formula_sum "Si O2"
_cell_formula_units_Z 64
_cell_length_a 9.322498
_cell_length_b 23.742792
_cell_length_c 15.028641
_cell_angle_alpha 90.000000
_cell_angle_beta 90.000000
_cell_angle_gamma 90.000000
_cell_volume 3326.471424
_symmetry_space_group_name_H-M "C M C 21"
_symmetry_group_IT_number 36
_symmetry_cell_setting 'orthorhombic'
loop_
_space_group_symop_operation_xyz
x,y,z
-x,-y,1/2+z
x,-y,1/2+z
-x,y,z
1/2+x,1/2+y,z
1/2-x,1/2-y,1/2+z
1/2+x,1/2-y,1/2+z
1/2-x,1/2+y,z
loop_
_atom_site_type_symbol
_atom_site_label
_atom_site_fract_x
_atom_site_fract_y
_atom_site_fract_z
Si Si1 0.330634 0.058985 0.759450
Si Si2 0.660548 0.975836 0.603634
Si Si3 0.668099 0.748058 0.401246
Si Si4 0.335043 0.762226 0.607999
Si Si5 0.839919 0.475637 0.910470
Si Si6 0.161715 0.127262 0.146417
Si Si7 0.830661 0.823993 0.263925
Si Si8 0.339210 0.374294 0.850592
O O1 0.500000 0.073720 0.757505
O O2 0.238622 0.115164 0.751059
O O3 0.284332 0.018377 0.678869
O O4 0.283898 0.027206 0.850043
O O5 0.500000 0.955268 0.627108
O O6 0.758789 0.921105 0.591603
O O7 0.664510 0.008136 0.512050
O O8 0.500000 0.758495 0.381193
O O9 0.700223 0.747271 0.506227
O O10 0.759145 0.795521 0.350627
O O11 0.722825 0.688295 0.363789
O O12 0.500000 0.780416 0.618633
O O13 0.236423 0.813284 0.636535
O O14 0.298971 0.710232 0.673093
O O15 0.749346 0.419192 0.905409
O O16 0.000000 0.460935 0.877954
O O17 0.166046 0.108337 0.248293
O O18 0.000000 0.132528 0.110774
O O19 0.000000 0.829620 0.281291
O O20 0.500000 0.375418 0.888831
#
# Coordination Sequence:
#
# PCOD8175793 Si02
#       8
#     8   8   8   8   8   8   8   8
#     4  10  22  40  59  82 119 160 195 236 289 348
#     4  10  22  40  61  87 117 156 199 237 288 352
#     4  10  22  42  63  85 118 160 198 237 296 358
#     4  10  23  41  62  86 117 160 199 237 292 356
#     4  10  22  39  61  87 115 154 198 237 286 347
#     4  11  22  38  62  90 117 150 195 249 297 339
#     4  11  24  40  60  89 121 153 197 248 295 345
#     4  10  21  38  62  88 116 151 193 243 297 345
#
# _framework density 19.239608
#
# number of rings (size 3 to 8) (size 9 to 14) (size 15 to 20)
#    0.000    1.750    2.500    0.750    3.500    3.500 
#    0.000    0.000    0.000    0.000    0.000    0.000 
#    0.000    0.000    0.000    0.000    0.000    0.000 
#
# Total GULP energy -396889.022576 kJ/mol
# GULP energy per Si atom -12402.781955 kJ/mol
# Density = 1.919582 g / cm^3
# Si number density = 19.239608 Si / 1000 Ang^3
#
#
#
# Elastic Constant Matrix: (Units=GPa)
#
#
# Indices 1 2 3 4 5 6 
#
# 1 88.9740 60.8521 25.3578 0.0000 0.0000 0.0000
# 2 60.8521 113.0005 11.6401 0.0000 0.0000 0.0000
# 3 25.3578 11.6401 73.6655 0.0000 0.0000 0.0000
# 4 0.0000 0.0000 0.0000 22.9750 0.0000 0.0000
# 5 0.0000 0.0000 0.0000 0.0000 12.7756 0.0000
# 6 0.0000 0.0000 0.0000 0.0000 0.0000 41.6751
#
#
#
# Elastic Compliance Matrix: (Units=1/GPa)
#
#
# Indices 1 2 3 4 5 6 
#
# 1 0.019540 -0.009993 -0.005147 0.000000 0.000000 0.000000
# 2 -0.009993 0.014106 0.001211 0.000000 0.000000 0.000000
# 3 -0.005147 0.001211 0.015155 0.000000 0.000000 0.000000
# 4 0.000000 0.000000 0.000000 0.043526 0.000000 0.000000
# 5 0.000000 0.000000 0.000000 0.000000 0.078274 0.000000
# 6 0.000000 0.000000 0.000000 0.000000 0.000000 0.023995
#
#
# Mechanical properties :
#
#
# Convention : Reuss Voigt Hill
#
# Bulk Modulus (GPa) = 47.74760 52.37112 50.05936
# Shear Modulus (GPa) = 21.79253 27.33780 24.56517
#
# Velocity S-wave (km/s) = 3.36920 3.77359 3.57711
# Velocity P-wave (km/s) = 6.32507 6.80193 6.56783
#
# Compressibility (1/GPa) = 0.02094346
#
# Stress axis : x y z
#
# Youngs Moduli (GPa) = 51.17578 70.89228 65.98291
#
# Poissons Ratio (x) = 0.70840 0.33964
# Poissons Ratio (y) = 0.51138 -0.07989
# Poissons Ratio (z) = 0.26342 -0.08584
#
# Static dielectric constant tensor:
#      x y z
#    x 3.597080 0.000000 0.000000 
#    y 0.000000 3.434110 0.000000 
#    z 0.000000 0.000000 3.602590 
# 
# 
# High freq. dielectric constant tensor:
#      x y z
#    x 1.745440 0.000000 0.000000 
#    y 0.000000 1.754560 0.000000 
#    z 0.000000 0.000000 1.756020 
# 
# From -- ./inp_files/10999.got.cif
#   From: 2010.03.12/outbox.cif.g09.slc.cpg/sg36_6_cif.got.tgz:10999.got - 2010.04.14 02:13:53.
