data_PCOD8175205
_publ_section_title
;
Structure prediction by ZEFSAII (Michael W. Deem and Ramdas Pophale) SiO2 
 PCOD8175205
Probable space group: C M C 21
;
_chemical_formula_sum "Si O2"
_cell_formula_units_Z 64
_cell_length_a 8.598223
_cell_length_b 29.048199
_cell_length_c 12.851416
_cell_angle_alpha 90.000000
_cell_angle_beta 90.000000
_cell_angle_gamma 90.000000
_cell_volume 3209.806836
_symmetry_space_group_name_H-M "C M C 21"
_symmetry_group_IT_number 36
_symmetry_cell_setting 'orthorhombic'
loop_
_space_group_symop_operation_xyz
x,y,z
-x,-y,1/2+z
x,-y,1/2+z
-x,y,z
1/2+x,1/2+y,z
1/2-x,1/2-y,1/2+z
1/2+x,1/2-y,1/2+z
1/2-x,1/2+y,z
loop_
_atom_site_type_symbol
_atom_site_label
_atom_site_fract_x
_atom_site_fract_y
_atom_site_fract_z
Si Si1 0.815939 0.982159 0.479330
Si Si2 0.820351 0.349810 0.435723
Si Si3 0.682240 0.828508 0.748247
Si Si4 0.314954 0.577064 0.560185
Si Si5 0.184513 0.917471 0.295149
Si Si6 0.178587 0.097170 0.119075
Si Si7 0.679866 0.765526 0.561613
Si Si8 0.815391 0.172652 0.472269
O O1 0.752390 0.957193 0.374574
O O2 0.772238 0.954818 0.586417
O O3 0.000000 0.983537 0.469039
O O4 0.750135 0.034097 0.491867
O O5 0.765996 0.368167 0.322827
O O6 0.702380 0.374417 0.513991
O O7 0.797271 0.295202 0.454743
O O8 0.000000 0.363152 0.458714
O O9 0.500000 0.823227 0.764886
O O10 0.718033 0.880992 0.711175
O O11 0.749815 0.792590 0.661632
O O12 0.769144 0.818205 0.854260
O O13 0.500000 0.578463 0.553970
O O14 0.261377 0.570047 0.679153
O O15 0.245146 0.624549 0.514255
O O16 0.000000 0.911421 0.301867
O O17 0.000000 0.099237 0.155355
O O18 0.500000 0.759520 0.586383
O O19 0.753093 0.714945 0.542067
O O20 0.000000 0.172298 0.479829
#
# Coordination Sequence:
#
# PCOD8175205 Si02
#       8
#     8   8   8   8   8   8   8   8
#     4   8  15  28  48  75 101 127 166 212 253 295
#     4   9  16  29  49  72 101 132 164 207 256 299
#     4  10  20  35  53  75 106 138 167 207 261 307
#     4   9  18  31  49  74 102 131 164 211 261 300
#     4   9  17  30  49  73 100 129 167 210 251 302
#     4   9  16  29  52  78 100 126 167 211 245 292
#     4   8  17  33  51  71  97 132 169 204 245 299
#     4  10  20  35  53  74 101 133 172 212 254 306
#
# _framework density 19.938894999999999
#
# number of rings (size 3 to 8) (size 9 to 14) (size 15 to 20)
#    0.000    3.000    0.000    2.625    0.000    2.000 
#    0.000    9.375    0.000   10.500    0.000    0.000 
#    0.000    0.000    0.000    0.000    0.000    0.000 
#
# Total GULP energy -396430.429003 kJ/mol
# GULP energy per Si atom -12388.450906 kJ/mol
# Density = 1.989351 g / cm^3
# Si number density = 19.938895 Si / 1000 Ang^3
#
#
#
# Elastic Constant Matrix: (Units=GPa)
#
#
# Indices 1 2 3 4 5 6 
#
# 1 12.8498 18.8032 7.0620 0.0000 0.0000 0.0000
# 2 18.8032 163.0433 68.6265 0.0000 0.0000 0.0000
# 3 7.0620 68.6265 111.3423 0.0000 0.0000 0.0000
# 4 0.0000 0.0000 0.0000 28.2463 0.0000 0.0000
# 5 0.0000 0.0000 0.0000 0.0000 20.2820 0.0000
# 6 0.0000 0.0000 0.0000 0.0000 0.0000 15.5250
#
#
#
# Elastic Compliance Matrix: (Units=1/GPa)
#
#
# Indices 1 2 3 4 5 6 
#
# 1 0.093699 -0.011214 0.000969 0.000000 0.000000 0.000000
# 2 -0.011214 0.009624 -0.005221 0.000000 0.000000 0.000000
# 3 0.000969 -0.005221 0.012138 0.000000 0.000000 0.000000
# 4 0.000000 0.000000 0.000000 0.035403 0.000000 0.000000
# 5 0.000000 0.000000 0.000000 0.000000 0.049305 0.000000
# 6 0.000000 0.000000 0.000000 0.000000 0.000000 0.064412
#
#
# Mechanical properties :
#
#
# Convention : Reuss Voigt Hill
#
# Bulk Modulus (GPa) = 11.83024 52.91320 32.37172
# Shear Modulus (GPa) = 15.44698 25.66022 20.55360
#
# Velocity S-wave (km/s) = 2.78639 3.59129 3.21414
# Velocity P-wave (km/s) = 4.03709 6.61754 5.48133
#
# Compressibility (1/GPa) = 0.08452916
#
# Stress axis : x y z
#
# Youngs Moduli (GPa) = 10.67251 103.90729 82.38868
#
# Poissons Ratio (x) = 1.16519 -0.07981
# Poissons Ratio (y) = 0.11968 0.43011
# Poissons Ratio (z) = -0.01034 0.54245
#
# Static dielectric constant tensor:
#      x y z
#    x 3.194220 0.000000 0.000000 
#    y 0.000000 4.205550 0.000000 
#    z 0.000000 0.000000 3.626550 
# 
# 
# High freq. dielectric constant tensor:
#      x y z
#    x 1.732510 0.000000 0.000000 
#    y 0.000000 1.781320 0.000000 
#    z 0.000000 0.000000 1.764800 
# 
# From -- ./inp_files/7073.got.cif
#   From: 2010.03.12/outbox.cif.g09.slc.cpg/sg36_4_cif.got.tgz:7073.got - 2010.04.14 02:13:53.
