data_PCOD8175223
_publ_section_title
;
Structure prediction by ZEFSAII (Michael W. Deem and Ramdas Pophale) SiO2 
 PCOD8175223
Probable space group: C M C 21
;
_chemical_formula_sum "Si O2"
_cell_formula_units_Z 64
_cell_length_a 8.804132
_cell_length_b 18.435225
_cell_length_c 20.339483
_cell_angle_alpha 90.000000
_cell_angle_beta 90.000000
_cell_angle_gamma 90.000000
_cell_volume 3301.223267
_symmetry_space_group_name_H-M "C M C 21"
_symmetry_group_IT_number 36
_symmetry_cell_setting 'orthorhombic'
loop_
_space_group_symop_operation_xyz
x,y,z
-x,-y,1/2+z
x,-y,1/2+z
-x,y,z
1/2+x,1/2+y,z
1/2-x,1/2-y,1/2+z
1/2+x,1/2-y,1/2+z
1/2-x,1/2+y,z
loop_
_atom_site_type_symbol
_atom_site_label
_atom_site_fract_x
_atom_site_fract_y
_atom_site_fract_z
Si Si1 0.179091 0.803713 0.636790
Si Si2 0.178614 0.548053 0.736570
Si Si3 0.821940 0.444591 0.483482
Si Si4 0.819409 0.289269 0.256018
Si Si5 0.820669 0.208681 0.989877
Si Si6 0.323331 0.047001 0.361709
Si Si7 0.821062 0.199845 0.380828
Si Si8 0.179856 0.965396 0.619867
O O1 0.251760 0.753368 0.693336
O O2 0.227082 0.774390 0.565090
O O3 0.235780 0.886496 0.645131
O O4 0.000000 0.802104 0.644277
O O5 0.237489 0.628131 0.755255
O O6 0.222627 0.494678 0.795460
O O7 0.262417 0.525638 0.670020
O O8 0.000000 0.548201 0.723089
O O9 0.753573 0.366252 0.466117
O O10 0.783546 0.496617 0.423116
O O11 0.749165 0.480402 0.548155
O O12 0.000000 0.435409 0.494207
O O13 0.760772 0.251023 0.322141
O O14 0.000000 0.285955 0.253612
O O15 0.761498 0.275738 0.947339
O O16 0.000000 0.200507 0.983106
O O17 0.500000 0.068716 0.361672
O O18 0.220261 0.117706 0.364642
O O19 0.000000 0.207059 0.390386
O O20 0.000000 0.968826 0.613328
#
# Coordination Sequence:
#
# PCOD8175223 Si02
#       8
#     8   8   8   8   8   8   8   8
#     4   8  16  32  54  77 103 138 176 215 263 319
#     4  10  20  35  56  80 107 143 185 228 277 335
#     4  10  20  37  60  83 110 148 190 230 277 333
#     4   9  18  34  55  78 104 138 182 226 270 325
#     4  10  20  35  56  83 115 147 181 227 280 333
#     4  10  22  38  55  79 112 146 186 237 285 330
#     4  11  22  36  57  82 109 145 187 230 280 340
#     4  10  20  35  55  82 114 145 181 227 278 331
#
# _framework density 19.386752000000001
#
# number of rings (size 3 to 8) (size 9 to 14) (size 15 to 20)
#    0.000    2.250    0.000    3.750    0.000    5.500 
#    0.000    5.000    0.000    6.000    0.000    0.000 
#    0.000    0.000    0.000    0.000    0.000    0.000 
#
# Total GULP energy -396871.783617 kJ/mol
# GULP energy per Si atom -12402.243238 kJ/mol
# Density = 1.934263 g / cm^3
# Si number density = 19.386752 Si / 1000 Ang^3
#
#
#
# Elastic Constant Matrix: (Units=GPa)
#
#
# Indices 1 2 3 4 5 6 
#
# 1 57.7207 24.5034 28.0629 0.0000 0.0000 0.0000
# 2 24.5034 69.2842 24.7407 0.0000 0.0000 0.0000
# 3 28.0629 24.7407 90.8344 0.0000 0.0000 0.0000
# 4 0.0000 0.0000 0.0000 40.3832 0.0000 0.0000
# 5 0.0000 0.0000 0.0000 0.0000 27.3181 0.0000
# 6 0.0000 0.0000 0.0000 0.0000 0.0000 30.5495
#
#
#
# Elastic Compliance Matrix: (Units=1/GPa)
#
#
# Indices 1 2 3 4 5 6 
#
# 1 0.022469 -0.006057 -0.005292 0.000000 0.000000 0.000000
# 2 -0.006057 0.017621 -0.002928 0.000000 0.000000 0.000000
# 3 -0.005292 -0.002928 0.013442 0.000000 0.000000 0.000000
# 4 0.000000 0.000000 0.000000 0.024763 0.000000 0.000000
# 5 0.000000 0.000000 0.000000 0.000000 0.036606 0.000000
# 6 0.000000 0.000000 0.000000 0.000000 0.000000 0.032734
#
#
# Mechanical properties :
#
#
# Convention : Reuss Voigt Hill
#
# Bulk Modulus (GPa) = 40.03607 41.38371 40.70989
# Shear Modulus (GPa) = 27.09829 29.01898 28.05863
#
# Velocity S-wave (km/s) = 3.74274 3.87311 3.80848
# Velocity P-wave (km/s) = 6.27483 6.43382 6.35482
#
# Compressibility (1/GPa) = 0.02497748
#
# Stress axis : x y z
#
# Youngs Moduli (GPa) = 44.50602 56.75046 74.39612
#
# Poissons Ratio (x) = 0.34372 0.39370
# Poissons Ratio (y) = 0.26956 0.21785
# Poissons Ratio (z) = 0.23553 0.16618
#
# Static dielectric constant tensor:
#      x y z
#    x 3.307410 0.000000 0.000000 
#    y 0.000000 3.613860 0.000000 
#    z 0.000000 0.000000 3.751230 
# 
# 
# High freq. dielectric constant tensor:
#      x y z
#    x 1.734380 0.000000 0.000000 
#    y 0.000000 1.755970 0.000000 
#    z 0.000000 0.000000 1.769670 
# 
# From -- ./inp_files/15741.got.cif
#   From: 2010.03.12/outbox.cif.g09.slc.cpg/sg36_8_cif.got.tgz:15741.got - 2010.04.14 02:13:53.
