data_PCOD8175633
_publ_section_title
;
Structure prediction by ZEFSAII (Michael W. Deem and Ramdas Pophale) SiO2 
 PCOD8175633
Probable space group: C M C 21
;
_chemical_formula_sum "Si O2"
_cell_formula_units_Z 64
_cell_length_a 8.984940
_cell_length_b 15.437728
_cell_length_c 24.144993
_cell_angle_alpha 90.000000
_cell_angle_beta 90.000000
_cell_angle_gamma 90.000000
_cell_volume 3349.080988
_symmetry_space_group_name_H-M "C M C 21"
_symmetry_group_IT_number 36
_symmetry_cell_setting 'orthorhombic'
loop_
_space_group_symop_operation_xyz
x,y,z
-x,-y,1/2+z
x,-y,1/2+z
-x,y,z
1/2+x,1/2+y,z
1/2-x,1/2-y,1/2+z
1/2+x,1/2-y,1/2+z
1/2-x,1/2+y,z
loop_
_atom_site_type_symbol
_atom_site_label
_atom_site_fract_x
_atom_site_fract_y
_atom_site_fract_z
Si Si1 0.323175 0.366122 0.353050
Si Si2 0.177562 0.023651 0.427100
Si Si3 0.326901 0.734335 0.155877
Si Si4 0.167249 0.776699 0.048591
Si Si5 0.167790 0.979683 0.047535
Si Si6 0.675109 0.458017 0.660734
Si Si7 0.676724 0.619678 0.728101
Si Si8 0.324517 0.281568 0.922799
O O1 0.500000 0.362697 0.355569
O O2 0.263830 0.452591 0.383807
O O3 0.263195 0.370083 0.290404
O O4 0.260372 0.280388 0.380978
O O5 0.245213 0.000612 0.488117
O O6 0.228502 0.120154 0.409341
O O7 0.000000 0.024897 0.431524
O O8 0.500000 0.757474 0.159756
O O9 0.279273 0.731697 0.091479
O O10 0.292442 0.639217 0.181321
O O11 0.234084 0.802339 0.190749
O O12 0.170784 0.878279 0.059909
O O13 0.000000 0.741690 0.058412
O O14 0.218733 0.756506 0.985829
O O15 0.000000 0.014314 0.043429
O O16 0.248337 0.026399 0.099621
O O17 0.500000 0.474602 0.654620
O O18 0.737907 0.527855 0.704669
O O19 0.500000 0.622830 0.727286
O O20 0.500000 0.271879 0.913717
#
# Coordination Sequence:
#
# PCOD8175633 Si02
#       8
#     8   8   8   8   8   8   8   8
#     4  10  21  35  57  82 103 138 185 228 266 314
#     4   8  16  31  52  79 106 137 179 217 257 314
#     4  11  22  33  54  87 110 134 179 235 277 303
#     4   9  17  33  56  79 111 150 177 205 265 340
#     4   8  13  27  53  77 101 136 173 211 254 311
#     4   9  18  32  53  78 103 138 180 219 262 316
#     4  10  21  40  57  72 105 149 184 215 267 336
#     4   9  19  35  56  82 111 144 177 216 270 324
#
# _framework density 19.109719999999999
#
# number of rings (size 3 to 8) (size 9 to 14) (size 15 to 20)
#    0.000    2.750    1.250    1.875    1.750    2.000 
#    0.000    4.375    0.000    0.750    0.000    0.000 
#    0.000    0.000    0.000    0.000    0.000    0.000 
#
# Total GULP energy -396622.054464 kJ/mol
# GULP energy per Si atom -12394.439202 kJ/mol
# Density = 1.906623 g / cm^3
# Si number density = 19.109720 Si / 1000 Ang^3
#
#
#
# Elastic Constant Matrix: (Units=GPa)
#
#
# Indices 1 2 3 4 5 6 
#
# 1 15.3750 11.8298 16.4341 0.0000 0.0000 0.0000
# 2 11.8298 100.2847 55.2887 0.0000 0.0000 0.0000
# 3 16.4341 55.2887 120.3992 0.0000 0.0000 0.0000
# 4 0.0000 0.0000 0.0000 26.1763 0.0000 0.0000
# 5 0.0000 0.0000 0.0000 0.0000 21.2878 0.0000
# 6 0.0000 0.0000 0.0000 0.0000 0.0000 23.8257
#
#
#
# Elastic Compliance Matrix: (Units=1/GPa)
#
#
# Indices 1 2 3 4 5 6 
#
# 1 0.077598 -0.004438 -0.008554 0.000000 0.000000 0.000000
# 2 -0.004438 0.013606 -0.005642 0.000000 0.000000 0.000000
# 3 -0.008554 -0.005642 0.012064 0.000000 0.000000 0.000000
# 4 0.000000 0.000000 0.000000 0.038203 0.000000 0.000000
# 5 0.000000 0.000000 0.000000 0.000000 0.046975 0.000000
# 6 0.000000 0.000000 0.000000 0.000000 0.000000 0.041971
#
#
# Mechanical properties :
#
#
# Convention : Reuss Voigt Hill
#
# Bulk Modulus (GPa) = 15.15142 44.79603 29.97372
# Shear Modulus (GPa) = 17.26010 24.42504 20.84257
#
# Velocity S-wave (km/s) = 3.00861 3.57900 3.30613
# Velocity P-wave (km/s) = 4.47379 6.36956 5.50391
#
# Compressibility (1/GPa) = 0.06600043
#
# Stress axis : x y z
#
# Youngs Moduli (GPa) = 12.88689 73.49856 82.88940
#
# Poissons Ratio (x) = 0.32616 0.70905
# Poissons Ratio (y) = 0.05719 0.46768
# Poissons Ratio (z) = 0.11024 0.41469
#
# Static dielectric constant tensor:
#      x y z
#    x 3.026410 0.000000 0.000000 
#    y 0.000000 3.526520 0.000000 
#    z 0.000000 0.000000 3.788230 
# 
# 
# High freq. dielectric constant tensor:
#      x y z
#    x 1.692320 0.000000 0.000000 
#    y 0.000000 1.748580 0.000000 
#    z 0.000000 0.000000 1.749130 
# 
# From -- ./inp_files/16660.got.cif
#   From: 2010.03.12/outbox.cif.g09.slc.cpg/sg36_9_cif.got.tgz:16660.got - 2010.04.14 02:13:53.
