data_PCOD8175944
_publ_section_title
;
Structure prediction by ZEFSAII (Michael W. Deem and Ramdas Pophale) SiO2 
 PCOD8175944
Probable space group: C M C 21
;
_chemical_formula_sum "Si O2"
_cell_formula_units_Z 56
_cell_length_a 19.696702
_cell_length_b 14.571619
_cell_length_c 9.210817
_cell_angle_alpha 90.000000
_cell_angle_beta 90.000000
_cell_angle_gamma 90.000000
_cell_volume 2643.622719
_symmetry_space_group_name_H-M "C M C 21"
_symmetry_group_IT_number 36
_symmetry_cell_setting 'orthorhombic'
loop_
_space_group_symop_operation_xyz
x,y,z
-x,-y,1/2+z
x,-y,1/2+z
-x,y,z
1/2+x,1/2+y,z
1/2-x,1/2-y,1/2+z
1/2+x,1/2-y,1/2+z
1/2-x,1/2+y,z
loop_
_atom_site_type_symbol
_atom_site_label
_atom_site_fract_x
_atom_site_fract_y
_atom_site_fract_z
Si Si1 0.421489 0.583758 0.869650
Si Si2 0.182275 0.518487 0.935405
Si Si3 0.427456 0.282841 0.631579
Si Si4 0.338018 0.884856 0.168567
Si Si5 0.186649 0.179264 0.662735
Si Si6 0.129579 0.119351 0.364961
Si Si7 0.259391 0.119566 0.196416
O O1 0.500000 0.579876 0.812779
O O2 0.374173 0.636241 0.755481
O O3 0.392400 0.483029 0.902594
O O4 0.416551 0.634460 0.021193
O O5 0.137537 0.585721 0.831392
O O6 0.218040 0.447985 0.825990
O O7 0.137875 0.461566 0.051773
O O8 0.234036 0.578717 0.033489
O O9 0.500000 0.234460 0.600856
O O10 0.368122 0.209372 0.613783
O O11 0.432543 0.323612 0.795912
O O12 0.255755 0.879508 0.176883
O O13 0.162620 0.173574 0.497430
O O14 0.199217 0.284843 0.707617
O O15 0.180149 0.130475 0.225904
#
# Coordination Sequence:
#
# PCOD8175944 Si02
#       7
#     8   8   8   8   8   8   8
#     4  11  26  44  66  97 137 181 221 264 331 408
#     4  10  22  37  61  92 128 161 204 279 322 391
#     4  11  25  43  65  90 129 173 218 272 328 397
#     4  11  22  41  64  95 128 163 221 268 338 382
#     4  12  25  39  67  96 134 174 219 276 324 394
#     4  12  24  39  63  96 131 176 216 269 325 401
#     4  11  23  37  61 100 127 168 217 272 337 375
#
# _framework density 21.183053999999998
#
# number of rings (size 3 to 8) (size 9 to 14) (size 15 to 20)
#    0.000    0.857    2.857    4.714    4.000    2.286 
#    0.000    0.714    0.000    3.429    0.000    0.000 
#    0.000    0.000    0.000    0.000    0.000    0.000 
#
# Total GULP energy -346984.233994 kJ/mol
# GULP energy per Si atom -12392.294071 kJ/mol
# Density = 2.113484 g / cm^3
# Si number density = 21.183054 Si / 1000 Ang^3
#
#
#
# Elastic Constant Matrix: (Units=GPa)
#
#
# Indices 1 2 3 4 5 6 
#
# 1 97.2319 41.9836 32.9521 0.0000 0.0000 0.0000
# 2 41.9836 95.9023 31.4474 0.0000 0.0000 0.0000
# 3 32.9521 31.4474 120.2406 0.0000 0.0000 0.0000
# 4 0.0000 0.0000 0.0000 38.4715 0.0000 0.0000
# 5 0.0000 0.0000 0.0000 0.0000 22.1339 0.0000
# 6 0.0000 0.0000 0.0000 0.0000 0.0000 19.5832
#
#
#
# Elastic Compliance Matrix: (Units=1/GPa)
#
#
# Indices 1 2 3 4 5 6 
#
# 1 0.013244 -0.005040 -0.002311 0.000000 0.000000 0.000000
# 2 -0.005040 0.013323 -0.002103 0.000000 0.000000 0.000000
# 3 -0.002311 -0.002103 0.009500 0.000000 0.000000 0.000000
# 4 0.000000 0.000000 0.000000 0.025993 0.000000 0.000000
# 5 0.000000 0.000000 0.000000 0.000000 0.045180 0.000000
# 6 0.000000 0.000000 0.000000 0.000000 0.000000 0.051064
#
#
# Mechanical properties :
#
#
# Convention : Reuss Voigt Hill
#
# Bulk Modulus (GPa) = 58.28113 58.46010 58.37061
# Shear Modulus (GPa) = 27.33227 29.83717 28.58472
#
# Velocity S-wave (km/s) = 3.59596 3.75712 3.67742
# Velocity P-wave (km/s) = 6.69433 6.81754 6.75621
#
# Compressibility (1/GPa) = 0.01715821
#
# Stress axis : x y z
#
# Youngs Moduli (GPa) = 75.50429 75.05598 105.26082
#
# Poissons Ratio (x) = 0.37829 0.24330
# Poissons Ratio (y) = 0.38055 0.22140
# Poissons Ratio (z) = 0.17452 0.15787
#
# Static dielectric constant tensor:
#      x y z
#    x 3.756460 0.000000 0.000000 
#    y 0.000000 3.989670 0.000000 
#    z 0.000000 0.000000 4.084850 
# 
# 
# High freq. dielectric constant tensor:
#      x y z
#    x 1.799110 0.000000 0.000000 
#    y 0.000000 1.845480 0.000000 
#    z 0.000000 0.000000 1.849410 
# 
# From -- ./inp_files/5224.got.cif
#   From: 2010.03.12/outbox.cif.g09.slc.cpg/sg36_3_cif.got.tgz:5224.got - 2010.04.14 02:13:53.
