data_PCOD8175751
_publ_section_title
;
Structure prediction by ZEFSAII (Michael W. Deem and Ramdas Pophale) SiO2 
 PCOD8175751
Probable space group: C M C 21
;
_chemical_formula_sum "Si O2"
_cell_formula_units_Z 64
_cell_length_a 9.884399
_cell_length_b 31.633376
_cell_length_c 10.643543
_cell_angle_alpha 90.000000
_cell_angle_beta 90.000000
_cell_angle_gamma 90.000000
_cell_volume 3327.990138
_symmetry_space_group_name_H-M "C M C 21"
_symmetry_group_IT_number 36
_symmetry_cell_setting 'orthorhombic'
loop_
_space_group_symop_operation_xyz
x,y,z
-x,-y,1/2+z
x,-y,1/2+z
-x,y,z
1/2+x,1/2+y,z
1/2-x,1/2-y,1/2+z
1/2+x,1/2-y,1/2+z
1/2-x,1/2+y,z
loop_
_atom_site_type_symbol
_atom_site_label
_atom_site_fract_x
_atom_site_fract_y
_atom_site_fract_z
Si Si1 0.658574 0.267496 0.100500
Si Si2 0.150570 0.578955 0.095145
Si Si3 0.650105 0.639311 0.515807
Si Si4 0.342304 0.723922 0.888113
Si Si5 0.150892 0.068064 0.724387
Si Si6 0.342579 0.985695 0.077548
Si Si7 0.346207 0.371401 0.447548
Si Si8 0.349993 0.085449 0.384838
O O1 0.500000 0.256938 0.077997
O O2 0.690872 0.316236 0.075465
O O3 0.695803 0.258161 0.248175
O O4 0.749891 0.241768 0.001131
O O5 0.197570 0.533543 0.039623
O O6 0.153126 0.571842 0.242570
O O7 0.000000 0.590642 0.047881
O O8 0.247589 0.618378 0.063390
O O9 0.500000 0.641714 0.457090
O O10 0.658944 0.604766 0.622752
O O11 0.753551 0.625872 0.406585
O O12 0.500000 0.734001 0.916915
O O13 0.316779 0.673698 0.885035
O O14 0.256145 0.030562 0.697015
O O15 0.188465 0.090578 0.853714
O O16 0.000000 0.048625 0.728527
O O17 0.500000 0.983422 0.115523
O O18 0.304178 0.956152 0.960382
O O19 0.500000 0.373359 0.495119
O O20 0.500000 0.099430 0.427648
#
# Coordination Sequence:
#
# PCOD8175751 Si02
#       8
#     8   8   8   8   8   8   8   8
#     4  10  21  39  62  88 118 152 193 244 295 353
#     4  10  22  36  53  78 112 149 185 230 282 335
#     4   9  17  34  59  80 102 138 180 222 274 330
#     4  10  22  41  62  86 120 156 194 243 300 355
#     4   9  17  33  57  80 103 135 179 225 267 318
#     4   9  19  34  54  78 106 144 183 224 274 327
#     4  10  21  38  58  80 110 148 186 229 280 335
#     4   9  19  35  51  76 111 142 180 229 278 331
#
# _framework density 19.230824999999999
#
# number of rings (size 3 to 8) (size 9 to 14) (size 15 to 20)
#    0.000    2.500    1.250    0.000    1.750    4.000 
#    0.000    5.000    0.000    0.000    0.000    0.000 
#    0.000    0.000    0.000    0.000    0.000    0.000 
#
# Total GULP energy -396615.647684 kJ/mol
# GULP energy per Si atom -12394.238990 kJ/mol
# Density = 1.918705 g / cm^3
# Si number density = 19.230825 Si / 1000 Ang^3
#
#
#
# Elastic Constant Matrix: (Units=GPa)
#
#
# Indices 1 2 3 4 5 6 
#
# 1 87.2144 48.9788 53.9232 0.0000 0.0000 0.0000
# 2 48.9788 61.6397 36.8474 0.0000 0.0000 0.0000
# 3 53.9232 36.8474 81.0076 0.0000 0.0000 0.0000
# 4 0.0000 0.0000 0.0000 18.5261 0.0000 0.0000
# 5 0.0000 0.0000 0.0000 0.0000 32.7110 0.0000
# 6 0.0000 0.0000 0.0000 0.0000 0.0000 32.1428
#
#
#
# Elastic Compliance Matrix: (Units=1/GPa)
#
#
# Indices 1 2 3 4 5 6 
#
# 1 0.026317 -0.014338 -0.010996 0.000000 0.000000 0.000000
# 2 -0.014338 0.030094 -0.004144 0.000000 0.000000 0.000000
# 3 -0.010996 -0.004144 0.021549 0.000000 0.000000 0.000000
# 4 0.000000 0.000000 0.000000 0.053978 0.000000 0.000000
# 5 0.000000 0.000000 0.000000 0.000000 0.030571 0.000000
# 6 0.000000 0.000000 0.000000 0.000000 0.000000 0.031111
#
#
# Mechanical properties :
#
#
# Convention : Reuss Voigt Hill
#
# Bulk Modulus (GPa) = 52.62365 56.59562 54.60963
# Shear Modulus (GPa) = 19.31167 22.68345 20.99756
#
# Velocity S-wave (km/s) = 3.17236 3.43816 3.30793
# Velocity P-wave (km/s) = 6.39078 6.72717 6.56113
#
# Compressibility (1/GPa) = 0.01900286
#
# Stress axis : x y z
#
# Youngs Moduli (GPa) = 37.99859 33.22960 46.40526
#
# Poissons Ratio (x) = 0.47644 0.51028
# Poissons Ratio (y) = 0.54482 0.19232
# Poissons Ratio (z) = 0.41784 0.13772
#
# Static dielectric constant tensor:
#      x y z
#    x 3.712230 0.000000 0.000000 
#    y 0.000000 3.454410 0.000000 
#    z 0.000000 0.000000 3.463210 
# 
# 
# High freq. dielectric constant tensor:
#      x y z
#    x 1.747130 0.000000 0.000000 
#    y 0.000000 1.741030 0.000000 
#    z 0.000000 0.000000 1.741350 
# 
# From -- ./inp_files/7068.got.cif
#   From: 2010.03.12/outbox.cif.g09.slc.cpg/sg36_4_cif.got.tgz:7068.got - 2010.04.14 02:13:53.
