data_PCOD8175530
_publ_section_title
;
Structure prediction by ZEFSAII (Michael W. Deem and Ramdas Pophale) SiO2 
 PCOD8175530
Probable space group: C M C 21
;
_chemical_formula_sum "Si O2"
_cell_formula_units_Z 48
_cell_length_a 8.440332
_cell_length_b 18.731515
_cell_length_c 15.121520
_cell_angle_alpha 90.000000
_cell_angle_beta 90.000000
_cell_angle_gamma 90.000000
_cell_volume 2390.715419
_symmetry_space_group_name_H-M "C M C 21"
_symmetry_group_IT_number 36
_symmetry_cell_setting 'orthorhombic'
loop_
_space_group_symop_operation_xyz
x,y,z
-x,-y,1/2+z
x,-y,1/2+z
-x,y,z
1/2+x,1/2+y,z
1/2-x,1/2-y,1/2+z
1/2+x,1/2-y,1/2+z
1/2-x,1/2+y,z
loop_
_atom_site_type_symbol
_atom_site_label
_atom_site_fract_x
_atom_site_fract_y
_atom_site_fract_z
Si Si1 0.315816 0.925448 0.929190
Si Si2 0.185216 0.922747 0.427825
Si Si3 0.815688 0.180313 0.088623
Si Si4 0.816579 0.580082 0.738308
Si Si5 0.181116 0.834295 0.080834
Si Si6 0.814861 0.074081 0.242108
O O1 0.500000 0.934025 0.907488
O O2 0.227289 0.899480 0.840486
O O3 0.247388 0.001014 0.962396
O O4 0.291820 0.867355 0.005177
O O5 0.223192 0.864308 0.501132
O O6 0.273700 0.899666 0.338630
O O7 0.000000 0.929607 0.407867
O O8 0.710595 0.250447 0.087225
O O9 0.763703 0.135124 0.174011
O O10 0.000000 0.200932 0.093524
O O11 0.715875 0.630585 0.675026
O O12 0.779519 0.497629 0.718613
O O13 0.000000 0.595092 0.720751
O O14 0.000000 0.848541 0.055020
O O15 0.000000 0.056955 0.234060
#
# Coordination Sequence:
#
# PCOD8175530 Si02
#       6
#     8   8   8   8   8   8
#     4  11  22  38  61  88 118 151 193 241 287 339
#     4  10  20  38  63  89 118 152 193 237 286 342
#     4  10  23  40  59  85 117 153 191 236 287 342
#     4  11  22  38  61  88 118 151 193 241 287 339
#     4  12  25  40  59  83 115 155 195 238 291 348
#     4  10  20  38  63  89 118 152 193 237 286 342
#
# _framework density 20.077673000000001
#
# number of rings (size 3 to 8) (size 9 to 14) (size 15 to 20)
#    0.000    1.333    0.000    8.500    0.000    5.333 
#    0.000    0.000    0.000    0.000    0.000    0.000 
#    0.000    0.000    0.000    0.000    0.000    0.000 
#
# Total GULP energy -297765.605169 kJ/mol
# GULP energy per Si atom -12406.900215 kJ/mol
# Density = 2.003198 g / cm^3
# Si number density = 20.077673 Si / 1000 Ang^3
#
#
#
# Elastic Constant Matrix: (Units=GPa)
#
#
# Indices 1 2 3 4 5 6 
#
# 1 81.3004 23.0185 18.2860 0.0000 0.0000 0.0000
# 2 23.0185 106.6242 63.9597 0.0000 0.0000 0.0000
# 3 18.2860 63.9597 103.3516 0.0000 0.0000 0.0000
# 4 0.0000 0.0000 0.0000 4.7456 0.0000 0.0000
# 5 0.0000 0.0000 0.0000 0.0000 15.3923 0.0000
# 6 0.0000 0.0000 0.0000 0.0000 0.0000 25.9812
#
#
#
# Elastic Compliance Matrix: (Units=1/GPa)
#
#
# Indices 1 2 3 4 5 6 
#
# 1 0.013154 -0.002296 -0.000906 0.000000 0.000000 0.000000
# 2 -0.002296 0.015317 -0.009073 0.000000 0.000000 0.000000
# 3 -0.000906 -0.009073 0.015451 0.000000 0.000000 0.000000
# 4 0.000000 0.000000 0.000000 0.210722 0.000000 0.000000
# 5 0.000000 0.000000 0.000000 0.000000 0.064968 0.000000
# 6 0.000000 0.000000 0.000000 0.000000 0.000000 0.038489
#
#
# Mechanical properties :
#
#
# Convention : Reuss Voigt Hill
#
# Bulk Modulus (GPa) = 51.62266 55.75606 53.68936
# Shear Modulus (GPa) = 12.84991 21.62463 17.23727
#
# Velocity S-wave (km/s) = 2.53259 3.28540 2.93325
# Velocity P-wave (km/s) = 5.85827 6.49787 6.18634
#
# Compressibility (1/GPa) = 0.01937134
#
# Stress axis : x y z
#
# Youngs Moduli (GPa) = 76.02252 65.28819 64.72194
#
# Poissons Ratio (x) = 0.14990 0.05867
# Poissons Ratio (y) = 0.17455 0.58720
# Poissons Ratio (z) = 0.06891 0.59233
#
# Static dielectric constant tensor:
#      x y z
#    x 3.671130 0.000000 0.000000 
#    y 0.000000 3.518100 0.000000 
#    z 0.000000 0.000000 3.805580 
# 
# 
# High freq. dielectric constant tensor:
#      x y z
#    x 1.794580 0.000000 0.000000 
#    y 0.000000 1.776470 0.000000 
#    z 0.000000 0.000000 1.796110 
# 
# From -- ./inp_files/10364.got.cif
#   From: 2010.03.12/outbox.cif.g09.slc.cpg/sg36_6_cif.got.tgz:10364.got - 2010.04.14 02:13:53.
