data_PCOD8175269
_publ_section_title
;
Structure prediction by ZEFSAII (Michael W. Deem and Ramdas Pophale) SiO2 
 PCOD8175269
Probable space group: C M C 21
;
_chemical_formula_sum "Si O2"
_cell_formula_units_Z 64
_cell_length_a 8.880435
_cell_length_b 22.689911
_cell_length_c 16.317791
_cell_angle_alpha 90.000000
_cell_angle_beta 90.000000
_cell_angle_gamma 90.000000
_cell_volume 3287.974181
_symmetry_space_group_name_H-M "C M C 21"
_symmetry_group_IT_number 36
_symmetry_cell_setting 'orthorhombic'
loop_
_space_group_symop_operation_xyz
x,y,z
-x,-y,1/2+z
x,-y,1/2+z
-x,y,z
1/2+x,1/2+y,z
1/2-x,1/2-y,1/2+z
1/2+x,1/2-y,1/2+z
1/2-x,1/2+y,z
loop_
_atom_site_type_symbol
_atom_site_label
_atom_site_fract_x
_atom_site_fract_y
_atom_site_fract_z
Si Si1 0.678536 0.899515 0.855380
Si Si2 0.170303 0.855143 0.009454
Si Si3 0.322843 0.717525 0.669329
Si Si4 0.677817 0.342419 0.695992
Si Si5 0.832594 0.070519 0.059471
Si Si6 0.676886 0.029910 0.900008
Si Si7 0.164335 0.950643 0.134643
Si Si8 0.674172 0.116345 0.762000
O O1 0.500000 0.898864 0.849952
O O2 0.743508 0.876487 0.770135
O O3 0.742645 0.965770 0.873727
O O4 0.727562 0.854292 0.928020
O O5 0.223897 0.808991 0.080145
O O6 0.183221 0.921241 0.045233
O O7 0.000000 0.839873 0.983145
O O8 0.500000 0.729351 0.673693
O O9 0.233153 0.776210 0.688169
O O10 0.275895 0.672943 0.742044
O O11 0.500000 0.344323 0.711064
O O12 0.721036 0.371800 0.608519
O O13 0.000000 0.079024 0.021706
O O14 0.835135 0.020412 0.128723
O O15 0.717365 0.050490 0.990649
O O16 0.500000 0.024376 0.892482
O O17 0.734241 0.083552 0.843103
O O18 0.303585 0.931566 0.190392
O O19 0.000000 0.929159 0.169740
O O20 0.500000 0.134946 0.767812
#
# Coordination Sequence:
#
# PCOD8175269 Si02
#       8
#     8   8   8   8   8   8   8   8
#     4  11  22  37  60  91 123 156 197 241 294 356
#     4   9  18  35  60  86 114 151 195 242 292 345
#     4  10  22  42  63  84 114 154 201 246 295 351
#     4  11  24  41  61  87 118 157 203 249 299 351
#     4  10  21  37  58  84 117 155 193 237 291 351
#     4  10  22  37  56  89 125 155 190 235 294 355
#     4   9  17  32  55  84 115 148 188 232 287 344
#     4  10  20  35  57  85 116 152 191 236 288 345
#
# _framework density 19.464873999999998
#
# number of rings (size 3 to 8) (size 9 to 14) (size 15 to 20)
#    0.000    2.000    1.250    3.000    0.000    5.500 
#    2.250    0.000    0.000    0.000    0.000    0.000 
#    0.000    0.000    0.000    0.000    0.000    0.000 
#
# Total GULP energy -396644.570842 kJ/mol
# GULP energy per Si atom -12395.142839 kJ/mol
# Density = 1.942057 g / cm^3
# Si number density = 19.464874 Si / 1000 Ang^3
#
#
#
# Elastic Constant Matrix: (Units=GPa)
#
#
# Indices 1 2 3 4 5 6 
#
# 1 56.5143 30.9890 36.9807 0.0000 0.0000 0.0000
# 2 30.9890 108.9286 58.4899 0.0000 0.0000 0.0000
# 3 36.9807 58.4899 96.9445 0.0000 0.0000 0.0000
# 4 0.0000 0.0000 0.0000 24.0625 0.0000 0.0000
# 5 0.0000 0.0000 0.0000 0.0000 34.0355 0.0000
# 6 0.0000 0.0000 0.0000 0.0000 0.0000 27.1892
#
#
#
# Elastic Compliance Matrix: (Units=1/GPa)
#
#
# Indices 1 2 3 4 5 6 
#
# 1 0.024163 -0.002847 -0.007500 0.000000 0.000000 0.000000
# 2 -0.002847 0.013915 -0.007309 0.000000 0.000000 0.000000
# 3 -0.007500 -0.007309 0.017586 0.000000 0.000000 0.000000
# 4 0.000000 0.000000 0.000000 0.041558 0.000000 0.000000
# 5 0.000000 0.000000 0.000000 0.000000 0.029381 0.000000
# 6 0.000000 0.000000 0.000000 0.000000 0.000000 0.036779
#
#
# Mechanical properties :
#
#
# Convention : Reuss Voigt Hill
#
# Bulk Modulus (GPa) = 49.13506 57.25631 53.19568
# Shear Modulus (GPa) = 24.33332 26.11930 25.22631
#
# Velocity S-wave (km/s) = 3.53953 3.66713 3.60389
# Velocity P-wave (km/s) = 6.48090 6.88545 6.68624
#
# Compressibility (1/GPa) = 0.02035207
#
# Stress axis : x y z
#
# Youngs Moduli (GPa) = 41.38511 71.86413 56.86357
#
# Poissons Ratio (x) = 0.20462 0.42645
# Poissons Ratio (y) = 0.11783 0.41564
# Poissons Ratio (z) = 0.31037 0.52528
#
# Static dielectric constant tensor:
#      x y z
#    x 3.492320 0.000000 0.000000 
#    y 0.000000 3.599770 0.000000 
#    z 0.000000 0.000000 3.460360 
# 
# 
# High freq. dielectric constant tensor:
#      x y z
#    x 1.755640 0.000000 0.000000 
#    y 0.000000 1.754480 0.000000 
#    z 0.000000 0.000000 1.750590 
# 
# From -- ./inp_files/11070.got.cif
#   From: 2010.03.12/outbox.cif.g09.slc.cpg/sg36_6_cif.got.tgz:11070.got - 2010.04.14 02:13:53.
