data_PCOD8175379
_publ_section_title
;
Structure prediction by ZEFSAII (Michael W. Deem and Ramdas Pophale) SiO2 
 PCOD8175379
Probable space group: C M C 21
;
_chemical_formula_sum "Si O2"
_cell_formula_units_Z 48
_cell_length_a 10.875876
_cell_length_b 23.212432
_cell_length_c 8.638620
_cell_angle_alpha 90.000000
_cell_angle_beta 90.000000
_cell_angle_gamma 90.000000
_cell_volume 2180.867409
_symmetry_space_group_name_H-M "C M C 21"
_symmetry_group_IT_number 36
_symmetry_cell_setting 'orthorhombic'
loop_
_space_group_symop_operation_xyz
x,y,z
-x,-y,1/2+z
x,-y,1/2+z
-x,y,z
1/2+x,1/2+y,z
1/2-x,1/2-y,1/2+z
1/2+x,1/2-y,1/2+z
1/2-x,1/2+y,z
loop_
_atom_site_type_symbol
_atom_site_label
_atom_site_fract_x
_atom_site_fract_y
_atom_site_fract_z
Si Si1 0.139945 0.877895 0.577000
Si Si2 0.286084 0.602736 0.401488
Si Si3 0.636842 0.477167 0.346880
Si Si4 0.287111 0.191398 0.840831
Si Si5 0.863340 0.579510 0.679342
Si Si6 0.131377 0.785664 0.064077
O O1 0.231958 0.874765 0.725112
O O2 0.152097 0.941658 0.505506
O O3 0.177382 0.830831 0.450240
O O4 0.000000 0.865499 0.630174
O O5 0.362458 0.543850 0.391692
O O6 0.158671 0.592935 0.496279
O O7 0.361148 0.650118 0.496542
O O8 0.500000 0.463288 0.275165
O O9 0.750897 0.461654 0.233013
O O10 0.367274 0.137491 0.782194
O O11 0.233419 0.225325 0.693410
O O12 0.366882 0.237968 0.930133
O O13 0.000000 0.551053 0.695271
O O14 0.000000 0.780621 0.146774
#
# Coordination Sequence:
#
# PCOD8175379 Si02
#       6
#     8   8   8   8   8   8
#     4  10  20  36  59  88 120 153 197 254 308 361
#     4  11  22  36  59  90 123 158 200 245 303 362
#     4  10  21  38  63  92 121 157 203 253 303 360
#     4  10  22  40  60  88 118 157 206 253 308 370
#     4  10  23  42  62  88 126 166 205 252 306 366
#     4  11  22  38  61  86 119 159 202 255 309 363
#
# _framework density 22.009591
#
# number of rings (size 3 to 8) (size 9 to 14) (size 15 to 20)
#    0.000    1.667    0.000    4.500    0.000    7.333 
#    0.000   15.000    0.000    0.000    0.000    0.000 
#    0.000    0.000    0.000    0.000    0.000    0.000 
#
# Total GULP energy -297433.341918 kJ/mol
# GULP energy per Si atom -12393.055913 kJ/mol
# Density = 2.195950 g / cm^3
# Si number density = 22.009591 Si / 1000 Ang^3
#
#
#
# Elastic Constant Matrix: (Units=GPa)
#
#
# Indices 1 2 3 4 5 6 
#
# 1 138.7164 28.4504 45.8359 0.0000 0.0000 0.0000
# 2 28.4504 86.7074 16.3026 0.0000 0.0000 0.0000
# 3 45.8359 16.3026 114.7526 0.0000 0.0000 0.0000
# 4 0.0000 0.0000 0.0000 26.9838 0.0000 0.0000
# 5 0.0000 0.0000 0.0000 0.0000 21.4477 0.0000
# 6 0.0000 0.0000 0.0000 0.0000 0.0000 17.0674
#
#
#
# Elastic Compliance Matrix: (Units=1/GPa)
#
#
# Indices 1 2 3 4 5 6 
#
# 1 0.008718 -0.002266 -0.003160 0.000000 0.000000 0.000000
# 2 -0.002266 0.012439 -0.000862 0.000000 0.000000 0.000000
# 3 -0.003160 -0.000862 0.010099 0.000000 0.000000 0.000000
# 4 0.000000 0.000000 0.000000 0.037059 0.000000 0.000000
# 5 0.000000 0.000000 0.000000 0.000000 0.046625 0.000000
# 6 0.000000 0.000000 0.000000 0.000000 0.000000 0.058591
#
#
# Mechanical properties :
#
#
# Convention : Reuss Voigt Hill
#
# Bulk Modulus (GPa) = 53.53647 57.92827 55.73237
# Shear Modulus (GPa) = 25.99636 29.73896 27.86766
#
# Velocity S-wave (km/s) = 3.44050 3.67983 3.56217
# Velocity P-wave (km/s) = 6.33716 6.66570 6.50351
#
# Compressibility (1/GPa) = 0.01867886
#
# Stress axis : x y z
#
# Youngs Moduli (GPa) = 114.70483 80.39411 99.01802
#
# Poissons Ratio (x) = 0.18220 0.31293
# Poissons Ratio (y) = 0.25996 0.08534
# Poissons Ratio (z) = 0.36250 0.06929
#
# Static dielectric constant tensor:
#      x y z
#    x 3.679920 0.000000 0.000000 
#    y 0.000000 3.935280 0.000000 
#    z 0.000000 0.000000 4.194000 
# 
# 
# High freq. dielectric constant tensor:
#      x y z
#    x 1.842250 0.000000 0.000000 
#    y 0.000000 1.865230 0.000000 
#    z 0.000000 0.000000 1.872610 
# 
# From -- ./inp_files/3296.got.cif
#   From: 2010.03.12/outbox.cif.g09.slc.cpg/sg36_2_cif.got.tgz:3296.got - 2010.04.14 02:13:53.
