data_PCOD8175835
_publ_section_title
;
Structure prediction by ZEFSAII (Michael W. Deem and Ramdas Pophale) SiO2 
 PCOD8175835
Probable space group: C M C 21
;
_chemical_formula_sum "Si O2"
_cell_formula_units_Z 64
_cell_length_a 8.812182
_cell_length_b 19.501661
_cell_length_c 18.785241
_cell_angle_alpha 90.000000
_cell_angle_beta 90.000000
_cell_angle_gamma 90.000000
_cell_volume 3228.284731
_symmetry_space_group_name_H-M "C M C 21"
_symmetry_group_IT_number 36
_symmetry_cell_setting 'orthorhombic'
loop_
_space_group_symop_operation_xyz
x,y,z
-x,-y,1/2+z
x,-y,1/2+z
-x,y,z
1/2+x,1/2+y,z
1/2-x,1/2-y,1/2+z
1/2+x,1/2-y,1/2+z
1/2-x,1/2+y,z
loop_
_atom_site_type_symbol
_atom_site_label
_atom_site_fract_x
_atom_site_fract_y
_atom_site_fract_z
Si Si1 0.827061 0.591636 0.703330
Si Si2 0.825105 0.615994 0.542359
Si Si3 0.179573 0.819091 0.717814
Si Si4 0.180330 0.770942 0.564501
Si Si5 0.180370 0.868108 0.440072
Si Si6 0.821081 0.976578 0.925963
Si Si7 0.322176 0.700456 0.795457
Si Si8 0.322339 0.049832 0.277185
O O1 0.805759 0.581819 0.619482
O O2 0.716036 0.650852 0.729947
O O3 0.781279 0.522701 0.743083
O O4 0.000000 0.613759 0.720344
O O5 0.766617 0.694526 0.543606
O O6 0.718444 0.573096 0.490636
O O7 0.000000 0.612215 0.516963
O O8 0.242503 0.790954 0.642376
O O9 0.242386 0.773209 0.782580
O O10 0.238727 0.895571 0.727745
O O11 0.000000 0.818348 0.719835
O O12 0.244887 0.825579 0.507293
O O13 0.000000 0.772964 0.566054
O O14 0.241723 0.832367 0.368287
O O15 0.000000 0.866862 0.440552
O O16 0.238470 0.946522 0.443188
O O17 0.738630 0.947029 0.856992
O O18 0.000000 0.976666 0.912262
O O19 0.500000 0.713071 0.800125
O O20 0.500000 0.065071 0.277126
#
# Coordination Sequence:
#
# PCOD8175835 Si02
#       8
#     8   8   8   8   8   8   8   8
#     4  10  21  40  63  87 119 159 205 250 302 365
#     4  10  21  39  62  87 120 161 201 246 307 367
#     4  11  23  40  63  90 123 159 204 257 309 362
#     4   9  19  38  61  84 117 160 200 242 298 363
#     4   9  20  37  58  86 118 157 201 243 297 363
#     4  11  23  40  60  89 124 157 203 254 299 360
#     4  11  21  37  63  89 119 157 204 254 304 362
#     4  11  24  41  62  88 122 162 206 256 308 364
#
# _framework density 19.824770000000001
#
# number of rings (size 3 to 8) (size 9 to 14) (size 15 to 20)
#    0.000    1.750    2.500    1.500    3.500    1.000 
#    0.000    0.000    0.000    4.500    0.000    0.000 
#    0.000    0.000    0.000    0.000    0.000    0.000 
#
# Total GULP energy -396922.454044 kJ/mol
# GULP energy per Si atom -12403.826689 kJ/mol
# Density = 1.977965 g / cm^3
# Si number density = 19.824770 Si / 1000 Ang^3
#
#
#
# Elastic Constant Matrix: (Units=GPa)
#
#
# Indices 1 2 3 4 5 6 
#
# 1 47.1396 25.5251 16.6337 0.0000 0.0000 0.0000
# 2 25.5251 79.1098 39.2988 0.0000 0.0000 0.0000
# 3 16.6337 39.2988 93.9566 0.0000 0.0000 0.0000
# 4 0.0000 0.0000 0.0000 43.1043 0.0000 0.0000
# 5 0.0000 0.0000 0.0000 0.0000 25.5101 0.0000
# 6 0.0000 0.0000 0.0000 0.0000 0.0000 30.3244
#
#
#
# Elastic Compliance Matrix: (Units=1/GPa)
#
#
# Indices 1 2 3 4 5 6 
#
# 1 0.025844 -0.007657 -0.001373 0.000000 0.000000 0.000000
# 2 -0.007657 0.018224 -0.006267 0.000000 0.000000 0.000000
# 3 -0.001373 -0.006267 0.013508 0.000000 0.000000 0.000000
# 4 0.000000 0.000000 0.000000 0.023200 0.000000 0.000000
# 5 0.000000 0.000000 0.000000 0.000000 0.039200 0.000000
# 6 0.000000 0.000000 0.000000 0.000000 0.000000 0.032977
#
#
# Mechanical properties :
#
#
# Convention : Reuss Voigt Hill
#
# Bulk Modulus (GPa) = 37.06080 42.56903 39.81492
# Shear Modulus (GPa) = 25.96867 29.03765 27.50316
#
# Velocity S-wave (km/s) = 3.62319 3.83131 3.72871
# Velocity P-wave (km/s) = 6.01981 6.41024 6.21809
#
# Compressibility (1/GPa) = 0.02698269
#
# Stress axis : x y z
#
# Youngs Moduli (GPa) = 38.69380 54.87157 74.03265
#
# Poissons Ratio (x) = 0.42014 0.10163
# Poissons Ratio (y) = 0.29627 0.46397
# Poissons Ratio (z) = 0.05312 0.34389
#
# Static dielectric constant tensor:
#      x y z
#    x 3.341320 0.000000 0.000000 
#    y 0.000000 3.779100 0.000000 
#    z 0.000000 0.000000 3.739610 
# 
# 
# High freq. dielectric constant tensor:
#      x y z
#    x 1.748660 0.000000 0.000000 
#    y 0.000000 1.786150 0.000000 
#    z 0.000000 0.000000 1.781430 
# 
# From -- ./inp_files/15728.got.cif
#   From: 2010.03.12/outbox.cif.g09.slc.cpg/sg36_8_cif.got.tgz:15728.got - 2010.04.14 02:13:53.
