data_PCOD8175040
_publ_section_title
;
Structure prediction by ZEFSAII (Michael W. Deem and Ramdas Pophale) SiO2 
 PCOD8175040
Probable space group: C M C 21
;
_chemical_formula_sum "Si O2"
_cell_formula_units_Z 64
_cell_length_a 9.621667
_cell_length_b 22.314897
_cell_length_c 16.286136
_cell_angle_alpha 90.000000
_cell_angle_beta 90.000000
_cell_angle_gamma 90.000000
_cell_volume 3496.739391
_symmetry_space_group_name_H-M "C M C 21"
_symmetry_group_IT_number 36
_symmetry_cell_setting 'orthorhombic'
loop_
_space_group_symop_operation_xyz
x,y,z
-x,-y,1/2+z
x,-y,1/2+z
-x,y,z
1/2+x,1/2+y,z
1/2-x,1/2-y,1/2+z
1/2+x,1/2-y,1/2+z
1/2-x,1/2+y,z
loop_
_atom_site_type_symbol
_atom_site_label
_atom_site_fract_x
_atom_site_fract_y
_atom_site_fract_z
Si Si1 0.336696 0.784713 0.966610
Si Si2 0.849338 0.964688 0.791026
Si Si3 0.161891 0.455618 0.487602
Si Si4 0.151508 0.906257 0.619094
Si Si5 0.336929 0.276414 0.296108
Si Si6 0.162858 0.768189 0.639936
Si Si7 0.840922 0.092039 0.847547
Si Si8 0.839568 0.415777 0.921165
O O1 0.500000 0.774811 0.967766
O O2 0.282019 0.752781 0.882526
O O3 0.294024 0.854893 0.966780
O O4 0.278831 0.757569 0.052499
O O5 0.861785 0.944782 0.699457
O O6 0.741371 0.921510 0.836061
O O7 0.000000 0.958345 0.835085
O O8 0.805470 0.034701 0.790888
O O9 0.220887 0.437817 0.574877
O O10 0.240455 0.411852 0.425297
O O11 0.194820 0.526076 0.475915
O O12 0.000000 0.441951 0.481669
O O13 0.189253 0.838477 0.638589
O O14 0.000000 0.909053 0.573418
O O15 0.500000 0.261130 0.283018
O O16 0.249653 0.255075 0.217700
O O17 0.309839 0.347475 0.298483
O O18 0.000000 0.751953 0.652327
O O19 0.000000 0.092357 0.878506
O O20 0.000000 0.412537 0.897323
#
# Coordination Sequence:
#
# PCOD8175040 Si02
#       8
#     8   8   8   8   8   8   8   8
#     4   9  18  34  54  73 101 141 173 203 256 317
#     4   9  18  32  51  74  99 130 167 208 253 304
#     4  10  20  32  50  76 100 126 166 213 255 300
#     4  10  20  34  51  72 101 135 169 206 255 310
#     4  10  20  35  56  79 104 138 176 213 256 307
#     4  10  21  36  54  77 104 137 177 215 254 308
#     4   9  18  34  53  73 101 135 169 205 254 312
#     4   9  18  33  51  72  98 128 165 207 253 304
#
# _framework density 18.302765000000001
#
# number of rings (size 3 to 8) (size 9 to 14) (size 15 to 20)
#    0.000    2.500    0.000    1.875    0.000    5.000 
#    0.000    1.250    0.000    0.000    0.000    0.000 
#    0.000    0.000    0.000    0.000    0.000    0.000 
#
# Total GULP energy -396592.519044 kJ/mol
# GULP energy per Si atom -12393.516220 kJ/mol
# Density = 1.826111 g / cm^3
# Si number density = 18.302765 Si / 1000 Ang^3
#
#
#
# Elastic Constant Matrix: (Units=GPa)
#
#
# Indices 1 2 3 4 5 6 
#
# 1 64.6649 44.8092 48.1930 0.0000 0.0000 0.0000
# 2 44.8092 94.1409 56.2096 0.0000 0.0000 0.0000
# 3 48.1930 56.2096 121.7943 0.0000 0.0000 0.0000
# 4 0.0000 0.0000 0.0000 5.2490 0.0000 0.0000
# 5 0.0000 0.0000 0.0000 0.0000 32.3885 0.0000
# 6 0.0000 0.0000 0.0000 0.0000 0.0000 24.4797
#
#
#
# Elastic Compliance Matrix: (Units=1/GPa)
#
#
# Indices 1 2 3 4 5 6 
#
# 1 0.026228 -0.008679 -0.006373 0.000000 0.000000 0.000000
# 2 -0.008679 0.017535 -0.004658 0.000000 0.000000 0.000000
# 3 -0.006373 -0.004658 0.012882 0.000000 0.000000 0.000000
# 4 0.000000 0.000000 0.000000 0.190513 0.000000 0.000000
# 5 0.000000 0.000000 0.000000 0.000000 0.030875 0.000000
# 6 0.000000 0.000000 0.000000 0.000000 0.000000 0.040850
#
#
# Mechanical properties :
#
#
# Convention : Reuss Voigt Hill
#
# Bulk Modulus (GPa) = 58.05609 64.33597 61.19603
# Shear Modulus (GPa) = 13.73461 21.18266 17.45863
#
# Velocity S-wave (km/s) = 2.74234 3.40567 3.09184
# Velocity P-wave (km/s) = 6.46652 7.11984 6.80103
#
# Compressibility (1/GPa) = 0.01722472
#
# Stress axis : x y z
#
# Youngs Moduli (GPa) = 38.12765 57.02966 77.62728
#
# Poissons Ratio (x) = 0.49495 0.49469
# Poissons Ratio (y) = 0.33090 0.36161
# Poissons Ratio (z) = 0.24298 0.26566
#
# Static dielectric constant tensor:
#      x y z
#    x 3.573350 0.000000 0.000000 
#    y 0.000000 3.546700 0.000000 
#    z 0.000000 0.000000 3.311670 
# 
# 
# High freq. dielectric constant tensor:
#      x y z
#    x 1.696950 0.000000 0.000000 
#    y 0.000000 1.723850 0.000000 
#    z 0.000000 0.000000 1.699730 
# 
# From -- ./inp_files/10978.got.cif
#   From: 2010.03.12/outbox.cif.g09.slc.cpg/sg36_6_cif.got.tgz:10978.got - 2010.04.14 02:13:53.
