data_PCOD8175661
_publ_section_title
;
Structure prediction by ZEFSAII (Michael W. Deem and Ramdas Pophale) SiO2 
 PCOD8175661
Probable space group: C M C 21
;
_chemical_formula_sum "Si O2"
_cell_formula_units_Z 64
_cell_length_a 9.025241
_cell_length_b 26.847679
_cell_length_c 12.983786
_cell_angle_alpha 90.000000
_cell_angle_beta 90.000000
_cell_angle_gamma 90.000000
_cell_volume 3146.059290
_symmetry_space_group_name_H-M "C M C 21"
_symmetry_group_IT_number 36
_symmetry_cell_setting 'orthorhombic'
loop_
_space_group_symop_operation_xyz
x,y,z
-x,-y,1/2+z
x,-y,1/2+z
-x,y,z
1/2+x,1/2+y,z
1/2-x,1/2-y,1/2+z
1/2+x,1/2-y,1/2+z
1/2-x,1/2+y,z
loop_
_atom_site_type_symbol
_atom_site_label
_atom_site_fract_x
_atom_site_fract_y
_atom_site_fract_z
Si Si1 0.172897 0.371071 0.149790
Si Si2 0.174796 0.808024 0.755442
Si Si3 0.165215 0.017429 0.355201
Si Si4 0.665593 0.556626 0.024855
Si Si5 0.675738 0.158888 0.047251
Si Si6 0.828527 0.122268 0.440871
Si Si7 0.829722 0.485574 0.166950
Si Si8 0.175278 0.300162 0.329503
O O1 0.207564 0.427677 0.180430
O O2 0.239601 0.337032 0.241532
O O3 0.000000 0.361012 0.136947
O O4 0.245389 0.356516 0.040799
O O5 0.254450 0.814978 0.646405
O O6 0.225597 0.850131 0.836726
O O7 0.225722 0.755480 0.802855
O O8 0.000000 0.809763 0.735313
O O9 0.205367 0.063521 0.430046
O O10 0.000000 0.027393 0.308373
O O11 0.163525 0.963218 0.408452
O O12 0.293123 0.015453 0.270780
O O13 0.500000 0.572255 0.060765
O O14 0.777764 0.601391 0.042346
O O15 0.721205 0.507678 0.082725
O O16 0.500000 0.161891 0.056487
O O17 0.735757 0.185457 0.943132
O O18 0.000000 0.133919 0.458770
O O19 0.000000 0.494443 0.136684
O O20 0.000000 0.305620 0.331931
#
# Coordination Sequence:
#
# PCOD8175661 Si02
#       8
#     8   8   8   8   8   8   8   8
#     4  10  21  38  60  88 123 162 201 248 304 362
#     4  10  22  41  65  90 122 164 204 250 311 366
#     4  10  21  36  56  84 120 161 203 247 295 356
#     4  11  22  38  59  85 120 162 201 243 300 360
#     4  11  23  41  64  92 125 159 205 258 307 367
#     4  10  21  38  60  88 121 159 201 250 302 360
#     4  11  22  35  57  88 121 160 204 251 300 355
#     4   9  21  41  63  89 124 163 199 249 313 366
#
# _framework density 20.34291
#
# number of rings (size 3 to 8) (size 9 to 14) (size 15 to 20)
#    0.000    1.750    1.250    2.625    1.750    4.500 
#    0.000    2.500    0.000    0.000    0.000    0.000 
#    0.000    0.000    0.000    0.000    0.000    0.000 
#
# Total GULP energy -396785.039312 kJ/mol
# GULP energy per Si atom -12399.532479 kJ/mol
# Density = 2.029661 g / cm^3
# Si number density = 20.342910 Si / 1000 Ang^3
#
#
#
# Elastic Constant Matrix: (Units=GPa)
#
#
# Indices 1 2 3 4 5 6 
#
# 1 55.5820 30.5168 47.2054 0.0000 0.0000 0.0000
# 2 30.5168 109.8093 55.0502 0.0000 0.0000 0.0000
# 3 47.2054 55.0502 152.2019 0.0000 0.0000 0.0000
# 4 0.0000 0.0000 0.0000 34.1571 0.0000 0.0000
# 5 0.0000 0.0000 0.0000 0.0000 32.6086 0.0000
# 6 0.0000 0.0000 0.0000 0.0000 0.0000 18.4820
#
#
#
# Elastic Compliance Matrix: (Units=1/GPa)
#
#
# Indices 1 2 3 4 5 6 
#
# 1 0.025686 -0.003841 -0.006577 0.000000 0.000000 0.000000
# 2 -0.003841 0.011698 -0.003040 0.000000 0.000000 0.000000
# 3 -0.006577 -0.003040 0.009710 0.000000 0.000000 0.000000
# 4 0.000000 0.000000 0.000000 0.029276 0.000000 0.000000
# 5 0.000000 0.000000 0.000000 0.000000 0.030667 0.000000
# 6 0.000000 0.000000 0.000000 0.000000 0.000000 0.054107
#
#
# Mechanical properties :
#
#
# Convention : Reuss Voigt Hill
#
# Bulk Modulus (GPa) = 49.55956 64.79311 57.17634
# Shear Modulus (GPa) = 25.66914 29.37094 27.52004
#
# Velocity S-wave (km/s) = 3.55607 3.80385 3.68204
# Velocity P-wave (km/s) = 6.42462 7.15625 6.80029
#
# Compressibility (1/GPa) = 0.02017774
#
# Stress axis : x y z
#
# Youngs Moduli (GPa) = 38.93108 85.48421 102.99020
#
# Poissons Ratio (x) = 0.32835 0.67741
# Poissons Ratio (y) = 0.14954 0.31307
# Poissons Ratio (z) = 0.25606 0.25985
#
# Static dielectric constant tensor:
#      x y z
#    x 3.469410 0.000000 0.000000 
#    y 0.000000 3.695840 0.000000 
#    z 0.000000 0.000000 3.807780 
# 
# 
# High freq. dielectric constant tensor:
#      x y z
#    x 1.776040 0.000000 0.000000 
#    y 0.000000 1.798010 0.000000 
#    z 0.000000 0.000000 1.804570 
# 
# From -- ./inp_files/7143.got.cif
#   From: 2010.03.12/outbox.cif.g09.slc.cpg/sg36_4_cif.got.tgz:7143.got - 2010.04.14 02:13:53.
