data_PCOD8175364
_publ_section_title
;
Structure prediction by ZEFSAII (Michael W. Deem and Ramdas Pophale) SiO2 
 PCOD8175364
Probable space group: C M C 21
;
_chemical_formula_sum "Si O2"
_cell_formula_units_Z 56
_cell_length_a 12.876548
_cell_length_b 12.595201
_cell_length_c 17.831892
_cell_angle_alpha 90.000000
_cell_angle_beta 90.000000
_cell_angle_gamma 90.000000
_cell_volume 2892.024573
_symmetry_space_group_name_H-M "C M C 21"
_symmetry_group_IT_number 36
_symmetry_cell_setting 'orthorhombic'
loop_
_space_group_symop_operation_xyz
x,y,z
-x,-y,1/2+z
x,-y,1/2+z
-x,y,z
1/2+x,1/2+y,z
1/2-x,1/2-y,1/2+z
1/2+x,1/2-y,1/2+z
1/2-x,1/2+y,z
loop_
_atom_site_type_symbol
_atom_site_label
_atom_site_fract_x
_atom_site_fract_y
_atom_site_fract_z
Si Si1 0.880647 0.425550 0.187580
Si Si2 0.379810 0.566403 0.917132
Si Si3 0.205019 0.835817 0.914988
Si Si4 0.883051 0.581790 0.516249
Si Si5 0.220146 0.801383 0.286814
Si Si6 0.881678 0.335206 0.666959
Si Si7 0.695213 0.144885 0.009568
O O1 0.847395 0.399305 0.102081
O O2 0.813694 0.360624 0.246250
O O3 0.862815 0.550001 0.204067
O O4 0.000000 0.393970 0.200467
O O5 0.500000 0.593157 0.931070
O O6 0.366529 0.439240 0.912802
O O7 0.340735 0.616720 0.839521
O O8 0.313430 0.614728 0.985808
O O9 0.232187 0.798556 0.831322
O O10 0.311967 0.852618 0.960168
O O11 0.148088 0.738920 0.958056
O O12 0.877852 0.456823 0.497460
O O13 0.000000 0.621133 0.503293
O O14 0.139305 0.756692 0.226610
O O15 0.805262 0.319269 0.596157
O O16 0.000000 0.326067 0.638411
#
# Coordination Sequence:
#
# PCOD8175364 Si02
#       7
#     8   8   8   8   8   8   8
#     4   9  19  36  57  80 108 141 179 226 274 319
#     4  10  22  38  54  77 111 147 180 220 269 320
#     4  10  21  35  54  79 110 144 177 218 263 318
#     4   9  18  35  58  82 106 134 176 226 271 315
#     4  11  21  36  54  80 112 145 181 220 266 323
#     4  10  20  36  59  83 107 139 180 225 272 321
#     4   9  19  36  56  81 106 136 179 225 269 316
#
# _framework density 19.363598
#
# number of rings (size 3 to 8) (size 9 to 14) (size 15 to 20)
#    0.000    2.286    0.000    3.429    0.000    4.571 
#    0.000   11.429    0.000    6.857    0.000    0.000 
#    0.000    0.000    0.000    0.000    0.000    0.000 
#
# Total GULP energy -347206.478350 kJ/mol
# GULP energy per Si atom -12400.231370 kJ/mol
# Density = 1.931953 g / cm^3
# Si number density = 19.363598 Si / 1000 Ang^3
#
#
#
# Elastic Constant Matrix: (Units=GPa)
#
#
# Indices 1 2 3 4 5 6 
#
# 1 102.9428 34.8076 63.5113 0.0000 0.0000 0.0000
# 2 34.8076 87.4322 52.1178 0.0000 0.0000 0.0000
# 3 63.5113 52.1178 118.7047 0.0000 0.0000 0.0000
# 4 0.0000 0.0000 0.0000 41.0692 0.0000 0.0000
# 5 0.0000 0.0000 0.0000 0.0000 30.0397 0.0000
# 6 0.0000 0.0000 0.0000 0.0000 0.0000 22.3044
#
#
#
# Elastic Compliance Matrix: (Units=1/GPa)
#
#
# Indices 1 2 3 4 5 6 
#
# 1 0.014659 -0.001572 -0.007153 0.000000 0.000000 0.000000
# 2 -0.001572 0.015661 -0.006035 0.000000 0.000000 0.000000
# 3 -0.007153 -0.006035 0.014901 0.000000 0.000000 0.000000
# 4 0.000000 0.000000 0.000000 0.024349 0.000000 0.000000
# 5 0.000000 0.000000 0.000000 0.000000 0.033289 0.000000
# 6 0.000000 0.000000 0.000000 0.000000 0.000000 0.044834
#
#
# Mechanical properties :
#
#
# Convention : Reuss Voigt Hill
#
# Bulk Modulus (GPa) = 63.69015 67.77258 65.73136
# Shear Modulus (GPa) = 27.40554 29.25888 28.33221
#
# Velocity S-wave (km/s) = 3.76614 3.89141 3.82929
# Velocity P-wave (km/s) = 7.20242 7.43416 7.31921
#
# Compressibility (1/GPa) = 0.01570101
#
# Stress axis : x y z
#
# Youngs Moduli (GPa) = 68.21952 63.85466 67.11069
#
# Poissons Ratio (x) = 0.10038 0.48002
# Poissons Ratio (y) = 0.10725 0.40499
# Poissons Ratio (z) = 0.48795 0.38534
#
# Static dielectric constant tensor:
#      x y z
#    x 3.344310 0.000000 0.000000 
#    y 0.000000 3.671660 0.000000 
#    z 0.000000 0.000000 3.541060 
# 
# 
# High freq. dielectric constant tensor:
#      x y z
#    x 1.738520 0.000000 0.000000 
#    y 0.000000 1.764530 0.000000 
#    z 0.000000 0.000000 1.754490 
# 
# From -- ./inp_files/12148.got.cif
#   From: 2010.03.12/outbox.cif.g09.slc.cpg/sg36_7_cif.got.tgz:12148.got - 2010.04.14 02:13:53.
