data_PCOD8175677
_publ_section_title
;
Structure prediction by ZEFSAII (Michael W. Deem and Ramdas Pophale) SiO2 
 PCOD8175677
Probable space group: C M C 21
;
_chemical_formula_sum "Si O2"
_cell_formula_units_Z 64
_cell_length_a 13.727647
_cell_length_b 18.523490
_cell_length_c 12.547284
_cell_angle_alpha 90.000000
_cell_angle_beta 90.000000
_cell_angle_gamma 90.000000
_cell_volume 3190.572711
_symmetry_space_group_name_H-M "C M C 21"
_symmetry_group_IT_number 36
_symmetry_cell_setting 'orthorhombic'
loop_
_space_group_symop_operation_xyz
x,y,z
-x,-y,1/2+z
x,-y,1/2+z
-x,y,z
1/2+x,1/2+y,z
1/2-x,1/2-y,1/2+z
1/2+x,1/2-y,1/2+z
1/2-x,1/2+y,z
loop_
_atom_site_type_symbol
_atom_site_label
_atom_site_fract_x
_atom_site_fract_y
_atom_site_fract_z
Si Si1 0.745917 0.194543 0.237420
Si Si2 0.387572 0.717073 0.429269
Si Si3 0.212013 0.146074 0.782133
Si Si4 0.890915 0.571095 0.309387
Si Si5 0.710739 0.987146 0.007719
Si Si6 0.610698 0.413672 0.087504
Si Si7 0.267038 0.850943 0.507749
Si Si8 0.392716 0.926875 0.194288
O O1 0.832235 0.188405 0.323591
O O2 0.701110 0.273958 0.236856
O O3 0.654086 0.144294 0.264608
O O4 0.784184 0.175012 0.117952
O O5 0.500000 0.725645 0.398482
O O6 0.372263 0.660186 0.523755
O O7 0.348334 0.793601 0.470908
O O8 0.140624 0.096134 0.712070
O O9 0.188739 0.142560 0.909513
O O10 0.324442 0.119840 0.771580
O O11 0.814357 0.534995 0.389060
O O12 0.898938 0.511671 0.218248
O O13 0.000000 0.586274 0.355942
O O14 0.683613 0.070865 0.027047
O O15 0.825246 0.976773 0.033882
O O16 0.650926 0.927795 0.075796
O O17 0.500000 0.440076 0.083151
O O18 0.500000 0.891110 0.197526
#
# Coordination Sequence:
#
# PCOD8175677 Si02
#       8
#     8   8   8   8   8   8   8   8
#     4  11  22  40  59  92 130 163 205 253 314 369
#     4  10  22  40  66  93 120 160 210 259 306 368
#     4  10  22  38  62  89 127 164 201 260 307 363
#     4  11  22  36  58  92 126 159 205 255 313 374
#     4  11  21  39  61  91 130 161 201 260 319 368
#     4  10  21  41  66  88 118 165 215 251 300 370
#     4  11  22  38  64  90 125 162 206 256 315 370
#     4  10  21  36  59  91 124 160 198 254 319 372
#
# _framework density 20.059094000000002
#
# number of rings (size 3 to 8) (size 9 to 14) (size 15 to 20)
#    0.000    1.500    5.000    0.375    0.000    4.000 
#    0.000    1.875    0.000    1.500    0.000    0.000 
#    0.000    0.000    0.000    0.000    0.000    0.000 
#
# Total GULP energy -396646.107664 kJ/mol
# GULP energy per Si atom -12395.190865 kJ/mol
# Density = 2.001344 g / cm^3
# Si number density = 20.059094 Si / 1000 Ang^3
#
#
#
# Elastic Constant Matrix: (Units=GPa)
#
#
# Indices 1 2 3 4 5 6 
#
# 1 109.3563 24.2229 38.4026 0.0000 0.0000 0.0000
# 2 24.2229 87.8973 15.5691 0.0000 0.0000 0.0000
# 3 38.4026 15.5691 118.7454 0.0000 0.0000 0.0000
# 4 0.0000 0.0000 0.0000 28.9366 0.0000 0.0000
# 5 0.0000 0.0000 0.0000 0.0000 16.7311 0.0000
# 6 0.0000 0.0000 0.0000 0.0000 0.0000 26.9093
#
#
#
# Elastic Compliance Matrix: (Units=1/GPa)
#
#
# Indices 1 2 3 4 5 6 
#
# 1 0.010793 -0.002412 -0.003174 0.000000 0.000000 0.000000
# 2 -0.002412 0.012187 -0.000818 0.000000 0.000000 0.000000
# 3 -0.003174 -0.000818 0.009555 0.000000 0.000000 0.000000
# 4 0.000000 0.000000 0.000000 0.034558 0.000000 0.000000
# 5 0.000000 0.000000 0.000000 0.000000 0.059769 0.000000
# 6 0.000000 0.000000 0.000000 0.000000 0.000000 0.037162
#
#
# Mechanical properties :
#
#
# Convention : Reuss Voigt Hill
#
# Bulk Modulus (GPa) = 50.69295 52.48760 51.59027
# Shear Modulus (GPa) = 27.26156 30.36902 28.81529
#
# Velocity S-wave (km/s) = 3.69055 3.89521 3.79426
# Velocity P-wave (km/s) = 6.59446 6.81568 6.70598
#
# Compressibility (1/GPa) = 0.01972661
#
# Stress axis : x y z
#
# Youngs Moduli (GPa) = 92.64857 82.05793 104.65515
#
# Poissons Ratio (x) = 0.19794 0.33221
# Poissons Ratio (y) = 0.22349 0.08558
# Poissons Ratio (z) = 0.29410 0.06710
#
# Static dielectric constant tensor:
#      x y z
#    x 3.478670 0.000000 0.000000 
#    y 0.000000 3.623330 0.000000 
#    z 0.000000 0.000000 3.810060 
# 
# 
# High freq. dielectric constant tensor:
#      x y z
#    x 1.754340 0.000000 0.000000 
#    y 0.000000 1.783840 0.000000 
#    z 0.000000 0.000000 1.797050 
# 
# From -- ./inp_files/8638.got.cif
#   From: 2010.03.12/outbox.cif.g09.slc.cpg/sg36_5_cif.got.tgz:8638.got - 2010.04.14 02:13:53.
