data_PCOD8175077
_publ_section_title
;
Structure prediction by ZEFSAII (Michael W. Deem and Ramdas Pophale) SiO2 
 PCOD8175077
Probable space group: C M C 21
;
_chemical_formula_sum "Si O2"
_cell_formula_units_Z 64
_cell_length_a 9.365438
_cell_length_b 23.360727
_cell_length_c 14.468980
_cell_angle_alpha 90.000000
_cell_angle_beta 90.000000
_cell_angle_gamma 90.000000
_cell_volume 3165.573223
_symmetry_space_group_name_H-M "C M C 21"
_symmetry_group_IT_number 36
_symmetry_cell_setting 'orthorhombic'
loop_
_space_group_symop_operation_xyz
x,y,z
-x,-y,1/2+z
x,-y,1/2+z
-x,y,z
1/2+x,1/2+y,z
1/2-x,1/2-y,1/2+z
1/2+x,1/2-y,1/2+z
1/2-x,1/2+y,z
loop_
_atom_site_type_symbol
_atom_site_label
_atom_site_fract_x
_atom_site_fract_y
_atom_site_fract_z
Si Si1 0.162714 0.520811 0.504730
Si Si2 0.835494 0.208495 0.925413
Si Si3 0.342158 0.586087 0.003900
Si Si4 0.836669 0.854268 0.688959
Si Si5 0.336519 0.337619 0.236200
Si Si6 0.663831 0.066033 0.310156
Si Si7 0.168411 0.449816 0.206863
Si Si8 0.666896 0.754241 0.589955
O O1 0.236286 0.462801 0.471916
O O2 0.180859 0.565522 0.421200
O O3 0.224970 0.544908 0.600943
O O4 0.000000 0.504061 0.521657
O O5 0.801968 0.210301 0.815832
O O6 0.000000 0.224308 0.948138
O O7 0.798658 0.143947 0.953455
O O8 0.733649 0.249680 0.986426
O O9 0.500000 0.566787 0.974370
O O10 0.333499 0.595229 0.113771
O O11 0.760231 0.880634 0.778681
O O12 0.750981 0.799921 0.651737
O O13 0.000000 0.836220 0.711595
O O14 0.500000 0.357229 0.248182
O O15 0.241435 0.393786 0.249570
O O16 0.311393 0.307581 0.137411
O O17 0.500000 0.077916 0.281638
O O18 0.713400 0.005875 0.264919
O O19 0.000000 0.439761 0.211415
O O20 0.500000 0.770900 0.584706
#
# Coordination Sequence:
#
# PCOD8175077 Si02
#       8
#     8   8   8   8   8   8   8   8
#     4  10  20  33  51  79 113 148 184 223 276 337
#     4   9  19  37  59  85 112 145 191 238 286 337
#     4   9  17  30  52  79 106 138 181 227 273 326
#     4  10  20  35  56  81 108 142 185 233 282 330
#     4  10  22  40  60  83 115 152 191 236 286 339
#     4  10  20  35  55  81 114 149 187 228 277 339
#     4  10  21  36  55  83 116 151 189 232 283 335
#     4  10  21  38  60  85 112 147 190 237 287 337
#
# _framework density 20.217507999999999
#
# number of rings (size 3 to 8) (size 9 to 14) (size 15 to 20)
#    0.000    2.250    1.250    2.250    0.000    5.000 
#    2.250    0.000    0.000    0.000    0.000    0.000 
#    0.000    0.000    0.000    0.000    0.000    0.000 
#
# Total GULP energy -396743.066187 kJ/mol
# GULP energy per Si atom -12398.220818 kJ/mol
# Density = 2.017149 g / cm^3
# Si number density = 20.217508 Si / 1000 Ang^3
#
#
#
# Elastic Constant Matrix: (Units=GPa)
#
#
# Indices 1 2 3 4 5 6 
#
# 1 71.4561 20.1356 18.7816 0.0000 0.0000 0.0000
# 2 20.1356 31.7143 2.7461 0.0000 0.0000 0.0000
# 3 18.7816 2.7461 85.5524 0.0000 0.0000 0.0000
# 4 0.0000 0.0000 0.0000 24.2066 0.0000 0.0000
# 5 0.0000 0.0000 0.0000 0.0000 29.0129 0.0000
# 6 0.0000 0.0000 0.0000 0.0000 0.0000 23.5756
#
#
#
# Elastic Compliance Matrix: (Units=1/GPa)
#
#
# Indices 1 2 3 4 5 6 
#
# 1 0.018093 -0.011175 -0.003613 0.000000 0.000000 0.000000
# 2 -0.011175 0.038521 0.001217 0.000000 0.000000 0.000000
# 3 -0.003613 0.001217 0.012443 0.000000 0.000000 0.000000
# 4 0.000000 0.000000 0.000000 0.041311 0.000000 0.000000
# 5 0.000000 0.000000 0.000000 0.000000 0.034467 0.000000
# 6 0.000000 0.000000 0.000000 0.000000 0.000000 0.042417
#
#
# Mechanical properties :
#
#
# Convention : Reuss Voigt Hill
#
# Bulk Modulus (GPa) = 23.85802 30.22772 27.04287
# Shear Modulus (GPa) = 21.89463 25.16298 23.52881
#
# Velocity S-wave (km/s) = 3.29440 3.53174 3.41513
# Velocity P-wave (km/s) = 5.12806 5.62269 5.38106
#
# Compressibility (1/GPa) = 0.04191463
#
# Stress axis : x y z
#
# Youngs Moduli (GPa) = 55.26930 25.95987 80.36683
#
# Poissons Ratio (x) = 0.29009 0.29040
# Poissons Ratio (y) = 0.61761 -0.09778
# Poissons Ratio (z) = 0.19971 -0.03159
#
# Static dielectric constant tensor:
#      x y z
#    x 3.628170 0.000000 0.000000 
#    y 0.000000 3.240380 0.000000 
#    z 0.000000 0.000000 3.937590 
# 
# 
# High freq. dielectric constant tensor:
#      x y z
#    x 1.784840 0.000000 0.000000 
#    y 0.000000 1.761620 0.000000 
#    z 0.000000 0.000000 1.798030 
# 
# From -- ./inp_files/10942.got.cif
#   From: 2010.03.12/outbox.cif.g09.slc.cpg/sg36_6_cif.got.tgz:10942.got - 2010.04.14 02:13:53.
