data_PCOD8175537
_publ_section_title
;
Structure prediction by ZEFSAII (Michael W. Deem and Ramdas Pophale) SiO2 
 PCOD8175537
Probable space group: C M C 21
;
_chemical_formula_sum "Si O2"
_cell_formula_units_Z 64
_cell_length_a 8.837151
_cell_length_b 19.665190
_cell_length_c 18.328625
_cell_angle_alpha 90.000000
_cell_angle_beta 90.000000
_cell_angle_gamma 90.000000
_cell_volume 3185.226413
_symmetry_space_group_name_H-M "C M C 21"
_symmetry_group_IT_number 36
_symmetry_cell_setting 'orthorhombic'
loop_
_space_group_symop_operation_xyz
x,y,z
-x,-y,1/2+z
x,-y,1/2+z
-x,y,z
1/2+x,1/2+y,z
1/2-x,1/2-y,1/2+z
1/2+x,1/2-y,1/2+z
1/2-x,1/2+y,z
loop_
_atom_site_type_symbol
_atom_site_label
_atom_site_fract_x
_atom_site_fract_y
_atom_site_fract_z
Si Si1 0.677106 0.951188 0.529430
Si Si2 0.821624 0.886665 0.223887
Si Si3 0.679570 0.368477 0.798212
Si Si4 0.177996 0.170026 0.572211
Si Si5 0.179263 0.930784 0.949948
Si Si6 0.322497 0.728953 0.835483
Si Si7 0.322847 0.800362 0.488536
Si Si8 0.821169 0.473998 0.694241
O O1 0.500000 0.960760 0.518832
O O2 0.725568 0.873414 0.518262
O O3 0.760552 0.994106 0.467035
O O4 0.728657 0.975546 0.609539
O O5 0.756882 0.849682 0.151282
O O6 0.779891 0.839699 0.292334
O O7 0.739894 0.958803 0.234396
O O8 0.000000 0.900104 0.218800
O O9 0.500000 0.368563 0.792808
O O10 0.737239 0.406430 0.871274
O O11 0.737236 0.291379 0.797540
O O12 0.748797 0.407121 0.729327
O O13 0.246954 0.120597 0.510434
O O14 0.219281 0.247648 0.552888
O O15 0.000000 0.159915 0.573599
O O16 0.000000 0.931697 0.951371
O O17 0.500000 0.743676 0.831554
O O18 0.271802 0.719707 0.918066
O O19 0.500000 0.795963 0.468368
O O20 0.000000 0.469307 0.702650
#
# Coordination Sequence:
#
# PCOD8175537 Si02
#       8
#     8   8   8   8   8   8   8   8
#     4  10  23  39  61  91 124 157 197 252 305 355
#     4  10  22  40  63  87 118 161 203 245 301 361
#     4  11  24  42  63  88 122 163 204 247 305 370
#     4   9  17  36  64  85 107 152 203 243 288 353
#     4  10  20  38  64  86 112 154 202 245 293 359
#     4  11  24  40  61  91 123 156 201 253 301 359
#     4  10  21  40  63  86 119 161 201 243 300 361
#     4  11  24  41  61  90 125 160 203 252 301 356
#
# _framework density 20.092763000000001
#
# number of rings (size 3 to 8) (size 9 to 14) (size 15 to 20)
#    0.000    1.750    2.500    1.125    3.500    3.000 
#    0.000    0.625    0.000    0.000    0.000    0.000 
#    0.000    0.000    0.000    0.000    0.000    0.000 
#
# Total GULP energy -396925.423712 kJ/mol
# GULP energy per Si atom -12403.919491 kJ/mol
# Density = 2.004703 g / cm^3
# Si number density = 20.092763 Si / 1000 Ang^3
#
#
#
# Elastic Constant Matrix: (Units=GPa)
#
#
# Indices 1 2 3 4 5 6 
#
# 1 48.9350 29.7062 22.2911 0.0000 0.0000 0.0000
# 2 29.7062 120.3577 14.5920 0.0000 0.0000 0.0000
# 3 22.2911 14.5920 47.6320 0.0000 0.0000 0.0000
# 4 0.0000 0.0000 0.0000 40.5023 0.0000 0.0000
# 5 0.0000 0.0000 0.0000 0.0000 28.0709 0.0000
# 6 0.0000 0.0000 0.0000 0.0000 0.0000 35.5896
#
#
#
# Elastic Compliance Matrix: (Units=1/GPa)
#
#
# Indices 1 2 3 4 5 6 
#
# 1 0.029423 -0.005808 -0.011990 0.000000 0.000000 0.000000
# 2 -0.005808 0.009776 -0.000277 0.000000 0.000000 0.000000
# 3 -0.011990 -0.000277 0.026690 0.000000 0.000000 0.000000
# 4 0.000000 0.000000 0.000000 0.024690 0.000000 0.000000
# 5 0.000000 0.000000 0.000000 0.000000 0.035624 0.000000
# 6 0.000000 0.000000 0.000000 0.000000 0.000000 0.028098
#
#
# Mechanical properties :
#
#
# Convention : Reuss Voigt Hill
#
# Bulk Modulus (GPa) = 33.62611 38.90037 36.26324
# Shear Modulus (GPa) = 24.95457 30.85493 27.90475
#
# Velocity S-wave (km/s) = 3.52798 3.92296 3.73070
# Velocity P-wave (km/s) = 5.77644 6.31837 6.05348
#
# Compressibility (1/GPa) = 0.02973880
#
# Stress axis : x y z
#
# Youngs Moduli (GPa) = 33.98697 102.29450 37.46694
#
# Poissons Ratio (x) = 0.59417 0.44923
# Poissons Ratio (y) = 0.19741 0.01036
# Poissons Ratio (z) = 0.40751 0.02829
#
# Static dielectric constant tensor:
#      x y z
#    x 3.400770 0.000000 0.000000 
#    y 0.000000 3.796980 0.000000 
#    z 0.000000 0.000000 3.772250 
# 
# 
# High freq. dielectric constant tensor:
#      x y z
#    x 1.764850 0.000000 0.000000 
#    y 0.000000 1.799020 0.000000 
#    z 0.000000 0.000000 1.788680 
# 
# From -- ./inp_files/13875.got.cif
#   From: 2010.03.12/outbox.cif.g09.slc.cpg/sg36_7_cif.got.tgz:13875.got - 2010.04.14 02:13:53.
