data_PCOD8175542
_publ_section_title
;
Structure prediction by ZEFSAII (Michael W. Deem and Ramdas Pophale) SiO2 
 PCOD8175542
Probable space group: C M C 21
;
_chemical_formula_sum "Si O2"
_cell_formula_units_Z 64
_cell_length_a 8.739077
_cell_length_b 28.924646
_cell_length_c 12.226521
_cell_angle_alpha 90.000000
_cell_angle_beta 90.000000
_cell_angle_gamma 90.000000
_cell_volume 3090.555283
_symmetry_space_group_name_H-M "C M C 21"
_symmetry_group_IT_number 36
_symmetry_cell_setting 'orthorhombic'
loop_
_space_group_symop_operation_xyz
x,y,z
-x,-y,1/2+z
x,-y,1/2+z
-x,y,z
1/2+x,1/2+y,z
1/2-x,1/2-y,1/2+z
1/2+x,1/2-y,1/2+z
1/2-x,1/2+y,z
loop_
_atom_site_type_symbol
_atom_site_label
_atom_site_fract_x
_atom_site_fract_y
_atom_site_fract_z
Si Si1 0.326105 0.531352 0.794930
Si Si2 0.678531 0.668047 0.267865
Si Si3 0.323222 0.334632 0.393668
Si Si4 0.319907 0.816709 0.000682
Si Si5 0.826280 0.421511 0.481070
Si Si6 0.180211 0.275280 0.567265
Si Si7 0.322589 0.379517 0.166761
Si Si8 0.172544 0.933577 0.694432
O O1 0.500000 0.542931 0.831516
O O2 0.285418 0.566810 0.695673
O O3 0.307338 0.477766 0.770543
O O4 0.208947 0.538950 0.893491
O O5 0.500000 0.679605 0.276945
O O6 0.761305 0.685493 0.376748
O O7 0.744664 0.693690 0.161688
O O8 0.708882 0.613162 0.260266
O O9 0.500000 0.320766 0.403283
O O10 0.291003 0.379438 0.467095
O O11 0.223617 0.293385 0.445376
O O12 0.276802 0.346439 0.269247
O O13 0.500000 0.809869 0.999901
O O14 0.241457 0.776846 0.073915
O O15 0.275423 0.864767 0.060894
O O16 0.796423 0.441766 0.600309
O O17 0.000000 0.404176 0.469510
O O18 0.000000 0.276084 0.584506
O O19 0.500000 0.373383 0.137349
O O20 0.000000 0.931910 0.646980
#
# Coordination Sequence:
#
# PCOD8175542 Si02
#       8
#     8   8   8   8   8   8   8   8
#     4   9  20  39  63  90 122 168 219 263 313 382
#     4  11  24  44  68  95 129 167 216 267 320 382
#     4  10  20  38  64  90 120 159 207 260 311 373
#     4  12  27  44  64  91 131 174 214 261 324 389
#     4  11  21  34  56  88 124 160 203 262 320 372
#     4  12  25  42  66  95 127 162 209 263 321 383
#     4   9  20  40  64  90 125 164 213 266 314 371
#     4  10  21  39  65  91 122 166 213 262 315 382
#
# _framework density 20.708252000000002
#
# number of rings (size 3 to 8) (size 9 to 14) (size 15 to 20)
#    0.000    1.500    1.250    4.875    1.750    4.500 
#    0.000    5.000    0.000    0.000    0.000    0.000 
#    0.000    0.000    0.000    0.000    0.000    0.000 
#
# Total GULP energy -396826.517451 kJ/mol
# GULP energy per Si atom -12400.828670 kJ/mol
# Density = 2.066112 g / cm^3
# Si number density = 20.708252 Si / 1000 Ang^3
#
#
#
# Elastic Constant Matrix: (Units=GPa)
#
#
# Indices 1 2 3 4 5 6 
#
# 1 90.0915 30.6949 32.9530 0.0000 0.0000 0.0000
# 2 30.6949 106.0576 27.6557 0.0000 0.0000 0.0000
# 3 32.9530 27.6557 75.2458 0.0000 0.0000 0.0000
# 4 0.0000 0.0000 0.0000 20.7056 0.0000 0.0000
# 5 0.0000 0.0000 0.0000 0.0000 35.4975 0.0000
# 6 0.0000 0.0000 0.0000 0.0000 0.0000 23.5560
#
#
#
# Elastic Compliance Matrix: (Units=1/GPa)
#
#
# Indices 1 2 3 4 5 6 
#
# 1 0.013878 -0.002689 -0.005089 0.000000 0.000000 0.000000
# 2 -0.002689 0.010949 -0.002847 0.000000 0.000000 0.000000
# 3 -0.005089 -0.002847 0.016565 0.000000 0.000000 0.000000
# 4 0.000000 0.000000 0.000000 0.048296 0.000000 0.000000
# 5 0.000000 0.000000 0.000000 0.000000 0.028171 0.000000
# 6 0.000000 0.000000 0.000000 0.000000 0.000000 0.042452
#
#
# Mechanical properties :
#
#
# Convention : Reuss Voigt Hill
#
# Bulk Modulus (GPa) = 49.64819 50.44465 50.04642
# Shear Modulus (GPa) = 26.55696 27.95793 27.25744
#
# Velocity S-wave (km/s) = 3.58499 3.67834 3.63197
# Velocity P-wave (km/s) = 6.41587 6.51558 6.46592
#
# Compressibility (1/GPa) = 0.02014172
#
# Stress axis : x y z
#
# Youngs Moduli (GPa) = 72.05876 91.32865 60.36937
#
# Poissons Ratio (x) = 0.24562 0.30722
# Poissons Ratio (y) = 0.19379 0.17184
# Poissons Ratio (z) = 0.36671 0.25997
#
# Static dielectric constant tensor:
#      x y z
#    x 3.700010 0.000000 0.000000 
#    y 0.000000 3.764000 0.000000 
#    z 0.000000 0.000000 3.708380 
# 
# 
# High freq. dielectric constant tensor:
#      x y z
#    x 1.808760 0.000000 0.000000 
#    y 0.000000 1.811890 0.000000 
#    z 0.000000 0.000000 1.805150 
# 
# From -- ./inp_files/7262.got.cif
#   From: 2010.03.12/outbox.cif.g09.slc.cpg/sg36_4_cif.got.tgz:7262.got - 2010.04.14 02:13:53.
