data_PCOD8175658
_publ_section_title
;
Structure prediction by ZEFSAII (Michael W. Deem and Ramdas Pophale) SiO2 
 PCOD8175658
Probable space group: C M C 21
;
_chemical_formula_sum "Si O2"
_cell_formula_units_Z 64
_cell_length_a 9.205618
_cell_length_b 10.069197
_cell_length_c 35.083933
_cell_angle_alpha 90.000000
_cell_angle_beta 90.000000
_cell_angle_gamma 90.000000
_cell_volume 3252.041357
_symmetry_space_group_name_H-M "C M C 21"
_symmetry_group_IT_number 36
_symmetry_cell_setting 'orthorhombic'
loop_
_space_group_symop_operation_xyz
x,y,z
-x,-y,1/2+z
x,-y,1/2+z
-x,y,z
1/2+x,1/2+y,z
1/2-x,1/2-y,1/2+z
1/2+x,1/2-y,1/2+z
1/2-x,1/2+y,z
loop_
_atom_site_type_symbol
_atom_site_label
_atom_site_fract_x
_atom_site_fract_y
_atom_site_fract_z
Si Si1 0.333485 0.708439 0.477960
Si Si2 0.828600 0.522693 0.104720
Si Si3 0.170688 0.479680 0.190277
Si Si4 0.830949 0.211302 0.230736
Si Si5 0.670756 0.981235 0.437333
Si Si6 0.832977 0.790922 0.065632
Si Si7 0.833027 0.234274 0.317585
Si Si8 0.831277 0.964058 0.359250
O O1 0.500000 0.665527 0.470782
O O2 0.292675 0.835027 0.452519
O O3 0.228468 0.587930 0.467514
O O4 0.307831 0.747185 0.521779
O O5 0.770398 0.500056 0.147505
O O6 0.779918 0.668411 0.091472
O O7 0.760183 0.418355 0.075935
O O8 0.000000 0.504510 0.102334
O O9 0.212985 0.331845 0.203132
O O10 0.243852 0.581950 0.218851
O O11 0.000000 0.504108 0.192694
O O12 0.788475 0.250393 0.273654
O O13 0.000000 0.176968 0.227845
O O14 0.500000 0.001999 0.431878
O O15 0.750699 0.005024 0.397681
O O16 0.000000 0.824247 0.074008
O O17 0.732551 0.328666 0.342623
O O18 0.000000 0.275861 0.324564
O O19 0.807033 0.082015 0.329203
O O20 0.000000 0.941498 0.368267
#
# Coordination Sequence:
#
# PCOD8175658 Si02
#       8
#     8   8   8   8   8   8   8   8
#     4  10  22  39  57  81 112 143 181 227 271 323
#     4  10  21  37  56  82 115 147 184 230 277 328
#     4  10  21  36  56  83 113 146 186 231 277 329
#     4  10  21  37  57  82 112 147 188 232 279 332
#     4  11  23  39  60  84 112 147 183 225 278 330
#     4  10  21  37  57  81 110 145 183 224 272 325
#     4  10  22  39  57  81 114 148 185 232 281 330
#     4  11  23  38  58  84 112 145 186 229 275 331
#
# _framework density 19.679945
#
# number of rings (size 3 to 8) (size 9 to 14) (size 15 to 20)
#    0.000    1.750    0.000    3.750    0.000    8.500 
#    0.000    0.000    0.000    0.000    0.000    0.000 
#    0.000    0.000    0.000    0.000    0.000    0.000 
#
# Total GULP energy -397014.915952 kJ/mol
# GULP energy per Si atom -12406.716123 kJ/mol
# Density = 1.963515 g / cm^3
# Si number density = 19.679945 Si / 1000 Ang^3
#
#
#
# Elastic Constant Matrix: (Units=GPa)
#
#
# Indices 1 2 3 4 5 6 
#
# 1 67.3358 42.9498 29.7375 0.0000 0.0000 0.0000
# 2 42.9498 81.4458 16.3380 0.0000 0.0000 0.0000
# 3 29.7375 16.3380 81.9150 0.0000 0.0000 0.0000
# 4 0.0000 0.0000 0.0000 39.2628 0.0000 0.0000
# 5 0.0000 0.0000 0.0000 0.0000 32.1122 0.0000
# 6 0.0000 0.0000 0.0000 0.0000 0.0000 35.2729
#
#
#
# Elastic Compliance Matrix: (Units=1/GPa)
#
#
# Indices 1 2 3 4 5 6 
#
# 1 0.025632 -0.012136 -0.006885 0.000000 0.000000 0.000000
# 2 -0.012136 0.018536 0.000709 0.000000 0.000000 0.000000
# 3 -0.006885 0.000709 0.014566 0.000000 0.000000 0.000000
# 4 0.000000 0.000000 0.000000 0.025469 0.000000 0.000000
# 5 0.000000 0.000000 0.000000 0.000000 0.031141 0.000000
# 6 0.000000 0.000000 0.000000 0.000000 0.000000 0.028350
#
#
# Mechanical properties :
#
#
# Convention : Reuss Voigt Hill
#
# Bulk Modulus (GPa) = 45.22855 45.41634 45.32245
# Shear Modulus (GPa) = 26.63993 30.77432 28.70713
#
# Velocity S-wave (km/s) = 3.68320 3.95871 3.82344
# Velocity P-wave (km/s) = 6.41248 6.63496 6.52467
#
# Compressibility (1/GPa) = 0.02210993
#
# Stress axis : x y z
#
# Youngs Moduli (GPa) = 39.01334 53.94997 68.65408
#
# Poissons Ratio (x) = 0.65473 0.47266
# Poissons Ratio (y) = 0.47346 -0.04866
# Poissons Ratio (z) = 0.26860 -0.03823
#
# Static dielectric constant tensor:
#      x y z
#    x 3.523630 0.000000 0.000000 
#    y 0.000000 3.530830 0.000000 
#    z 0.000000 0.000000 3.756440 
# 
# 
# High freq. dielectric constant tensor:
#      x y z
#    x 1.762620 0.000000 0.000000 
#    y 0.000000 1.775100 0.000000 
#    z 0.000000 0.000000 1.782720 
# 
# From -- ./inp_files/17323.got.cif
#   From: 2010.03.12/outbox.cif.g09.slc.cpg/sg36_9_cif.got.tgz:17323.got - 2010.04.14 02:13:53.
