data_PCOD8175641
_publ_section_title
;
Structure prediction by ZEFSAII (Michael W. Deem and Ramdas Pophale) SiO2 
 PCOD8175641
Probable space group: C M C 21
;
_chemical_formula_sum "Si O2"
_cell_formula_units_Z 64
_cell_length_a 19.243205
_cell_length_b 10.522071
_cell_length_c 16.080433
_cell_angle_alpha 90.000000
_cell_angle_beta 90.000000
_cell_angle_gamma 90.000000
_cell_volume 3255.939851
_symmetry_space_group_name_H-M "C M C 21"
_symmetry_group_IT_number 36
_symmetry_cell_setting 'orthorhombic'
loop_
_space_group_symop_operation_xyz
x,y,z
-x,-y,1/2+z
x,-y,1/2+z
-x,y,z
1/2+x,1/2+y,z
1/2-x,1/2-y,1/2+z
1/2+x,1/2-y,1/2+z
1/2-x,1/2+y,z
loop_
_atom_site_type_symbol
_atom_site_label
_atom_site_fract_x
_atom_site_fract_y
_atom_site_fract_z
Si Si1 0.666187 0.169007 0.161990
Si Si2 0.294861 0.679934 0.505538
Si Si3 0.579401 0.281148 0.308417
Si Si4 0.686324 0.718707 0.230363
Si Si5 0.421907 0.948404 0.933189
Si Si6 0.841286 0.026936 0.364164
Si Si7 0.295216 0.892271 0.379697
Si Si8 0.844564 0.602301 0.590558
O O1 0.663747 0.252360 0.078924
O O2 0.614518 0.244509 0.222045
O O3 0.742096 0.156666 0.201333
O O4 0.642637 0.025667 0.143296
O O5 0.352698 0.597460 0.453275
O O6 0.264506 0.786406 0.442525
O O7 0.230833 0.598315 0.544094
O O8 0.500000 0.319502 0.291780
O O9 0.586561 0.160413 0.366124
O O10 0.615902 0.398682 0.355142
O O11 0.642335 0.615136 0.283334
O O12 0.700444 0.839707 0.287145
O O13 0.646667 0.773325 0.149178
O O14 0.500000 0.003225 0.933499
O O15 0.370249 0.063188 0.911861
O O16 0.405070 0.888291 0.022763
O O17 0.758113 0.007736 0.371230
#
# Coordination Sequence:
#
# PCOD8175641 Si02
#       8
#     8   8   8   8   8   8   8   8
#     4  11  21  38  60  94 122 157 205 257 310 359
#     4  10  21  35  63  95 118 153 203 259 314 359
#     4  11  25  43  61  86 125 170 209 248 310 382
#     4  10  22  33  62  95 116 151 204 255 307 361
#     4  11  23  40  62  88 123 167 206 250 308 369
#     4  11  20  38  63  88 123 160 204 252 311 368
#     4  11  19  40  62  90 119 160 201 258 308 362
#     4  11  21  37  59  94 128 152 202 261 302 364
#
# _framework density 19.656383000000002
#
# number of rings (size 3 to 8) (size 9 to 14) (size 15 to 20)
#    0.000    1.250    3.750    3.000    1.750    1.500 
#    0.000    4.375    0.000    0.000    0.000    0.000 
#    0.000    0.000    0.000    0.000    0.000    0.000 
#
# Total GULP energy -396734.204756 kJ/mol
# GULP energy per Si atom -12397.943899 kJ/mol
# Density = 1.961164 g / cm^3
# Si number density = 19.656383 Si / 1000 Ang^3
#
#
#
# Elastic Constant Matrix: (Units=GPa)
#
#
# Indices 1 2 3 4 5 6 
#
# 1 45.8398 20.4691 2.4752 0.0000 0.0000 0.0000
# 2 20.4691 63.7712 15.3723 0.0000 0.0000 0.0000
# 3 2.4752 15.3723 88.1511 0.0000 0.0000 0.0000
# 4 0.0000 0.0000 0.0000 24.3070 0.0000 0.0000
# 5 0.0000 0.0000 0.0000 0.0000 16.8638 0.0000
# 6 0.0000 0.0000 0.0000 0.0000 0.0000 19.2333
#
#
#
# Elastic Compliance Matrix: (Units=1/GPa)
#
#
# Indices 1 2 3 4 5 6 
#
# 1 0.025511 -0.008368 0.000743 0.000000 0.000000 0.000000
# 2 -0.008368 0.019114 -0.003098 0.000000 0.000000 0.000000
# 3 0.000743 -0.003098 0.011864 0.000000 0.000000 0.000000
# 4 0.000000 0.000000 0.000000 0.041140 0.000000 0.000000
# 5 0.000000 0.000000 0.000000 0.000000 0.059298 0.000000
# 6 0.000000 0.000000 0.000000 0.000000 0.000000 0.051993
#
#
# Mechanical properties :
#
#
# Convention : Reuss Voigt Hill
#
# Bulk Modulus (GPa) = 28.53659 30.48838 29.51249
# Shear Modulus (GPa) = 20.65708 22.71052 21.68380
#
# Velocity S-wave (km/s) = 3.24529 3.40277 3.32496
# Velocity P-wave (km/s) = 5.34713 5.56622 5.45777
#
# Compressibility (1/GPa) = 0.03504272
#
# Stress axis : x y z
#
# Youngs Moduli (GPa) = 39.19810 52.31837 84.29156
#
# Poissons Ratio (x) = 0.43778 -0.06262
# Poissons Ratio (y) = 0.32800 0.26115
# Poissons Ratio (z) = -0.02912 0.16209
#
# Static dielectric constant tensor:
#      x y z
#    x 3.318210 0.000000 0.000000 
#    y 0.000000 3.588030 0.000000 
#    z 0.000000 0.000000 3.932960 
# 
# 
# High freq. dielectric constant tensor:
#      x y z
#    x 1.720110 0.000000 0.000000 
#    y 0.000000 1.773360 0.000000 
#    z 0.000000 0.000000 1.791970 
# 
# From -- ./inp_files/12619.got.cif
#   From: 2010.03.12/outbox.cif.g09.slc.cpg/sg36_7_cif.got.tgz:12619.got - 2010.04.14 02:13:53.
