data_PCOD8175316
_publ_section_title
;
Structure prediction by ZEFSAII (Michael W. Deem and Ramdas Pophale) SiO2 
 PCOD8175316
Probable space group: C M C 21
;
_chemical_formula_sum "Si O2"
_cell_formula_units_Z 64
_cell_length_a 8.658017
_cell_length_b 29.135486
_cell_length_c 12.399425
_cell_angle_alpha 90.000000
_cell_angle_beta 90.000000
_cell_angle_gamma 90.000000
_cell_volume 3127.823563
_symmetry_space_group_name_H-M "C M C 21"
_symmetry_group_IT_number 36
_symmetry_cell_setting 'orthorhombic'
loop_
_space_group_symop_operation_xyz
x,y,z
-x,-y,1/2+z
x,-y,1/2+z
-x,y,z
1/2+x,1/2+y,z
1/2-x,1/2-y,1/2+z
1/2+x,1/2-y,1/2+z
1/2-x,1/2+y,z
loop_
_atom_site_type_symbol
_atom_site_label
_atom_site_fract_x
_atom_site_fract_y
_atom_site_fract_z
Si Si1 0.682970 0.412566 0.326830
Si Si2 0.671814 0.913428 0.954640
Si Si3 0.181344 0.972135 0.128664
Si Si4 0.679791 0.280344 0.848066
Si Si5 0.671849 0.817396 0.057307
Si Si6 0.821545 0.810670 0.273569
Si Si7 0.316832 0.864094 0.741309
Si Si8 0.182742 0.072005 0.069264
O O1 0.500000 0.413848 0.316069
O O2 0.754428 0.445327 0.232141
O O3 0.739486 0.360220 0.313008
O O4 0.736656 0.429980 0.444381
O O5 0.500000 0.933216 0.937796
O O6 0.740623 0.897357 0.839068
O O7 0.774248 0.951998 0.011657
O O8 0.669591 0.871291 0.036555
O O9 0.000000 0.969061 0.136904
O O10 0.234582 0.025155 0.128809
O O11 0.500000 0.288453 0.870322
O O12 0.710959 0.227401 0.823869
O O13 0.735732 0.314320 0.752019
O O14 0.782234 0.290454 0.951332
O O15 0.500000 0.801142 0.093484
O O16 0.801258 0.807084 0.145521
O O17 0.000000 0.802182 0.303913
O O18 0.500000 0.856954 0.748189
O O19 0.267919 0.885907 0.627800
O O20 0.000000 0.080025 0.076422
#
# Coordination Sequence:
#
# PCOD8175316 Si02
#       8
#     8   8   8   8   8   8   8   8
#     4   9  20  38  57  88 125 156 198 252 304 357
#     4   9  19  35  57  82 113 149 191 250 303 354
#     4  10  20  35  60  89 117 154 202 251 298 360
#     4  11  23  39  61  89 120 158 208 254 313 376
#     4  10  20  37  58  85 118 153 200 255 308 362
#     4  11  21  37  61  86 121 162 204 254 312 369
#     4  10  22  41  60  85 122 158 202 253 308 367
#     4  10  22  38  60  88 124 164 205 251 306 365
#
# _framework density 20.461511000000002
#
# number of rings (size 3 to 8) (size 9 to 14) (size 15 to 20)
#    0.000    2.000    1.250    3.000    1.750    4.000 
#    0.000    5.625    0.000    0.000    0.000    0.000 
#    0.000    0.000    0.000    0.000    0.000    0.000 
#
# Total GULP energy -396763.929219 kJ/mol
# GULP energy per Si atom -12398.872788 kJ/mol
# Density = 2.041494 g / cm^3
# Si number density = 20.461511 Si / 1000 Ang^3
#
#
#
# Elastic Constant Matrix: (Units=GPa)
#
#
# Indices 1 2 3 4 5 6 
#
# 1 50.4581 29.7262 15.0683 0.0000 0.0000 0.0000
# 2 29.7262 114.1962 42.3935 0.0000 0.0000 0.0000
# 3 15.0683 42.3935 79.6374 0.0000 0.0000 0.0000
# 4 0.0000 0.0000 0.0000 24.2284 0.0000 0.0000
# 5 0.0000 0.0000 0.0000 0.0000 30.2640 0.0000
# 6 0.0000 0.0000 0.0000 0.0000 0.0000 24.5075
#
#
#
# Elastic Compliance Matrix: (Units=1/GPa)
#
#
# Indices 1 2 3 4 5 6 
#
# 1 0.023548 -0.005578 -0.001486 0.000000 0.000000 0.000000
# 2 -0.005578 0.012235 -0.005458 0.000000 0.000000 0.000000
# 3 -0.001486 -0.005458 0.015743 0.000000 0.000000 0.000000
# 4 0.000000 0.000000 0.000000 0.041274 0.000000 0.000000
# 5 0.000000 0.000000 0.000000 0.000000 0.033043 0.000000
# 6 0.000000 0.000000 0.000000 0.000000 0.000000 0.040804
#
#
# Mechanical properties :
#
#
# Convention : Reuss Voigt Hill
#
# Bulk Modulus (GPa) = 37.76020 46.51861 42.13940
# Shear Modulus (GPa) = 24.93535 26.27356 25.60445
#
# Velocity S-wave (km/s) = 3.49470 3.58725 3.54128
# Velocity P-wave (km/s) = 5.89731 6.31996 6.11229
#
# Compressibility (1/GPa) = 0.02648291
#
# Stress axis : x y z
#
# Youngs Moduli (GPa) = 42.46557 81.73314 63.51875
#
# Poissons Ratio (x) = 0.45592 0.09440
# Poissons Ratio (y) = 0.23688 0.34666
# Poissons Ratio (z) = 0.06311 0.44607
#
# Static dielectric constant tensor:
#      x y z
#    x 3.494170 0.000000 0.000000 
#    y 0.000000 3.810160 0.000000 
#    z 0.000000 0.000000 3.758890 
# 
# 
# High freq. dielectric constant tensor:
#      x y z
#    x 1.781880 0.000000 0.000000 
#    y 0.000000 1.799070 0.000000 
#    z 0.000000 0.000000 1.798750 
# 
# From -- ./inp_files/7260.got.cif
#   From: 2010.03.12/outbox.cif.g09.slc.cpg/sg36_4_cif.got.tgz:7260.got - 2010.04.14 02:13:53.
