data_PCOD8175065
_publ_section_title
;
Structure prediction by ZEFSAII (Michael W. Deem and Ramdas Pophale) SiO2 
 PCOD8175065
Probable space group: C M C 21
;
_chemical_formula_sum "Si O2"
_cell_formula_units_Z 64
_cell_length_a 9.261145
_cell_length_b 19.502983
_cell_length_c 20.114817
_cell_angle_alpha 90.000000
_cell_angle_beta 90.000000
_cell_angle_gamma 90.000000
_cell_volume 3633.137311
_symmetry_space_group_name_H-M "C M C 21"
_symmetry_group_IT_number 36
_symmetry_cell_setting 'orthorhombic'
loop_
_space_group_symop_operation_xyz
x,y,z
-x,-y,1/2+z
x,-y,1/2+z
-x,y,z
1/2+x,1/2+y,z
1/2-x,1/2-y,1/2+z
1/2+x,1/2-y,1/2+z
1/2-x,1/2+y,z
loop_
_atom_site_type_symbol
_atom_site_label
_atom_site_fract_x
_atom_site_fract_y
_atom_site_fract_z
Si Si1 0.163885 0.828697 0.377870
Si Si2 0.832695 0.179238 0.726171
Si Si3 0.832130 0.073570 0.614289
Si Si4 0.332442 0.582970 0.113259
Si Si5 0.669110 0.916199 0.482138
Si Si6 0.829802 0.816973 0.732195
Si Si7 0.831597 0.425878 0.983801
Si Si8 0.167552 0.671487 0.365555
O O1 0.194788 0.846300 0.301021
O O2 0.273938 0.872558 0.420722
O O3 0.192649 0.748558 0.391286
O O4 0.000000 0.848165 0.397170
O O5 0.785066 0.118349 0.677476
O O6 0.736186 0.244856 0.709320
O O7 0.000000 0.200030 0.717195
O O8 0.748476 0.100415 0.549626
O O9 0.000000 0.081760 0.598957
O O10 0.791109 0.995227 0.630525
O O11 0.500000 0.590506 0.095169
O O12 0.289795 0.627858 0.176421
O O13 0.243105 0.609422 0.049923
O O14 0.500000 0.904125 0.489118
O O15 0.707673 0.995435 0.468425
O O16 0.761031 0.843800 0.800457
O O17 0.000000 0.808732 0.741924
O O18 0.778341 0.380427 0.922089
O O19 0.000000 0.415441 0.996474
O O20 0.000000 0.659928 0.347430
#
# Coordination Sequence:
#
# PCOD8175065 Si02
#       8
#     8   8   8   8   8   8   8   8
#     4   9  18  33  52  72  98 133 165 197 243 295
#     4   9  19  35  53  74 101 132 164 200 247 297
#     4   9  18  34  54  74  98 130 168 205 240 288
#     4   9  19  35  52  72 100 132 165 202 245 292
#     4  10  20  33  51  75 101 129 164 206 246 289
#     4  10  20  33  52  77 101 127 164 207 245 288
#     4   9  19  35  52  73 101 131 164 203 249 294
#     4   9  19  36  54  71  98 134 166 200 245 295
#
# _framework density 17.615628999999998
#
# number of rings (size 3 to 8) (size 9 to 14) (size 15 to 20)
#    0.000    2.750    0.000    1.500    0.000    6.500 
#    0.000    5.000    0.000    0.000    0.000    0.000 
#    0.000    0.000    0.000    0.000    0.000    0.000 
#
# Total GULP energy -396884.948006 kJ/mol
# GULP energy per Si atom -12402.654625 kJ/mol
# Density = 1.757553 g / cm^3
# Si number density = 17.615629 Si / 1000 Ang^3
#
#
#
# Elastic Constant Matrix: (Units=GPa)
#
#
# Indices 1 2 3 4 5 6 
#
# 1 69.8074 49.7973 68.8871 0.0000 0.0000 0.0000
# 2 49.7973 87.9571 87.2480 0.0000 0.0000 0.0000
# 3 68.8871 87.2480 145.0331 0.0000 0.0000 0.0000
# 4 0.0000 0.0000 0.0000 34.6592 0.0000 0.0000
# 5 0.0000 0.0000 0.0000 0.0000 34.7243 0.0000
# 6 0.0000 0.0000 0.0000 0.0000 0.0000 25.7221
#
#
#
# Elastic Compliance Matrix: (Units=1/GPa)
#
#
# Indices 1 2 3 4 5 6 
#
# 1 0.028475 -0.006708 -0.009489 0.000000 0.000000 0.000000
# 2 -0.006708 0.029772 -0.014724 0.000000 0.000000 0.000000
# 3 -0.009489 -0.014724 0.020260 0.000000 0.000000 0.000000
# 4 0.000000 0.000000 0.000000 0.028852 0.000000 0.000000
# 5 0.000000 0.000000 0.000000 0.000000 0.028798 0.000000
# 6 0.000000 0.000000 0.000000 0.000000 0.000000 0.038877
#
#
# Mechanical properties :
#
#
# Convention : Reuss Voigt Hill
#
# Bulk Modulus (GPa) = 60.01077 79.40690 69.70883
# Shear Modulus (GPa) = 20.62434 25.47880 23.05157
#
# Velocity S-wave (km/s) = 3.42540 3.80725 3.62136
# Velocity P-wave (km/s) = 7.05587 8.03133 7.55935
#
# Compressibility (1/GPa) = 0.01666368
#
# Stress axis : x y z
#
# Youngs Moduli (GPa) = 35.11900 33.58812 49.35927
#
# Poissons Ratio (x) = 0.22532 0.46838
# Poissons Ratio (y) = 0.23559 0.72676
# Poissons Ratio (z) = 0.33325 0.49455
#
# Static dielectric constant tensor:
#      x y z
#    x 3.238170 0.000000 0.000000 
#    y 0.000000 3.289840 0.000000 
#    z 0.000000 0.000000 3.327400 
# 
# 
# High freq. dielectric constant tensor:
#      x y z
#    x 1.681200 0.000000 0.000000 
#    y 0.000000 1.678190 0.000000 
#    z 0.000000 0.000000 1.684860 
# 
# From -- ./inp_files/13800.got.cif
#   From: 2010.03.12/outbox.cif.g09.slc.cpg/sg36_7_cif.got.tgz:13800.got - 2010.04.14 02:13:53.
