data_PCOD8175139
_publ_section_title
;
Structure prediction by ZEFSAII (Michael W. Deem and Ramdas Pophale) SiO2 
 PCOD8175139
Probable space group: C M C 21
;
_chemical_formula_sum "Si O2"
_cell_formula_units_Z 64
_cell_length_a 10.295771
_cell_length_b 8.786421
_cell_length_c 32.940789
_cell_angle_alpha 90.000000
_cell_angle_beta 90.000000
_cell_angle_gamma 90.000000
_cell_volume 2979.921888
_symmetry_space_group_name_H-M "C M C 21"
_symmetry_group_IT_number 36
_symmetry_cell_setting 'orthorhombic'
loop_
_space_group_symop_operation_xyz
x,y,z
-x,-y,1/2+z
x,-y,1/2+z
-x,y,z
1/2+x,1/2+y,z
1/2-x,1/2-y,1/2+z
1/2+x,1/2-y,1/2+z
1/2-x,1/2+y,z
loop_
_atom_site_type_symbol
_atom_site_label
_atom_site_fract_x
_atom_site_fract_y
_atom_site_fract_z
Si Si1 0.144633 0.926387 0.351280
Si Si2 0.855303 0.454637 0.459204
Si Si3 0.151443 0.507347 0.783847
Si Si4 0.791621 0.615768 0.596781
Si Si5 0.141619 0.887191 0.650435
Si Si6 0.148819 0.805628 0.738948
Si Si7 0.857681 0.654748 0.042776
Si Si8 0.227103 0.194532 0.405182
O O1 0.270534 0.921948 0.321925
O O2 0.158894 0.776784 0.379425
O O3 0.000000 0.917151 0.330617
O O4 0.144288 0.082220 0.376989
O O5 0.785937 0.395720 0.500922
O O6 0.861912 0.326172 0.424304
O O7 0.783693 0.603227 0.443241
O O8 0.000000 0.505830 0.470504
O O9 0.146128 0.625890 0.746897
O O10 0.242416 0.368785 0.769698
O O11 0.000000 0.460955 0.795000
O O12 0.713138 0.531229 0.632005
O O13 0.873085 0.486910 0.573864
O O14 0.872972 0.745719 0.619413
O O15 0.706692 0.699075 0.562892
O O16 0.000000 0.949529 0.659934
O O17 0.201537 0.834274 0.693439
O O18 0.000000 0.868552 0.746315
O O19 0.000000 0.712107 0.030951
#
# Coordination Sequence:
#
# PCOD8175139 Si02
#       8
#     8   8   8   8   8   8   8   8
#     4  11  23  39  60  85 114 149 189 234 284 339
#     4  10  20  36  56  79 111 148 185 229 279 330
#     4  11  24  40  60  87 116 148 188 233 284 342
#     4  10  20  34  54  82 112 143 185 230 275 328
#     4  10  20  36  57  80 110 147 185 229 278 329
#     4  10  22  40  60  84 115 151 191 234 283 338
#     4  10  20  34  54  80 111 147 185 227 276 329
#     4  10  22  37  57  83 111 145 189 234 279 333
#
# _framework density 21.477072
#
# number of rings (size 3 to 8) (size 9 to 14) (size 15 to 20)
#    0.000    1.750    0.000    4.125    0.000    6.000 
#    0.000    3.125    0.000   12.000    0.000    0.000 
#    0.000    0.000    0.000    0.000    0.000    0.000 
#
# Total GULP energy -396487.105593 kJ/mol
# GULP energy per Si atom -12390.222050 kJ/mol
# Density = 2.142819 g / cm^3
# Si number density = 21.477072 Si / 1000 Ang^3
#
#
#
# Elastic Constant Matrix: (Units=GPa)
#
#
# Indices 1 2 3 4 5 6 
#
# 1 106.2342 13.0075 16.6823 0.0000 0.0000 0.0000
# 2 13.0075 72.8998 2.0418 0.0000 0.0000 0.0000
# 3 16.6823 2.0418 78.0579 0.0000 0.0000 0.0000
# 4 0.0000 0.0000 0.0000 37.7652 0.0000 0.0000
# 5 0.0000 0.0000 0.0000 0.0000 25.4149 0.0000
# 6 0.0000 0.0000 0.0000 0.0000 0.0000 6.0182
#
#
#
# Elastic Compliance Matrix: (Units=1/GPa)
#
#
# Indices 1 2 3 4 5 6 
#
# 1 0.009950 -0.001717 -0.002082 0.000000 0.000000 0.000000
# 2 -0.001717 0.014024 0.000000 0.000000 0.000000 0.000000
# 3 -0.002082 0.000000 0.013256 0.000000 0.000000 0.000000
# 4 0.000000 0.000000 0.000000 0.026479 0.000000 0.000000
# 5 0.000000 0.000000 0.000000 0.000000 0.039347 0.000000
# 6 0.000000 0.000000 0.000000 0.000000 0.000000 0.166163
#
#
# Mechanical properties :
#
#
# Convention : Reuss Voigt Hill
#
# Bulk Modulus (GPa) = 33.74638 35.62833 34.68736
# Shear Modulus (GPa) = 17.44018 28.87035 23.15526
#
# Velocity S-wave (km/s) = 2.85272 3.67037 3.28706
# Velocity P-wave (km/s) = 5.15728 5.88108 5.53103
#
# Compressibility (1/GPa) = 0.02963281
#
# Stress axis : x y z
#
# Youngs Moduli (GPa) = 100.49957 71.30715 75.43821
#
# Poissons Ratio (x) = 0.12244 0.15703
# Poissons Ratio (y) = 0.17257 -0.00001
# Poissons Ratio (z) = 0.20920 -0.00001
#
# Static dielectric constant tensor:
#      x y z
#    x 3.669680 0.000000 0.000000 
#    y 0.000000 3.791960 0.000000 
#    z 0.000000 0.000000 4.008840 
# 
# 
# High freq. dielectric constant tensor:
#      x y z
#    x 1.827380 0.000000 0.000000 
#    y 0.000000 1.845360 0.000000 
#    z 0.000000 0.000000 1.852070 
# 
# From -- ./inp_files/17397.got.cif
#   From: 2010.03.12/outbox.cif.g09.slc.cpg/sg36_9_cif.got.tgz:17397.got - 2010.04.14 02:13:53.
