data_PCOD8175609
_publ_section_title
;
Structure prediction by ZEFSAII (Michael W. Deem and Ramdas Pophale) SiO2 
 PCOD8175609
Probable space group: C M C 21
;
_chemical_formula_sum "Si O2"
_cell_formula_units_Z 48
_cell_length_a 15.169473
_cell_length_b 9.796896
_cell_length_c 15.457967
_cell_angle_alpha 90.000000
_cell_angle_beta 90.000000
_cell_angle_gamma 90.000000
_cell_volume 2297.266433
_symmetry_space_group_name_H-M "C M C 21"
_symmetry_group_IT_number 36
_symmetry_cell_setting 'orthorhombic'
loop_
_space_group_symop_operation_xyz
x,y,z
-x,-y,1/2+z
x,-y,1/2+z
-x,y,z
1/2+x,1/2+y,z
1/2-x,1/2-y,1/2+z
1/2+x,1/2-y,1/2+z
1/2-x,1/2+y,z
loop_
_atom_site_type_symbol
_atom_site_label
_atom_site_fract_x
_atom_site_fract_y
_atom_site_fract_z
Si Si1 0.835190 0.817210 0.372530
Si Si2 0.816774 0.529583 0.625824
Si Si3 0.000000 0.192072 0.557657
Si Si4 0.500000 0.941437 0.437193
Si Si5 0.000000 0.111352 0.989705
Si Si6 0.685636 0.983606 0.922956
Si Si7 0.000000 0.635301 0.599131
Si Si8 0.334733 0.735247 0.679203
O O1 0.914372 0.863039 0.432877
O O2 0.758862 0.929168 0.374593
O O3 0.795584 0.674828 0.405799
O O4 0.868306 0.804987 0.274245
O O5 0.811284 0.488464 0.525278
O O6 0.912023 0.593995 0.651326
O O7 0.743745 0.638938 0.649161
O O8 0.801192 0.391770 0.680447
O O9 0.914476 0.222219 0.613415
O O10 0.000000 0.289338 0.474559
O O11 0.000000 0.040658 0.523294
O O12 0.409835 0.968896 0.383710
O O13 0.500000 0.057931 0.508978
O O14 0.000000 0.204374 0.075840
#
# Coordination Sequence:
#
# PCOD8175609 Si02
#       8
#     8   8   4   4   4   8   4   8
#     4  12  25  42  64  98 135 168 209 271 333 375
#     4  11  22  42  69  94 126 172 220 262 312 397
#     4  12  25  42  68  97 124 172 219 268 312 384
#     4  10  20  42  67  95 116 162 230 252 307 377
#     4  12  25  42  68  97 124 172 219 268 312 384
#     4  11  22  42  69  94 126 172 220 262 312 397
#     4  10  20  42  67  95 116 162 230 252 307 377
#     4  12  25  42  64  98 135 168 209 271 333 375
#
# _framework density 20.894399
#
# number of rings (size 3 to 8) (size 9 to 14) (size 15 to 20)
#    0.000    0.667    6.667    3.500    4.667    0.000 
#    0.000    2.500    0.000    0.000    0.000    0.000 
#    0.000    0.000    0.000    0.000    0.000    0.000 
#
# Total GULP energy -297680.766147 kJ/mol
# GULP energy per Si atom -12403.365256 kJ/mol
# Density = 2.084684 g / cm^3
# Si number density = 20.894399 Si / 1000 Ang^3
#
#
#
# Elastic Constant Matrix: (Units=GPa)
#
#
# Indices 1 2 3 4 5 6 
#
# 1 136.9300 58.7603 0.6634 0.0000 0.0000 0.0000
# 2 58.7603 154.2354 4.8325 0.0000 0.0000 0.0000
# 3 0.6634 4.8325 33.5359 0.0000 0.0000 0.0000
# 4 0.0000 0.0000 0.0000 23.9817 0.0000 0.0000
# 5 0.0000 0.0000 0.0000 0.0000 158.5985 0.0000
# 6 0.0000 0.0000 0.0000 0.0000 0.0000 30.7396
#
#
#
# Elastic Compliance Matrix: (Units=1/GPa)
#
#
# Indices 1 2 3 4 5 6 
#
# 1 0.008733 -0.003337 0.000308 0.000000 0.000000 0.000000
# 2 -0.003337 0.007788 -0.001056 0.000000 0.000000 0.000000
# 3 0.000308 -0.001056 0.029965 0.000000 0.000000 0.000000
# 4 0.000000 0.000000 0.000000 0.041698 0.000000 0.000000
# 5 0.000000 0.000000 0.000000 0.000000 0.006305 0.000000
# 6 0.000000 0.000000 0.000000 0.000000 0.000000 0.032531
#
#
# Mechanical properties :
#
#
# Convention : Reuss Voigt Hill
#
# Bulk Modulus (GPa) = 26.09863 50.35709 38.22786
# Shear Modulus (GPa) = 33.79213 60.02697 46.90955
#
# Velocity S-wave (km/s) = 4.02591 5.36573 4.74337
# Velocity P-wave (km/s) = 5.84195 7.90830 6.95232
#
# Compressibility (1/GPa) = 0.03831619
#
# Stress axis : x y z
#
# Youngs Moduli (GPa) = 114.50209 128.40299 33.37240
#
# Poissons Ratio (x) = 0.42847 -0.01028
# Poissons Ratio (y) = 0.38208 0.03525
# Poissons Ratio (z) = -0.03528 0.13562
#
# Static dielectric constant tensor:
#      x y z
#    x -6.544410 0.000000 0.000000 
#    y 0.000000 3.987990 0.000000 
#    z 0.000000 0.000000 3.634040 
# 
# 
# High freq. dielectric constant tensor:
#      x y z
#    x 1.833410 0.000000 0.000000 
#    y 0.000000 1.834250 0.000000 
#    z 0.000000 0.000000 1.796290 
# 
# From -- ./inp_files/12544.got.cif
#   From: 2010.03.12/outbox.cif.g09.slc.cpg/sg36_7_cif.got.tgz:12544.got - 2010.04.14 02:13:53.
