data_PCOD8175812
_publ_section_title
;
Structure prediction by ZEFSAII (Michael W. Deem and Ramdas Pophale) SiO2 
 PCOD8175812
Probable space group: C M C 21
;
_chemical_formula_sum "Si O2"
_cell_formula_units_Z 64
_cell_length_a 13.353247
_cell_length_b 18.056541
_cell_length_c 13.385235
_cell_angle_alpha 90.000000
_cell_angle_beta 90.000000
_cell_angle_gamma 90.000000
_cell_volume 3227.360216
_symmetry_space_group_name_H-M "C M C 21"
_symmetry_group_IT_number 36
_symmetry_cell_setting 'orthorhombic'
loop_
_space_group_symop_operation_xyz
x,y,z
-x,-y,1/2+z
x,-y,1/2+z
-x,y,z
1/2+x,1/2+y,z
1/2-x,1/2-y,1/2+z
1/2+x,1/2-y,1/2+z
1/2-x,1/2+y,z
loop_
_atom_site_type_symbol
_atom_site_label
_atom_site_fract_x
_atom_site_fract_y
_atom_site_fract_z
Si Si1 0.379814 0.295020 0.581550
Si Si2 0.264314 0.436106 0.977224
Si Si3 0.879814 0.204942 0.514798
Si Si4 0.390493 0.541704 0.298146
Si Si5 0.608599 0.282866 0.798176
Si Si6 0.382786 0.817346 0.910328
Si Si7 0.882786 0.317317 0.686007
Si Si8 0.764310 0.063929 0.119077
O O1 0.500000 0.302303 0.585236
O O2 0.338432 0.264293 0.691065
O O3 0.343515 0.240344 0.493944
O O4 0.333123 0.375789 0.561102
O O5 0.333119 0.375830 0.035220
O O6 0.221729 0.500024 0.048139
O O7 0.329889 0.481239 0.896498
O O8 0.170187 0.396020 0.925868
O O9 0.838433 0.235689 0.405292
O O10 0.843514 0.259604 0.602420
O O11 0.000000 0.197658 0.511110
O O12 0.500000 0.503152 0.298133
O O13 0.402986 0.629434 0.298162
O O14 0.329877 0.518781 0.199793
O O15 0.500000 0.243636 0.798182
O O16 0.500000 0.830571 0.923652
O O17 0.357951 0.787884 0.798174
O O18 0.829820 0.395990 0.670433
O O19 0.000000 0.330537 0.672674
#
# Coordination Sequence:
#
# PCOD8175812 Si02
#       8
#     8   8   8   8   8   8   8   8
#     4   9  18  34  58  87 112 145 186 228 282 335
#     4  11  21  36  57  84 116 148 188 231 279 343
#     4   9  18  34  58  87 112 145 186 228 282 335
#     4   9  18  34  54  77 111 151 178 214 280 346
#     4   7  12  26  51  77 105 135 173 216 259 324
#     4  10  21  39  59  79 112 154 195 237 279 329
#     4  10  21  39  59  79 112 154 195 237 279 329
#     4  11  21  36  57  84 116 148 188 231 279 343
#
# _framework density 19.830446999999999
#
# number of rings (size 3 to 8) (size 9 to 14) (size 15 to 20)
#    0.000    2.500    1.250    3.000    0.000    2.500 
#    2.250    1.250    0.000    0.000    0.000    0.000 
#    0.000    0.000    0.000    0.000    0.000    0.000 
#
# Total GULP energy -396510.884588 kJ/mol
# GULP energy per Si atom -12390.965143 kJ/mol
# Density = 1.978531 g / cm^3
# Si number density = 19.830447 Si / 1000 Ang^3
#
#
#
# Elastic Constant Matrix: (Units=GPa)
#
#
# Indices 1 2 3 4 5 6 
#
# 1 28.3002 24.2317 46.7768 0.0000 0.0000 0.0000
# 2 24.2317 57.2842 58.5091 0.0000 0.0000 0.0000
# 3 46.7768 58.5091 158.3439 0.0000 0.0000 0.0000
# 4 0.0000 0.0000 0.0000 34.9012 0.0000 0.0000
# 5 0.0000 0.0000 0.0000 0.0000 34.2355 0.0000
# 6 0.0000 0.0000 0.0000 0.0000 0.0000 13.7449
#
#
#
# Elastic Compliance Matrix: (Units=1/GPa)
#
#
# Indices 1 2 3 4 5 6 
#
# 1 0.076171 -0.014838 -0.017019 0.000000 0.000000 0.000000
# 2 -0.014838 0.030929 -0.007045 0.000000 0.000000 0.000000
# 3 -0.017019 -0.007045 0.013946 0.000000 0.000000 0.000000
# 4 0.000000 0.000000 0.000000 0.028652 0.000000 0.000000
# 5 0.000000 0.000000 0.000000 0.000000 0.029209 0.000000
# 6 0.000000 0.000000 0.000000 0.000000 0.000000 0.072754
#
#
# Mechanical properties :
#
#
# Convention : Reuss Voigt Hill
#
# Bulk Modulus (GPa) = 23.12567 55.88483 39.50525
# Shear Modulus (GPa) = 14.53992 24.20370 19.37181
#
# Velocity S-wave (km/s) = 2.71073 3.49740 3.12889
# Velocity P-wave (km/s) = 4.63513 6.67470 5.74613
#
# Compressibility (1/GPa) = 0.04324199
#
# Stress axis : x y z
#
# Youngs Moduli (GPa) = 13.12837 32.33189 71.70330
#
# Poissons Ratio (x) = 0.47973 1.22034
# Poissons Ratio (y) = 0.19479 0.50517
# Poissons Ratio (z) = 0.22344 0.22779
#
# Static dielectric constant tensor:
#      x y z
#    x 3.780990 0.000000 0.000000 
#    y 0.000000 3.018760 0.000000 
#    z 0.000000 0.000000 4.249740 
# 
# 
# High freq. dielectric constant tensor:
#      x y z
#    x 1.791760 0.000000 0.000000 
#    y 0.000000 1.708340 0.000000 
#    z 0.000000 0.000000 1.789070 
# 
# From -- ./inp_files/8618.got.cif
#   From: 2010.03.12/outbox.cif.g09.slc.cpg/sg36_5_cif.got.tgz:8618.got - 2010.04.14 02:13:53.
