data_PCOD8175666
_publ_section_title
;
Structure prediction by ZEFSAII (Michael W. Deem and Ramdas Pophale) SiO2 
 PCOD8175666
Probable space group: C M C 21
;
_chemical_formula_sum "Si O2"
_cell_formula_units_Z 64
_cell_length_a 28.067755
_cell_length_b 12.907932
_cell_length_c 9.243079
_cell_angle_alpha 90.000000
_cell_angle_beta 90.000000
_cell_angle_gamma 90.000000
_cell_volume 3348.736769
_symmetry_space_group_name_H-M "C M C 21"
_symmetry_group_IT_number 36
_symmetry_cell_setting 'orthorhombic'
loop_
_space_group_symop_operation_xyz
x,y,z
-x,-y,1/2+z
x,-y,1/2+z
-x,y,z
1/2+x,1/2+y,z
1/2-x,1/2-y,1/2+z
1/2+x,1/2-y,1/2+z
1/2-x,1/2+y,z
loop_
_atom_site_type_symbol
_atom_site_label
_atom_site_fract_x
_atom_site_fract_y
_atom_site_fract_z
Si Si1 0.140485 0.696952 0.490630
Si Si2 0.053168 0.619915 0.649479
Si Si3 0.782741 0.068055 0.311361
Si Si4 0.709908 0.788771 0.453172
Si Si5 0.308346 0.394905 0.514023
Si Si6 0.809588 0.438887 0.204490
Si Si7 0.447437 0.091119 0.981381
Si Si8 0.636348 0.140772 0.166554
O O1 0.094574 0.696886 0.595621
O O2 0.152601 0.815792 0.458320
O O3 0.186874 0.635684 0.560769
O O4 0.126951 0.656888 0.334001
O O5 0.053964 0.524226 0.541220
O O6 0.000000 0.670924 0.644381
O O7 0.066138 0.586203 0.812516
O O8 0.772879 0.178755 0.387833
O O9 0.811102 0.000740 0.426588
O O10 0.737722 0.006793 0.238107
O O11 0.819590 0.084890 0.181919
O O12 0.756029 0.848341 0.503024
O O13 0.681350 0.861022 0.338186
O O14 0.676799 0.783311 0.596999
O O15 0.851040 0.518689 0.162980
O O16 0.500000 0.139617 0.002518
O O17 0.410898 0.161498 0.072452
#
# Coordination Sequence:
#
# PCOD8175666 Si02
#       8
#     8   8   8   8   8   8   8   8
#     4  12  24  37  60  90 119 156 205 244 303 361
#     4  10  21  38  59  85 121 157 197 245 302 370
#     4  11  25  41  58  80 116 161 204 257 294 345
#     4  11  24  40  59  83 119 163 210 248 296 357
#     4  11  26  39  61  82 116 157 203 257 298 350
#     4  11  22  39  55  83 117 160 206 248 295 345
#     4  10  21  36  57  87 122 161 196 240 302 369
#     4  12  23  34  60  88 122 161 200 247 294 365
#
# _framework density 19.111684
#
# number of rings (size 3 to 8) (size 9 to 14) (size 15 to 20)
#    0.000    1.000    3.750    3.000    5.250    1.500 
#    0.000    0.000    0.000    0.000    0.000    1.750 
#    0.000    0.000    0.000    0.000    0.000    0.000 
#
# Total GULP energy -396471.169340 kJ/mol
# GULP energy per Si atom -12389.724042 kJ/mol
# Density = 1.906818 g / cm^3
# Si number density = 19.111684 Si / 1000 Ang^3
#
#
#
# Elastic Constant Matrix: (Units=GPa)
#
#
# Indices 1 2 3 4 5 6 
#
# 1 73.7082 18.0054 32.6031 0.0000 0.0000 0.0000
# 2 18.0054 78.9568 32.3562 0.0000 0.0000 0.0000
# 3 32.6031 32.3562 130.1973 0.0000 0.0000 0.0000
# 4 0.0000 0.0000 0.0000 24.1585 0.0000 0.0000
# 5 0.0000 0.0000 0.0000 0.0000 30.8543 0.0000
# 6 0.0000 0.0000 0.0000 0.0000 0.0000 18.2658
#
#
#
# Elastic Compliance Matrix: (Units=1/GPa)
#
#
# Indices 1 2 3 4 5 6 
#
# 1 0.015586 -0.002176 -0.003362 0.000000 0.000000 0.000000
# 2 -0.002176 0.014405 -0.003035 0.000000 0.000000 0.000000
# 3 -0.003362 -0.003035 0.009277 0.000000 0.000000 0.000000
# 4 0.000000 0.000000 0.000000 0.041393 0.000000 0.000000
# 5 0.000000 0.000000 0.000000 0.000000 0.032410 0.000000
# 6 0.000000 0.000000 0.000000 0.000000 0.000000 0.054747
#
#
# Mechanical properties :
#
#
# Convention : Reuss Voigt Hill
#
# Bulk Modulus (GPa) = 45.20596 49.86574 47.53585
# Shear Modulus (GPa) = 25.99577 27.98223 26.98900
#
# Velocity S-wave (km/s) = 3.69209 3.83056 3.76197
# Velocity P-wave (km/s) = 6.47150 6.76112 6.61789
#
# Compressibility (1/GPa) = 0.02212098
#
# Stress axis : x y z
#
# Youngs Moduli (GPa) = 64.16113 69.41954 107.79622
#
# Poissons Ratio (x) = 0.15109 0.36241
# Poissons Ratio (y) = 0.13964 0.32715
# Poissons Ratio (z) = 0.21571 0.21068
#
# Static dielectric constant tensor:
#      x y z
#    x 3.555670 0.000000 0.000000 
#    y 0.000000 3.395200 0.000000 
#    z 0.000000 0.000000 3.863000 
# 
# 
# High freq. dielectric constant tensor:
#      x y z
#    x 1.719130 0.000000 0.000000 
#    y 0.000000 1.710460 0.000000 
#    z 0.000000 0.000000 1.772910 
# 
# From -- ./inp_files/6082.got.cif
#   From: 2010.03.12/outbox.cif.g09.slc.cpg/sg36_4_cif.got.tgz:6082.got - 2010.04.14 02:13:53.
