data_PCOD8175128
_publ_section_title
;
Structure prediction by ZEFSAII (Michael W. Deem and Ramdas Pophale) SiO2 
 PCOD8175128
Probable space group: C M C 21
;
_chemical_formula_sum "Si O2"
_cell_formula_units_Z 56
_cell_length_a 10.380125
_cell_length_b 13.681029
_cell_length_c 19.960867
_cell_angle_alpha 90.000000
_cell_angle_beta 90.000000
_cell_angle_gamma 90.000000
_cell_volume 2834.658515
_symmetry_space_group_name_H-M "C M C 21"
_symmetry_group_IT_number 36
_symmetry_cell_setting 'orthorhombic'
loop_
_space_group_symop_operation_xyz
x,y,z
-x,-y,1/2+z
x,-y,1/2+z
-x,y,z
1/2+x,1/2+y,z
1/2-x,1/2-y,1/2+z
1/2+x,1/2-y,1/2+z
1/2-x,1/2+y,z
loop_
_atom_site_type_symbol
_atom_site_label
_atom_site_fract_x
_atom_site_fract_y
_atom_site_fract_z
Si Si1 0.861787 0.625489 0.280280
Si Si2 0.851977 0.773698 0.858634
Si Si3 0.232550 0.432571 0.333051
Si Si4 0.147730 0.884220 0.191154
Si Si5 0.348310 0.542198 0.078970
Si Si6 0.853407 0.947591 0.945259
Si Si7 0.146472 0.678827 0.134870
O O1 0.742020 0.694437 0.298723
O O2 0.864148 0.520977 0.317250
O O3 0.854976 0.610550 0.200706
O O4 0.000000 0.675488 0.298864
O O5 0.838965 0.657689 0.870063
O O6 0.806975 0.838326 0.923184
O O7 0.000000 0.799844 0.839850
O O8 0.288915 0.397249 0.263104
O O9 0.337183 0.474467 0.385095
O O10 0.196932 0.787177 0.153483
O O11 0.000000 0.867587 0.207075
O O12 0.171699 0.977158 0.144667
O O13 0.500000 0.572918 0.071550
O O14 0.254081 0.635948 0.084422
O O15 0.290568 0.483816 0.014594
O O16 0.000000 0.938996 0.964353
O O17 0.000000 0.680981 0.103733
#
# Coordination Sequence:
#
# PCOD8175128 Si02
#       7
#     8   8   8   8   8   8   8
#     4  10  20  34  53  84 120 147 178 232 288 337
#     4  10  21  36  57  85 113 148 189 234 280 336
#     4  11  19  34  57  87 113 148 187 238 289 336
#     4  10  20  34  57  84 112 148 190 231 287 344
#     4  10  21  40  59  81 112 153 194 233 278 337
#     4   9  21  38  57  81 116 152 190 233 281 340
#     4  10  20  36  56  84 115 148 187 233 288 340
#
# _framework density 19.755465999999998
#
# number of rings (size 3 to 8) (size 9 to 14) (size 15 to 20)
#    0.000    2.000    2.857    0.857    0.000    2.857 
#    0.000    5.714    0.000    0.000    0.000    0.000 
#    0.000    0.000    0.000    0.000    0.000    0.000 
#
# Total GULP energy -346887.539765 kJ/mol
# GULP energy per Si atom -12388.840706 kJ/mol
# Density = 1.971050 g / cm^3
# Si number density = 19.755466 Si / 1000 Ang^3
#
#
#
# Elastic Constant Matrix: (Units=GPa)
#
#
# Indices 1 2 3 4 5 6 
#
# 1 60.8727 19.7263 5.4098 0.0000 0.0000 0.0000
# 2 19.7263 88.7189 1.5669 0.0000 0.0000 0.0000
# 3 5.4098 1.5669 42.0950 0.0000 0.0000 0.0000
# 4 0.0000 0.0000 0.0000 19.0623 0.0000 0.0000
# 5 0.0000 0.0000 0.0000 0.0000 23.5002 0.0000
# 6 0.0000 0.0000 0.0000 0.0000 0.0000 24.5784
#
#
#
# Elastic Compliance Matrix: (Units=1/GPa)
#
#
# Indices 1 2 3 4 5 6 
#
# 1 0.017896 -0.003941 -0.002153 0.000000 0.000000 0.000000
# 2 -0.003941 0.012147 0.000054 0.000000 0.000000 0.000000
# 3 -0.002153 0.000054 0.024030 0.000000 0.000000 0.000000
# 4 0.000000 0.000000 0.000000 0.052460 0.000000 0.000000
# 5 0.000000 0.000000 0.000000 0.000000 0.042553 0.000000
# 6 0.000000 0.000000 0.000000 0.000000 0.000000 0.040686
#
#
# Mechanical properties :
#
#
# Convention : Reuss Voigt Hill
#
# Bulk Modulus (GPa) = 23.81316 27.23252 25.52284
# Shear Modulus (GPa) = 23.16423 24.42709 23.79566
#
# Velocity S-wave (km/s) = 3.42796 3.52017 3.47437
# Velocity P-wave (km/s) = 5.26764 5.50789 5.38910
#
# Compressibility (1/GPa) = 0.04199359
#
# Stress axis : x y z
#
# Youngs Moduli (GPa) = 55.87770 82.32559 41.61383
#
# Poissons Ratio (x) = 0.32446 0.08960
# Poissons Ratio (y) = 0.22022 -0.00226
# Poissons Ratio (z) = 0.12032 -0.00448
#
# Static dielectric constant tensor:
#      x y z
#    x 3.559970 0.000000 0.000000 
#    y 0.000000 3.932220 0.000000 
#    z 0.000000 0.000000 3.553010 
# 
# 
# High freq. dielectric constant tensor:
#      x y z
#    x 1.757050 0.000000 0.000000 
#    y 0.000000 1.775740 0.000000 
#    z 0.000000 0.000000 1.755810 
# 
# From -- ./inp_files/15483.got.cif
#   From: 2010.03.12/outbox.cif.g09.slc.cpg/sg36_8_cif.got.tgz:15483.got - 2010.04.14 02:13:53.
