data_PCOD8175237
_publ_section_title
;
Structure prediction by ZEFSAII (Michael W. Deem and Ramdas Pophale) SiO2 
 PCOD8175237
Probable space group: C M C 21
;
_chemical_formula_sum "Si O2"
_cell_formula_units_Z 64
_cell_length_a 8.963927
_cell_length_b 19.979040
_cell_length_c 19.915324
_cell_angle_alpha 90.000000
_cell_angle_beta 90.000000
_cell_angle_gamma 90.000000
_cell_volume 3566.648441
_symmetry_space_group_name_H-M "C M C 21"
_symmetry_group_IT_number 36
_symmetry_cell_setting 'orthorhombic'
loop_
_space_group_symop_operation_xyz
x,y,z
-x,-y,1/2+z
x,-y,1/2+z
-x,y,z
1/2+x,1/2+y,z
1/2-x,1/2-y,1/2+z
1/2+x,1/2-y,1/2+z
1/2-x,1/2+y,z
loop_
_atom_site_type_symbol
_atom_site_label
_atom_site_fract_x
_atom_site_fract_y
_atom_site_fract_z
Si Si1 0.176781 0.320747 0.507980
Si Si2 0.825370 0.073046 0.104052
Si Si3 0.675555 0.932707 0.114049
Si Si4 0.170784 0.325300 0.858998
Si Si5 0.327358 0.326578 0.368094
Si Si6 0.328983 0.422910 0.757950
Si Si7 0.174946 0.317572 0.009067
Si Si8 0.323800 0.426719 0.251456
O O1 0.236233 0.376352 0.558150
O O2 0.228971 0.340156 0.433416
O O3 0.239328 0.249143 0.531663
O O4 0.000000 0.319279 0.510542
O O5 0.797705 0.095264 0.180677
O O6 0.000000 0.073292 0.086024
O O7 0.762251 0.998996 0.091723
O O8 0.500000 0.947441 0.118074
O O9 0.734575 0.905144 0.185073
O O10 0.713976 0.876675 0.059438
O O11 0.198961 0.247970 0.840102
O O12 0.249369 0.370970 0.805270
O O13 0.229313 0.338998 0.934600
O O14 0.000000 0.344986 0.854732
O O15 0.500000 0.337400 0.387638
O O16 0.275518 0.377466 0.310717
O O17 0.500000 0.416764 0.776093
O O18 0.274714 0.498525 0.772585
O O19 0.000000 0.299879 0.007683
O O20 0.500000 0.423697 0.235598
#
# Coordination Sequence:
#
# PCOD8175237 Si02
#       8
#     8   8   8   8   8   8   8   8
#     4  11  22  35  55  82 107 135 179 226 263 310
#     4  10  21  38  56  75 107 146 178 215 268 324
#     4  10  20  35  56  81 108 138 178 226 266 309
#     4   9  18  33  53  75 102 136 170 210 259 309
#     4   9  19  37  56  74 103 141 176 213 263 318
#     4   9  19  34  52  75 102 133 171 213 255 306
#     4   9  20  38  55  76 109 143 173 212 268 322
#     4   9  19  36  55  76 104 140 179 215 260 318
#
# _framework density 17.944018
#
# number of rings (size 3 to 8) (size 9 to 14) (size 15 to 20)
#    0.000    2.500    0.000    3.375    0.000    8.000 
#    0.000    5.000    0.000    0.000    0.000    0.000 
#    0.000    0.000    0.000    0.000    0.000    0.000 
#
# Total GULP energy -396831.098113 kJ/mol
# GULP energy per Si atom -12400.971816 kJ/mol
# Density = 1.790318 g / cm^3
# Si number density = 17.944018 Si / 1000 Ang^3
#
#
#
# Elastic Constant Matrix: (Units=GPa)
#
#
# Indices 1 2 3 4 5 6 
#
# 1 82.5207 52.5840 50.8396 0.0000 0.0000 0.0000
# 2 52.5840 101.9489 75.5342 0.0000 0.0000 0.0000
# 3 50.8396 75.5342 95.7946 0.0000 0.0000 0.0000
# 4 0.0000 0.0000 0.0000 42.4829 0.0000 0.0000
# 5 0.0000 0.0000 0.0000 0.0000 33.8648 0.0000
# 6 0.0000 0.0000 0.0000 0.0000 0.0000 31.6961
#
#
#
# Elastic Compliance Matrix: (Units=1/GPa)
#
#
# Indices 1 2 3 4 5 6 
#
# 1 0.019284 -0.005685 -0.005752 0.000000 0.000000 0.000000
# 2 -0.005685 0.025266 -0.016905 0.000000 0.000000 0.000000
# 3 -0.005752 -0.016905 0.026821 0.000000 0.000000 0.000000
# 4 0.000000 0.000000 0.000000 0.023539 0.000000 0.000000
# 5 0.000000 0.000000 0.000000 0.000000 0.029529 0.000000
# 6 0.000000 0.000000 0.000000 0.000000 0.000000 0.031550
#
#
# Mechanical properties :
#
#
# Convention : Reuss Voigt Hill
#
# Bulk Modulus (GPa) = 68.08438 70.90886 69.49662
# Shear Modulus (GPa) = 22.98105 28.36253 25.67179
#
# Velocity S-wave (km/s) = 3.58258 3.98000 3.78651
# Velocity P-wave (km/s) = 7.42551 7.79250 7.61122
#
# Compressibility (1/GPa) = 0.01468766
#
# Stress axis : x y z
#
# Youngs Moduli (GPa) = 51.85524 39.57822 37.28362
#
# Poissons Ratio (x) = 0.22501 0.21445
# Poissons Ratio (y) = 0.29481 0.63029
# Poissons Ratio (z) = 0.29826 0.66908
#
# Static dielectric constant tensor:
#      x y z
#    x 3.311190 0.000000 0.000000 
#    y 0.000000 3.391710 0.000000 
#    z 0.000000 0.000000 3.414300 
# 
# 
# High freq. dielectric constant tensor:
#      x y z
#    x 1.694950 0.000000 0.000000 
#    y 0.000000 1.699120 0.000000 
#    z 0.000000 0.000000 1.697360 
# 
# From -- ./inp_files/13802.got.cif
#   From: 2010.03.12/outbox.cif.g09.slc.cpg/sg36_7_cif.got.tgz:13802.got - 2010.04.14 02:13:53.
