data_PCOD8175734
_publ_section_title
;
Structure prediction by ZEFSAII (Michael W. Deem and Ramdas Pophale) SiO2 
 PCOD8175734
Probable space group: C M C 21
;
_chemical_formula_sum "Si O2"
_cell_formula_units_Z 56
_cell_length_a 13.329193
_cell_length_b 14.418043
_cell_length_c 12.354735
_cell_angle_alpha 90.000000
_cell_angle_beta 90.000000
_cell_angle_gamma 90.000000
_cell_volume 2374.343818
_symmetry_space_group_name_H-M "C M C 21"
_symmetry_group_IT_number 36
_symmetry_cell_setting 'orthorhombic'
loop_
_space_group_symop_operation_xyz
x,y,z
-x,-y,1/2+z
x,-y,1/2+z
-x,y,z
1/2+x,1/2+y,z
1/2-x,1/2-y,1/2+z
1/2+x,1/2-y,1/2+z
1/2-x,1/2+y,z
loop_
_atom_site_type_symbol
_atom_site_label
_atom_site_fract_x
_atom_site_fract_y
_atom_site_fract_z
Si Si1 0.823206 0.435156 0.695310
Si Si2 0.384308 0.138912 0.745370
Si Si3 0.110964 0.955512 0.649903
Si Si4 0.880480 0.668353 0.985484
Si Si5 0.384777 0.239195 0.321099
Si Si6 0.612486 0.260851 0.553473
Si Si7 0.116362 0.160741 0.616742
O O1 0.874840 0.533954 0.707099
O O2 0.704843 0.439918 0.730522
O O3 0.831703 0.405066 0.569169
O O4 0.878814 0.364294 0.773630
O O5 0.500000 0.168131 0.755569
O O6 0.336508 0.153439 0.864629
O O7 0.333057 0.206795 0.653951
O O8 0.110833 0.871616 0.565855
O O9 0.000000 0.960523 0.707812
O O10 0.133796 0.052949 0.588102
O O11 0.000000 0.654960 0.988525
O O12 0.843189 0.771086 0.022896
O O13 0.500000 0.265906 0.341459
O O14 0.331291 0.242655 0.438993
O O15 0.336402 0.312613 0.235250
O O16 0.500000 0.219935 0.549568
O O17 0.000000 0.185246 0.627656
#
# Coordination Sequence:
#
# PCOD8175734 Si02
#       7
#     8   8   8   8   8   8   8
#     4  11  22  37  62  95 124 162 207 253 309 376
#     4  10  21  37  61  93 130 163 197 255 320 375
#     4  10  22  43  63  87 126 168 214 258 300 359
#     4   9  19  38  62  93 126 160 203 255 317 374
#     4   9  18  37  66  95 121 158 204 254 314 374
#     4   9  20  40  61  90 128 164 202 253 313 366
#     4   8  16  36  63  87 117 161 209 254 301 360
#
# _framework density 23.585464000000002
#
# number of rings (size 3 to 8) (size 9 to 14) (size 15 to 20)
#    0.000    2.571    0.000    2.143    2.000    2.286 
#    7.714    0.000    0.000    0.000    0.000    0.000 
#    0.000    0.000    0.000    0.000    0.000    0.000 
#
# Total GULP energy -346939.753255 kJ/mol
# GULP energy per Si atom -12390.705473 kJ/mol
# Density = 2.353178 g / cm^3
# Si number density = 23.585464 Si / 1000 Ang^3
#
#
#
# Elastic Constant Matrix: (Units=GPa)
#
#
# Indices 1 2 3 4 5 6 
#
# 1 46.7016 -11.5681 20.3471 0.0000 0.0000 0.0000
# 2 -11.5681 182.8961 92.7904 0.0000 0.0000 0.0000
# 3 20.3471 92.7904 190.7903 0.0000 0.0000 0.0000
# 4 0.0000 0.0000 0.0000 17.9959 0.0000 0.0000
# 5 0.0000 0.0000 0.0000 0.0000 18.0174 0.0000
# 6 0.0000 0.0000 0.0000 0.0000 0.0000 -11.2108
#
#
#
# Elastic Compliance Matrix: (Units=1/GPa)
#
#
# Indices 1 2 3 4 5 6 
#
# 1 0.024279 0.003783 -0.004429 0.000000 0.000000 0.000000
# 2 0.003783 0.007848 -0.004220 0.000000 0.000000 0.000000
# 3 -0.004429 -0.004220 0.007766 0.000000 0.000000 0.000000
# 4 0.000000 0.000000 0.000000 0.055568 0.000000 0.000000
# 5 0.000000 0.000000 0.000000 0.000000 0.055502 0.000000
# 6 0.000000 0.000000 0.000000 0.000000 0.000000 -0.089200
#
#
# Mechanical properties :
#
#
# Convention : Reuss Voigt Hill
#
# Bulk Modulus (GPa) = 33.15632 69.28075 51.21853
# Shear Modulus (GPa) = 61.31226 26.21509 43.76367
#
# Velocity S-wave (km/s) = 5.10414 3.33752 4.31227
# Velocity P-wave (km/s) = 6.98747 6.65509 6.82330
#
# Compressibility (1/GPa) = 0.03016016
#
# Stress axis : x y z
#
# Youngs Moduli (GPa) = 41.18760 127.42224 128.76330
#
# Poissons Ratio (x) = -0.48199 0.57029
# Poissons Ratio (y) = -0.15580 0.54341
# Poissons Ratio (z) = 0.18242 0.53775
#
# Static dielectric constant tensor:
#      x y z
#    x 4.401640 0.000000 0.000000 
#    y 0.000000 4.102970 0.000000 
#    z 0.000000 0.000000 4.337910 
# 
# 
# High freq. dielectric constant tensor:
#      x y z
#    x 1.952900 0.000000 0.000000 
#    y 0.000000 1.929470 0.000000 
#    z 0.000000 0.000000 1.911320 
# 
# From -- ./inp_files/8498.got.cif
#   From: 2010.03.12/outbox.cif.g09.slc.cpg/sg36_5_cif.got.tgz:8498.got - 2010.04.14 02:13:53.
