data_PCOD8175276
_publ_section_title
;
Structure prediction by ZEFSAII (Michael W. Deem and Ramdas Pophale) SiO2 
 PCOD8175276
Probable space group: C M C 21
;
_chemical_formula_sum "Si O2"
_cell_formula_units_Z 64
_cell_length_a 8.981517
_cell_length_b 28.316926
_cell_length_c 12.490188
_cell_angle_alpha 90.000000
_cell_angle_beta 90.000000
_cell_angle_gamma 90.000000
_cell_volume 3176.616428
_symmetry_space_group_name_H-M "C M C 21"
_symmetry_group_IT_number 36
_symmetry_cell_setting 'orthorhombic'
loop_
_space_group_symop_operation_xyz
x,y,z
-x,-y,1/2+z
x,-y,1/2+z
-x,y,z
1/2+x,1/2+y,z
1/2-x,1/2-y,1/2+z
1/2+x,1/2-y,1/2+z
1/2-x,1/2+y,z
loop_
_atom_site_type_symbol
_atom_site_label
_atom_site_fract_x
_atom_site_fract_y
_atom_site_fract_z
Si Si1 0.164833 0.332321 0.923680
Si Si2 0.825943 0.127686 0.616834
Si Si3 0.325985 0.571298 0.105503
Si Si4 0.829899 0.321351 0.294163
Si Si5 0.824848 0.337001 0.535411
Si Si6 0.172944 0.029215 0.512261
Si Si7 0.827560 0.216393 0.230618
Si Si8 0.836003 0.566754 0.321782
O O1 0.258529 0.302245 0.840302
O O2 0.146546 0.384904 0.883311
O O3 0.000000 0.309746 0.939182
O O4 0.248433 0.334767 0.037207
O O5 0.769235 0.138546 0.736791
O O6 0.786383 0.073385 0.588772
O O7 0.000000 0.136759 0.609886
O O8 0.500000 0.581599 0.093562
O O9 0.279157 0.576071 0.227734
O O10 0.236735 0.609673 0.036659
O O11 0.282517 0.518740 0.070827
O O12 0.785335 0.315862 0.418963
O O13 0.805288 0.272428 0.231940
O O14 0.000000 0.338133 0.286783
O O15 0.750714 0.304612 0.625921
O O16 0.000000 0.337937 0.558886
O O17 0.266449 0.028802 0.402797
O O18 0.000000 0.030753 0.481263
O O19 0.000000 0.201701 0.227591
O O20 0.000000 0.549706 0.282216
#
# Coordination Sequence:
#
# PCOD8175276 Si02
#       8
#     8   8   8   8   8   8   8   8
#     4  10  20  36  60  88 119 154 197 254 307 358
#     4  10  21  39  63  89 121 161 208 254 307 367
#     4  11  22  38  62  89 122 162 205 257 308 366
#     4  10  25  44  61  88 128 166 204 253 314 373
#     4  11  24  43  63  90 127 163 204 257 314 372
#     4   9  21  39  59  87 121 161 207 254 306 365
#     4  11  23  40  63  91 119 158 206 252 307 371
#     4  10  20  35  57  86 117 153 199 251 307 364
#
# _framework density 20.147221999999999
#
# number of rings (size 3 to 8) (size 9 to 14) (size 15 to 20)
#    0.000    1.750    1.250    2.250    1.750    5.500 
#    0.000    3.750    0.000    0.000    0.000    0.000 
#    0.000    0.000    0.000    0.000    0.000    0.000 
#
# Total GULP energy -396843.658800 kJ/mol
# GULP energy per Si atom -12401.364337 kJ/mol
# Density = 2.010137 g / cm^3
# Si number density = 20.147222 Si / 1000 Ang^3
#
#
#
# Elastic Constant Matrix: (Units=GPa)
#
#
# Indices 1 2 3 4 5 6 
#
# 1 116.0176 48.7982 53.6181 0.0000 0.0000 0.0000
# 2 48.7982 79.3205 41.1355 0.0000 0.0000 0.0000
# 3 53.6181 41.1355 101.6970 0.0000 0.0000 0.0000
# 4 0.0000 0.0000 0.0000 11.9603 0.0000 0.0000
# 5 0.0000 0.0000 0.0000 0.0000 32.5005 0.0000
# 6 0.0000 0.0000 0.0000 0.0000 0.0000 28.8865
#
#
#
# Elastic Compliance Matrix: (Units=1/GPa)
#
#
# Indices 1 2 3 4 5 6 
#
# 1 0.013154 -0.005689 -0.004634 0.000000 0.000000 0.000000
# 2 -0.005689 0.018414 -0.004449 0.000000 0.000000 0.000000
# 3 -0.004634 -0.004449 0.014076 0.000000 0.000000 0.000000
# 4 0.000000 0.000000 0.000000 0.083610 0.000000 0.000000
# 5 0.000000 0.000000 0.000000 0.000000 0.030769 0.000000
# 6 0.000000 0.000000 0.000000 0.000000 0.000000 0.034618
#
#
# Mechanical properties :
#
#
# Convention : Reuss Voigt Hill
#
# Bulk Modulus (GPa) = 62.11184 64.90432 63.50808
# Shear Modulus (GPa) = 21.78162 24.90170 23.34166
#
# Velocity S-wave (km/s) = 3.29161 3.51947 3.40745
# Velocity P-wave (km/s) = 6.73366 6.98574 6.86086
#
# Compressibility (1/GPa) = 0.01609999
#
# Stress axis : x y z
#
# Youngs Moduli (GPa) = 76.02304 54.30570 71.04371
#
# Poissons Ratio (x) = 0.30895 0.32921
# Poissons Ratio (y) = 0.43251 0.31607
# Poissons Ratio (z) = 0.35229 0.24160
#
# Static dielectric constant tensor:
#      x y z
#    x 3.887260 0.000000 0.000000 
#    y 0.000000 3.664960 0.000000 
#    z 0.000000 0.000000 3.685450 
# 
# 
# High freq. dielectric constant tensor:
#      x y z
#    x 1.798750 0.000000 0.000000 
#    y 0.000000 1.779250 0.000000 
#    z 0.000000 0.000000 1.789170 
# 
# From -- ./inp_files/7157.got.cif
#   From: 2010.03.12/outbox.cif.g09.slc.cpg/sg36_4_cif.got.tgz:7157.got - 2010.04.14 02:13:53.
