data_PCOD8175206
_publ_section_title
;
Structure prediction by ZEFSAII (Michael W. Deem and Ramdas Pophale) SiO2 
 PCOD8175206
Probable space group: C M C 21
;
_chemical_formula_sum "Si O2"
_cell_formula_units_Z 64
_cell_length_a 8.726950
_cell_length_b 14.173484
_cell_length_c 28.377563
_cell_angle_alpha 90.000000
_cell_angle_beta 90.000000
_cell_angle_gamma 90.000000
_cell_volume 3510.057267
_symmetry_space_group_name_H-M "C M C 21"
_symmetry_group_IT_number 36
_symmetry_cell_setting 'orthorhombic'
loop_
_space_group_symop_operation_xyz
x,y,z
-x,-y,1/2+z
x,-y,1/2+z
-x,y,z
1/2+x,1/2+y,z
1/2-x,1/2-y,1/2+z
1/2+x,1/2-y,1/2+z
1/2-x,1/2+y,z
loop_
_atom_site_type_symbol
_atom_site_label
_atom_site_fract_x
_atom_site_fract_y
_atom_site_fract_z
Si Si1 0.318018 0.503917 0.106810
Si Si2 0.318845 0.357468 0.029295
Si Si3 0.819050 0.646415 0.039581
Si Si4 0.180976 0.517312 0.854602
Si Si5 0.819598 0.986641 0.211382
Si Si6 0.180914 0.164672 0.785883
Si Si7 0.819051 0.130858 0.289021
Si Si8 0.320643 0.001869 0.462014
O O1 0.500000 0.508622 0.107971
O O2 0.260428 0.417553 0.074244
O O3 0.255437 0.602005 0.086268
O O4 0.247319 0.489258 0.159106
O O5 0.500000 0.355746 0.027064
O O6 0.253574 0.251836 0.033734
O O7 0.259030 0.403428 0.981038
O O8 0.000000 0.646676 0.046540
O O9 0.769678 0.587570 0.993425
O O10 0.271152 0.603760 0.831095
O O11 0.231667 0.417589 0.832542
O O12 0.231512 0.517145 0.908913
O O13 0.000000 0.531946 0.848282
O O14 0.767134 0.078361 0.240970
O O15 0.000000 0.987145 0.206415
O O16 0.769271 0.891880 0.238786
O O17 0.273066 0.261140 0.785589
O O18 0.000000 0.183830 0.787637
O O19 0.000000 0.120446 0.297321
O O20 0.500000 0.019083 0.465233
#
# Coordination Sequence:
#
# PCOD8175206 Si02
#       8
#     8   8   8   8   8   8   8   8
#     4   9  17  32  51  72  98 131 168 205 243 291
#     4   9  18  31  50  73  99 131 166 202 246 296
#     4   9  18  33  49  71 101 130 162 204 250 297
#     4  10  20  35  53  75 102 135 172 212 255 303
#     4   8  17  33  51  71 100 133 166 205 251 298
#     4  10  20  35  54  77 104 135 168 209 256 306
#     4  10  20  35  53  74 101 135 171 213 258 302
#     4   9  19  34  51  71  99 130 163 204 249 295
#
# _framework density 18.233319999999999
#
# number of rings (size 3 to 8) (size 9 to 14) (size 15 to 20)
#    0.000    2.750    0.000    1.875    0.000    3.500 
#    0.000    6.250    0.000    0.000    0.000    0.000 
#    0.000    0.000    0.000    0.000    0.000    0.000 
#
# Total GULP energy -396794.529770 kJ/mol
# GULP energy per Si atom -12399.829055 kJ/mol
# Density = 1.819182 g / cm^3
# Si number density = 18.233320 Si / 1000 Ang^3
#
#
#
# Elastic Constant Matrix: (Units=GPa)
#
#
# Indices 1 2 3 4 5 6 
#
# 1 22.7714 10.1045 20.4617 0.0000 0.0000 0.0000
# 2 10.1045 128.2782 50.3466 0.0000 0.0000 0.0000
# 3 20.4617 50.3466 142.0716 0.0000 0.0000 0.0000
# 4 0.0000 0.0000 0.0000 14.8027 0.0000 0.0000
# 5 0.0000 0.0000 0.0000 0.0000 24.6894 0.0000
# 6 0.0000 0.0000 0.0000 0.0000 0.0000 24.7265
#
#
#
# Elastic Compliance Matrix: (Units=1/GPa)
#
#
# Indices 1 2 3 4 5 6 
#
# 1 0.050631 -0.001308 -0.006829 0.000000 0.000000 0.000000
# 2 -0.001308 0.009089 -0.003032 0.000000 0.000000 0.000000
# 3 -0.006829 -0.003032 0.009097 0.000000 0.000000 0.000000
# 4 0.000000 0.000000 0.000000 0.067555 0.000000 0.000000
# 5 0.000000 0.000000 0.000000 0.000000 0.040503 0.000000
# 6 0.000000 0.000000 0.000000 0.000000 0.000000 0.040442
#
#
# Mechanical properties :
#
#
# Convention : Reuss Voigt Hill
#
# Bulk Modulus (GPa) = 21.51531 50.54966 36.03248
# Shear Modulus (GPa) = 19.59641 26.99094 23.29368
#
# Velocity S-wave (km/s) = 3.28191 3.85165 3.57814
# Velocity P-wave (km/s) = 5.11731 6.89668 6.07252
#
# Compressibility (1/GPa) = 0.04647853
#
# Stress axis : x y z
#
# Youngs Moduli (GPa) = 19.75066 110.02592 109.92885
#
# Poissons Ratio (x) = 0.14393 0.75065
# Poissons Ratio (y) = 0.02584 0.33335
# Poissons Ratio (z) = 0.13487 0.33365
#
# Static dielectric constant tensor:
#      x y z
#    x 3.187460 0.000000 0.000000 
#    y 0.000000 3.455080 0.000000 
#    z 0.000000 0.000000 3.649310 
# 
# 
# High freq. dielectric constant tensor:
#      x y z
#    x 1.694390 0.000000 0.000000 
#    y 0.000000 1.709480 0.000000 
#    z 0.000000 0.000000 1.709790 
# 
# From -- ./inp_files/17344.got.cif
#   From: 2010.03.12/outbox.cif.g09.slc.cpg/sg36_9_cif.got.tgz:17344.got - 2010.04.14 02:13:53.
