data_PCOD8175423
_publ_section_title
;
Structure prediction by ZEFSAII (Michael W. Deem and Ramdas Pophale) SiO2 
 PCOD8175423
Probable space group: C M C 21
;
_chemical_formula_sum "Si O2"
_cell_formula_units_Z 64
_cell_length_a 9.089258
_cell_length_b 25.038818
_cell_length_c 13.876995
_cell_angle_alpha 90.000000
_cell_angle_beta 90.000000
_cell_angle_gamma 90.000000
_cell_volume 3158.185871
_symmetry_space_group_name_H-M "C M C 21"
_symmetry_group_IT_number 36
_symmetry_cell_setting 'orthorhombic'
loop_
_space_group_symop_operation_xyz
x,y,z
-x,-y,1/2+z
x,-y,1/2+z
-x,y,z
1/2+x,1/2+y,z
1/2-x,1/2-y,1/2+z
1/2+x,1/2-y,1/2+z
1/2-x,1/2+y,z
loop_
_atom_site_type_symbol
_atom_site_label
_atom_site_fract_x
_atom_site_fract_y
_atom_site_fract_z
Si Si1 0.327587 0.331369 0.101330
Si Si2 0.824995 0.539309 0.112284
Si Si3 0.173367 0.912245 0.801201
Si Si4 0.172011 0.057443 0.514153
Si Si5 0.163436 0.790731 0.807947
Si Si6 0.170260 0.875589 0.493251
Si Si7 0.337095 0.731051 0.084791
Si Si8 0.168871 0.810893 0.312790
O O1 0.500000 0.324941 0.096325
O O2 0.258008 0.280797 0.046141
O O3 0.267917 0.331141 0.210853
O O4 0.276932 0.384166 0.047154
O O5 0.756590 0.558680 0.213637
O O6 0.000000 0.539053 0.122167
O O7 0.768116 0.481394 0.080492
O O8 0.774059 0.576148 0.023577
O O9 0.203137 0.946041 0.899070
O O10 0.230118 0.850865 0.815212
O O11 0.000000 0.910631 0.776249
O O12 0.000000 0.046810 0.535207
O O13 0.158474 0.771278 0.698857
O O14 0.257009 0.743002 0.857702
O O15 0.000000 0.791795 0.853806
O O16 0.231066 0.824485 0.550419
O O17 0.189778 0.862436 0.380799
O O18 0.000000 0.889073 0.518791
O O19 0.500000 0.736751 0.039961
O O20 0.000000 0.794983 0.301556
#
# Coordination Sequence:
#
# PCOD8175423 Si02
#       8
#     8   8   8   8   8   8   8   8
#     4   9  19  36  56  85 120 151 195 246 296 355
#     4  12  26  42  62  90 123 157 200 261 314 355
#     4  10  21  41  65  87 115 158 207 249 297 368
#     4  10  23  42  65  88 116 162 209 251 301 365
#     4   9  17  32  55  83 117 154 195 244 293 346
#     4  10  20  37  58  83 119 165 208 239 288 365
#     4   9  17  31  53  80 114 155 193 240 295 347
#     4   9  19  33  54  86 124 162 197 240 292 353
#
# _framework density 20.264797999999999
#
# number of rings (size 3 to 8) (size 9 to 14) (size 15 to 20)
#    0.000    2.250    1.250    1.125    1.750    3.500 
#    0.000    2.500    0.000    0.000    0.000    0.000 
#    0.000    0.000    0.000    0.000    0.000    0.000 
#
# Total GULP energy -396618.900658 kJ/mol
# GULP energy per Si atom -12394.340646 kJ/mol
# Density = 2.021867 g / cm^3
# Si number density = 20.264798 Si / 1000 Ang^3
#
#
#
# Elastic Constant Matrix: (Units=GPa)
#
#
# Indices 1 2 3 4 5 6 
#
# 1 68.6467 42.3429 26.2662 0.0000 0.0000 0.0000
# 2 42.3429 89.0930 23.0524 0.0000 0.0000 0.0000
# 3 26.2662 23.0524 72.0766 0.0000 0.0000 0.0000
# 4 0.0000 0.0000 0.0000 24.9554 0.0000 0.0000
# 5 0.0000 0.0000 0.0000 0.0000 18.4430 0.0000
# 6 0.0000 0.0000 0.0000 0.0000 0.0000 35.1650
#
#
#
# Elastic Compliance Matrix: (Units=1/GPa)
#
#
# Indices 1 2 3 4 5 6 
#
# 1 0.022234 -0.009235 -0.005149 0.000000 0.000000 0.000000
# 2 -0.009235 0.016072 -0.001775 0.000000 0.000000 0.000000
# 3 -0.005149 -0.001775 0.016318 0.000000 0.000000 0.000000
# 4 0.000000 0.000000 0.000000 0.040072 0.000000 0.000000
# 5 0.000000 0.000000 0.000000 0.000000 0.054221 0.000000
# 6 0.000000 0.000000 0.000000 0.000000 0.000000 0.028437
#
#
# Mechanical properties :
#
#
# Convention : Reuss Voigt Hill
#
# Bulk Modulus (GPa) = 44.82911 45.90437 45.36674
# Shear Modulus (GPa) = 23.03010 24.92300 23.97655
#
# Velocity S-wave (km/s) = 3.37480 3.51075 3.44344
# Velocity P-wave (km/s) = 6.11190 6.25582 6.18428
#
# Compressibility (1/GPa) = 0.02230694
#
# Stress axis : x y z
#
# Youngs Moduli (GPa) = 44.97701 62.21818 61.28111
#
# Poissons Ratio (x) = 0.57456 0.31553
# Poissons Ratio (y) = 0.41535 0.10879
# Poissons Ratio (z) = 0.23158 0.11045
#
# Static dielectric constant tensor:
#      x y z
#    x 3.648810 0.000000 0.000000 
#    y 0.000000 3.729020 0.000000 
#    z 0.000000 0.000000 3.790140 
# 
# 
# High freq. dielectric constant tensor:
#      x y z
#    x 1.766490 0.000000 0.000000 
#    y 0.000000 1.790190 0.000000 
#    z 0.000000 0.000000 1.802040 
# 
# From -- ./inp_files/11101.got.cif
#   From: 2010.03.12/outbox.cif.g09.slc.cpg/sg36_6_cif.got.tgz:11101.got - 2010.04.14 02:13:53.
