data_PCOD8175877
_publ_section_title
;
Structure prediction by ZEFSAII (Michael W. Deem and Ramdas Pophale) SiO2 
 PCOD8175877
Probable space group: C M C 21
;
_chemical_formula_sum "Si O2"
_cell_formula_units_Z 48
_cell_length_a 8.687099
_cell_length_b 23.997936
_cell_length_c 11.901282
_cell_angle_alpha 90.000000
_cell_angle_beta 90.000000
_cell_angle_gamma 90.000000
_cell_volume 2481.089367
_symmetry_space_group_name_H-M "C M C 21"
_symmetry_group_IT_number 36
_symmetry_cell_setting 'orthorhombic'
loop_
_space_group_symop_operation_xyz
x,y,z
-x,-y,1/2+z
x,-y,1/2+z
-x,y,z
1/2+x,1/2+y,z
1/2-x,1/2-y,1/2+z
1/2+x,1/2-y,1/2+z
1/2-x,1/2+y,z
loop_
_atom_site_type_symbol
_atom_site_label
_atom_site_fract_x
_atom_site_fract_y
_atom_site_fract_z
Si Si1 0.681732 0.139686 0.626330
Si Si2 0.817738 0.290068 0.916149
Si Si3 0.682414 0.829600 0.369799
Si Si4 0.317269 0.036944 0.483013
Si Si5 0.320201 0.608934 0.293824
Si Si6 0.820895 0.081928 0.036691
O O1 0.500000 0.140332 0.634152
O O2 0.734815 0.186814 0.537887
O O3 0.752604 0.152215 0.748667
O O4 0.735778 0.079112 0.582096
O O5 0.738210 0.231501 0.899299
O O6 0.761612 0.332583 0.820545
O O7 0.000000 0.283470 0.907817
O O8 0.500000 0.830291 0.366179
O O9 0.739374 0.871619 0.463257
O O10 0.500000 0.033291 0.473711
O O11 0.252941 0.058752 0.364762
O O12 0.248485 0.977420 0.507911
O O13 0.500000 0.613904 0.320955
O O14 0.287544 0.595646 0.165142
O O15 0.000000 0.081814 0.008334
#
# Coordination Sequence:
#
# PCOD8175877 Si02
#       6
#     8   8   8   8   8   8
#     4   8  19  39  61  85 117 154 194 243 296 351
#     4  10  21  40  63  89 120 158 200 246 301 357
#     4  11  23  39  61  91 121 158 202 245 298 357
#     4  10  21  40  65  90 118 157 202 249 302 357
#     4  10  22  41  63  88 121 161 202 246 298 357
#     4  11  25  41  59  89 125 160 200 249 299 353
#
# _framework density 19.346340000000001
#
# number of rings (size 3 to 8) (size 9 to 14) (size 15 to 20)
#    0.000    2.000    0.000    3.500    4.667    2.667 
#    0.000    8.333    0.000    0.000    0.000    0.000 
#    0.000    0.000    0.000    0.000    0.000    0.000 
#
# Total GULP energy -297647.805728 kJ/mol
# GULP energy per Si atom -12401.991905 kJ/mol
# Density = 1.930231 g / cm^3
# Si number density = 19.346340 Si / 1000 Ang^3
#
#
#
# Elastic Constant Matrix: (Units=GPa)
#
#
# Indices 1 2 3 4 5 6 
#
# 1 84.1215 56.7136 61.3162 0.0000 0.0000 0.0000
# 2 56.7136 179.6234 77.5195 0.0000 0.0000 0.0000
# 3 61.3162 77.5195 123.2252 0.0000 0.0000 0.0000
# 4 0.0000 0.0000 0.0000 22.2293 0.0000 0.0000
# 5 0.0000 0.0000 0.0000 0.0000 29.8968 0.0000
# 6 0.0000 0.0000 0.0000 0.0000 0.0000 40.2181
#
#
#
# Elastic Compliance Matrix: (Units=1/GPa)
#
#
# Indices 1 2 3 4 5 6 
#
# 1 0.019571 -0.002713 -0.008032 0.000000 0.000000 0.000000
# 2 -0.002713 0.008018 -0.003694 0.000000 0.000000 0.000000
# 3 -0.008032 -0.003694 0.014436 0.000000 0.000000 0.000000
# 4 0.000000 0.000000 0.000000 0.044986 0.000000 0.000000
# 5 0.000000 0.000000 0.000000 0.000000 0.033448 0.000000
# 6 0.000000 0.000000 0.000000 0.000000 0.000000 0.024864
#
#
# Mechanical properties :
#
#
# Convention : Reuss Voigt Hill
#
# Bulk Modulus (GPa) = 76.06250 86.45207 81.25729
# Shear Modulus (GPa) = 27.99818 31.23022 29.61420
#
# Velocity S-wave (km/s) = 3.80835 4.02216 3.91671
# Velocity P-wave (km/s) = 7.66417 8.14579 7.90865
#
# Compressibility (1/GPa) = 0.01314708
#
# Stress axis : x y z
#
# Youngs Moduli (GPa) = 51.09615 124.71868 69.27310
#
# Poissons Ratio (x) = 0.33837 0.55638
# Poissons Ratio (y) = 0.13863 0.25590
# Poissons Ratio (z) = 0.41039 0.46072
#
# Static dielectric constant tensor:
#      x y z
#    x 3.566880 0.000000 0.000000 
#    y 0.000000 3.636460 0.000000 
#    z 0.000000 0.000000 3.881320 
# 
# 
# High freq. dielectric constant tensor:
#      x y z
#    x 1.754190 0.000000 0.000000 
#    y 0.000000 1.765660 0.000000 
#    z 0.000000 0.000000 1.763360 
# 
# From -- ./inp_files/6732.got.cif
#   From: 2010.03.12/outbox.cif.g09.slc.cpg/sg36_4_cif.got.tgz:6732.got - 2010.04.14 02:13:53.
