data_PCOD8175644
_publ_section_title
;
Structure prediction by ZEFSAII (Michael W. Deem and Ramdas Pophale) SiO2 
 PCOD8175644
Probable space group: C M C 21
;
_chemical_formula_sum "Si O2"
_cell_formula_units_Z 64
_cell_length_a 9.039231
_cell_length_b 20.081471
_cell_length_c 19.840236
_cell_angle_alpha 90.000000
_cell_angle_beta 90.000000
_cell_angle_gamma 90.000000
_cell_volume 3601.420574
_symmetry_space_group_name_H-M "C M C 21"
_symmetry_group_IT_number 36
_symmetry_cell_setting 'orthorhombic'
loop_
_space_group_symop_operation_xyz
x,y,z
-x,-y,1/2+z
x,-y,1/2+z
-x,y,z
1/2+x,1/2+y,z
1/2-x,1/2-y,1/2+z
1/2+x,1/2-y,1/2+z
1/2-x,1/2+y,z
loop_
_atom_site_type_symbol
_atom_site_label
_atom_site_fract_x
_atom_site_fract_y
_atom_site_fract_z
Si Si1 0.173628 0.835337 0.365890
Si Si2 0.173091 0.163141 0.711077
Si Si3 0.326132 0.055896 0.628171
Si Si4 0.175658 0.584652 0.088380
Si Si5 0.672929 0.947679 0.439772
Si Si6 0.675695 0.770735 0.607313
Si Si7 0.171586 0.405343 0.977243
Si Si8 0.324599 0.727322 0.459779
O O1 0.210644 0.821653 0.288034
O O2 0.233817 0.908970 0.383316
O O3 0.255757 0.778721 0.407600
O O4 0.000000 0.832030 0.380437
O O5 0.246257 0.094292 0.688143
O O6 0.239365 0.223463 0.665938
O O7 0.000000 0.155664 0.698644
O O8 0.500000 0.060287 0.640148
O O9 0.283436 0.085944 0.555403
O O10 0.269105 0.979081 0.631072
O O11 0.233898 0.653805 0.120342
O O12 0.000000 0.581499 0.085938
O O13 0.229900 0.580290 0.011341
O O14 0.500000 0.932613 0.429001
O O15 0.703861 0.026764 0.436074
O O16 0.500000 0.770558 0.608834
O O17 0.730993 0.745826 0.534661
O O18 0.268449 0.347139 0.943631
O O19 0.000000 0.386209 0.971368
O O20 0.500000 0.730544 0.453034
#
# Coordination Sequence:
#
# PCOD8175644 Si02
#       8
#     8   8   8   8   8   8   8   8
#     4  11  23  36  51  75 112 149 182 225 273 320
#     4  10  21  36  52  74 108 146 176 213 270 327
#     4   9  17  30  52  79 104 131 167 218 266 313
#     4   8  14  28  52  79 101 123 165 220 263 301
#     4   9  17  33  55  78 104 137 177 218 266 323
#     4   9  16  30  54  78 100 133 178 219 258 314
#     4   9  18  32  53  82 112 134 166 225 278 315
#     4  11  20  33  57  81 105 143 185 224 266 323
#
# _framework density 17.770764
#
# number of rings (size 3 to 8) (size 9 to 14) (size 15 to 20)
#    0.000    2.500    2.500    2.250    0.000    1.500 
#    0.000    3.125    0.000    3.000    0.000    0.000 
#    0.000    0.000    0.000    0.000    0.000    0.000 
#
# Total GULP energy -396716.557553 kJ/mol
# GULP energy per Si atom -12397.392424 kJ/mol
# Density = 1.773032 g / cm^3
# Si number density = 17.770764 Si / 1000 Ang^3
#
#
#
# Elastic Constant Matrix: (Units=GPa)
#
#
# Indices 1 2 3 4 5 6 
#
# 1 53.6279 47.6677 46.5852 0.0000 0.0000 0.0000
# 2 47.6677 155.3952 69.0857 0.0000 0.0000 0.0000
# 3 46.5852 69.0857 98.8602 0.0000 0.0000 0.0000
# 4 0.0000 0.0000 0.0000 28.4271 0.0000 0.0000
# 5 0.0000 0.0000 0.0000 0.0000 23.6072 0.0000
# 6 0.0000 0.0000 0.0000 0.0000 0.0000 29.8605
#
#
#
# Elastic Compliance Matrix: (Units=1/GPa)
#
#
# Indices 1 2 3 4 5 6 
#
# 1 0.033848 -0.004776 -0.012613 0.000000 0.000000 0.000000
# 2 -0.004776 0.010009 -0.004744 0.000000 0.000000 0.000000
# 3 -0.012613 -0.004744 0.019374 0.000000 0.000000 0.000000
# 4 0.000000 0.000000 0.000000 0.035178 0.000000 0.000000
# 5 0.000000 0.000000 0.000000 0.000000 0.042360 0.000000
# 6 0.000000 0.000000 0.000000 0.000000 0.000000 0.033489
#
#
# Mechanical properties :
#
#
# Convention : Reuss Voigt Hill
#
# Bulk Modulus (GPa) = 52.72516 70.50674 61.61595
# Shear Modulus (GPa) = 22.23742 26.01528 24.12635
#
# Velocity S-wave (km/s) = 3.54128 3.83029 3.68862
# Velocity P-wave (km/s) = 6.81578 7.70217 7.27249
#
# Compressibility (1/GPa) = 0.01896628
#
# Stress axis : x y z
#
# Youngs Moduli (GPa) = 29.54365 99.90609 51.61493
#
# Poissons Ratio (x) = 0.47711 0.65101
# Poissons Ratio (y) = 0.14109 0.24488
# Poissons Ratio (z) = 0.37263 0.47400
#
# Static dielectric constant tensor:
#      x y z
#    x 3.012660 0.000000 0.000000 
#    y 0.000000 3.628820 0.000000 
#    z 0.000000 0.000000 3.119450 
# 
# 
# High freq. dielectric constant tensor:
#      x y z
#    x 1.662530 0.000000 0.000000 
#    y 0.000000 1.705560 0.000000 
#    z 0.000000 0.000000 1.660460 
# 
# From -- ./inp_files/13796.got.cif
#   From: 2010.03.12/outbox.cif.g09.slc.cpg/sg36_7_cif.got.tgz:13796.got - 2010.04.14 02:13:53.
