data_PCOD8175285
_publ_section_title
;
Structure prediction by ZEFSAII (Michael W. Deem and Ramdas Pophale) SiO2 
 PCOD8175285
Probable space group: C M C 21
;
_chemical_formula_sum "Si O2"
_cell_formula_units_Z 64
_cell_length_a 9.201691
_cell_length_b 22.506291
_cell_length_c 15.733791
_cell_angle_alpha 90.000000
_cell_angle_beta 90.000000
_cell_angle_gamma 90.000000
_cell_volume 3258.404164
_symmetry_space_group_name_H-M "C M C 21"
_symmetry_group_IT_number 36
_symmetry_cell_setting 'orthorhombic'
loop_
_space_group_symop_operation_xyz
x,y,z
-x,-y,1/2+z
x,-y,1/2+z
-x,y,z
1/2+x,1/2+y,z
1/2-x,1/2-y,1/2+z
1/2+x,1/2-y,1/2+z
1/2-x,1/2+y,z
loop_
_atom_site_type_symbol
_atom_site_label
_atom_site_fract_x
_atom_site_fract_y
_atom_site_fract_z
Si Si1 0.161994 0.221260 0.170080
Si Si2 0.671461 0.536780 0.703359
Si Si3 0.161622 0.172548 0.358728
Si Si4 0.828416 0.036702 0.369706
Si Si5 0.831890 0.491017 0.536621
Si Si6 0.161573 0.827479 0.216397
Si Si7 0.666547 0.148829 0.037601
Si Si8 0.162006 0.221164 0.905069
O O1 0.157808 0.199541 0.265636
O O2 0.230597 0.287161 0.160235
O O3 0.258160 0.173887 0.121096
O O4 0.000000 0.223895 0.131658
O O5 0.500000 0.528699 0.688107
O O6 0.721489 0.499458 0.785986
O O7 0.755497 0.516102 0.620176
O O8 0.716107 0.604962 0.719456
O O9 0.216833 0.105058 0.355801
O O10 0.268971 0.213006 0.415004
O O11 0.000000 0.175081 0.398817
O O12 0.000000 0.028650 0.384515
O O13 0.744747 0.014311 0.452080
O O14 0.815035 0.420993 0.538219
O O15 0.000000 0.510656 0.536108
O O16 0.157886 0.800495 0.309496
O O17 0.000000 0.824687 0.176244
O O18 0.500000 0.168724 0.037210
O O19 0.742460 0.173573 0.954087
O O20 0.000000 0.224003 0.943413
#
# Coordination Sequence:
#
# PCOD8175285 Si02
#       8
#     8   8   8   8   8   8   8   8
#     4  10  20  35  58  84 109 142 185 231 277 333
#     4  10  21  39  63  87 115 155 197 237 283 339
#     4   9  19  36  57  83 114 146 182 227 282 336
#     4  10  21  39  63  87 115 155 197 237 283 339
#     4  11  25  40  57  86 119 152 192 239 290 345
#     4   9  19  36  57  83 114 146 182 227 282 336
#     4  11  23  38  55  78 111 146 182 229 286 337
#     4  10  20  35  58  84 109 142 185 231 277 333
#
# _framework density 19.641517
#
# number of rings (size 3 to 8) (size 9 to 14) (size 15 to 20)
#    0.000    2.000    0.000    3.000    0.000    7.500 
#    0.000    1.250    0.000    0.000    0.000    0.000 
#    0.000    0.000    0.000    0.000    0.000    0.000 
#
# Total GULP energy -396810.704824 kJ/mol
# GULP energy per Si atom -12400.334526 kJ/mol
# Density = 1.959681 g / cm^3
# Si number density = 19.641517 Si / 1000 Ang^3
#
#
#
# Elastic Constant Matrix: (Units=GPa)
#
#
# Indices 1 2 3 4 5 6 
#
# 1 130.9031 82.2592 56.6640 0.0000 0.0000 0.0000
# 2 82.2592 151.1840 60.2532 0.0000 0.0000 0.0000
# 3 56.6640 60.2532 99.5150 0.0000 0.0000 0.0000
# 4 0.0000 0.0000 0.0000 23.0960 0.0000 0.0000
# 5 0.0000 0.0000 0.0000 0.0000 1975.4527 0.0000
# 6 0.0000 0.0000 0.0000 0.0000 0.0000 23.3521
#
#
#
# Elastic Compliance Matrix: (Units=1/GPa)
#
#
# Indices 1 2 3 4 5 6 
#
# 1 0.012724 -0.005319 -0.004024 0.000000 0.000000 0.000000
# 2 -0.005319 0.010942 -0.003596 0.000000 0.000000 0.000000
# 3 -0.004024 -0.003596 0.014518 0.000000 0.000000 0.000000
# 4 0.000000 0.000000 0.000000 0.043298 0.000000 0.000000
# 5 0.000000 0.000000 0.000000 0.000000 0.000506 0.000000
# 6 0.000000 0.000000 0.000000 0.000000 0.000000 0.042823
#
#
# Mechanical properties :
#
#
# Convention : Reuss Voigt Hill
#
# Bulk Modulus (GPa) = 81.27571 86.66163 83.96867
# Shear Modulus (GPa) = 32.30173 416.54187 224.42180
#
# Velocity S-wave (km/s) = 4.05972 14.57850 10.70079
# Velocity P-wave (km/s) = 7.96521 18.09956 13.98282
#
# Compressibility (1/GPa) = 0.01230380
#
# Stress axis : x y z
#
# Youngs Moduli (GPa) = 78.59283 91.39236 68.88178
#
# Poissons Ratio (x) = 0.48613 0.27721
# Poissons Ratio (y) = 0.41805 0.24771
# Poissons Ratio (z) = 0.31629 0.32867
#
# Static dielectric constant tensor:
#      x y z
#    x 3.891740 0.000000 0.000000 
#    y 0.000000 3.780290 0.000000 
#    z 0.000000 0.000000 3.316780 
# 
# 
# High freq. dielectric constant tensor:
#      x y z
#    x 1.770270 0.000000 0.000000 
#    y 0.000000 1.778930 0.000000 
#    z 0.000000 0.000000 1.761400 
# 
# From -- ./inp_files/13776.got.cif
#   From: 2010.03.12/outbox.cif.g09.slc.cpg/sg36_7_cif.got.tgz:13776.got - 2010.04.14 02:13:53.
