data_PCOD8175126
_publ_section_title
;
Structure prediction by ZEFSAII (Michael W. Deem and Ramdas Pophale) SiO2 
 PCOD8175126
Probable space group: C M C 21
;
_chemical_formula_sum "Si O2"
_cell_formula_units_Z 64
_cell_length_a 8.615041
_cell_length_b 22.715259
_cell_length_c 16.464304
_cell_angle_alpha 90.000000
_cell_angle_beta 90.000000
_cell_angle_gamma 90.000000
_cell_volume 3221.947192
_symmetry_space_group_name_H-M "C M C 21"
_symmetry_group_IT_number 36
_symmetry_cell_setting 'orthorhombic'
loop_
_space_group_symop_operation_xyz
x,y,z
-x,-y,1/2+z
x,-y,1/2+z
-x,y,z
1/2+x,1/2+y,z
1/2-x,1/2-y,1/2+z
1/2+x,1/2-y,1/2+z
1/2-x,1/2+y,z
loop_
_atom_site_type_symbol
_atom_site_label
_atom_site_fract_x
_atom_site_fract_y
_atom_site_fract_z
Si Si1 0.317301 0.783070 0.967870
Si Si2 0.820798 0.961862 0.775637
Si Si3 0.175305 0.462884 0.489441
Si Si4 0.322546 0.889040 0.641776
Si Si5 0.315120 0.285277 0.306278
Si Si6 0.180573 0.765612 0.639734
Si Si7 0.819163 0.084931 0.832557
Si Si8 0.822257 0.414451 0.930860
O O1 0.500000 0.773154 0.969183
O O2 0.251486 0.750225 0.886397
O O3 0.271006 0.851717 0.966315
O O4 0.249762 0.759269 0.054120
O O5 0.701817 0.924575 0.723563
O O6 0.801545 0.933536 0.863834
O O7 0.000000 0.955974 0.748145
O O8 0.764885 0.030500 0.775328
O O9 0.224232 0.435705 0.574081
O O10 0.285322 0.432220 0.424575
O O11 0.191468 0.533788 0.498109
O O12 0.000000 0.446280 0.464696
O O13 0.500000 0.866847 0.636291
O O14 0.205447 0.835107 0.636890
O O15 0.500000 0.283621 0.308385
O O16 0.263185 0.258365 0.220567
O O17 0.245255 0.351822 0.309645
O O18 0.000000 0.750431 0.647105
O O19 0.000000 0.092458 0.822827
O O20 0.000000 0.410749 0.897671
#
# Coordination Sequence:
#
# PCOD8175126 Si02
#       8
#     8   8   8   8   8   8   8   8
#     4   9  19  35  57  80 108 146 183 219 271 331
#     4  10  20  34  53  80 108 139 181 229 273 321
#     4   9  19  33  53  79 105 136 181 230 273 320
#     4  11  22  36  53  76 106 142 180 224 277 330
#     4  10  20  37  58  81 112 152 187 221 272 335
#     4  11  23  38  57  84 111 142 187 236 277 328
#     4   9  19  35  55  78 109 145 181 220 272 328
#     4   9  17  34  56  78 105 140 180 223 273 329
#
# _framework density 19.863764
#
# number of rings (size 3 to 8) (size 9 to 14) (size 15 to 20)
#    0.000    2.250    0.000    2.625    0.000    5.000 
#    0.000    3.750    0.000    0.000    0.000    0.000 
#    0.000    0.000    0.000    0.000    0.000    0.000 
#
# Total GULP energy -396561.220963 kJ/mol
# GULP energy per Si atom -12392.538155 kJ/mol
# Density = 1.981855 g / cm^3
# Si number density = 19.863764 Si / 1000 Ang^3
#
#
#
# Elastic Constant Matrix: (Units=GPa)
#
#
# Indices 1 2 3 4 5 6 
#
# 1 13.7037 17.4246 10.3230 0.0000 0.0000 0.0000
# 2 17.4246 170.1063 71.8756 0.0000 0.0000 0.0000
# 3 10.3230 71.8756 120.3312 0.0000 0.0000 0.0000
# 4 0.0000 0.0000 0.0000 28.1290 0.0000 0.0000
# 5 0.0000 0.0000 0.0000 0.0000 24.4103 0.0000
# 6 0.0000 0.0000 0.0000 0.0000 0.0000 11.6539
#
#
#
# Elastic Compliance Matrix: (Units=1/GPa)
#
#
# Indices 1 2 3 4 5 6 
#
# 1 0.084592 -0.007489 -0.002784 0.000000 0.000000 0.000000
# 2 -0.007489 0.008526 -0.004450 0.000000 0.000000 0.000000
# 3 -0.002784 -0.004450 0.011208 0.000000 0.000000 0.000000
# 4 0.000000 0.000000 0.000000 0.035551 0.000000 0.000000
# 5 0.000000 0.000000 0.000000 0.000000 0.040966 0.000000
# 6 0.000000 0.000000 0.000000 0.000000 0.000000 0.085808
#
#
# Mechanical properties :
#
#
# Convention : Reuss Voigt Hill
#
# Bulk Modulus (GPa) = 13.35472 55.93196 34.64334
# Shear Modulus (GPa) = 15.57354 26.47314 21.02334
#
# Velocity S-wave (km/s) = 2.80307 3.65463 3.25680
# Velocity P-wave (km/s) = 4.14898 6.78434 5.62322
#
# Compressibility (1/GPa) = 0.07487987
#
# Stress axis : x y z
#
# Youngs Moduli (GPa) = 11.82141 117.28525 89.22594
#
# Poissons Ratio (x) = 0.87833 0.24839
# Poissons Ratio (y) = 0.08853 0.39709
# Poissons Ratio (z) = 0.03291 0.52196
#
# Static dielectric constant tensor:
#      x y z
#    x 3.319970 0.000000 0.000000 
#    y 0.000000 4.067110 0.000000 
#    z 0.000000 0.000000 3.620790 
# 
# 
# High freq. dielectric constant tensor:
#      x y z
#    x 1.751160 0.000000 0.000000 
#    y 0.000000 1.792530 0.000000 
#    z 0.000000 0.000000 1.768010 
# 
# From -- ./inp_files/11054.got.cif
#   From: 2010.03.12/outbox.cif.g09.slc.cpg/sg36_6_cif.got.tgz:11054.got - 2010.04.14 02:13:53.
