data_PCOD8175789
_publ_section_title
;
Structure prediction by ZEFSAII (Michael W. Deem and Ramdas Pophale) SiO2 
 PCOD8175789
Probable space group: C M C 21
;
_chemical_formula_sum "Si O2"
_cell_formula_units_Z 64
_cell_length_a 9.093202
_cell_length_b 32.992013
_cell_length_c 10.205223
_cell_angle_alpha 90.000000
_cell_angle_beta 90.000000
_cell_angle_gamma 90.000000
_cell_volume 3061.597910
_symmetry_space_group_name_H-M "C M C 21"
_symmetry_group_IT_number 36
_symmetry_cell_setting 'orthorhombic'
loop_
_space_group_symop_operation_xyz
x,y,z
-x,-y,1/2+z
x,-y,1/2+z
-x,y,z
1/2+x,1/2+y,z
1/2-x,1/2-y,1/2+z
1/2+x,1/2-y,1/2+z
1/2-x,1/2+y,z
loop_
_atom_site_type_symbol
_atom_site_label
_atom_site_fract_x
_atom_site_fract_y
_atom_site_fract_z
Si Si1 0.169203 0.370663 0.976730
Si Si2 0.841093 0.076462 0.817907
Si Si3 0.337637 0.463787 0.594090
Si Si4 0.326932 0.262978 0.328741
Si Si5 0.674563 0.290902 0.040299
Si Si6 0.329349 0.044652 0.595879
Si Si7 0.830640 0.153168 0.956654
Si Si8 0.169002 0.609207 0.185014
O O1 0.187940 0.367420 0.821212
O O2 0.000000 0.364712 0.019638
O O3 0.266975 0.336973 0.048845
O O4 0.223689 0.415622 0.017700
O O5 0.710245 0.052659 0.747483
O O6 0.000000 0.069359 0.747646
O O7 0.853126 0.062324 0.965486
O O8 0.806048 0.124233 0.829879
O O9 0.500000 0.473202 0.653100
O O10 0.257243 0.504933 0.551931
O O11 0.247615 0.435018 0.693858
O O12 0.500000 0.253992 0.337039
O O13 0.279777 0.267094 0.174863
O O14 0.241734 0.227876 0.406890
O O15 0.282448 0.303079 0.407506
O O16 0.500000 0.291877 0.027695
O O17 0.500000 0.035891 0.577723
O O18 0.730972 0.140240 0.078363
O O19 0.000000 0.152091 0.002600
O O20 0.000000 0.600117 0.152581
#
# Coordination Sequence:
#
# PCOD8175789 Si02
#       8
#     8   8   8   8   8   8   8   8
#     4  10  24  43  61  88 128 166 205 261 320 372
#     4   9  19  37  58  82 113 149 194 246 298 359
#     4  10  22  39  58  85 118 156 202 250 302 365
#     4  10  23  43  66  95 134 168 208 267 318 376
#     4  11  25  43  67  97 128 171 219 262 321 385
#     4  11  23  37  58  85 117 157 199 248 308 367
#     4   9  19  38  63  88 118 158 201 249 308 368
#     4  10  21  38  61  90 124 161 204 257 311 370
#
# _framework density 20.904116999999999
#
# number of rings (size 3 to 8) (size 9 to 14) (size 15 to 20)
#    0.000    2.000    0.000    3.000    3.500    7.000 
#    0.000    0.000    0.000    0.000    0.000    0.000 
#    0.000    0.000    0.000    0.000    0.000    0.000 
#
# Total GULP energy -396696.794551 kJ/mol
# GULP energy per Si atom -12396.774830 kJ/mol
# Density = 2.085654 g / cm^3
# Si number density = 20.904117 Si / 1000 Ang^3
#
#
#
# Elastic Constant Matrix: (Units=GPa)
#
#
# Indices 1 2 3 4 5 6 
#
# 1 100.0975 47.5133 35.2708 0.0000 0.0000 0.0000
# 2 47.5133 99.1248 22.1496 0.0000 0.0000 0.0000
# 3 35.2708 22.1496 77.7133 0.0000 0.0000 0.0000
# 4 0.0000 0.0000 0.0000 24.1689 0.0000 0.0000
# 5 0.0000 0.0000 0.0000 0.0000 29.8232 0.0000
# 6 0.0000 0.0000 0.0000 0.0000 0.0000 34.6820
#
#
#
# Elastic Compliance Matrix: (Units=1/GPa)
#
#
# Indices 1 2 3 4 5 6 
#
# 1 0.014499 -0.005852 -0.004913 0.000000 0.000000 0.000000
# 2 -0.005852 0.013137 -0.001088 0.000000 0.000000 0.000000
# 3 -0.004913 -0.001088 0.015408 0.000000 0.000000 0.000000
# 4 0.000000 0.000000 0.000000 0.041375 0.000000 0.000000
# 5 0.000000 0.000000 0.000000 0.000000 0.033531 0.000000
# 6 0.000000 0.000000 0.000000 0.000000 0.000000 0.028833
#
#
# Mechanical properties :
#
#
# Convention : Reuss Voigt Hill
#
# Bulk Modulus (GPa) = 51.71278 54.08923 52.90101
# Shear Modulus (GPa) = 28.25905 29.20161 28.73033
#
# Velocity S-wave (km/s) = 3.68073 3.74161 3.71129
# Velocity P-wave (km/s) = 6.54641 6.67812 6.61259
#
# Compressibility (1/GPa) = 0.01933758
#
# Stress axis : x y z
#
# Youngs Moduli (GPa) = 68.96985 76.12373 64.90327
#
# Poissons Ratio (x) = 0.44548 0.31884
# Poissons Ratio (y) = 0.40362 0.07062
# Poissons Ratio (z) = 0.33882 0.08283
#
# Static dielectric constant tensor:
#      x y z
#    x 3.899070 0.000000 0.000000 
#    y 0.000000 3.961410 0.000000 
#    z 0.000000 0.000000 3.670120 
# 
# 
# High freq. dielectric constant tensor:
#      x y z
#    x 1.817130 0.000000 0.000000 
#    y 0.000000 1.828820 0.000000 
#    z 0.000000 0.000000 1.810670 
# 
# From -- ./inp_files/7156.got.cif
#   From: 2010.03.12/outbox.cif.g09.slc.cpg/sg36_4_cif.got.tgz:7156.got - 2010.04.14 02:13:53.
