data_PCOD8175896
_publ_section_title
;
Structure prediction by ZEFSAII (Michael W. Deem and Ramdas Pophale) SiO2 
 PCOD8175896
Probable space group: C M C 21
;
_chemical_formula_sum "Si O2"
_cell_formula_units_Z 56
_cell_length_a 10.551381
_cell_length_b 29.490058
_cell_length_c 9.209536
_cell_angle_alpha 90.000000
_cell_angle_beta 90.000000
_cell_angle_gamma 90.000000
_cell_volume 2865.646936
_symmetry_space_group_name_H-M "C M C 21"
_symmetry_group_IT_number 36
_symmetry_cell_setting 'orthorhombic'
loop_
_space_group_symop_operation_xyz
x,y,z
-x,-y,1/2+z
x,-y,1/2+z
-x,y,z
1/2+x,1/2+y,z
1/2-x,1/2-y,1/2+z
1/2+x,1/2-y,1/2+z
1/2-x,1/2+y,z
loop_
_atom_site_type_symbol
_atom_site_label
_atom_site_fract_x
_atom_site_fract_y
_atom_site_fract_z
Si Si1 0.149635 0.711965 0.885360
Si Si2 0.356114 0.281927 0.144382
Si Si3 0.761491 0.613216 0.925233
Si Si4 0.643456 0.385160 0.123031
Si Si5 0.859675 0.961476 0.583626
Si Si6 0.500000 0.028744 0.298072
Si Si7 0.265326 0.457909 0.902403
Si Si8 0.000000 0.555630 0.978347
O O1 0.241270 0.729091 0.755372
O O2 0.215949 0.666552 0.947702
O O3 0.000000 0.704854 0.838075
O O4 0.157759 0.748646 0.010309
O O5 0.500000 0.277070 0.212400
O O6 0.338575 0.332572 0.082259
O O7 0.732293 0.601924 0.757907
O O8 0.654396 0.590866 0.029277
O O9 0.884205 0.588708 0.978826
O O10 0.500000 0.395442 0.170163
O O11 0.678096 0.415019 0.984855
O O12 0.842051 0.965739 0.755206
O O13 0.000000 0.978517 0.547323
O O14 0.766359 0.995937 0.498158
O O15 0.378862 0.054372 0.363560
O O16 0.500000 0.026845 0.125291
O O17 0.500000 0.976036 0.338562
#
# Coordination Sequence:
#
# PCOD8175896 Si02
#       8
#     8   8   8   8   8   4   8   4
#     4  10  21  40  66  93 124 161 203 255 308 371
#     4   9  21  41  63  91 126 159 200 255 311 366
#     4  11  22  39  63  87 120 158 203 252 302 360
#     4  10  22  41  62  88 120 158 202 248 305 367
#     4  12  24  39  59  87 120 161 204 248 303 361
#     4  12  24  42  60  86 124 162 208 250 304 355
#     4  12  24  40  60  86 122 159 203 254 301 357
#     4  12  24  42  58  86 124 158 210 250 302 355
#
# _framework density 19.541834999999999
#
# number of rings (size 3 to 8) (size 9 to 14) (size 15 to 20)
#    0.000    1.143    3.571    2.571    2.000    2.286 
#    1.286    1.429    0.000    0.000    0.000    0.000 
#    0.000    0.000    0.000    0.000    0.000    0.000 
#
# Total GULP energy -347109.676837 kJ/mol
# GULP energy per Si atom -12396.774173 kJ/mol
# Density = 1.949736 g / cm^3
# Si number density = 19.541835 Si / 1000 Ang^3
#
#
#
# Elastic Constant Matrix: (Units=GPa)
#
#
# Indices 1 2 3 4 5 6 
#
# 1 115.5539 31.2279 42.7229 0.0000 0.0000 0.0000
# 2 31.2279 87.0904 58.2542 0.0000 0.0000 0.0000
# 3 42.7229 58.2542 118.4456 0.0000 0.0000 0.0000
# 4 0.0000 0.0000 0.0000 37.4533 0.0000 0.0000
# 5 0.0000 0.0000 0.0000 0.0000 35.4889 0.0000
# 6 0.0000 0.0000 0.0000 0.0000 0.0000 26.4187
#
#
#
# Elastic Compliance Matrix: (Units=1/GPa)
#
#
# Indices 1 2 3 4 5 6 
#
# 1 0.010167 -0.001777 -0.002793 0.000000 0.000000 0.000000
# 2 -0.001777 0.017422 -0.007928 0.000000 0.000000 0.000000
# 3 -0.002793 -0.007928 0.013349 0.000000 0.000000 0.000000
# 4 0.000000 0.000000 0.000000 0.026700 0.000000 0.000000
# 5 0.000000 0.000000 0.000000 0.000000 0.028178 0.000000
# 6 0.000000 0.000000 0.000000 0.000000 0.000000 0.037852
#
#
# Mechanical properties :
#
#
# Convention : Reuss Voigt Hill
#
# Bulk Modulus (GPa) = 62.72569 65.05555 63.89062
# Shear Modulus (GPa) = 30.49185 32.46451 31.47818
#
# Velocity S-wave (km/s) = 3.95440 4.08031 4.01784
# Velocity P-wave (km/s) = 7.28131 7.45394 7.36813
#
# Compressibility (1/GPa) = 0.01594243
#
# Stress axis : x y z
#
# Youngs Moduli (GPa) = 98.35815 57.39752 74.91126
#
# Poissons Ratio (x) = 0.10201 0.20923
# Poissons Ratio (y) = 0.17481 0.59387
# Poissons Ratio (z) = 0.27472 0.45503
#
# Static dielectric constant tensor:
#      x y z
#    x 3.967070 0.000000 0.000000 
#    y 0.000000 3.592500 0.000000 
#    z 0.000000 0.000000 3.444020 
# 
# 
# High freq. dielectric constant tensor:
#      x y z
#    x 1.783730 0.000000 0.000000 
#    y 0.000000 1.758290 0.000000 
#    z 0.000000 0.000000 1.754150 
# 
# From -- ./inp_files/3479.got.cif
#   From: 2010.03.12/outbox.cif.g09.slc.cpg/sg36_2_cif.got.tgz:3479.got - 2010.04.14 02:13:53.
