data_PCOD8175293
_publ_section_title
;
Structure prediction by ZEFSAII (Michael W. Deem and Ramdas Pophale) SiO2 
 PCOD8175293
Probable space group: C M C 21
;
_chemical_formula_sum "Si O2"
_cell_formula_units_Z 64
_cell_length_a 18.895170
_cell_length_b 12.747420
_cell_length_c 14.036394
_cell_angle_alpha 90.000000
_cell_angle_beta 90.000000
_cell_angle_gamma 90.000000
_cell_volume 3380.871380
_symmetry_space_group_name_H-M "C M C 21"
_symmetry_group_IT_number 36
_symmetry_cell_setting 'orthorhombic'
loop_
_space_group_symop_operation_xyz
x,y,z
-x,-y,1/2+z
x,-y,1/2+z
-x,y,z
1/2+x,1/2+y,z
1/2-x,1/2-y,1/2+z
1/2+x,1/2-y,1/2+z
1/2-x,1/2+y,z
loop_
_atom_site_type_symbol
_atom_site_label
_atom_site_fract_x
_atom_site_fract_y
_atom_site_fract_z
Si Si1 0.920380 0.011182 0.138650
Si Si2 0.920633 0.774527 0.131249
Si Si3 0.693025 0.130980 0.047404
Si Si4 0.231690 0.013086 0.699340
Si Si5 0.919679 0.693113 0.332164
Si Si6 0.693098 0.969440 0.890759
Si Si7 0.717166 0.175932 0.559805
Si Si8 0.421358 0.277019 0.533779
O O1 0.850650 0.023894 0.204818
O O2 0.000000 0.020830 0.187610
O O3 0.913686 0.894551 0.094775
O O4 0.912095 0.100489 0.059039
O O5 0.876036 0.698047 0.066856
O O6 0.896230 0.762525 0.241488
O O7 0.000000 0.734542 0.120021
O O8 0.715811 0.056630 0.134678
O O9 0.757729 0.208856 0.030501
O O10 0.671247 0.070783 0.951499
O O11 0.254781 0.008357 0.808342
O O12 0.241373 0.129956 0.652563
O O13 0.873773 0.587752 0.343451
O O14 0.909626 0.771259 0.420673
O O15 0.000000 0.653594 0.323021
O O16 0.732235 0.894336 0.966739
O O17 0.633578 0.195283 0.583536
O O18 0.500000 0.238279 0.563232
#
# Coordination Sequence:
#
# PCOD8175293 Si02
#       8
#     8   8   8   8   8   8   8   8
#     4  10  20  35  58  86 115 155 196 231 288 351
#     4  10  20  36  60  86 118 158 192 234 294 351
#     4  11  21  37  58  85 114 150 193 237 294 348
#     4  11  21  38  58  84 116 152 190 243 289 344
#     4   9  18  36  59  85 115 153 197 238 291 351
#     4  10  23  36  58  89 111 147 200 242 290 337
#     4  10  21  37  58  85 116 151 193 235 291 350
#     4   9  18  35  59  84 117 152 193 244 287 342
#
# _framework density 18.930031
#
# number of rings (size 3 to 8) (size 9 to 14) (size 15 to 20)
#    0.000    2.000    3.750    0.000    0.000    3.500 
#    0.000    2.500    0.000    0.750    0.000    0.000 
#    0.000    0.000    0.000    0.000    0.000    0.000 
#
# Total GULP energy -396485.458937 kJ/mol
# GULP energy per Si atom -12390.170592 kJ/mol
# Density = 1.888694 g / cm^3
# Si number density = 18.930031 Si / 1000 Ang^3
#
#
#
# Elastic Constant Matrix: (Units=GPa)
#
#
# Indices 1 2 3 4 5 6 
#
# 1 107.5928 33.1044 50.0997 0.0000 0.0000 0.0000
# 2 33.1044 90.7075 43.2011 0.0000 0.0000 0.0000
# 3 50.0997 43.2011 93.7489 0.0000 0.0000 0.0000
# 4 0.0000 0.0000 0.0000 22.5316 0.0000 0.0000
# 5 0.0000 0.0000 0.0000 0.0000 25.2716 0.0000
# 6 0.0000 0.0000 0.0000 0.0000 0.0000 32.3356
#
#
#
# Elastic Compliance Matrix: (Units=1/GPa)
#
#
# Indices 1 2 3 4 5 6 
#
# 1 0.012594 -0.001782 -0.005909 0.000000 0.000000 0.000000
# 2 -0.001782 0.014376 -0.005673 0.000000 0.000000 0.000000
# 3 -0.005909 -0.005673 0.016439 0.000000 0.000000 0.000000
# 4 0.000000 0.000000 0.000000 0.044382 0.000000 0.000000
# 5 0.000000 0.000000 0.000000 0.000000 0.039570 0.000000
# 6 0.000000 0.000000 0.000000 0.000000 0.000000 0.030926
#
#
# Mechanical properties :
#
#
# Convention : Reuss Voigt Hill
#
# Bulk Modulus (GPa) = 59.94568 60.53993 60.24280
# Shear Modulus (GPa) = 26.23635 27.07071 26.65353
#
# Velocity S-wave (km/s) = 3.72689 3.78569 3.75641
# Velocity P-wave (km/s) = 7.08910 7.15255 7.12089
#
# Compressibility (1/GPa) = 0.01668177
#
# Stress axis : x y z
#
# Youngs Moduli (GPa) = 79.40203 69.55800 60.83195
#
# Poissons Ratio (x) = 0.12395 0.35947
# Poissons Ratio (y) = 0.14149 0.34508
# Poissons Ratio (z) = 0.46920 0.39458
#
# Static dielectric constant tensor:
#      x y z
#    x 3.796260 0.000000 0.000000 
#    y 0.000000 3.581020 0.000000 
#    z 0.000000 0.000000 3.259570 
# 
# 
# High freq. dielectric constant tensor:
#      x y z
#    x 1.751580 0.000000 0.000000 
#    y 0.000000 1.737820 0.000000 
#    z 0.000000 0.000000 1.705660 
# 
# From -- ./inp_files/12640.got.cif
#   From: 2010.03.12/outbox.cif.g09.slc.cpg/sg36_7_cif.got.tgz:12640.got - 2010.04.14 02:13:53.
