data_PCOD8175648
_publ_section_title
;
Structure prediction by ZEFSAII (Michael W. Deem and Ramdas Pophale) SiO2 
 PCOD8175648
Probable space group: C M C 21
;
_chemical_formula_sum "Si O2"
_cell_formula_units_Z 56
_cell_length_a 21.498353
_cell_length_b 26.506053
_cell_length_c 5.144310
_cell_angle_alpha 90.000000
_cell_angle_beta 90.000000
_cell_angle_gamma 90.000000
_cell_volume 2931.415523
_symmetry_space_group_name_H-M "C M C 21"
_symmetry_group_IT_number 36
_symmetry_cell_setting 'orthorhombic'
loop_
_space_group_symop_operation_xyz
x,y,z
-x,-y,1/2+z
x,-y,1/2+z
-x,y,z
1/2+x,1/2+y,z
1/2-x,1/2-y,1/2+z
1/2+x,1/2-y,1/2+z
1/2-x,1/2+y,z
loop_
_atom_site_type_symbol
_atom_site_label
_atom_site_fract_x
_atom_site_fract_y
_atom_site_fract_z
Si Si1 0.238451 0.530081 0.574360
Si Si2 0.885603 0.031243 0.586277
Si Si3 0.141110 0.728169 0.602155
Si Si4 0.265114 0.139864 0.645483
Si Si5 0.070919 0.245261 0.601822
Si Si6 0.687747 0.664715 0.139560
Si Si7 0.929168 0.137059 0.418305
O O1 0.216834 0.507529 0.300547
O O2 0.312075 0.539639 0.578787
O O3 0.205761 0.584130 0.613231
O O4 0.918823 0.085426 0.574377
O O5 0.907470 0.996166 0.348140
O O6 0.177810 0.677766 0.672231
O O7 0.111545 0.725768 0.316006
O O8 0.188444 0.775113 0.605765
O O9 0.087596 0.734525 0.816279
O O10 0.224350 0.153400 0.399894
O O11 0.221190 0.138657 0.898251
O O12 0.083418 0.184743 0.611213
O O13 0.000000 0.258280 0.659571
O O14 0.617976 0.641661 0.172204
O O15 0.000000 0.139937 0.311963
#
# Coordination Sequence:
#
# PCOD8175648 Si02
#       7
#     8   8   8   8   8   8   8
#     4  10  21  36  55  78 106 148 185 225 285 336
#     4  10  22  36  54  72 102 143 194 249 290 321
#     4  11  22  36  58  88 112 144 188 219 276 340
#     4  12  22  37  59  82 115 144 181 236 281 338
#     4  10  22  40  59  82 118 149 179 224 274 336
#     4  11  22  36  55  80 114 146 181 235 292 331
#     4  10  22  39  57  78 106 152 201 240 284 330
#
# _framework density 19.103397999999999
#
# number of rings (size 3 to 8) (size 9 to 14) (size 15 to 20)
#    0.000    1.429    1.429    4.714    4.000    2.286 
#    0.000    5.000    0.000    0.000    0.000    0.000 
#    0.000   11.429    0.000    0.000    0.000    0.000 
#
# Total GULP energy -347296.961652 kJ/mol
# GULP energy per Si atom -12403.462916 kJ/mol
# Density = 1.905992 g / cm^3
# Si number density = 19.103398 Si / 1000 Ang^3
#
#
#
# Elastic Constant Matrix: (Units=GPa)
#
#
# Indices 1 2 3 4 5 6 
#
# 1 56.2018 41.9192 24.8234 0.0000 0.0000 0.0000
# 2 41.9192 125.4640 27.6417 0.0000 0.0000 0.0000
# 3 24.8234 27.6417 116.7937 0.0000 0.0000 0.0000
# 4 0.0000 0.0000 0.0000 21.2297 0.0000 0.0000
# 5 0.0000 0.0000 0.0000 0.0000 15.6548 0.0000
# 6 0.0000 0.0000 0.0000 0.0000 0.0000 21.9810
#
#
#
# Elastic Compliance Matrix: (Units=1/GPa)
#
#
# Indices 1 2 3 4 5 6 
#
# 1 0.024999 -0.007577 -0.003520 0.000000 0.000000 0.000000
# 2 -0.007577 0.010705 -0.000923 0.000000 0.000000 0.000000
# 3 -0.003520 -0.000923 0.009529 0.000000 0.000000 0.000000
# 4 0.000000 0.000000 0.000000 0.047104 0.000000 0.000000
# 5 0.000000 0.000000 0.000000 0.000000 0.063878 0.000000
# 6 0.000000 0.000000 0.000000 0.000000 0.000000 0.045494
#
#
# Mechanical properties :
#
#
# Convention : Reuss Voigt Hill
#
# Bulk Modulus (GPa) = 47.18603 54.13644 50.66123
# Shear Modulus (GPa) = 21.47632 25.37809 23.42720
#
# Velocity S-wave (km/s) = 3.35657 3.64876 3.50571
# Velocity P-wave (km/s) = 6.30682 6.79348 6.55467
#
# Compressibility (1/GPa) = 0.02119271
#
# Stress axis : x y z
#
# Youngs Moduli (GPa) = 40.00113 93.41065 104.94530
#
# Poissons Ratio (x) = 0.70778 0.36942
# Poissons Ratio (y) = 0.30309 0.09689
# Poissons Ratio (z) = 0.14081 0.08624
#
# Static dielectric constant tensor:
#      x y z
#    x 3.254600 0.000000 0.000000 
#    y 0.000000 3.602140 0.000000 
#    z 0.000000 0.000000 3.541870 
# 
# 
# High freq. dielectric constant tensor:
#      x y z
#    x 1.701580 0.000000 0.000000 
#    y 0.000000 1.740190 0.000000 
#    z 0.000000 0.000000 1.757160 
# 
# From -- ./inp_files/1460.got.cif
#   From: 2010.03.12/outbox.cif.g09.slc.cpg/sg36_1_cif.got.tgz:1460.got - 2010.04.14 02:13:53.
