data_PCOD8175170
_publ_section_title
;
Structure prediction by ZEFSAII (Michael W. Deem and Ramdas Pophale) SiO2 
 PCOD8175170
Probable space group: C M C 21
;
_chemical_formula_sum "Si O2"
_cell_formula_units_Z 64
_cell_length_a 8.834061
_cell_length_b 20.533804
_cell_length_c 19.008533
_cell_angle_alpha 90.000000
_cell_angle_beta 90.000000
_cell_angle_gamma 90.000000
_cell_volume 3448.088524
_symmetry_space_group_name_H-M "C M C 21"
_symmetry_group_IT_number 36
_symmetry_cell_setting 'orthorhombic'
loop_
_space_group_symop_operation_xyz
x,y,z
-x,-y,1/2+z
x,-y,1/2+z
-x,y,z
1/2+x,1/2+y,z
1/2-x,1/2-y,1/2+z
1/2+x,1/2-y,1/2+z
1/2-x,1/2+y,z
loop_
_atom_site_type_symbol
_atom_site_label
_atom_site_fract_x
_atom_site_fract_y
_atom_site_fract_z
Si Si1 0.674806 0.435590 0.486960
Si Si2 0.677462 0.181178 0.906637
Si Si3 0.321158 0.363967 0.269665
Si Si4 0.178054 0.358982 0.123368
Si Si5 0.675557 0.564230 0.398914
Si Si6 0.326597 0.991700 0.615085
Si Si7 0.322212 0.311861 0.986808
Si Si8 0.825507 0.502258 0.274082
O O1 0.500000 0.415267 0.481719
O O2 0.776674 0.379848 0.453900
O O3 0.709415 0.502508 0.447400
O O4 0.720630 0.445708 0.568171
O O5 0.500000 0.178635 0.891605
O O6 0.763940 0.182174 0.832398
O O7 0.724225 0.246003 0.947980
O O8 0.500000 0.361361 0.265688
O O9 0.253473 0.337570 0.196691
O O10 0.271480 0.437482 0.287091
O O11 0.223629 0.433276 0.106310
O O12 0.000000 0.351429 0.132474
O O13 0.237598 0.312750 0.061556
O O14 0.500000 0.570265 0.379293
O O15 0.733700 0.628152 0.439026
O O16 0.770377 0.558132 0.327075
O O17 0.500000 0.982700 0.591359
O O18 0.302786 0.970149 0.695674
O O19 0.500000 0.316890 0.001572
O O20 0.000000 0.483862 0.287198
#
# Coordination Sequence:
#
# PCOD8175170 Si02
#       8
#     8   8   8   8   8   8   8   8
#     4  11  21  34  57  85 113 145 184 234 283 335
#     4  11  23  39  59  82 115 154 193 236 281 336
#     4  11  21  35  57  83 114 150 190 234 280 336
#     4  10  20  35  58  86 114 146 187 234 282 337
#     4  10  20  35  56  84 114 144 185 231 282 335
#     4   9  19  34  53  82 115 147 185 231 281 335
#     4  10  22  40  59  83 115 152 191 233 281 336
#     4  10  20  34  55  85 116 146 187 235 286 336
#
# _framework density 18.561008000000001
#
# number of rings (size 3 to 8) (size 9 to 14) (size 15 to 20)
#    0.000    1.750    2.500    3.375    0.000    4.500 
#    0.000    1.250    0.000    3.000    0.000    0.000 
#    0.000    0.000    0.000    0.000    0.000    0.000 
#
# Total GULP energy -396953.575587 kJ/mol
# GULP energy per Si atom -12404.799237 kJ/mol
# Density = 1.851876 g / cm^3
# Si number density = 18.561008 Si / 1000 Ang^3
#
#
#
# Elastic Constant Matrix: (Units=GPa)
#
#
# Indices 1 2 3 4 5 6 
#
# 1 89.7853 38.9483 62.8041 0.0000 0.0000 0.0000
# 2 38.9483 82.7902 55.0279 0.0000 0.0000 0.0000
# 3 62.8041 55.0279 151.2536 0.0000 0.0000 0.0000
# 4 0.0000 0.0000 0.0000 26.2025 0.0000 0.0000
# 5 0.0000 0.0000 0.0000 0.0000 39.1738 0.0000
# 6 0.0000 0.0000 0.0000 0.0000 0.0000 23.2320
#
#
#
# Elastic Compliance Matrix: (Units=1/GPa)
#
#
# Indices 1 2 3 4 5 6 
#
# 1 0.016785 -0.004305 -0.005403 0.000000 0.000000 0.000000
# 2 -0.004305 0.017035 -0.004410 0.000000 0.000000 0.000000
# 3 -0.005403 -0.004410 0.010459 0.000000 0.000000 0.000000
# 4 0.000000 0.000000 0.000000 0.038164 0.000000 0.000000
# 5 0.000000 0.000000 0.000000 0.000000 0.025527 0.000000
# 6 0.000000 0.000000 0.000000 0.000000 0.000000 0.043044
#
#
# Mechanical properties :
#
#
# Convention : Reuss Voigt Hill
#
# Bulk Modulus (GPa) = 62.33338 70.82109 66.57724
# Shear Modulus (GPa) = 27.08575 28.85824 27.97199
#
# Velocity S-wave (km/s) = 3.82420 3.94734 3.88626
# Velocity P-wave (km/s) = 7.29076 7.68206 7.48897
#
# Compressibility (1/GPa) = 0.01604277
#
# Stress axis : x y z
#
# Youngs Moduli (GPa) = 59.57831 58.70197 95.60786
#
# Poissons Ratio (x) = 0.25271 0.51659
# Poissons Ratio (y) = 0.25648 0.42164
# Poissons Ratio (z) = 0.32191 0.25888
#
# Static dielectric constant tensor:
#      x y z
#    x 3.383100 0.000000 0.000000 
#    y 0.000000 3.198190 0.000000 
#    z 0.000000 0.000000 3.565980 
# 
# 
# High freq. dielectric constant tensor:
#      x y z
#    x 1.727330 0.000000 0.000000 
#    y 0.000000 1.688260 0.000000 
#    z 0.000000 0.000000 1.735630 
# 
# From -- ./inp_files/13975.got.cif
#   From: 2010.03.12/outbox.cif.g09.slc.cpg/sg36_7_cif.got.tgz:13975.got - 2010.04.14 02:13:53.
