data_PCOD8175073
_publ_section_title
;
Structure prediction by ZEFSAII (Michael W. Deem and Ramdas Pophale) SiO2 
 PCOD8175073
Probable space group: C M C 21
;
_chemical_formula_sum "Si O2"
_cell_formula_units_Z 64
_cell_length_a 8.665477
_cell_length_b 22.911575
_cell_length_c 16.216072
_cell_angle_alpha 90.000000
_cell_angle_beta 90.000000
_cell_angle_gamma 90.000000
_cell_volume 3219.534495
_symmetry_space_group_name_H-M "C M C 21"
_symmetry_group_IT_number 36
_symmetry_cell_setting 'orthorhombic'
loop_
_space_group_symop_operation_xyz
x,y,z
-x,-y,1/2+z
x,-y,1/2+z
-x,y,z
1/2+x,1/2+y,z
1/2-x,1/2-y,1/2+z
1/2+x,1/2-y,1/2+z
1/2-x,1/2+y,z
loop_
_atom_site_type_symbol
_atom_site_label
_atom_site_fract_x
_atom_site_fract_y
_atom_site_fract_z
Si Si1 0.668330 0.786365 0.456730
Si Si2 0.684359 0.031214 0.142662
Si Si3 0.685146 0.720582 0.684327
Si Si4 0.818885 0.459188 0.981069
Si Si5 0.179851 0.163415 0.516063
Si Si6 0.183783 0.986854 0.315868
Si Si7 0.829377 0.660430 0.136135
Si Si8 0.677987 0.642893 0.827756
O O1 0.500000 0.796489 0.415315
O O2 0.708144 0.717376 0.453217
O O3 0.659505 0.808915 0.548662
O O4 0.798247 0.825260 0.414224
O O5 0.500000 0.028989 0.143947
O O6 0.742725 0.994382 0.062408
O O7 0.748806 0.008167 0.229009
O O8 0.753535 0.097380 0.133935
O O9 0.500000 0.725128 0.684785
O O10 0.739324 0.684942 0.604602
O O11 0.750798 0.787768 0.690332
O O12 0.756368 0.684384 0.759731
O O13 0.783206 0.391042 0.990390
O O14 0.000000 0.469289 0.971136
O O15 0.738632 0.478083 0.896002
O O16 0.000000 0.145187 0.517838
O O17 0.249624 0.921456 0.327775
O O18 0.000000 0.990522 0.311580
O O19 0.000000 0.647277 0.170891
O O20 0.500000 0.636458 0.807152
#
# Coordination Sequence:
#
# PCOD8175073 Si02
#       8
#     8   8   8   8   8   8   8   8
#     4   9  18  33  55  80 106 139 176 220 273 331
#     4  10  21  37  58  84 113 148 191 237 285 335
#     4   8  15  30  53  77 101 134 173 214 265 327
#     4  11  23  38  58  83 114 152 192 237 284 333
#     4   9  18  35  57  79 106 141 182 224 273 333
#     4  11  24  39  56  81 114 152 194 238 284 339
#     4   8  15  31  54  77 102 135 175 217 267 326
#     4  10  20  33  51  77 106 137 177 223 271 324
#
# _framework density 19.878651000000001
#
# number of rings (size 3 to 8) (size 9 to 14) (size 15 to 20)
#    0.000    2.500    0.000    3.750    0.000    5.500 
#    0.000    2.500    0.000    1.500    0.000    0.000 
#    0.000    0.000    0.000    0.000    0.000    0.000 
#
# Total GULP energy -396459.698110 kJ/mol
# GULP energy per Si atom -12389.365566 kJ/mol
# Density = 1.983341 g / cm^3
# Si number density = 19.878651 Si / 1000 Ang^3
#
#
#
# Elastic Constant Matrix: (Units=GPa)
#
#
# Indices 1 2 3 4 5 6 
#
# 1 30.8267 21.9546 19.2283 0.0000 0.0000 0.0000
# 2 21.9546 167.7584 46.3503 0.0000 0.0000 0.0000
# 3 19.2283 46.3503 84.9679 0.0000 0.0000 0.0000
# 4 0.0000 0.0000 0.0000 32.0704 0.0000 0.0000
# 5 0.0000 0.0000 0.0000 0.0000 18.9438 0.0000
# 6 0.0000 0.0000 0.0000 0.0000 0.0000 19.1874
#
#
#
# Elastic Compliance Matrix: (Units=1/GPa)
#
#
# Indices 1 2 3 4 5 6 
#
# 1 0.039135 -0.003149 -0.007138 0.000000 0.000000 0.000000
# 2 -0.003149 0.007272 -0.003254 0.000000 0.000000 0.000000
# 3 -0.007138 -0.003254 0.015160 0.000000 0.000000 0.000000
# 4 0.000000 0.000000 0.000000 0.031181 0.000000 0.000000
# 5 0.000000 0.000000 0.000000 0.000000 0.052788 0.000000
# 6 0.000000 0.000000 0.000000 0.000000 0.000000 0.052118
#
#
# Mechanical properties :
#
#
# Convention : Reuss Voigt Hill
#
# Bulk Modulus (GPa) = 28.99978 50.95769 39.97873
# Shear Modulus (GPa) = 21.16564 27.10829 24.13697
#
# Velocity S-wave (km/s) = 3.26658 3.69682 3.48834
# Velocity P-wave (km/s) = 5.37098 6.62661 6.03156
#
# Compressibility (1/GPa) = 0.03448302
#
# Stress axis : x y z
#
# Youngs Moduli (GPa) = 25.55268 137.50884 65.96396
#
# Poissons Ratio (x) = 0.43306 0.47087
# Poissons Ratio (y) = 0.08047 0.21467
# Poissons Ratio (z) = 0.18240 0.44750
#
# Static dielectric constant tensor:
#      x y z
#    x 3.274920 0.000000 0.000000 
#    y 0.000000 4.080970 0.000000 
#    z 0.000000 0.000000 3.586150 
# 
# 
# High freq. dielectric constant tensor:
#      x y z
#    x 1.736430 0.000000 0.000000 
#    y 0.000000 1.799720 0.000000 
#    z 0.000000 0.000000 1.771100 
# 
# From -- ./inp_files/13936.got.cif
#   From: 2010.03.12/outbox.cif.g09.slc.cpg/sg36_7_cif.got.tgz:13936.got - 2010.04.14 02:13:53.
