data_PCOD8175763
_publ_section_title
;
Structure prediction by ZEFSAII (Michael W. Deem and Ramdas Pophale) SiO2 
 PCOD8175763
Probable space group: C M C 21
;
_chemical_formula_sum "Si O2"
_cell_formula_units_Z 48
_cell_length_a 8.876987
_cell_length_b 23.876325
_cell_length_c 11.892412
_cell_angle_alpha 90.000000
_cell_angle_beta 90.000000
_cell_angle_gamma 90.000000
_cell_volume 2520.594662
_symmetry_space_group_name_H-M "C M C 21"
_symmetry_group_IT_number 36
_symmetry_cell_setting 'orthorhombic'
loop_
_space_group_symop_operation_xyz
x,y,z
-x,-y,1/2+z
x,-y,1/2+z
-x,y,z
1/2+x,1/2+y,z
1/2-x,1/2-y,1/2+z
1/2+x,1/2-y,1/2+z
1/2-x,1/2+y,z
loop_
_atom_site_type_symbol
_atom_site_label
_atom_site_fract_x
_atom_site_fract_y
_atom_site_fract_z
Si Si1 0.826696 0.917263 0.312780
Si Si2 0.178834 0.363374 0.886480
Si Si3 0.823259 0.290923 0.681617
Si Si4 0.177140 0.830236 0.118821
Si Si5 0.176355 0.602463 0.045748
Si Si6 0.324564 0.456925 0.745891
O O1 0.784781 0.872518 0.218355
O O2 0.720411 0.905269 0.417535
O O3 0.000000 0.911603 0.350618
O O4 0.791719 0.978017 0.263778
O O5 0.236040 0.314644 0.801187
O O6 0.240584 0.422819 0.843636
O O7 0.000000 0.367033 0.887841
O O8 0.239156 0.351367 0.009089
O O9 0.753883 0.230306 0.653164
O O10 0.779446 0.334616 0.583620
O O11 0.000000 0.283133 0.690673
O O12 0.000000 0.827704 0.093196
O O13 0.263707 0.557848 0.122386
O O14 0.000000 0.591953 0.062736
O O15 0.500000 0.442678 0.752212
#
# Coordination Sequence:
#
# PCOD8175763 Si02
#       6
#     8   8   8   8   8   8
#     4  10  23  38  58  85 114 150 194 235 278 338
#     4  10  21  38  59  87 116 148 189 238 288 339
#     4   8  18  37  58  81 115 150 185 229 283 340
#     4  10  21  38  59  84 115 153 190 233 281 335
#     4  10  21  38  60  86 117 150 187 237 287 337
#     4  10  21  39  60  83 113 153 195 234 279 341
#
# _framework density 19.043125
#
# number of rings (size 3 to 8) (size 9 to 14) (size 15 to 20)
#    0.000    2.333    0.000    2.500    4.667    2.000 
#    0.000    4.167    0.000    0.000    0.000    0.000 
#    0.000    0.000    0.000    0.000    0.000    0.000 
#
# Total GULP energy -297642.815107 kJ/mol
# GULP energy per Si atom -12401.783963 kJ/mol
# Density = 1.899978 g / cm^3
# Si number density = 19.043125 Si / 1000 Ang^3
#
#
#
# Elastic Constant Matrix: (Units=GPa)
#
#
# Indices 1 2 3 4 5 6 
#
# 1 69.2401 45.8384 53.2091 0.0000 0.0000 0.0000
# 2 45.8384 140.9229 66.7194 0.0000 0.0000 0.0000
# 3 53.2091 66.7194 123.9907 0.0000 0.0000 0.0000
# 4 0.0000 0.0000 0.0000 22.8516 0.0000 0.0000
# 5 0.0000 0.0000 0.0000 0.0000 36.6185 0.0000
# 6 0.0000 0.0000 0.0000 0.0000 0.0000 23.9035
#
#
#
# Elastic Compliance Matrix: (Units=1/GPa)
#
#
# Indices 1 2 3 4 5 6 
#
# 1 0.022943 -0.003759 -0.007823 0.000000 0.000000 0.000000
# 2 -0.003759 0.010138 -0.003842 0.000000 0.000000 0.000000
# 3 -0.007823 -0.003842 0.013490 0.000000 0.000000 0.000000
# 4 0.000000 0.000000 0.000000 0.043761 0.000000 0.000000
# 5 0.000000 0.000000 0.000000 0.000000 0.027309 0.000000
# 6 0.000000 0.000000 0.000000 0.000000 0.000000 0.041835
#
#
# Mechanical properties :
#
#
# Convention : Reuss Voigt Hill
#
# Bulk Modulus (GPa) = 63.60370 73.96526 68.78448
# Shear Modulus (GPa) = 25.56727 27.90050 26.73389
#
# Velocity S-wave (km/s) = 3.66812 3.83184 3.75088
# Velocity P-wave (km/s) = 7.17025 7.64870 7.41334
#
# Compressibility (1/GPa) = 0.01572236
#
# Stress axis : x y z
#
# Youngs Moduli (GPa) = 43.58696 98.64129 74.13116
#
# Poissons Ratio (x) = 0.37078 0.57992
# Poissons Ratio (y) = 0.16384 0.28481
# Poissons Ratio (z) = 0.34098 0.37898
#
# Static dielectric constant tensor:
#      x y z
#    x 3.370720 0.000000 0.000000 
#    y 0.000000 3.746990 0.000000 
#    z 0.000000 0.000000 3.477070 
# 
# 
# High freq. dielectric constant tensor:
#      x y z
#    x 1.729810 0.000000 0.000000 
#    y 0.000000 1.750930 0.000000 
#    z 0.000000 0.000000 1.746440 
# 
# From -- ./inp_files/6717.got.cif
#   From: 2010.03.12/outbox.cif.g09.slc.cpg/sg36_4_cif.got.tgz:6717.got - 2010.04.14 02:13:53.
