data_PCOD8175494
_publ_section_title
;
Structure prediction by ZEFSAII (Michael W. Deem and Ramdas Pophale) SiO2 
 PCOD8175494
Probable space group: C M C 21
;
_chemical_formula_sum "Si O2"
_cell_formula_units_Z 48
_cell_length_a 14.395968
_cell_length_b 32.732943
_cell_length_c 4.937070
_cell_angle_alpha 90.000000
_cell_angle_beta 90.000000
_cell_angle_gamma 90.000000
_cell_volume 2326.457974
_symmetry_space_group_name_H-M "C M C 21"
_symmetry_group_IT_number 36
_symmetry_cell_setting 'orthorhombic'
loop_
_space_group_symop_operation_xyz
x,y,z
-x,-y,1/2+z
x,-y,1/2+z
-x,y,z
1/2+x,1/2+y,z
1/2-x,1/2-y,1/2+z
1/2+x,1/2-y,1/2+z
1/2-x,1/2+y,z
loop_
_atom_site_type_symbol
_atom_site_label
_atom_site_fract_x
_atom_site_fract_y
_atom_site_fract_z
Si Si1 0.105002 0.473024 0.214500
Si Si2 0.500000 0.781451 0.429202
Si Si3 0.196284 0.642594 0.314046
Si Si4 0.000000 0.335981 0.920279
Si Si5 0.201676 0.266902 0.588860
Si Si6 0.247409 0.405542 0.287535
Si Si7 0.892179 0.026988 0.809324
O O1 0.125157 0.489445 0.514281
O O2 0.172702 0.435784 0.153765
O O3 0.000000 0.457165 0.179550
O O4 0.500000 0.822126 0.607638
O O5 0.594834 0.756752 0.500928
O O6 0.500000 0.796168 0.117120
O O7 0.265753 0.629257 0.557796
O O8 0.093802 0.637942 0.452261
O O9 0.215261 0.688627 0.220158
O O10 0.207122 0.612984 0.061243
O O11 0.234297 0.235208 0.820287
O O12 0.341494 0.429896 0.352450
O O13 0.000000 0.037567 0.831688
O O14 0.863122 0.007130 0.526161
#
# Coordination Sequence:
#
# PCOD8175494 Si02
#       7
#     8   4   8   4   8   8   8
#     4  10  21  35  51  77 117 159 196 231 284 353
#     4  10  20  38  64  94 114 155 206 254 292 353
#     4  11  24  36  60  91 121 160 199 247 306 364
#     4  10  20  38  56  86 126 153 202 248 284 357
#     4  11  22  41  67  88 126 161 207 254 307 367
#     4  12  22  36  59  86 123 153 202 248 309 356
#     4  10  21  39  64  87 110 153 211 260 306 357
#
# _framework density 20.632223
#
# number of rings (size 3 to 8) (size 9 to 14) (size 15 to 20)
#    0.000    1.333    0.000    8.000    2.333    0.000 
#    0.000    0.000   11.000    0.000    0.000    0.000 
#    0.000    0.000    0.000    0.000    0.000    0.000 
#
# Total GULP energy -297589.574972 kJ/mol
# GULP energy per Si atom -12399.565624 kJ/mol
# Density = 2.058526 g / cm^3
# Si number density = 20.632223 Si / 1000 Ang^3
#
#
#
# Elastic Constant Matrix: (Units=GPa)
#
#
# Indices 1 2 3 4 5 6 
#
# 1 108.9665 56.4017 47.8526 0.0000 0.0000 0.0000
# 2 56.4017 70.3378 26.4434 0.0000 0.0000 0.0000
# 3 47.8526 26.4434 105.7110 0.0000 0.0000 0.0000
# 4 0.0000 0.0000 0.0000 22.8316 0.0000 0.0000
# 5 0.0000 0.0000 0.0000 0.0000 26.4351 0.0000
# 6 0.0000 0.0000 0.0000 0.0000 0.0000 29.7114
#
#
#
# Elastic Compliance Matrix: (Units=1/GPa)
#
#
# Indices 1 2 3 4 5 6 
#
# 1 0.017754 -0.012379 -0.004940 0.000000 0.000000 0.000000
# 2 -0.012379 0.024324 -0.000481 0.000000 0.000000 0.000000
# 3 -0.004940 -0.000481 0.011816 0.000000 0.000000 0.000000
# 4 0.000000 0.000000 0.000000 0.043799 0.000000 0.000000
# 5 0.000000 0.000000 0.000000 0.000000 0.037828 0.000000
# 6 0.000000 0.000000 0.000000 0.000000 0.000000 0.033657
#
#
# Mechanical properties :
#
#
# Convention : Reuss Voigt Hill
#
# Bulk Modulus (GPa) = 54.66217 60.71228 57.68722
# Shear Modulus (GPa) = 23.71032 26.08345 24.89688
#
# Velocity S-wave (km/s) = 3.39365 3.55943 3.47753
# Velocity P-wave (km/s) = 6.47355 6.81047 6.64415
#
# Compressibility (1/GPa) = 0.01829419
#
# Stress axis : x y z
#
# Youngs Moduli (GPa) = 56.32461 41.11083 84.62834
#
# Poissons Ratio (x) = 0.50892 0.41808
# Poissons Ratio (y) = 0.69726 0.04070
# Poissons Ratio (z) = 0.27826 0.01977
#
# Static dielectric constant tensor:
#      x y z
#    x 3.892020 0.000000 0.000000 
#    y 0.000000 3.512440 0.000000 
#    z 0.000000 0.000000 3.892000 
# 
# 
# High freq. dielectric constant tensor:
#      x y z
#    x 1.799960 0.000000 0.000000 
#    y 0.000000 1.784920 0.000000 
#    z 0.000000 0.000000 1.831260 
# 
# From -- ./inp_files/850.got.cif
#   From: 2010.03.12/outbox.cif.g09.slc.cpg/sg36_1_cif.got.tgz:850.got - 2010.04.14 02:13:53.
