data_PCOD8175798
_publ_section_title
;
Structure prediction by ZEFSAII (Michael W. Deem and Ramdas Pophale) SiO2 
 PCOD8175798
Probable space group: C M C 21
;
_chemical_formula_sum "Si O2"
_cell_formula_units_Z 56
_cell_length_a 21.670496
_cell_length_b 25.571699
_cell_length_c 5.088497
_cell_angle_alpha 90.000000
_cell_angle_beta 90.000000
_cell_angle_gamma 90.000000
_cell_volume 2819.797741
_symmetry_space_group_name_H-M "C M C 21"
_symmetry_group_IT_number 36
_symmetry_cell_setting 'orthorhombic'
loop_
_space_group_symop_operation_xyz
x,y,z
-x,-y,1/2+z
x,-y,1/2+z
-x,y,z
1/2+x,1/2+y,z
1/2-x,1/2-y,1/2+z
1/2+x,1/2-y,1/2+z
1/2-x,1/2+y,z
loop_
_atom_site_type_symbol
_atom_site_label
_atom_site_fract_x
_atom_site_fract_y
_atom_site_fract_z
Si Si1 0.071672 0.643284 0.660420
Si Si2 0.622539 0.808441 0.661012
Si Si3 0.570696 0.697915 0.655831
Si Si4 0.621031 0.647227 0.162694
Si Si5 0.071635 0.035287 0.096460
Si Si6 0.745663 0.286532 0.653409
Si Si7 0.573487 0.029419 0.540218
O O1 0.104396 0.683796 0.464984
O O2 0.100062 0.586551 0.599384
O O3 0.000000 0.645201 0.597783
O O4 0.082213 0.656137 0.965544
O O5 0.612500 0.747901 0.591878
O O6 0.693813 0.822132 0.607796
O O7 0.500000 0.714226 0.620400
O O8 0.590209 0.653868 0.447841
O O9 0.580144 0.676931 0.948062
O O10 0.617988 0.585082 0.106448
O O11 0.689508 0.672258 0.159506
O O12 0.000000 0.054237 0.104341
O O13 0.086204 0.996027 0.332427
O O14 0.740872 0.243642 0.425137
O O15 0.500000 0.030678 0.553654
O O16 0.598365 0.010827 0.259276
#
# Coordination Sequence:
#
# PCOD8175798 Si02
#       7
#     8   8   8   8   8   8   8
#     4  11  22  36  56  85 119 152 192 245 314 367
#     4  12  23  38  57  85 122 159 197 243 299 354
#     4  12  23  36  59  92 127 157 195 247 303 371
#     4  12  23  41  64  89 122 168 207 251 304 365
#     4  10  21  38  62  93 126 157 200 257 316 376
#     4  12  23  44  62  84 118 162 215 251 281 358
#     4   9  17  31  52  76 104 143 189 234 283 349
#
# _framework density 19.859579
#
# number of rings (size 3 to 8) (size 9 to 14) (size 15 to 20)
#    0.000    0.857    2.857    6.000    0.000    3.429 
#    0.000    0.000    0.000    5.143    0.000    0.000 
#    0.000    0.000    0.000    0.000    0.000    0.000 
#
# Total GULP energy -347254.890121 kJ/mol
# GULP energy per Si atom -12401.960361 kJ/mol
# Density = 1.981438 g / cm^3
# Si number density = 19.859579 Si / 1000 Ang^3
#
#
#
# Elastic Constant Matrix: (Units=GPa)
#
#
# Indices 1 2 3 4 5 6 
#
# 1 91.4156 40.4637 19.5704 0.0000 0.0000 0.0000
# 2 40.4637 88.3950 5.4515 0.0000 0.0000 0.0000
# 3 19.5704 5.4515 77.4337 0.0000 0.0000 0.0000
# 4 0.0000 0.0000 0.0000 33.0150 0.0000 0.0000
# 5 0.0000 0.0000 0.0000 0.0000 22.2481 0.0000
# 6 0.0000 0.0000 0.0000 0.0000 0.0000 26.8341
#
#
#
# Elastic Compliance Matrix: (Units=1/GPa)
#
#
# Indices 1 2 3 4 5 6 
#
# 1 0.014469 -0.006426 -0.003205 0.000000 0.000000 0.000000
# 2 -0.006426 0.014216 0.000623 0.000000 0.000000 0.000000
# 3 -0.003205 0.000623 0.013680 0.000000 0.000000 0.000000
# 4 0.000000 0.000000 0.000000 0.030289 0.000000 0.000000
# 5 0.000000 0.000000 0.000000 0.000000 0.044948 0.000000
# 6 0.000000 0.000000 0.000000 0.000000 0.000000 0.037266
#
#
# Mechanical properties :
#
#
# Convention : Reuss Voigt Hill
#
# Bulk Modulus (GPa) = 41.06570 43.13504 42.10037
# Shear Modulus (GPa) = 27.62429 29.20334 28.41382
#
# Velocity S-wave (km/s) = 3.73363 3.83886 3.78661
# Velocity P-wave (km/s) = 6.26974 6.43555 6.35318
#
# Compressibility (1/GPa) = 0.02435122
#
# Stress axis : x y z
#
# Youngs Moduli (GPa) = 69.11132 70.34364 73.09772
#
# Poissons Ratio (x) = 0.45202 0.23425
# Poissons Ratio (y) = 0.44410 -0.04556
# Poissons Ratio (z) = 0.22147 -0.04384
#
# Static dielectric constant tensor:
#      x y z
#    x 3.471200 0.000000 0.000000 
#    y 0.000000 3.597110 0.000000 
#    z 0.000000 0.000000 3.787950 
# 
# 
# High freq. dielectric constant tensor:
#      x y z
#    x 1.747120 0.000000 0.000000 
#    y 0.000000 1.770560 0.000000 
#    z 0.000000 0.000000 1.797590 
# 
# From -- ./inp_files/1406.got.cif
#   From: 2010.03.12/outbox.cif.g09.slc.cpg/sg36_1_cif.got.tgz:1406.got - 2010.04.14 02:13:53.
