data_PCOD8175453
_publ_section_title
;
Structure prediction by ZEFSAII (Michael W. Deem and Ramdas Pophale) SiO2 
 PCOD8175453
Probable space group: C M C 21
;
_chemical_formula_sum "Si O2"
_cell_formula_units_Z 64
_cell_length_a 9.046452
_cell_length_b 26.749461
_cell_length_c 12.881561
_cell_angle_alpha 90.000000
_cell_angle_beta 90.000000
_cell_angle_gamma 90.000000
_cell_volume 3117.179512
_symmetry_space_group_name_H-M "C M C 21"
_symmetry_group_IT_number 36
_symmetry_cell_setting 'orthorhombic'
loop_
_space_group_symop_operation_xyz
x,y,z
-x,-y,1/2+z
x,-y,1/2+z
-x,y,z
1/2+x,1/2+y,z
1/2-x,1/2-y,1/2+z
1/2+x,1/2-y,1/2+z
1/2-x,1/2+y,z
loop_
_atom_site_type_symbol
_atom_site_label
_atom_site_fract_x
_atom_site_fract_y
_atom_site_fract_z
Si Si1 0.176275 0.368132 0.179740
Si Si2 0.328570 0.811360 0.787584
Si Si3 0.161397 0.021715 0.384617
Si Si4 0.662942 0.548865 0.059672
Si Si5 0.825680 0.162424 0.077449
Si Si6 0.827000 0.127668 0.466495
Si Si7 0.828129 0.479850 0.203121
Si Si8 0.330248 0.302008 0.350821
O O1 0.236161 0.423661 0.207772
O O2 0.228497 0.331757 0.270697
O O3 0.000000 0.364993 0.170093
O O4 0.245553 0.351524 0.069189
O O5 0.500000 0.827379 0.784267
O O6 0.262785 0.812561 0.671484
O O7 0.239494 0.848314 0.862439
O O8 0.309058 0.756187 0.831451
O O9 0.202196 0.068061 0.459660
O O10 0.000000 0.033178 0.335163
O O11 0.153239 0.967897 0.440408
O O12 0.281203 0.016268 0.295758
O O13 0.500000 0.544504 0.111659
O O14 0.723284 0.604665 0.069895
O O15 0.776602 0.508444 0.101820
O O16 0.000000 0.168260 0.097598
O O17 0.779267 0.188102 0.969174
O O18 0.000000 0.140872 0.474486
O O19 0.000000 0.474722 0.202007
O O20 0.500000 0.318998 0.335298
#
# Coordination Sequence:
#
# PCOD8175453 Si02
#       8
#     8   8   8   8   8   8   8   8
#     4  11  24  41  63  95 132 169 210 262 322 378
#     4  11  25  43  65  96 129 164 208 264 328 380
#     4  10  21  37  60  88 120 164 212 253 294 357
#     4  10  20  37  60  86 117 160 208 248 294 356
#     4  10  22  42  66  92 125 166 215 265 313 375
#     4  11  23  41  66  95 128 170 216 261 313 376
#     4  11  23  36  56  89 128 165 199 249 312 365
#     4  10  24  45  68  93 123 166 214 264 320 377
#
# _framework density 20.531382000000001
#
# number of rings (size 3 to 8) (size 9 to 14) (size 15 to 20)
#    0.000    1.500    1.250    3.000    1.750    9.000 
#    0.000    0.000    0.000    0.000    0.000    0.000 
#    0.000    0.000    0.000    0.000    0.000    0.000 
#
# Total GULP energy -396778.006567 kJ/mol
# GULP energy per Si atom -12399.312705 kJ/mol
# Density = 2.048465 g / cm^3
# Si number density = 20.531382 Si / 1000 Ang^3
#
#
#
# Elastic Constant Matrix: (Units=GPa)
#
#
# Indices 1 2 3 4 5 6 
#
# 1 84.5418 34.5637 54.6356 0.0000 0.0000 0.0000
# 2 34.5637 83.4522 38.4956 0.0000 0.0000 0.0000
# 3 54.6356 38.4956 135.9330 0.0000 0.0000 0.0000
# 4 0.0000 0.0000 0.0000 32.0969 0.0000 0.0000
# 5 0.0000 0.0000 0.0000 0.0000 2.6052 0.0000
# 6 0.0000 0.0000 0.0000 0.0000 0.0000 27.5417
#
#
#
# Elastic Compliance Matrix: (Units=1/GPa)
#
#
# Indices 1 2 3 4 5 6 
#
# 1 0.017374 -0.004572 -0.005688 0.000000 0.000000 0.000000
# 2 -0.004572 0.014987 -0.002407 0.000000 0.000000 0.000000
# 3 -0.005688 -0.002407 0.010324 0.000000 0.000000 0.000000
# 4 0.000000 0.000000 0.000000 0.031156 0.000000 0.000000
# 5 0.000000 0.000000 0.000000 0.000000 0.383851 0.000000
# 6 0.000000 0.000000 0.000000 0.000000 0.000000 0.036309
#
#
# Mechanical properties :
#
#
# Convention : Reuss Voigt Hill
#
# Bulk Modulus (GPa) = 57.63257 62.14632 59.88944
# Shear Modulus (GPa) = 9.52169 24.19757 16.85963
#
# Velocity S-wave (km/s) = 2.15585 3.43675 2.86870
# Velocity P-wave (km/s) = 5.85904 6.78844 6.34079
#
# Compressibility (1/GPa) = 0.01735130
#
# Stress axis : x y z
#
# Youngs Moduli (GPa) = 57.55840 66.72646 96.85798
#
# Poissons Ratio (x) = 0.30506 0.55096
# Poissons Ratio (y) = 0.26314 0.23310
# Poissons Ratio (z) = 0.32741 0.16058
#
# Static dielectric constant tensor:
#      x y z
#    x 3.699640 0.000000 0.000000 
#    y 0.000000 3.802850 0.000000 
#    z 0.000000 0.000000 3.671400 
# 
# 
# High freq. dielectric constant tensor:
#      x y z
#    x 1.799020 0.000000 0.000000 
#    y 0.000000 1.807420 0.000000 
#    z 0.000000 0.000000 1.810730 
# 
# From -- ./inp_files/7145.got.cif
#   From: 2010.03.12/outbox.cif.g09.slc.cpg/sg36_4_cif.got.tgz:7145.got - 2010.04.14 02:13:53.
