data_PCOD8175202
_publ_section_title
;
Structure prediction by ZEFSAII (Michael W. Deem and Ramdas Pophale) SiO2 
 PCOD8175202
Probable space group: C M C 21
;
_chemical_formula_sum "Si O2"
_cell_formula_units_Z 64
_cell_length_a 13.069334
_cell_length_b 30.791171
_cell_length_c 9.761404
_cell_angle_alpha 90.000000
_cell_angle_beta 90.000000
_cell_angle_gamma 90.000000
_cell_volume 3928.185155
_symmetry_space_group_name_H-M "C M C 21"
_symmetry_group_IT_number 36
_symmetry_cell_setting 'orthorhombic'
loop_
_space_group_symop_operation_xyz
x,y,z
-x,-y,1/2+z
x,-y,1/2+z
-x,y,z
1/2+x,1/2+y,z
1/2-x,1/2-y,1/2+z
1/2+x,1/2-y,1/2+z
1/2-x,1/2+y,z
loop_
_atom_site_type_symbol
_atom_site_label
_atom_site_fract_x
_atom_site_fract_y
_atom_site_fract_z
Si Si1 0.115285 0.268795 0.692440
Si Si2 0.306481 0.323111 0.262582
Si Si3 0.877520 0.958802 0.620348
Si Si4 0.884253 0.277041 0.373657
Si Si5 0.188337 0.188542 0.262302
Si Si6 0.380022 0.630754 0.504854
Si Si7 0.620140 0.465435 0.927320
Si Si8 0.381271 0.365935 0.523766
O O1 0.128098 0.220863 0.754276
O O2 0.143597 0.267810 0.531719
O O3 0.190367 0.301353 0.773884
O O4 0.000000 0.284900 0.717435
O O5 0.190099 0.313131 0.308011
O O6 0.359818 0.356749 0.365275
O O7 0.307842 0.346772 0.116535
O O8 0.833888 0.966767 0.773575
O O9 0.835297 0.912800 0.564904
O O10 0.000000 0.959427 0.620428
O O11 0.833075 0.996163 0.520323
O O12 0.875194 0.232059 0.291485
O O13 0.000000 0.294477 0.359476
O O14 0.151630 0.149878 0.358799
O O15 0.169215 0.173237 0.107785
O O16 0.500000 0.639979 0.534081
O O17 0.355532 0.579854 0.501990
O O18 0.500000 0.472011 0.914067
O O19 0.500000 0.366369 0.556556
#
# Coordination Sequence:
#
# PCOD8175202 Si02
#       8
#     8   8   8   8   8   8   8   8
#     4  10  20  35  51  70  99 129 163 211 255 287
#     4  11  22  33  49  75  95 131 172 205 240 293
#     4   9  18  30  44  66  98 131 163 197 239 290
#     4  10  20  35  52  69  98 132 163 207 256 290
#     4  11  20  33  51  71  93 133 170 200 239 297
#     4  11  20  33  51  70 102 137 165 198 244 294
#     4   9  18  30  45  67  96 133 163 193 241 291
#     4  11  20  31  47  72 101 128 167 207 236 284
#
# _framework density 16.292511999999999
#
# number of rings (size 3 to 8) (size 9 to 14) (size 15 to 20)
#    0.000    1.750    3.750    2.250    1.750    0.000 
#    0.000    1.875    0.000    0.000    0.000    0.000 
#    0.000    6.000    0.000    0.000    0.000    0.000 
#
# Total GULP energy -396819.527177 kJ/mol
# GULP energy per Si atom -12400.610224 kJ/mol
# Density = 1.625543 g / cm^3
# Si number density = 16.292512 Si / 1000 Ang^3
#
#
#
# Elastic Constant Matrix: (Units=GPa)
#
#
# Indices 1 2 3 4 5 6 
#
# 1 66.6908 32.1627 24.3439 0.0000 0.0000 0.0000
# 2 32.1627 89.7651 30.4895 0.0000 0.0000 0.0000
# 3 24.3439 30.4895 63.9620 0.0000 0.0000 0.0000
# 4 0.0000 0.0000 0.0000 29.2860 0.0000 0.0000
# 5 0.0000 0.0000 0.0000 0.0000 23.5149 0.0000
# 6 0.0000 0.0000 0.0000 0.0000 0.0000 13.3518
#
#
#
# Elastic Compliance Matrix: (Units=1/GPa)
#
#
# Indices 1 2 3 4 5 6 
#
# 1 0.019302 -0.005275 -0.004832 0.000000 0.000000 0.000000
# 2 -0.005275 0.014734 -0.005016 0.000000 0.000000 0.000000
# 3 -0.004832 -0.005016 0.019864 0.000000 0.000000 0.000000
# 4 0.000000 0.000000 0.000000 0.034146 0.000000 0.000000
# 5 0.000000 0.000000 0.000000 0.000000 0.042526 0.000000
# 6 0.000000 0.000000 0.000000 0.000000 0.000000 0.074896
#
#
# Mechanical properties :
#
#
# Convention : Reuss Voigt Hill
#
# Bulk Modulus (GPa) = 42.27398 43.82333 43.04866
# Shear Modulus (GPa) = 20.52554 22.12532 21.32543
#
# Velocity S-wave (km/s) = 3.55324 3.68911 3.62181
# Velocity P-wave (km/s) = 6.54501 6.71582 6.63097
#
# Compressibility (1/GPa) = 0.02365521
#
# Stress axis : x y z
#
# Youngs Moduli (GPa) = 51.80755 67.87143 50.34160
#
# Poissons Ratio (x) = 0.35800 0.24325
# Poissons Ratio (y) = 0.27327 0.25250
# Poissons Ratio (z) = 0.25034 0.34043
#
# Static dielectric constant tensor:
#      x y z
#    x 2.781480 0.000000 0.000000 
#    y 0.000000 3.115330 0.000000 
#    z 0.000000 0.000000 3.210380 
# 
# 
# High freq. dielectric constant tensor:
#      x y z
#    x 1.581470 0.000000 0.000000 
#    y 0.000000 1.622270 0.000000 
#    z 0.000000 0.000000 1.641570 
# 
# From -- ./inp_files/3582.got.cif
#   From: 2010.03.12/outbox.cif.g09.slc.cpg/sg36_2_cif.got.tgz:3582.got - 2010.04.14 02:13:53.
