data_PCOD8175643
_publ_section_title
;
Structure prediction by ZEFSAII (Michael W. Deem and Ramdas Pophale) SiO2 
 PCOD8175643
Probable space group: C M C 21
;
_chemical_formula_sum "Si O2"
_cell_formula_units_Z 64
_cell_length_a 9.393240
_cell_length_b 15.004600
_cell_length_c 24.459467
_cell_angle_alpha 90.000000
_cell_angle_beta 90.000000
_cell_angle_gamma 90.000000
_cell_volume 3447.361524
_symmetry_space_group_name_H-M "C M C 21"
_symmetry_group_IT_number 36
_symmetry_cell_setting 'orthorhombic'
loop_
_space_group_symop_operation_xyz
x,y,z
-x,-y,1/2+z
x,-y,1/2+z
-x,y,z
1/2+x,1/2+y,z
1/2-x,1/2-y,1/2+z
1/2+x,1/2-y,1/2+z
1/2-x,1/2+y,z
loop_
_atom_site_type_symbol
_atom_site_label
_atom_site_fract_x
_atom_site_fract_y
_atom_site_fract_z
Si Si1 0.160885 0.907587 0.070360
Si Si2 0.336480 0.602369 0.332685
Si Si3 0.834670 0.578824 0.831402
Si Si4 0.663739 0.907625 0.452407
Si Si5 0.159576 0.920104 0.951652
Si Si6 0.334178 0.613970 0.053831
Si Si7 0.168139 0.733162 0.635431
Si Si8 0.330873 0.760351 0.259008
O O1 0.264587 0.855950 0.110648
O O2 0.000000 0.896647 0.091987
O O3 0.203856 0.012228 0.069701
O O4 0.175246 0.865964 0.008675
O O5 0.500000 0.584295 0.317112
O O6 0.254459 0.510569 0.324377
O O7 0.325174 0.637516 0.396039
O O8 0.268591 0.676915 0.293223
O O9 0.812818 0.627331 0.890479
O O10 0.778381 0.647506 0.785826
O O11 0.000000 0.554180 0.823517
O O12 0.500000 0.903096 0.470049
O O13 0.753811 0.855153 0.498334
O O14 0.714937 0.009073 0.451164
O O15 0.000000 0.964930 0.952421
O O16 0.500000 0.625207 0.042309
O O17 0.284188 0.678899 0.102489
O O18 0.224619 0.745249 0.697076
O O19 0.000000 0.719629 0.634350
O O20 0.500000 0.756467 0.262462
#
# Coordination Sequence:
#
# PCOD8175643 Si02
#       8
#     8   8   8   8   8   8   8   8
#     4   9  18  33  52  74 101 129 158 200 250 293
#     4   9  17  32  55  77  97 128 167 201 239 294
#     4   9  18  33  52  75 103 130 157 199 252 295
#     4   9  16  27  49  78 102 125 158 199 244 296
#     4   8  15  29  50  75 102 129 158 196 245 298
#     4   9  19  35  52  71 100 134 163 198 246 294
#     4  10  21  36  52  71  97 132 173 208 239 285
#     4   9  19  35  52  71  98 133 170 203 241 293
#
# _framework density 18.564923
#
# number of rings (size 3 to 8) (size 9 to 14) (size 15 to 20)
#    0.000    3.000    0.000    1.125    0.000    5.000 
#    0.000    5.625    0.000    0.000    0.000    0.000 
#    0.000    0.000    0.000    0.000    0.000    0.000 
#
# Total GULP energy -396536.084523 kJ/mol
# GULP energy per Si atom -12391.752641 kJ/mol
# Density = 1.852267 g / cm^3
# Si number density = 18.564923 Si / 1000 Ang^3
#
#
#
# Elastic Constant Matrix: (Units=GPa)
#
#
# Indices 1 2 3 4 5 6 
#
# 1 42.2446 24.5684 32.1371 0.0000 0.0000 0.0000
# 2 24.5684 73.9356 45.9488 0.0000 0.0000 0.0000
# 3 32.1371 45.9488 129.6589 0.0000 0.0000 0.0000
# 4 0.0000 0.0000 0.0000 34.5181 0.0000 0.0000
# 5 0.0000 0.0000 0.0000 0.0000 23.7768 0.0000
# 6 0.0000 0.0000 0.0000 0.0000 0.0000 21.2900
#
#
#
# Elastic Compliance Matrix: (Units=1/GPa)
#
#
# Indices 1 2 3 4 5 6 
#
# 1 0.031983 -0.007312 -0.005336 0.000000 0.000000 0.000000
# 2 -0.007312 0.019017 -0.004927 0.000000 0.000000 0.000000
# 3 -0.005336 -0.004927 0.010781 0.000000 0.000000 0.000000
# 4 0.000000 0.000000 0.000000 0.028970 0.000000 0.000000
# 5 0.000000 0.000000 0.000000 0.000000 0.042058 0.000000
# 6 0.000000 0.000000 0.000000 0.000000 0.000000 0.046970
#
#
# Mechanical properties :
#
#
# Convention : Reuss Voigt Hill
#
# Bulk Modulus (GPa) = 37.54908 50.12752 43.83830
# Shear Modulus (GPa) = 22.34069 25.46264 23.90167
#
# Velocity S-wave (km/s) = 3.47274 3.70746 3.59202
# Velocity P-wave (km/s) = 6.02907 6.73697 6.39283
#
# Compressibility (1/GPa) = 0.02663181
#
# Stress axis : x y z
#
# Youngs Moduli (GPa) = 31.26625 52.58490 92.75379
#
# Poissons Ratio (x) = 0.38448 0.49496
# Poissons Ratio (y) = 0.22860 0.45700
# Poissons Ratio (z) = 0.16685 0.25909
#
# Static dielectric constant tensor:
#      x y z
#    x 3.239040 0.000000 0.000000 
#    y 0.000000 3.151930 0.000000 
#    z 0.000000 0.000000 3.798160 
# 
# 
# High freq. dielectric constant tensor:
#      x y z
#    x 1.702580 0.000000 0.000000 
#    y 0.000000 1.696860 0.000000 
#    z 0.000000 0.000000 1.730440 
# 
# From -- ./inp_files/16628.got.cif
#   From: 2010.03.12/outbox.cif.g09.slc.cpg/sg36_9_cif.got.tgz:16628.got - 2010.04.14 02:13:53.
