data_PCOD8175067
_publ_section_title
;
Structure prediction by ZEFSAII (Michael W. Deem and Ramdas Pophale) SiO2 
 PCOD8175067
Probable space group: C M C 21
;
_chemical_formula_sum "Si O2"
_cell_formula_units_Z 48
_cell_length_a 9.017065
_cell_length_b 31.236194
_cell_length_c 9.643452
_cell_angle_alpha 90.000000
_cell_angle_beta 90.000000
_cell_angle_gamma 90.000000
_cell_volume 2716.163038
_symmetry_space_group_name_H-M "C M C 21"
_symmetry_group_IT_number 36
_symmetry_cell_setting 'orthorhombic'
loop_
_space_group_symop_operation_xyz
x,y,z
-x,-y,1/2+z
x,-y,1/2+z
-x,y,z
1/2+x,1/2+y,z
1/2-x,1/2-y,1/2+z
1/2+x,1/2-y,1/2+z
1/2-x,1/2+y,z
loop_
_atom_site_type_symbol
_atom_site_label
_atom_site_fract_x
_atom_site_fract_y
_atom_site_fract_z
Si Si1 0.168387 0.217228 0.797800
Si Si2 0.177054 0.459496 0.304484
Si Si3 0.826634 0.786359 0.976780
Si Si4 0.826314 0.630107 0.487154
Si Si5 0.171077 0.877272 0.276883
Si Si6 0.674293 0.036792 0.488924
O O1 0.218717 0.219963 0.637188
O O2 0.180870 0.168423 0.855391
O O3 0.000000 0.233828 0.813042
O O4 0.275680 0.245838 0.889357
O O5 0.258102 0.416611 0.364131
O O6 0.240187 0.499158 0.393877
O O7 0.000000 0.454028 0.315485
O O8 0.232387 0.467069 0.146724
O O9 0.754614 0.829892 0.913551
O O10 0.000000 0.792079 0.961548
O O11 0.774051 0.627373 0.644079
O O12 0.786822 0.583411 0.421381
O O13 0.000000 0.639039 0.481701
O O14 0.000000 0.886693 0.236641
O O15 0.500000 0.030934 0.493713
#
# Coordination Sequence:
#
# PCOD8175067 Si02
#       6
#     8   8   8   8   8   8
#     4   9  19  34  50  70  97 127 160 198 239 287
#     4   9  16  29  47  67  90 120 156 191 231 277
#     4  10  20  33  51  75  99 125 161 202 242 286
#     4   9  16  29  49  69  92 126 161 192 232 282
#     4   9  17  30  47  69  95 122 157 197 233 279
#     4   8  15  27  46  68  89 116 153 190 223 271
#
# _framework density 17.671989
#
# number of rings (size 3 to 8) (size 9 to 14) (size 15 to 20)
#    0.000    3.000    0.000    3.500    0.000    4.000 
#    0.000    5.833    0.000    4.000    0.000    0.000 
#    0.000    0.000    0.000    0.000    0.000    0.000 
#
# Total GULP energy -297361.266650 kJ/mol
# GULP energy per Si atom -12390.052777 kJ/mol
# Density = 1.763177 g / cm^3
# Si number density = 17.671989 Si / 1000 Ang^3
#
#
#
# Elastic Constant Matrix: (Units=GPa)
#
#
# Indices 1 2 3 4 5 6 
#
# 1 62.4846 63.0597 30.1984 0.0000 0.0000 0.0000
# 2 63.0597 169.8066 53.9061 0.0000 0.0000 0.0000
# 3 30.1984 53.9061 48.7127 0.0000 0.0000 0.0000
# 4 0.0000 0.0000 0.0000 28.1287 0.0000 0.0000
# 5 0.0000 0.0000 0.0000 0.0000 17.3710 0.0000
# 6 0.0000 0.0000 0.0000 0.0000 0.0000 32.8297
#
#
#
# Elastic Compliance Matrix: (Units=1/GPa)
#
#
# Indices 1 2 3 4 5 6 
#
# 1 0.027943 -0.007519 -0.009002 0.000000 0.000000 0.000000
# 2 -0.007519 0.011102 -0.007624 0.000000 0.000000 0.000000
# 3 -0.009002 -0.007624 0.034546 0.000000 0.000000 0.000000
# 4 0.000000 0.000000 0.000000 0.035551 0.000000 0.000000
# 5 0.000000 0.000000 0.000000 0.000000 0.057567 0.000000
# 6 0.000000 0.000000 0.000000 0.000000 0.000000 0.030460
#
#
# Mechanical properties :
#
#
# Convention : Reuss Voigt Hill
#
# Bulk Modulus (GPa) = 39.52482 63.92582 51.72532
# Shear Modulus (GPa) = 19.69346 24.58852 22.14099
#
# Velocity S-wave (km/s) = 3.34187 3.73417 3.54345
# Velocity P-wave (km/s) = 6.10779 7.40568 6.78783
#
# Compressibility (1/GPa) = 0.02530056
#
# Stress axis : x y z
#
# Youngs Moduli (GPa) = 35.78728 90.07661 28.94730
#
# Poissons Ratio (x) = 0.67731 0.26057
# Poissons Ratio (y) = 0.26910 0.22069
# Poissons Ratio (z) = 0.32214 0.68673
#
# Static dielectric constant tensor:
#      x y z
#    x 3.209040 0.000000 0.000000 
#    y 0.000000 3.988770 0.000000 
#    z 0.000000 0.000000 3.023010 
# 
# 
# High freq. dielectric constant tensor:
#      x y z
#    x 1.675810 0.000000 0.000000 
#    y 0.000000 1.707720 0.000000 
#    z 0.000000 0.000000 1.630080 
# 
# From -- ./inp_files/6807.got.cif
#   From: 2010.03.12/outbox.cif.g09.slc.cpg/sg36_4_cif.got.tgz:6807.got - 2010.04.14 02:13:53.
