data_PCOD8175412
_publ_section_title
;
Structure prediction by ZEFSAII (Michael W. Deem and Ramdas Pophale) SiO2 
 PCOD8175412
Probable space group: C M C 21
;
_chemical_formula_sum "Si O2"
_cell_formula_units_Z 52
_cell_length_a 8.063874
_cell_length_b 22.181847
_cell_length_c 14.603546
_cell_angle_alpha 90.000000
_cell_angle_beta 90.000000
_cell_angle_gamma 90.000000
_cell_volume 2612.159920
_symmetry_space_group_name_H-M "C M C 21"
_symmetry_group_IT_number 36
_symmetry_cell_setting 'orthorhombic'
loop_
_space_group_symop_operation_xyz
x,y,z
-x,-y,1/2+z
x,-y,1/2+z
-x,y,z
1/2+x,1/2+y,z
1/2-x,1/2-y,1/2+z
1/2+x,1/2-y,1/2+z
1/2-x,1/2+y,z
loop_
_atom_site_type_symbol
_atom_site_label
_atom_site_fract_x
_atom_site_fract_y
_atom_site_fract_z
Si Si1 0.000000 0.567915 0.106081
Si Si2 0.687614 0.557387 0.395299
Si Si3 0.188254 0.186831 0.473278
Si Si4 0.685760 0.231163 0.295814
Si Si5 0.500000 0.975884 0.412240
Si Si6 0.181995 0.325102 0.170287
Si Si7 0.185078 0.884445 0.705423
Si Si8 0.500000 0.938549 0.204324
O O1 0.167436 0.602736 0.134585
O O2 0.000000 0.500225 0.147698
O O3 0.000000 0.570788 0.996108
O O4 0.500000 0.534485 0.418824
O O5 0.728238 0.618085 0.449523
O O6 0.704402 0.567189 0.286788
O O7 0.829906 0.512315 0.426696
O O8 0.290745 0.230829 0.405919
O O9 0.227916 0.197115 0.578910
O O10 0.000000 0.203312 0.454504
O O11 0.500000 0.211796 0.272780
O O12 0.720615 0.298163 0.257395
O O13 0.804032 0.182617 0.246871
O O14 0.500000 0.945591 0.313452
O O15 0.000000 0.295555 0.168925
O O16 0.164157 0.398292 0.178796
O O17 0.000000 0.891129 0.661336
#
# Coordination Sequence:
#
# PCOD8175412 Si02
#       8
#     4   8   8   8   4   8   8   4
#     4  12  22  40  64 100 120 176 215 255 332 387
#     4   9  19  35  61  91 121 160 214 270 308 369
#     4  10  20  36  62  96 120 161 220 270 313 375
#     4  11  21  38  64  93 123 166 215 271 322 377
#     4  12  22  38  66  88 132 172 208 257 329 389
#     4  10  22  40  59  86 129 171 206 256 327 381
#     4  10  20  38  63  91 124 156 213 277 316 366
#     4  10  24  42  62  90 136 174 203 270 323 390
#
# _framework density 19.906897000000001
#
# number of rings (size 3 to 8) (size 9 to 14) (size 15 to 20)
#    0.462    1.231    2.308    4.154    4.308    0.615 
#    2.769    3.077    0.000    0.000    0.000    0.000 
#    0.000    0.000    0.000    0.000    0.000    0.000 
#
# Total GULP energy -322247.711733 kJ/mol
# GULP energy per Si atom -12394.142759 kJ/mol
# Density = 1.986159 g / cm^3
# Si number density = 19.906897 Si / 1000 Ang^3
#
#
#
# Elastic Constant Matrix: (Units=GPa)
#
#
# Indices 1 2 3 4 5 6 
#
# 1 99.5131 17.3524 9.1775 0.0000 0.0000 0.0000
# 2 17.3524 40.2687 16.5193 0.0000 0.0000 0.0000
# 3 9.1775 16.5193 90.8805 0.0000 0.0000 0.0000
# 4 0.0000 0.0000 0.0000 25.5108 0.0000 0.0000
# 5 0.0000 0.0000 0.0000 0.0000 22.8588 0.0000
# 6 0.0000 0.0000 0.0000 0.0000 0.0000 29.4415
#
#
#
# Elastic Compliance Matrix: (Units=1/GPa)
#
#
# Indices 1 2 3 4 5 6 
#
# 1 0.010871 -0.004575 -0.000266 0.000000 0.000000 0.000000
# 2 -0.004575 0.028760 -0.004766 0.000000 0.000000 0.000000
# 3 -0.000266 -0.004766 0.011897 0.000000 0.000000 0.000000
# 4 0.000000 0.000000 0.000000 0.039199 0.000000 0.000000
# 5 0.000000 0.000000 0.000000 0.000000 0.043747 0.000000
# 6 0.000000 0.000000 0.000000 0.000000 0.000000 0.033966
#
#
# Mechanical properties :
#
#
# Convention : Reuss Voigt Hill
#
# Bulk Modulus (GPa) = 30.94702 35.19563 33.07133
# Shear Modulus (GPa) = 25.19849 28.06978 26.63413
#
# Velocity S-wave (km/s) = 3.56169 3.75914 3.66175
# Velocity P-wave (km/s) = 5.70034 6.04649 5.87596
#
# Compressibility (1/GPa) = 0.03231329
#
# Stress axis : x y z
#
# Youngs Moduli (GPa) = 91.98530 34.77080 84.05780
#
# Poissons Ratio (x) = 0.15909 0.02237
# Poissons Ratio (y) = 0.42087 0.40059
# Poissons Ratio (z) = 0.02448 0.16570
#
# Static dielectric constant tensor:
#      x y z
#    x 3.682360 0.000000 0.000000 
#    y 0.000000 3.366060 0.000000 
#    z 0.000000 0.000000 3.568300 
# 
# 
# High freq. dielectric constant tensor:
#      x y z
#    x 1.788120 0.000000 0.000000 
#    y 0.000000 1.744880 0.000000 
#    z 0.000000 0.000000 1.769430 
# 
# From -- ./inp_files/10624.got.cif
#   From: 2010.03.12/outbox.cif.g09.slc.cpg/sg36_6_cif.got.tgz:10624.got - 2010.04.14 02:13:53.
