data_PCOD8175774
_publ_section_title
;
Structure prediction by ZEFSAII (Michael W. Deem and Ramdas Pophale) SiO2 
 PCOD8175774
Probable space group: C M C 21
;
_chemical_formula_sum "Si O2"
_cell_formula_units_Z 40
_cell_length_a 11.524109
_cell_length_b 13.908629
_cell_length_c 9.139601
_cell_angle_alpha 90.000000
_cell_angle_beta 90.000000
_cell_angle_gamma 90.000000
_cell_volume 1464.936894
_symmetry_space_group_name_H-M "C M C 21"
_symmetry_group_IT_number 36
_symmetry_cell_setting 'orthorhombic'
loop_
_space_group_symop_operation_xyz
x,y,z
-x,-y,1/2+z
x,-y,1/2+z
-x,y,z
1/2+x,1/2+y,z
1/2-x,1/2-y,1/2+z
1/2+x,1/2-y,1/2+z
1/2-x,1/2+y,z
loop_
_atom_site_type_symbol
_atom_site_label
_atom_site_fract_x
_atom_site_fract_y
_atom_site_fract_z
Si Si1 0.135433 0.484103 0.857750
Si Si2 0.862397 0.628742 0.625573
Si Si3 0.500000 0.370637 0.935898
Si Si4 0.267685 0.279355 0.845369
Si Si5 0.265189 0.376016 0.561396
Si Si6 0.000000 0.973125 0.644056
O O1 0.168017 0.521344 0.694560
O O2 0.170631 0.574499 0.958772
O O3 0.000000 0.468763 0.875936
O O4 0.185573 0.388368 0.953664
O O5 0.791183 0.707953 0.708870
O O6 0.000000 0.648211 0.634427
O O7 0.390392 0.304297 0.915376
O O8 0.500000 0.458989 0.818456
O O9 0.500000 0.414382 0.100006
O O10 0.213191 0.363394 0.731774
O O11 0.197528 0.224313 0.974813
O O12 0.386630 0.428949 0.570574
#
# Coordination Sequence:
#
# PCOD8175774 Si02
#       6
#     8   8   4   8   8   4
#     4   9  19  34  56  83 113 147 193 241 294 353
#     4   9  17  33  56  81 111 145 186 239 290 350
#     4  10  22  42  66  86 124 168 206 254 304 370
#     4  10  21  38  60  86 119 161 199 248 308 350
#     4  10  23  39  58  88 123 156 204 252 298 367
#     4  10  24  42  60  90 126 162 210 248 306 376
#
# _framework density 27.304932000000001
#
# number of rings (size 3 to 8) (size 9 to 14) (size 15 to 20)
#    0.000    2.400    1.000    0.000    1.400   11.200 
#    1.800    0.000    0.000    0.000    0.000    0.000 
#    0.000    0.000    0.000    0.000    0.000    0.000 
#
# Total GULP energy -247782.947935 kJ/mol
# GULP energy per Si atom -12389.147397 kJ/mol
# Density = 2.724278 g / cm^3
# Si number density = 27.304932 Si / 1000 Ang^3
#
#
#
# Elastic Constant Matrix: (Units=GPa)
#
#
# Indices 1 2 3 4 5 6 
#
# 1 48.0321 4.8019 33.9830 0.0000 0.0000 0.0000
# 2 4.8019 67.1836 13.0204 0.0000 0.0000 0.0000
# 3 33.9830 13.0204 156.6845 0.0000 0.0000 0.0000
# 4 0.0000 0.0000 0.0000 32.2031 0.0000 0.0000
# 5 0.0000 0.0000 0.0000 0.0000 26.9719 0.0000
# 6 0.0000 0.0000 0.0000 0.0000 0.0000 13.0750
#
#
#
# Elastic Compliance Matrix: (Units=1/GPa)
#
#
# Indices 1 2 3 4 5 6 
#
# 1 0.024629 -0.000737 -0.005281 0.000000 0.000000 0.000000
# 2 -0.000737 0.015150 -0.001099 0.000000 0.000000 0.000000
# 3 -0.005281 -0.001099 0.007619 0.000000 0.000000 0.000000
# 4 0.000000 0.000000 0.000000 0.031053 0.000000 0.000000
# 5 0.000000 0.000000 0.000000 0.000000 0.037076 0.000000
# 6 0.000000 0.000000 0.000000 0.000000 0.000000 0.076482
#
#
# Mechanical properties :
#
#
# Convention : Reuss Voigt Hill
#
# Bulk Modulus (GPa) = 30.15229 41.72343 35.93786
# Shear Modulus (GPa) = 23.00998 29.12298 26.06648
#
# Velocity S-wave (km/s) = 2.90609 3.26940 3.09308
# Velocity P-wave (km/s) = 4.72517 5.43744 5.09377
#
# Compressibility (1/GPa) = 0.03316498
#
# Stress axis : x y z
#
# Youngs Moduli (GPa) = 40.60242 66.00537 131.25310
#
# Poissons Ratio (x) = 0.04864 0.69308
# Poissons Ratio (y) = 0.02992 0.14427
# Poissons Ratio (z) = 0.21440 0.07255
#
# Static dielectric constant tensor:
#      x y z
#    x 4.443840 0.000000 0.000000 
#    y 0.000000 6.081120 0.000000 
#    z 0.000000 0.000000 6.097310 
# 
# 
# High freq. dielectric constant tensor:
#      x y z
#    x 2.070430 0.000000 0.000000 
#    y 0.000000 2.158980 0.000000 
#    z 0.000000 0.000000 2.174590 
# 
# From -- ./inp_files/3093.got.cif
#   From: 2010.03.12/outbox.cif.g09.slc.cpg/sg36_2_cif.got.tgz:3093.got - 2010.04.14 02:13:53.
