data_PCOD8175004
_publ_section_title
;
Structure prediction by ZEFSAII (Michael W. Deem and Ramdas Pophale) SiO2 
 PCOD8175004
Probable space group: C M C 21
;
_chemical_formula_sum "Si O2"
_cell_formula_units_Z 64
_cell_length_a 8.707123
_cell_length_b 30.408221
_cell_length_c 12.109829
_cell_angle_alpha 90.000000
_cell_angle_beta 90.000000
_cell_angle_gamma 90.000000
_cell_volume 3206.296663
_symmetry_space_group_name_H-M "C M C 21"
_symmetry_group_IT_number 36
_symmetry_cell_setting 'orthorhombic'
loop_
_space_group_symop_operation_xyz
x,y,z
-x,-y,1/2+z
x,-y,1/2+z
-x,y,z
1/2+x,1/2+y,z
1/2-x,1/2-y,1/2+z
1/2+x,1/2-y,1/2+z
1/2-x,1/2+y,z
loop_
_atom_site_type_symbol
_atom_site_label
_atom_site_fract_x
_atom_site_fract_y
_atom_site_fract_z
Si Si1 0.317394 0.043414 0.424130
Si Si2 0.322686 0.298758 0.924023
Si Si3 0.317471 0.944504 0.464591
Si Si4 0.819007 0.127775 0.809590
Si Si5 0.671657 0.922604 0.700911
Si Si6 0.318691 0.874802 0.067680
Si Si7 0.179392 0.698629 0.965884
Si Si8 0.328040 0.822202 0.708455
O O1 0.500000 0.047882 0.416529
O O2 0.246691 0.051341 0.301228
O O3 0.257702 0.080093 0.510566
O O4 0.264923 0.995057 0.458731
O O5 0.500000 0.310761 0.942043
O O6 0.283602 0.298363 0.794093
O O7 0.219963 0.333078 0.991254
O O8 0.283679 0.250016 0.964124
O O9 0.500000 0.938677 0.455722
O O10 0.245990 0.916048 0.366737
O O11 0.247827 0.927924 0.581831
O O12 0.762005 0.130381 0.684707
O O13 0.000000 0.125034 0.809723
O O14 0.768855 0.172132 0.871985
O O15 0.500000 0.941451 0.684406
O O16 0.667809 0.872858 0.741374
O O17 0.500000 0.876408 0.086071
O O18 0.237281 0.682323 0.085110
O O19 0.000000 0.688368 0.949251
O O20 0.500000 0.801847 0.715606
#
# Coordination Sequence:
#
# PCOD8175004 Si02
#       8
#     8   8   8   8   8   8   8   8
#     4   9  19  34  61  95 118 151 206 253 293 353
#     4  11  24  40  61  94 127 157 200 253 312 365
#     4  10  20  37  64  91 119 157 203 255 302 355
#     4  12  26  42  60  88 127 164 202 254 315 370
#     4   9  16  32  59  89 115 146 199 254 290 338
#     4  11  23  42  65  89 122 166 211 252 301 364
#     4  10  23  43  64  88 120 163 210 252 298 364
#     4  10  19  38  64  86 116 158 205 253 301 357
#
# _framework density 19.960723000000002
#
# number of rings (size 3 to 8) (size 9 to 14) (size 15 to 20)
#    0.000    1.750    2.500    1.875    3.500    1.500 
#    0.000    1.250    0.000    0.000    0.000    0.000 
#    0.000    0.000    0.000    0.000    0.000    0.000 
#
# Total GULP energy -396777.086340 kJ/mol
# GULP energy per Si atom -12399.283948 kJ/mol
# Density = 1.991529 g / cm^3
# Si number density = 19.960723 Si / 1000 Ang^3
#
#
#
# Elastic Constant Matrix: (Units=GPa)
#
#
# Indices 1 2 3 4 5 6 
#
# 1 61.5277 37.2699 32.2517 0.0000 0.0000 0.0000
# 2 37.2699 107.4273 40.5368 0.0000 0.0000 0.0000
# 3 32.2517 40.5368 132.6957 0.0000 0.0000 0.0000
# 4 0.0000 0.0000 0.0000 32.2470 0.0000 0.0000
# 5 0.0000 0.0000 0.0000 0.0000 19.2156 0.0000
# 6 0.0000 0.0000 0.0000 0.0000 0.0000 21.7836
#
#
#
# Elastic Compliance Matrix: (Units=1/GPa)
#
#
# Indices 1 2 3 4 5 6 
#
# 1 0.021844 -0.006301 -0.003384 0.000000 0.000000 0.000000
# 2 -0.006301 0.012339 -0.002238 0.000000 0.000000 0.000000
# 3 -0.003384 -0.002238 0.009042 0.000000 0.000000 0.000000
# 4 0.000000 0.000000 0.000000 0.031011 0.000000 0.000000
# 5 0.000000 0.000000 0.000000 0.000000 0.052041 0.000000
# 6 0.000000 0.000000 0.000000 0.000000 0.000000 0.045906
#
#
# Mechanical properties :
#
#
# Convention : Reuss Voigt Hill
#
# Bulk Modulus (GPa) = 51.60392 57.97417 54.78905
# Shear Modulus (GPa) = 24.69268 27.42205 26.05736
#
# Velocity S-wave (km/s) = 3.52101 3.71050 3.61700
# Velocity P-wave (km/s) = 6.51451 6.88943 6.70459
#
# Compressibility (1/GPa) = 0.01937837
#
# Stress axis : x y z
#
# Youngs Moduli (GPa) = 45.77983 81.04257 110.59228
#
# Poissons Ratio (x) = 0.51067 0.37426
# Poissons Ratio (y) = 0.28847 0.24750
# Poissons Ratio (z) = 0.15493 0.18137
#
# Static dielectric constant tensor:
#      x y z
#    x 3.326980 0.000000 0.000000 
#    y 0.000000 3.665010 0.000000 
#    z 0.000000 0.000000 3.843200 
# 
# 
# High freq. dielectric constant tensor:
#      x y z
#    x 1.741460 0.000000 0.000000 
#    y 0.000000 1.785470 0.000000 
#    z 0.000000 0.000000 1.798840 
# 
# From -- ./inp_files/7124.got.cif
#   From: 2010.03.12/outbox.cif.g09.slc.cpg/sg36_4_cif.got.tgz:7124.got - 2010.04.14 02:13:53.
