data_PCOD8175903
_publ_section_title
;
Structure prediction by ZEFSAII (Michael W. Deem and Ramdas Pophale) SiO2 
 PCOD8175903
Probable space group: C M C 21
;
_chemical_formula_sum "Si O2"
_cell_formula_units_Z 64
_cell_length_a 23.178530
_cell_length_b 8.790414
_cell_length_c 14.973761
_cell_angle_alpha 90.000000
_cell_angle_beta 90.000000
_cell_angle_gamma 90.000000
_cell_volume 3050.886952
_symmetry_space_group_name_H-M "C M C 21"
_symmetry_group_IT_number 36
_symmetry_cell_setting 'orthorhombic'
loop_
_space_group_symop_operation_xyz
x,y,z
-x,-y,1/2+z
x,-y,1/2+z
-x,y,z
1/2+x,1/2+y,z
1/2-x,1/2-y,1/2+z
1/2+x,1/2-y,1/2+z
1/2-x,1/2+y,z
loop_
_atom_site_type_symbol
_atom_site_label
_atom_site_fract_x
_atom_site_fract_y
_atom_site_fract_z
Si Si1 0.860580 0.633421 0.090580
Si Si2 0.252625 0.285847 0.350943
Si Si3 0.565208 0.854575 0.074167
Si Si4 0.565812 0.672171 0.254070
Si Si5 0.351546 0.622973 0.988753
Si Si6 0.652173 0.541056 0.668492
Si Si7 0.358984 0.310527 0.915056
Si Si8 0.224252 0.532396 0.232179
O O1 0.917679 0.530984 0.085265
O O2 0.868324 0.789333 0.144562
O O3 0.811173 0.526967 0.138562
O O4 0.848430 0.679690 0.988963
O O5 0.296840 0.328883 0.429302
O O6 0.206848 0.158470 0.384122
O O7 0.207833 0.415079 0.311989
O O8 0.285255 0.203174 0.268447
O O9 0.500000 0.845170 0.038303
O O10 0.570420 0.787847 0.172804
O O11 0.604571 0.764257 0.001847
O O12 0.500000 0.631534 0.277063
O O13 0.599129 0.518333 0.227726
O O14 0.596374 0.748180 0.340127
O O15 0.383580 0.474585 0.947546
O O16 0.331193 0.567857 0.085747
O O17 0.710095 0.527827 0.724781
#
# Coordination Sequence:
#
# PCOD8175903 Si02
#       8
#     8   8   8   8   8   8   8   8
#     4  11  25  39  66  92 129 178 218 272 331 387
#     4  12  22  38  62  93 136 167 213 262 319 388
#     4  10  24  46  67  91 126 170 222 274 333 395
#     4  10  21  42  69  91 123 172 220 276 333 394
#     4  10  23  39  62  91 127 167 209 263 326 388
#     4  10  21  41  59  92 130 169 220 259 324 400
#     4  11  23  41  61  97 131 168 217 270 323 397
#     4  12  23  38  62  93 136 173 213 262 325 389
#
# _framework density 20.977506999999999
#
# number of rings (size 3 to 8) (size 9 to 14) (size 15 to 20)
#    0.000    1.250    3.750    1.500    3.500    3.500 
#    0.000    2.500    0.000    0.000    0.000    0.000 
#    0.000    0.000    0.000    0.000    0.000    0.000 
#
# Total GULP energy -396437.339384 kJ/mol
# GULP energy per Si atom -12388.666856 kJ/mol
# Density = 2.092976 g / cm^3
# Si number density = 20.977507 Si / 1000 Ang^3
#
#
#
# Elastic Constant Matrix: (Units=GPa)
#
#
# Indices 1 2 3 4 5 6 
#
# 1 122.6205 46.2266 58.5513 0.0000 0.0000 0.0000
# 2 46.2266 107.2851 33.5197 0.0000 0.0000 0.0000
# 3 58.5513 33.5197 106.0607 0.0000 0.0000 0.0000
# 4 0.0000 0.0000 0.0000 23.1986 0.0000 0.0000
# 5 0.0000 0.0000 0.0000 0.0000 36.0780 0.0000
# 6 0.0000 0.0000 0.0000 0.0000 0.0000 27.7102
#
#
#
# Elastic Compliance Matrix: (Units=1/GPa)
#
#
# Indices 1 2 3 4 5 6 
#
# 1 0.012143 -0.003482 -0.005604 0.000000 0.000000 0.000000
# 2 -0.003482 0.011340 -0.001662 0.000000 0.000000 0.000000
# 3 -0.005604 -0.001662 0.013047 0.000000 0.000000 0.000000
# 4 0.000000 0.000000 0.000000 0.043106 0.000000 0.000000
# 5 0.000000 0.000000 0.000000 0.000000 0.027718 0.000000
# 6 0.000000 0.000000 0.000000 0.000000 0.000000 0.036088
#
#
# Mechanical properties :
#
#
# Convention : Reuss Voigt Hill
#
# Bulk Modulus (GPa) = 66.50327 68.06240 67.28284
# Shear Modulus (GPa) = 29.42056 30.57527 29.99792
#
# Velocity S-wave (km/s) = 3.74903 3.82190 3.78564
# Velocity P-wave (km/s) = 7.10713 7.21053 7.15902
#
# Compressibility (1/GPa) = 0.01503685
#
# Stress axis : x y z
#
# Youngs Moduli (GPa) = 82.34899 88.18067 76.64433
#
# Poissons Ratio (x) = 0.30701 0.42948
# Poissons Ratio (y) = 0.28670 0.12738
# Poissons Ratio (z) = 0.46144 0.14656
#
# Static dielectric constant tensor:
#      x y z
#    x 3.590060 0.000000 0.000000 
#    y 0.000000 3.844020 0.000000 
#    z 0.000000 0.000000 4.011260 
# 
# 
# High freq. dielectric constant tensor:
#      x y z
#    x 1.795170 0.000000 0.000000 
#    y 0.000000 1.828920 0.000000 
#    z 0.000000 0.000000 1.835050 
# 
# From -- ./inp_files/12996.got.cif
#   From: 2010.03.12/outbox.cif.g09.slc.cpg/sg36_7_cif.got.tgz:12996.got - 2010.04.14 02:13:53.
