data_PCOD8175549
_publ_section_title
;
Structure prediction by ZEFSAII (Michael W. Deem and Ramdas Pophale) SiO2 
 PCOD8175549
Probable space group: C M C 21
;
_chemical_formula_sum "Si O2"
_cell_formula_units_Z 56
_cell_length_a 13.455666
_cell_length_b 12.661221
_cell_length_c 14.476661
_cell_angle_alpha 90.000000
_cell_angle_beta 90.000000
_cell_angle_gamma 90.000000
_cell_volume 2466.318681
_symmetry_space_group_name_H-M "C M C 21"
_symmetry_group_IT_number 36
_symmetry_cell_setting 'orthorhombic'
loop_
_space_group_symop_operation_xyz
x,y,z
-x,-y,1/2+z
x,-y,1/2+z
-x,y,z
1/2+x,1/2+y,z
1/2-x,1/2-y,1/2+z
1/2+x,1/2-y,1/2+z
1/2-x,1/2+y,z
loop_
_atom_site_type_symbol
_atom_site_label
_atom_site_fract_x
_atom_site_fract_y
_atom_site_fract_z
Si Si1 0.886215 0.741124 0.070440
Si Si2 0.614276 0.158896 0.483721
Si Si3 0.204341 0.800351 0.876457
Si Si4 0.245117 0.149943 0.723782
Si Si5 0.110396 0.973361 0.357924
Si Si6 0.391303 0.379088 0.560019
Si Si7 0.310737 0.979090 0.606387
O O1 0.810752 0.810100 0.131203
O O2 0.883755 0.620729 0.107738
O O3 0.000000 0.782182 0.076983
O O4 0.849996 0.744718 0.963830
O O5 0.500000 0.143326 0.454478
O O6 0.677273 0.192455 0.394230
O O7 0.624227 0.251555 0.561596
O O8 0.661782 0.048759 0.517301
O O9 0.190526 0.736125 0.780572
O O10 0.163163 0.915196 0.860470
O O11 0.160977 0.107005 0.789587
O O12 0.321776 0.056106 0.694935
O O13 0.111756 0.917070 0.455664
O O14 0.000000 0.993558 0.322333
O O15 0.500000 0.406614 0.603363
O O16 0.303521 0.438669 0.612559
#
# Coordination Sequence:
#
# PCOD8175549 Si02
#       7
#     8   8   8   8   8   8   8
#     4  12  26  47  73 103 143 188 237 290 354 424
#     4  11  22  40  68  97 132 179 227 280 347 416
#     4  12  24  45  71 103 140 186 230 294 350 421
#     4  12  25  43  71  98 144 184 234 297 348 413
#     4  11  22  39  64  98 132 170 225 279 342 411
#     4  10  20  38  66  96 129 172 224 280 342 414
#     4  12  22  44  64 101 134 183 230 290 348 417
#
# _framework density 22.705905999999999
#
# number of rings (size 3 to 8) (size 9 to 14) (size 15 to 20)
#    0.000    0.571    5.714    2.143    0.000    2.857 
#    0.000    4.286    0.000    0.000    0.000    0.000 
#    0.000    0.000    0.000    0.000    0.000    0.000 
#
# Total GULP energy -347116.041433 kJ/mol
# GULP energy per Si atom -12397.001480 kJ/mol
# Density = 2.265423 g / cm^3
# Si number density = 22.705906 Si / 1000 Ang^3
#
#
#
# Elastic Constant Matrix: (Units=GPa)
#
#
# Indices 1 2 3 4 5 6 
#
# 1 61.1129 10.4932 -33.3865 0.0000 0.0000 0.0000
# 2 10.4932 106.2739 -11.0702 0.0000 0.0000 0.0000
# 3 -33.3865 -11.0702 15.8246 0.0000 0.0000 0.0000
# 4 0.0000 0.0000 0.0000 22.7830 0.0000 0.0000
# 5 0.0000 0.0000 0.0000 0.0000 25.4056 0.0000
# 6 0.0000 0.0000 0.0000 0.0000 0.0000 27.6528
#
#
#
# Elastic Compliance Matrix: (Units=1/GPa)
#
#
# Indices 1 2 3 4 5 6 
#
# 1 -0.090871 -0.011863 -0.200017 0.000000 0.000000 0.000000
# 2 -0.011863 0.008601 -0.019011 0.000000 0.000000 0.000000
# 3 -0.200017 -0.019011 -0.372100 0.000000 0.000000 0.000000
# 4 0.000000 0.000000 0.000000 0.043892 0.000000 0.000000
# 5 0.000000 0.000000 0.000000 0.000000 0.039361 0.000000
# 6 0.000000 0.000000 0.000000 0.000000 0.000000 0.036163
#
#
# Mechanical properties :
#
#
# Convention : Reuss Voigt Hill
#
# Bulk Modulus (GPa) = -1.09152 12.80937 5.85893
# Shear Modulus (GPa) = -28.00240 29.64661 0.82210
#
# Velocity S-wave (km/s) = -3.51560 3.61734 0.60237
# Velocity P-wave (km/s) = 4.11837 4.80630 1.75207
#
# Compressibility (1/GPa) = -0.91615432
#
# Stress axis : x y z
#
# Youngs Moduli (GPa) = -11.00459 116.27115 -2.68745
#
# Poissons Ratio (x) = 1.37931 -0.53754
# Poissons Ratio (y) = -0.13055 -0.05109
# Poissons Ratio (z) = -2.20111 2.21048
#
# Static dielectric constant tensor:
#      x y z
#    x 4.179590 0.000000 0.000000 
#    y 0.000000 4.466940 0.000000 
#    z 0.000000 0.000000 4.232920 
# 
# 
# High freq. dielectric constant tensor:
#      x y z
#    x 1.893800 0.000000 0.000000 
#    y 0.000000 1.918090 0.000000 
#    z 0.000000 0.000000 1.874890 
# 
# From -- ./inp_files/12150.got.cif
#   From: 2010.03.12/outbox.cif.g09.slc.cpg/sg36_7_cif.got.tgz:12150.got - 2010.04.14 02:13:53.
