data_PCOD8175985
_publ_section_title
;
Structure prediction by ZEFSAII (Michael W. Deem and Ramdas Pophale) SiO2 
 PCOD8175985
Probable space group: C M C 21
;
_chemical_formula_sum "Si O2"
_cell_formula_units_Z 48
_cell_length_a 14.065969
_cell_length_b 16.866751
_cell_length_c 10.043919
_cell_angle_alpha 90.000000
_cell_angle_beta 90.000000
_cell_angle_gamma 90.000000
_cell_volume 2382.891627
_symmetry_space_group_name_H-M "C M C 21"
_symmetry_group_IT_number 36
_symmetry_cell_setting 'orthorhombic'
loop_
_space_group_symop_operation_xyz
x,y,z
-x,-y,1/2+z
x,-y,1/2+z
-x,y,z
1/2+x,1/2+y,z
1/2-x,1/2-y,1/2+z
1/2+x,1/2-y,1/2+z
1/2-x,1/2+y,z
loop_
_atom_site_type_symbol
_atom_site_label
_atom_site_fract_x
_atom_site_fract_y
_atom_site_fract_z
Si Si1 0.200872 0.591008 0.729790
Si Si2 0.200934 0.172523 0.961295
Si Si3 0.000000 0.193543 0.444325
Si Si4 0.500000 0.165555 0.758647
Si Si5 0.500000 0.708674 0.019267
Si Si6 0.294602 0.568192 0.221708
Si Si7 0.000000 0.926550 0.707378
Si Si8 0.704314 0.332299 0.983934
O O1 0.270467 0.606116 0.854734
O O2 0.091013 0.607646 0.759856
O O3 0.215620 0.498492 0.692853
O O4 0.230555 0.646017 0.607532
O O5 0.097180 0.212432 0.933593
O O6 0.275503 0.242871 0.939317
O O7 0.208344 0.136284 0.109592
O O8 0.000000 0.145605 0.308735
O O9 0.093230 0.168423 0.527357
O O10 0.000000 0.285237 0.396738
O O11 0.500000 0.222281 0.629893
O O12 0.500000 0.617248 0.066515
O O13 0.400378 0.525729 0.222048
O O14 0.274181 0.608156 0.363284
#
# Coordination Sequence:
#
# PCOD8175985 Si02
#       8
#     8   8   4   4   4   8   4   8
#     4  12  24  38  63  91 126 161 204 252 315 364
#     4  11  21  39  64  92 119 164 210 254 297 363
#     4   9  18  36  62  89 115 157 211 249 299 358
#     4  11  20  40  60  86 123 176 198 232 317 388
#     4   9  18  36  62  89 115 157 211 249 299 358
#     4  10  22  40  59  93 128 161 198 254 313 364
#     4   7  16  34  62  78 117 160 192 238 315 368
#     4  11  21  39  64  92 119 164 210 254 297 363
#
# _framework density 20.143595000000001
#
# number of rings (size 3 to 8) (size 9 to 14) (size 15 to 20)
#    0.000    1.667    3.333    3.000    0.000    2.000 
#    0.000   10.000    0.000    0.000    0.000    0.000 
#    0.000    0.000    0.000    0.000    0.000    0.000 
#
# Total GULP energy -297465.209840 kJ/mol
# GULP energy per Si atom -12394.383743 kJ/mol
# Density = 2.009775 g / cm^3
# Si number density = 20.143595 Si / 1000 Ang^3
#
#
#
# Elastic Constant Matrix: (Units=GPa)
#
#
# Indices 1 2 3 4 5 6 
#
# 1 118.5270 37.2360 26.5669 0.0000 0.0000 0.0000
# 2 37.2360 78.8835 1.2209 0.0000 0.0000 0.0000
# 3 26.5669 1.2209 62.1779 0.0000 0.0000 0.0000
# 4 0.0000 0.0000 0.0000 25.5469 0.0000 0.0000
# 5 0.0000 0.0000 0.0000 0.0000 26.0637 0.0000
# 6 0.0000 0.0000 0.0000 0.0000 0.0000 33.4812
#
#
#
# Elastic Compliance Matrix: (Units=1/GPa)
#
#
# Indices 1 2 3 4 5 6 
#
# 1 0.011101 -0.005168 -0.004642 0.000000 0.000000 0.000000
# 2 -0.005168 0.015087 0.001912 0.000000 0.000000 0.000000
# 3 -0.004642 0.001912 0.018029 0.000000 0.000000 0.000000
# 4 0.000000 0.000000 0.000000 0.039144 0.000000 0.000000
# 5 0.000000 0.000000 0.000000 0.000000 0.038368 0.000000
# 6 0.000000 0.000000 0.000000 0.000000 0.000000 0.029868
#
#
# Mechanical properties :
#
#
# Convention : Reuss Voigt Hill
#
# Bulk Modulus (GPa) = 35.18561 43.29289 39.23925
# Shear Modulus (GPa) = 28.27024 29.98933 29.12978
#
# Velocity S-wave (km/s) = 3.75031 3.86265 3.80690
# Velocity P-wave (km/s) = 6.02150 6.43679 6.23260
#
# Compressibility (1/GPa) = 0.02842071
#
# Stress axis : x y z
#
# Youngs Moduli (GPa) = 90.08272 66.28262 55.46747
#
# Poissons Ratio (x) = 0.34256 0.25746
# Poissons Ratio (y) = 0.46557 -0.10605
# Poissons Ratio (z) = 0.41813 -0.12673
#
# Static dielectric constant tensor:
#      x y z
#    x 3.974330 0.000000 0.000000 
#    y 0.000000 3.371640 0.000000 
#    z 0.000000 0.000000 3.383030 
# 
# 
# High freq. dielectric constant tensor:
#      x y z
#    x 1.797350 0.000000 0.000000 
#    y 0.000000 1.773090 0.000000 
#    z 0.000000 0.000000 1.767720 
# 
# From -- ./inp_files/4043.got.cif
#   From: 2010.03.12/outbox.cif.g09.slc.cpg/sg36_3_cif.got.tgz:4043.got - 2010.04.14 02:13:53.
