data_PCOD8175483
_publ_section_title
;
Structure prediction by ZEFSAII (Michael W. Deem and Ramdas Pophale) SiO2 
 PCOD8175483
Probable space group: C M C 21
;
_chemical_formula_sum "Si O2"
_cell_formula_units_Z 64
_cell_length_a 19.753032
_cell_length_b 8.636965
_cell_length_c 16.631375
_cell_angle_alpha 90.000000
_cell_angle_beta 90.000000
_cell_angle_gamma 90.000000
_cell_volume 2837.416455
_symmetry_space_group_name_H-M "C M C 21"
_symmetry_group_IT_number 36
_symmetry_cell_setting 'orthorhombic'
loop_
_space_group_symop_operation_xyz
x,y,z
-x,-y,1/2+z
x,-y,1/2+z
-x,y,z
1/2+x,1/2+y,z
1/2-x,1/2-y,1/2+z
1/2+x,1/2-y,1/2+z
1/2-x,1/2+y,z
loop_
_atom_site_type_symbol
_atom_site_label
_atom_site_fract_x
_atom_site_fract_y
_atom_site_fract_z
Si Si1 0.423278 0.638327 0.400640
Si Si2 0.072568 0.349901 0.974533
Si Si3 0.296394 0.078296 0.735568
Si Si4 0.298343 0.444652 0.387716
Si Si5 0.786352 0.660951 0.492826
Si Si6 0.794040 0.131764 0.138516
Si Si7 0.074345 0.463825 0.322186
Si Si8 0.074070 0.027040 0.054675
O O1 0.500000 0.595374 0.373529
O O2 0.369020 0.521623 0.359664
O O3 0.405366 0.813781 0.375935
O O4 0.416482 0.624668 0.498389
O O5 0.140770 0.420914 0.015758
O O6 0.074391 0.386911 0.879624
O O7 0.000000 0.413728 0.009726
O O8 0.076128 0.165590 0.989139
O O9 0.252821 0.048425 0.814380
O O10 0.303886 0.260037 0.716503
O O11 0.371587 0.011395 0.751014
O O12 0.262294 0.996754 0.658311
O O13 0.270167 0.538287 0.466650
O O14 0.304865 0.267453 0.415139
O O15 0.762257 0.767251 0.566345
O O16 0.866004 0.049225 0.119104
O O17 0.000000 0.441789 0.282917
O O18 0.000000 0.023066 0.098348
#
# Coordination Sequence:
#
# PCOD8175483 Si02
#       8
#     8   8   8   8   8   8   8   8
#     4  10  20  37  63  95 121 153 212 272 310 359
#     4   9  17  34  59  90 120 152 206 265 308 358
#     4  12  25  41  59  91 133 165 203 260 318 382
#     4  12  22  38  63  90 123 159 212 262 312 368
#     4  11  22  38  62  90 116 165 213 258 309 375
#     4  11  24  41  59  89 131 168 203 257 321 380
#     4  10  21  38  62  91 125 163 203 259 320 375
#     4   9  19  39  65  90 119 161 212 261 310 371
#
# _framework density 22.555731000000002
#
# number of rings (size 3 to 8) (size 9 to 14) (size 15 to 20)
#    0.000    1.500    3.750    3.000    0.000    0.500 
#    0.000    0.625    0.000    1.500    0.000    0.000 
#    0.000    0.000    0.000    0.000    0.000    0.000 
#
# Total GULP energy -396493.969164 kJ/mol
# GULP energy per Si atom -12390.436536 kJ/mol
# Density = 2.250439 g / cm^3
# Si number density = 22.555731 Si / 1000 Ang^3
#
#
#
# Elastic Constant Matrix: (Units=GPa)
#
#
# Indices 1 2 3 4 5 6 
#
# 1 170.7159 42.8817 46.3915 0.0000 0.0000 0.0000
# 2 42.8817 54.5215 20.4162 0.0000 0.0000 0.0000
# 3 46.3915 20.4162 58.5780 0.0000 0.0000 0.0000
# 4 0.0000 0.0000 0.0000 37.8292 0.0000 0.0000
# 5 0.0000 0.0000 0.0000 0.0000 37.1662 0.0000
# 6 0.0000 0.0000 0.0000 0.0000 0.0000 26.5913
#
#
#
# Elastic Compliance Matrix: (Units=1/GPa)
#
#
# Indices 1 2 3 4 5 6 
#
# 1 0.008409 -0.004738 -0.005008 0.000000 0.000000 0.000000
# 2 -0.004738 0.023764 -0.004530 0.000000 0.000000 0.000000
# 3 -0.005008 -0.004530 0.022616 0.000000 0.000000 0.000000
# 4 0.000000 0.000000 0.000000 0.026435 0.000000 0.000000
# 5 0.000000 0.000000 0.000000 0.000000 0.026906 0.000000
# 6 0.000000 0.000000 0.000000 0.000000 0.000000 0.037606
#
#
# Mechanical properties :
#
#
# Convention : Reuss Voigt Hill
#
# Bulk Modulus (GPa) = 38.11446 55.91047 47.01246
# Shear Modulus (GPa) = 27.31719 31.92574 29.62146
#
# Velocity S-wave (km/s) = 3.48386 3.76628 3.62782
# Velocity P-wave (km/s) = 5.75479 6.61473 6.19969
#
# Compressibility (1/GPa) = 0.02623676
#
# Stress axis : x y z
#
# Youngs Moduli (GPa) = 118.92306 42.07969 44.21592
#
# Poissons Ratio (x) = 0.19939 0.22143
# Poissons Ratio (y) = 0.56349 0.20030
# Poissons Ratio (z) = 0.59557 0.19062
#
# Static dielectric constant tensor:
#      x y z
#    x 4.643680 0.000000 0.000000 
#    y 0.000000 4.017530 0.000000 
#    z 0.000000 0.000000 3.661570 
# 
# 
# High freq. dielectric constant tensor:
#      x y z
#    x 1.917590 0.000000 0.000000 
#    y 0.000000 1.874520 0.000000 
#    z 0.000000 0.000000 1.847750 
# 
# From -- ./inp_files/15050.got.cif
#   From: 2010.03.12/outbox.cif.g09.slc.cpg/sg36_8_cif.got.tgz:15050.got - 2010.04.14 02:13:53.
