data_PCOD8175061
_publ_section_title
;
Structure prediction by ZEFSAII (Michael W. Deem and Ramdas Pophale) SiO2 
 PCOD8175061
Probable space group: C M C 21
;
_chemical_formula_sum "Si O2"
_cell_formula_units_Z 56
_cell_length_a 22.959123
_cell_length_b 24.367405
_cell_length_c 4.936153
_cell_angle_alpha 90.000000
_cell_angle_beta 90.000000
_cell_angle_gamma 90.000000
_cell_volume 2761.551768
_symmetry_space_group_name_H-M "C M C 21"
_symmetry_group_IT_number 36
_symmetry_cell_setting 'orthorhombic'
loop_
_space_group_symop_operation_xyz
x,y,z
-x,-y,1/2+z
x,-y,1/2+z
-x,y,z
1/2+x,1/2+y,z
1/2-x,1/2-y,1/2+z
1/2+x,1/2-y,1/2+z
1/2-x,1/2+y,z
loop_
_atom_site_type_symbol
_atom_site_label
_atom_site_fract_x
_atom_site_fract_y
_atom_site_fract_z
Si Si1 0.767163 0.964731 0.820140
Si Si2 0.713725 0.878642 0.177934
Si Si3 0.339204 0.655742 0.830985
Si Si4 0.000000 0.962870 0.938514
Si Si5 0.873728 0.538736 0.915717
Si Si6 0.211994 0.740003 0.526568
Si Si7 0.000000 0.465594 0.312376
Si Si8 0.118418 0.097634 0.333603
O O1 0.835146 0.951523 0.866002
O O2 0.752610 0.982401 0.511899
O O3 0.727770 0.913356 0.906694
O O4 0.772953 0.867239 0.347787
O O5 0.668578 0.909933 0.370156
O O6 0.686358 0.820688 0.081129
O O7 0.338415 0.720107 0.909987
O O8 0.366316 0.647814 0.534764
O O9 0.379568 0.621200 0.031899
O O10 0.944683 0.925171 0.890805
O O11 0.000000 0.015628 0.744613
O O12 0.863033 0.487770 0.710240
O O13 0.939281 0.564408 0.888135
O O14 0.236229 0.765579 0.806440
O O15 0.000000 0.521669 0.492431
#
# Coordination Sequence:
#
# PCOD8175061 Si02
#       8
#     8   8   8   4   8   8   4   8
#     4  11  20  31  46  72 108 139 163 203 261 320
#     4  10  21  33  53  80 107 138 175 217 266 320
#     4  10  21  37  55  78 107 141 178 226 282 327
#     4  12  24  40  60  86 112 148 198 238 272 336
#     4  10  20  33  50  76 105 139 174 209 252 313
#     4  10  20  35  54  77 106 139 178 220 267 328
#     4   8  16  32  50  66  96 134 168 198 234 282
#     4  11  22  38  57  77 107 146 183 225 275 324
#
# _framework density 20.278451
#
# number of rings (size 3 to 8) (size 9 to 14) (size 15 to 20)
#    0.000    1.714    0.000    6.857    0.000    5.714 
#    0.000    0.000    0.000    1.714    0.000    2.000 
#    0.000    0.000    0.000    0.000    0.000    0.000 
#
# Total GULP energy -347199.095933 kJ/mol
# GULP energy per Si atom -12399.967712 kJ/mol
# Density = 2.023230 g / cm^3
# Si number density = 20.278451 Si / 1000 Ang^3
#
#
#
# Elastic Constant Matrix: (Units=GPa)
#
#
# Indices 1 2 3 4 5 6 
#
# 1 79.8242 29.4376 1.1226 0.0000 0.0000 0.0000
# 2 29.4376 104.9874 13.3675 0.0000 0.0000 0.0000
# 3 1.1226 13.3675 78.2134 0.0000 0.0000 0.0000
# 4 0.0000 0.0000 0.0000 27.4895 0.0000 0.0000
# 5 0.0000 0.0000 0.0000 0.0000 17.8708 0.0000
# 6 0.0000 0.0000 0.0000 0.0000 0.0000 22.8980
#
#
#
# Elastic Compliance Matrix: (Units=1/GPa)
#
#
# Indices 1 2 3 4 5 6 
#
# 1 0.013990 -0.003984 0.000480 0.000000 0.000000 0.000000
# 2 -0.003984 0.010871 -0.001801 0.000000 0.000000 0.000000
# 3 0.000480 -0.001801 0.013086 0.000000 0.000000 0.000000
# 4 0.000000 0.000000 0.000000 0.036377 0.000000 0.000000
# 5 0.000000 0.000000 0.000000 0.000000 0.055957 0.000000
# 6 0.000000 0.000000 0.000000 0.000000 0.000000 0.043672
#
#
# Mechanical properties :
#
#
# Convention : Reuss Voigt Hill
#
# Bulk Modulus (GPa) = 36.57842 38.98669 37.78256
# Shear Modulus (GPa) = 25.81632 28.25817 27.03724
#
# Velocity S-wave (km/s) = 3.57191 3.73702 3.65540
# Velocity P-wave (km/s) = 5.92357 6.15531 6.04055
#
# Compressibility (1/GPa) = 0.02733852
#
# Stress axis : x y z
#
# Youngs Moduli (GPa) = 71.48002 91.98563 76.41508
#
# Poissons Ratio (x) = 0.36645 -0.03668
# Poissons Ratio (y) = 0.28476 0.13761
# Poissons Ratio (z) = -0.03432 0.16565
#
# Static dielectric constant tensor:
#      x y z
#    x 3.680080 0.000000 0.000000 
#    y 0.000000 3.607640 0.000000 
#    z 0.000000 0.000000 3.854990 
# 
# 
# High freq. dielectric constant tensor:
#      x y z
#    x 1.766210 0.000000 0.000000 
#    y 0.000000 1.769780 0.000000 
#    z 0.000000 0.000000 1.816290 
# 
# From -- ./inp_files/1655.got.cif
#   From: 2010.03.12/outbox.cif.g09.slc.cpg/sg36_1_cif.got.tgz:1655.got - 2010.04.14 02:13:53.
