data_PCOD8175998
_publ_section_title
;
Structure prediction by ZEFSAII (Michael W. Deem and Ramdas Pophale) SiO2 
 PCOD8175998
Probable space group: C M C 21
;
_chemical_formula_sum "Si O2"
_cell_formula_units_Z 48
_cell_length_a 9.965938
_cell_length_b 31.044934
_cell_length_c 7.764131
_cell_angle_alpha 90.000000
_cell_angle_beta 90.000000
_cell_angle_gamma 90.000000
_cell_volume 2402.159145
_symmetry_space_group_name_H-M "C M C 21"
_symmetry_group_IT_number 36
_symmetry_cell_setting 'orthorhombic'
loop_
_space_group_symop_operation_xyz
x,y,z
-x,-y,1/2+z
x,-y,1/2+z
-x,y,z
1/2+x,1/2+y,z
1/2-x,1/2-y,1/2+z
1/2+x,1/2-y,1/2+z
1/2-x,1/2+y,z
loop_
_atom_site_type_symbol
_atom_site_label
_atom_site_fract_x
_atom_site_fract_y
_atom_site_fract_z
Si Si1 0.000000 0.613573 0.807200
Si Si2 0.500000 0.805732 0.511822
Si Si3 0.655195 0.468128 0.936408
Si Si4 0.000000 0.236648 0.233689
Si Si5 0.738250 0.443638 0.315137
Si Si6 0.227284 0.685190 0.248488
Si Si7 0.350969 0.400406 0.645716
Si Si8 0.000000 0.313614 0.016505
O O1 0.877399 0.580816 0.797341
O O2 0.000000 0.649419 0.659517
O O3 0.000000 0.642237 0.982067
O O4 0.500000 0.780629 0.337379
O O5 0.368012 0.789988 0.614429
O O6 0.500000 0.482656 0.917666
O O7 0.751210 0.509215 0.903533
O O8 0.695218 0.435643 0.784802
O O9 0.674401 0.447259 0.124859
O O10 0.867305 0.209640 0.276073
O O11 0.000000 0.261256 0.050881
O O12 0.647567 0.416628 0.448447
O O13 0.252323 0.639218 0.163529
O O14 0.141012 0.678313 0.420325
O O15 0.500000 0.384702 0.691939
#
# Coordination Sequence:
#
# PCOD8175998 Si02
#       8
#     4   4   8   4   8   8   8   4
#     4  11  24  42  60  87 128 167 213 253 311 393
#     4  10  22  40  62  88 128 164 197 256 329 375
#     4  11  23  40  63  92 128 165 215 280 325 366
#     4  11  22  40  68  98 123 162 219 261 311 402
#     4  12  23  40  62  91 124 173 217 259 326 386
#     4  11  21  41  66  93 127 170 209 263 325 387
#     4  11  22  39  66  94 127 166 222 273 320 379
#     4  10  24  42  66  93 135 173 203 266 333 382
#
# _framework density 19.982023000000002
#
# number of rings (size 3 to 8) (size 9 to 14) (size 15 to 20)
#    0.000    1.000    4.167    3.500    0.000    0.667 
#    0.000    1.667    0.000    0.000    0.000    0.000 
#    0.000    0.000    0.000    0.000    0.000    0.000 
#
# Total GULP energy -297372.212366 kJ/mol
# GULP energy per Si atom -12390.508849 kJ/mol
# Density = 1.993654 g / cm^3
# Si number density = 19.982023 Si / 1000 Ang^3
#
#
#
# Elastic Constant Matrix: (Units=GPa)
#
#
# Indices 1 2 3 4 5 6 
#
# 1 114.5924 61.6548 33.7864 0.0000 0.0000 0.0000
# 2 61.6548 103.1260 39.8001 0.0000 0.0000 0.0000
# 3 33.7864 39.8001 109.7551 0.0000 0.0000 0.0000
# 4 0.0000 0.0000 0.0000 33.5269 0.0000 0.0000
# 5 0.0000 0.0000 0.0000 0.0000 30.6485 0.0000
# 6 0.0000 0.0000 0.0000 0.0000 0.0000 60.0352
#
#
#
# Elastic Compliance Matrix: (Units=1/GPa)
#
#
# Indices 1 2 3 4 5 6 
#
# 1 0.013042 -0.007265 -0.001381 0.000000 0.000000 0.000000
# 2 -0.007265 0.015321 -0.003320 0.000000 0.000000 0.000000
# 3 -0.001381 -0.003320 0.010740 0.000000 0.000000 0.000000
# 4 0.000000 0.000000 0.000000 0.029827 0.000000 0.000000
# 5 0.000000 0.000000 0.000000 0.000000 0.032628 0.000000
# 6 0.000000 0.000000 0.000000 0.000000 0.000000 0.016657
#
#
# Mechanical properties :
#
#
# Convention : Reuss Voigt Hill
#
# Bulk Modulus (GPa) = 65.90232 66.43959 66.17095
# Shear Modulus (GPa) = 33.96677 37.65758 35.81217
#
# Velocity S-wave (km/s) = 4.12742 4.34588 4.23805
# Velocity P-wave (km/s) = 7.46770 7.64879 7.55879
#
# Compressibility (1/GPa) = 0.01517397
#
# Stress axis : x y z
#
# Youngs Moduli (GPa) = 76.67383 65.26873 93.11043
#
# Poissons Ratio (x) = 0.47415 0.12854
# Poissons Ratio (y) = 0.55701 0.30909
# Poissons Ratio (z) = 0.10585 0.21667
#
# Static dielectric constant tensor:
#      x y z
#    x 3.574830 0.000000 0.000000 
#    y 0.000000 3.637790 0.000000 
#    z 0.000000 0.000000 3.776130 
# 
# 
# High freq. dielectric constant tensor:
#      x y z
#    x 1.778750 0.000000 0.000000 
#    y 0.000000 1.782900 0.000000 
#    z 0.000000 0.000000 1.789740 
# 
# From -- ./inp_files/2783.got.cif
#   From: 2010.03.12/outbox.cif.g09.slc.cpg/sg36_2_cif.got.tgz:2783.got - 2010.04.14 02:13:53.
