data_PCOD8175635
_publ_section_title
;
Structure prediction by ZEFSAII (Michael W. Deem and Ramdas Pophale) SiO2 
 PCOD8175635
Probable space group: C M C 21
;
_chemical_formula_sum "Si O2"
_cell_formula_units_Z 64
_cell_length_a 15.528862
_cell_length_b 22.906476
_cell_length_c 8.837509
_cell_angle_alpha 90.000000
_cell_angle_beta 90.000000
_cell_angle_gamma 90.000000
_cell_volume 3143.603624
_symmetry_space_group_name_H-M "C M C 21"
_symmetry_group_IT_number 36
_symmetry_cell_setting 'orthorhombic'
loop_
_space_group_symop_operation_xyz
x,y,z
-x,-y,1/2+z
x,-y,1/2+z
-x,y,z
1/2+x,1/2+y,z
1/2-x,1/2-y,1/2+z
1/2+x,1/2-y,1/2+z
1/2-x,1/2+y,z
loop_
_atom_site_type_symbol
_atom_site_label
_atom_site_fract_x
_atom_site_fract_y
_atom_site_fract_z
Si Si1 0.733009 0.441800 0.991620
Si Si2 0.774180 0.684188 0.004791
Si Si3 0.153231 0.863525 0.743964
Si Si4 0.833695 0.131621 0.750660
Si Si5 0.094489 0.418457 0.543937
Si Si6 0.093811 0.788257 0.001880
Si Si7 0.095530 0.522684 0.354812
Si Si8 0.096812 0.048088 0.996900
O O1 0.715640 0.397165 0.856933
O O2 0.833044 0.455486 0.972279
O O3 0.726371 0.410863 0.152922
O O4 0.669118 0.497817 0.989273
O O5 0.704472 0.682687 0.139041
O O6 0.836513 0.631307 0.040129
O O7 0.826711 0.743869 0.000888
O O8 0.726861 0.675446 0.845088
O O9 0.104158 0.912849 0.647677
O O10 0.089557 0.824692 0.845698
O O11 0.896126 0.168824 0.644089
O O12 0.892594 0.091302 0.855985
O O13 0.095160 0.452899 0.384400
O O14 0.118170 0.462875 0.681462
O O15 0.000000 0.391042 0.571908
O O16 0.000000 0.757386 0.017444
O O17 0.000000 0.547620 0.397506
O O18 0.000000 0.020895 0.992372
#
# Coordination Sequence:
#
# PCOD8175635 Si02
#       8
#     8   8   8   8   8   8   8   8
#     4  11  22  37  59  89 121 165 198 246 299 368
#     4  11  21  41  62  87 113 158 203 249 297 365
#     4  10  22  39  60  87 121 155 202 251 307 356
#     4  10  24  39  60  87 123 156 202 251 307 359
#     4  10  21  35  57  86 119 155 197 245 299 362
#     4  11  23  41  64  86 115 155 204 258 308 358
#     4  10  21  36  56  85 122 158 194 244 305 364
#     4  11  23  38  61  91 126 164 204 248 300 368
#
# _framework density 20.358799999999999
#
# number of rings (size 3 to 8) (size 9 to 14) (size 15 to 20)
#    0.000    1.500    1.250    4.125    3.500    4.000 
#    0.000    0.625    0.000    0.000    0.000    0.000 
#    0.000    0.000    0.000    0.000    0.000    0.000 
#
# Total GULP energy -396620.804659 kJ/mol
# GULP energy per Si atom -12394.400146 kJ/mol
# Density = 2.031246 g / cm^3
# Si number density = 20.358800 Si / 1000 Ang^3
#
#
#
# Elastic Constant Matrix: (Units=GPa)
#
#
# Indices 1 2 3 4 5 6 
#
# 1 107.2708 24.6138 31.6098 0.0000 0.0000 0.0000
# 2 24.6138 70.9628 31.5373 0.0000 0.0000 0.0000
# 3 31.6098 31.5373 112.0265 0.0000 0.0000 0.0000
# 4 0.0000 0.0000 0.0000 14.4945 0.0000 0.0000
# 5 0.0000 0.0000 0.0000 0.0000 5.5057 0.0000
# 6 0.0000 0.0000 0.0000 0.0000 0.0000 103.9334
#
#
#
# Elastic Compliance Matrix: (Units=1/GPa)
#
#
# Indices 1 2 3 4 5 6 
#
# 1 0.010596 -0.002682 -0.002235 0.000000 0.000000 0.000000
# 2 -0.002682 0.016786 -0.003969 0.000000 0.000000 0.000000
# 3 -0.002235 -0.003969 0.010674 0.000000 0.000000 0.000000
# 4 0.000000 0.000000 0.000000 0.068992 0.000000 0.000000
# 5 0.000000 0.000000 0.000000 0.000000 0.181628 0.000000
# 6 0.000000 0.000000 0.000000 0.000000 0.000000 0.009622
#
#
# Mechanical properties :
#
#
# Convention : Reuss Voigt Hill
#
# Bulk Modulus (GPa) = 49.29721 51.75356 50.52538
# Shear Modulus (GPa) = 15.48799 38.28668 26.88733
#
# Velocity S-wave (km/s) = 2.76116 4.34129 3.63805
# Velocity P-wave (km/s) = 5.86789 7.11372 6.52063
#
# Compressibility (1/GPa) = 0.02028512
#
# Stress axis : x y z
#
# Youngs Moduli (GPa) = 94.37375 59.57348 93.68303
#
# Poissons Ratio (x) = 0.15979 0.20936
# Poissons Ratio (y) = 0.25313 0.37180
# Poissons Ratio (z) = 0.21090 0.23643
#
# Static dielectric constant tensor:
#      x y z
#    x 3.790910 0.000000 0.000000 
#    y 0.000000 3.558480 0.000000 
#    z 0.000000 0.000000 4.014070 
# 
# 
# High freq. dielectric constant tensor:
#      x y z
#    x 1.804670 0.000000 0.000000 
#    y 0.000000 1.776020 0.000000 
#    z 0.000000 0.000000 1.808850 
# 
# From -- ./inp_files/4324.got.cif
#   From: 2010.03.12/outbox.cif.g09.slc.cpg/sg36_3_cif.got.tgz:4324.got - 2010.04.14 02:13:53.
