data_PCOD8175459
_publ_section_title
;
Structure prediction by ZEFSAII (Michael W. Deem and Ramdas Pophale) SiO2 
 PCOD8175459
Probable space group: C M C 21
;
_chemical_formula_sum "Si O2"
_cell_formula_units_Z 64
_cell_length_a 9.123118
_cell_length_b 22.728115
_cell_length_c 16.088215
_cell_angle_alpha 90.000000
_cell_angle_beta 90.000000
_cell_angle_gamma 90.000000
_cell_volume 3335.911894
_symmetry_space_group_name_H-M "C M C 21"
_symmetry_group_IT_number 36
_symmetry_cell_setting 'orthorhombic'
loop_
_space_group_symop_operation_xyz
x,y,z
-x,-y,1/2+z
x,-y,1/2+z
-x,y,z
1/2+x,1/2+y,z
1/2-x,1/2-y,1/2+z
1/2+x,1/2-y,1/2+z
1/2-x,1/2+y,z
loop_
_atom_site_type_symbol
_atom_site_label
_atom_site_fract_x
_atom_site_fract_y
_atom_site_fract_z
Si Si1 0.672689 0.910087 0.840900
Si Si2 0.327610 0.862729 0.013916
Si Si3 0.172814 0.719776 0.656518
Si Si4 0.826466 0.341252 0.675179
Si Si5 0.829618 0.071000 0.069988
Si Si6 0.828690 0.031524 0.885786
Si Si7 0.338110 0.967648 0.120420
Si Si8 0.660345 0.113321 0.773832
O O1 0.500000 0.922358 0.840551
O O2 0.713675 0.864381 0.916311
O O3 0.723528 0.878286 0.756464
O O4 0.749418 0.972876 0.853319
O O5 0.500000 0.865500 0.030104
O O6 0.273555 0.805200 0.065570
O O7 0.264344 0.922336 0.054954
O O8 0.266441 0.775731 0.681975
O O9 0.211496 0.672497 0.727811
O O10 0.000000 0.734554 0.655142
O O11 0.756055 0.369163 0.592021
O O12 0.000000 0.339762 0.666994
O O13 0.000000 0.083442 0.081242
O O14 0.771675 0.021923 0.134043
O O15 0.788254 0.045030 0.980645
O O16 0.778845 0.091515 0.840208
O O17 0.000000 0.022299 0.872194
O O18 0.500000 0.989623 0.090543
O O19 0.355849 0.938822 0.208933
O O20 0.500000 0.123206 0.815625
#
# Coordination Sequence:
#
# PCOD8175459 Si02
#       8
#     8   8   8   8   8   8   8   8
#     4  10  20  37  61  86 113 147 188 234 286 345
#     4   8  15  32  60  85 106 142 185 226 274 334
#     4   9  19  39  62  82 110 148 191 232 279 337
#     4  11  24  39  57  84 115 152 195 235 282 339
#     4  11  23  37  53  78 115 153 186 228 283 335
#     4  11  23  36  54  86 119 147 185 233 286 338
#     4   9  16  31  57  84 108 139 181 223 274 338
#     4   9  19  35  58  85 110 144 185 225 278 342
#
# _framework density 19.18516
#
# number of rings (size 3 to 8) (size 9 to 14) (size 15 to 20)
#    0.000    2.250    1.250    3.375    0.000    6.500 
#    2.250    2.500    0.000    0.000    0.000    0.000 
#    0.000    0.000    0.000    0.000    0.000    0.000 
#
# Total GULP energy -396606.947982 kJ/mol
# GULP energy per Si atom -12393.967124 kJ/mol
# Density = 1.914149 g / cm^3
# Si number density = 19.185160 Si / 1000 Ang^3
#
#
#
# Elastic Constant Matrix: (Units=GPa)
#
#
# Indices 1 2 3 4 5 6 
#
# 1 71.0561 57.6154 47.4954 0.0000 0.0000 0.0000
# 2 57.6154 130.5262 55.4076 0.0000 0.0000 0.0000
# 3 47.4954 55.4076 72.0974 0.0000 0.0000 0.0000
# 4 0.0000 0.0000 0.0000 27.6101 0.0000 0.0000
# 5 0.0000 0.0000 0.0000 0.0000 22.3618 0.0000
# 6 0.0000 0.0000 0.0000 0.0000 0.0000 33.2987
#
#
#
# Elastic Compliance Matrix: (Units=1/GPa)
#
#
# Indices 1 2 3 4 5 6 
#
# 1 0.028820 -0.006919 -0.013668 0.000000 0.000000 0.000000
# 2 -0.006919 0.013032 -0.005457 0.000000 0.000000 0.000000
# 3 -0.013668 -0.005457 0.027068 0.000000 0.000000 0.000000
# 4 0.000000 0.000000 0.000000 0.036219 0.000000 0.000000
# 5 0.000000 0.000000 0.000000 0.000000 0.044719 0.000000
# 6 0.000000 0.000000 0.000000 0.000000 0.000000 0.030031
#
#
# Mechanical properties :
#
#
# Convention : Reuss Voigt Hill
#
# Bulk Modulus (GPa) = 59.41377 66.07963 62.74670
# Shear Modulus (GPa) = 21.04484 24.19820 22.62152
#
# Velocity S-wave (km/s) = 3.31559 3.55533 3.43755
# Velocity P-wave (km/s) = 6.75969 7.16740 6.96653
#
# Compressibility (1/GPa) = 0.01683112
#
# Stress axis : x y z
#
# Youngs Moduli (GPa) = 34.69824 76.73399 36.94414
#
# Poissons Ratio (x) = 0.53095 0.50495
# Poissons Ratio (y) = 0.24009 0.20160
# Poissons Ratio (z) = 0.47425 0.41874
#
# Static dielectric constant tensor:
#      x y z
#    x 3.336910 0.000000 0.000000 
#    y 0.000000 3.441840 0.000000 
#    z 0.000000 0.000000 3.661920 
# 
# 
# High freq. dielectric constant tensor:
#      x y z
#    x 1.729160 0.000000 0.000000 
#    y 0.000000 1.740020 0.000000 
#    z 0.000000 0.000000 1.746260 
# 
# From -- ./inp_files/11069.got.cif
#   From: 2010.03.12/outbox.cif.g09.slc.cpg/sg36_6_cif.got.tgz:11069.got - 2010.04.14 02:13:53.
