data_PCOD8175777
_publ_section_title
;
Structure prediction by ZEFSAII (Michael W. Deem and Ramdas Pophale) SiO2 
 PCOD8175777
Probable space group: C M C 21
;
_chemical_formula_sum "Si O2"
_cell_formula_units_Z 64
_cell_length_a 8.663460
_cell_length_b 15.171002
_cell_length_c 23.543483
_cell_angle_alpha 90.000000
_cell_angle_beta 90.000000
_cell_angle_gamma 90.000000
_cell_volume 3094.399288
_symmetry_space_group_name_H-M "C M C 21"
_symmetry_group_IT_number 36
_symmetry_cell_setting 'orthorhombic'
loop_
_space_group_symop_operation_xyz
x,y,z
-x,-y,1/2+z
x,-y,1/2+z
-x,y,z
1/2+x,1/2+y,z
1/2-x,1/2-y,1/2+z
1/2+x,1/2-y,1/2+z
1/2-x,1/2+y,z
loop_
_atom_site_type_symbol
_atom_site_label
_atom_site_fract_x
_atom_site_fract_y
_atom_site_fract_z
Si Si1 0.178552 0.745902 0.025280
Si Si2 0.681836 0.090982 0.947878
Si Si3 0.820078 0.366896 0.319076
Si Si4 0.178606 0.698154 0.269846
Si Si5 0.682765 0.443120 0.018463
Si Si6 0.180745 0.020891 0.248583
Si Si7 0.319936 0.961515 0.137212
Si Si8 0.676560 0.722633 0.650202
O O1 0.206185 0.723559 0.091857
O O2 0.000000 0.747563 0.009477
O O3 0.254068 0.669928 0.986404
O O4 0.246298 0.843049 0.010984
O O5 0.500000 0.080437 0.957552
O O6 0.724036 0.110307 0.883235
O O7 0.764144 0.999806 0.964605
O O8 0.775036 0.265838 0.308025
O O9 0.722739 0.428043 0.277058
O O10 0.000000 0.381387 0.306892
O O11 0.236970 0.599746 0.283229
O O12 0.209369 0.714631 0.203117
O O13 0.000000 0.706918 0.286048
O O14 0.500000 0.442924 0.024916
O O15 0.754916 0.485467 0.075270
O O16 0.236928 0.022683 0.183570
O O17 0.000000 0.035988 0.251013
O O18 0.500000 0.982702 0.138977
O O19 0.290543 0.859884 0.153072
O O20 0.500000 0.686626 0.650850
#
# Coordination Sequence:
#
# PCOD8175777 Si02
#       8
#     8   8   8   8   8   8   8   8
#     4   8  17  36  59  85 119 157 194 239 300 363
#     4  10  22  40  64  90 119 161 209 255 305 369
#     4  11  24  43  63  90 127 167 213 262 311 372
#     4  11  23  39  63  94 124 162 206 257 317 377
#     4  10  21  38  60  90 125 162 204 250 308 374
#     4  12  25  41  62  90 124 165 213 262 316 375
#     4  11  21  36  61  90 126 164 204 256 315 371
#     4   9  18  35  60  89 124 160 197 245 310 377
#
# _framework density 20.682527
#
# number of rings (size 3 to 8) (size 9 to 14) (size 15 to 20)
#    0.000    1.750    1.250    4.125    1.750    2.500 
#    0.000    4.375    0.000    0.000    0.000    0.000 
#    0.000    0.000    0.000    0.000    0.000    0.000 
#
# Total GULP energy -396901.279218 kJ/mol
# GULP energy per Si atom -12403.164976 kJ/mol
# Density = 2.063545 g / cm^3
# Si number density = 20.682527 Si / 1000 Ang^3
#
#
#
# Elastic Constant Matrix: (Units=GPa)
#
#
# Indices 1 2 3 4 5 6 
#
# 1 70.9844 8.3665 26.6785 0.0000 0.0000 0.0000
# 2 8.3665 58.4508 7.0951 0.0000 0.0000 0.0000
# 3 26.6785 7.0951 71.9491 0.0000 0.0000 0.0000
# 4 0.0000 0.0000 0.0000 30.3683 0.0000 0.0000
# 5 0.0000 0.0000 0.0000 0.0000 26.0582 0.0000
# 6 0.0000 0.0000 0.0000 0.0000 0.0000 32.0594
#
#
#
# Elastic Compliance Matrix: (Units=1/GPa)
#
#
# Indices 1 2 3 4 5 6 
#
# 1 0.016523 -0.001641 -0.005965 0.000000 0.000000 0.000000
# 2 -0.001641 0.017479 -0.001115 0.000000 0.000000 0.000000
# 3 -0.005965 -0.001115 0.016220 0.000000 0.000000 0.000000
# 4 0.000000 0.000000 0.000000 0.032929 0.000000 0.000000
# 5 0.000000 0.000000 0.000000 0.000000 0.038376 0.000000
# 6 0.000000 0.000000 0.000000 0.000000 0.000000 0.031192
#
#
# Mechanical properties :
#
#
# Convention : Reuss Voigt Hill
#
# Bulk Modulus (GPa) = 30.50636 31.74048 31.12342
# Shear Modulus (GPa) = 27.61101 28.31346 27.96224
#
# Velocity S-wave (km/s) = 3.65772 3.70395 3.68091
# Velocity P-wave (km/s) = 5.71143 5.80278 5.75728
#
# Compressibility (1/GPa) = 0.03278005
#
# Stress axis : x y z
#
# Youngs Moduli (GPa) = 60.52247 57.21260 61.65079
#
# Poissons Ratio (x) = 0.09389 0.36773
# Poissons Ratio (y) = 0.09932 0.06875
# Poissons Ratio (z) = 0.36100 0.06380
#
# Static dielectric constant tensor:
#      x y z
#    x 3.537060 0.000000 0.000000 
#    y 0.000000 3.782140 0.000000 
#    z 0.000000 0.000000 3.764240 
# 
# 
# High freq. dielectric constant tensor:
#      x y z
#    x 1.796550 0.000000 0.000000 
#    y 0.000000 1.811590 0.000000 
#    z 0.000000 0.000000 1.806220 
# 
# From -- ./inp_files/16571.got.cif
#   From: 2010.03.12/outbox.cif.g09.slc.cpg/sg36_9_cif.got.tgz:16571.got - 2010.04.14 02:13:53.
