data_PCOD8175071
_publ_section_title
;
Structure prediction by ZEFSAII (Michael W. Deem and Ramdas Pophale) SiO2 
 PCOD8175071
Probable space group: C M C 21
;
_chemical_formula_sum "Si O2"
_cell_formula_units_Z 64
_cell_length_a 9.407895
_cell_length_b 15.620267
_cell_length_c 23.823849
_cell_angle_alpha 90.000000
_cell_angle_beta 90.000000
_cell_angle_gamma 90.000000
_cell_volume 3501.005899
_symmetry_space_group_name_H-M "C M C 21"
_symmetry_group_IT_number 36
_symmetry_cell_setting 'orthorhombic'
loop_
_space_group_symop_operation_xyz
x,y,z
-x,-y,1/2+z
x,-y,1/2+z
-x,y,z
1/2+x,1/2+y,z
1/2-x,1/2-y,1/2+z
1/2+x,1/2-y,1/2+z
1/2-x,1/2+y,z
loop_
_atom_site_type_symbol
_atom_site_label
_atom_site_fract_x
_atom_site_fract_y
_atom_site_fract_z
Si Si1 0.833889 0.283433 0.925330
Si Si2 0.332017 0.543011 0.427071
Si Si3 0.331716 0.379033 0.494263
Si Si4 0.831690 0.038400 0.689005
Si Si5 0.341145 0.203277 0.299196
Si Si6 0.662956 0.275078 0.182046
Si Si7 0.169040 0.125965 0.122475
Si Si8 0.334355 0.460369 0.800798
O O1 0.749030 0.369313 0.941912
O O2 0.773029 0.204786 0.962095
O O3 0.806679 0.257077 0.860362
O O4 0.000000 0.299824 0.937521
O O5 0.500000 0.559528 0.434184
O O6 0.274822 0.467349 0.467062
O O7 0.293675 0.511973 0.363830
O O8 0.500000 0.379538 0.488672
O O9 0.280538 0.375330 0.558203
O O10 0.779975 0.130187 0.665428
O O11 0.782839 0.028567 0.754146
O O12 0.000000 0.037253 0.685801
O O13 0.772081 0.961018 0.650970
O O14 0.500000 0.164588 0.300619
O O15 0.326929 0.272905 0.249982
O O16 0.234447 0.128705 0.283726
O O17 0.500000 0.260035 0.162814
O O18 0.762492 0.207135 0.152273
O O19 0.000000 0.133966 0.127787
O O20 0.500000 0.444219 0.795500
#
# Coordination Sequence:
#
# PCOD8175071 Si02
#       8
#     8   8   8   8   8   8   8   8
#     4   9  18  33  51  74 103 134 165 203 251 302
#     4   9  18  32  52  78 103 129 167 210 247 292
#     4   9  19  34  54  75  98 135 175 205 243 303
#     4   9  18  31  50  74  99 131 166 203 248 296
#     4   9  17  29  49  74 104 131 159 204 254 298
#     4  10  20  33  51  77 102 131 169 209 254 300
#     4  10  20  37  54  71 101 137 171 208 250 298
#     4   9  16  29  51  75 102 132 164 202 247 297
#
# _framework density 18.280460000000001
#
# number of rings (size 3 to 8) (size 9 to 14) (size 15 to 20)
#    0.000    2.750    1.250    0.000    1.750    1.000 
#    0.000    4.375    0.000    0.000    0.000    0.000 
#    0.000    0.000    0.000    0.000    0.000    0.000 
#
# Total GULP energy -396621.127965 kJ/mol
# GULP energy per Si atom -12394.410249 kJ/mol
# Density = 1.823885 g / cm^3
# Si number density = 18.280460 Si / 1000 Ang^3
#
#
#
# Elastic Constant Matrix: (Units=GPa)
#
#
# Indices 1 2 3 4 5 6 
#
# 1 25.2574 31.3845 28.6726 0.0000 0.0000 0.0000
# 2 31.3845 155.5223 83.1487 0.0000 0.0000 0.0000
# 3 28.6726 83.1487 120.6008 0.0000 0.0000 0.0000
# 4 0.0000 0.0000 0.0000 24.4581 0.0000 0.0000
# 5 0.0000 0.0000 0.0000 0.0000 17.1989 0.0000
# 6 0.0000 0.0000 0.0000 0.0000 0.0000 26.0340
#
#
#
# Elastic Compliance Matrix: (Units=1/GPa)
#
#
# Indices 1 2 3 4 5 6 
#
# 1 0.058595 -0.006931 -0.009152 0.000000 0.000000 0.000000
# 2 -0.006931 0.011004 -0.005939 0.000000 0.000000 0.000000
# 3 -0.009152 -0.005939 0.014562 0.000000 0.000000 0.000000
# 4 0.000000 0.000000 0.000000 0.040886 0.000000 0.000000
# 5 0.000000 0.000000 0.000000 0.000000 0.058143 0.000000
# 6 0.000000 0.000000 0.000000 0.000000 0.000000 0.038411
#
#
# Mechanical properties :
#
#
# Convention : Reuss Voigt Hill
#
# Bulk Modulus (GPa) = 24.92735 65.31024 45.11879
# Shear Modulus (GPa) = 17.92001 24.08317 21.00159
#
# Velocity S-wave (km/s) = 3.13434 3.63357 3.39315
# Velocity P-wave (km/s) = 5.17344 7.30809 6.33138
#
# Compressibility (1/GPa) = 0.04011659
#
# Stress axis : x y z
#
# Youngs Moduli (GPa) = 17.06639 90.87799 68.67155
#
# Poissons Ratio (x) = 0.62992 0.62847
# Poissons Ratio (y) = 0.11830 0.40782
# Poissons Ratio (z) = 0.15619 0.53969
#
# Static dielectric constant tensor:
#      x y z
#    x 3.087500 0.000000 0.000000 
#    y 0.000000 3.478000 0.000000 
#    z 0.000000 0.000000 3.593130 
# 
# 
# High freq. dielectric constant tensor:
#      x y z
#    x 1.673240 0.000000 0.000000 
#    y 0.000000 1.708700 0.000000 
#    z 0.000000 0.000000 1.714000 
# 
# From -- ./inp_files/16625.got.cif
#   From: 2010.03.12/outbox.cif.g09.slc.cpg/sg36_9_cif.got.tgz:16625.got - 2010.04.14 02:13:53.
