data_PCOD8175938
_publ_section_title
;
Structure prediction by ZEFSAII (Michael W. Deem and Ramdas Pophale) SiO2 
 PCOD8175938
Probable space group: C M C 21
;
_chemical_formula_sum "Si O2"
_cell_formula_units_Z 56
_cell_length_a 13.659013
_cell_length_b 21.269132
_cell_length_c 9.929771
_cell_angle_alpha 90.000000
_cell_angle_beta 90.000000
_cell_angle_gamma 90.000000
_cell_volume 2884.750902
_symmetry_space_group_name_H-M "C M C 21"
_symmetry_group_IT_number 36
_symmetry_cell_setting 'orthorhombic'
loop_
_space_group_symop_operation_xyz
x,y,z
-x,-y,1/2+z
x,-y,1/2+z
-x,y,z
1/2+x,1/2+y,z
1/2-x,1/2-y,1/2+z
1/2+x,1/2-y,1/2+z
1/2-x,1/2+y,z
loop_
_atom_site_type_symbol
_atom_site_label
_atom_site_fract_x
_atom_site_fract_y
_atom_site_fract_z
Si Si1 0.000000 0.950094 0.555351
Si Si2 0.613118 0.254795 0.067646
Si Si3 0.786153 0.920552 0.925535
Si Si4 0.383898 0.256139 0.757415
Si Si5 0.702224 0.568288 0.946307
Si Si6 0.753436 0.353060 0.186973
Si Si7 0.500000 0.569148 0.372241
Si Si8 0.271583 0.146027 0.175367
O O1 0.093988 0.914172 0.498851
O O2 0.000000 0.957021 0.718590
O O3 0.000000 0.018952 0.491764
O O4 0.500000 0.268521 0.073264
O O5 0.663781 0.307409 0.156965
O O6 0.634989 0.187741 0.136569
O O7 0.650445 0.257056 0.913384
O O8 0.714504 0.887368 0.819152
O O9 0.897937 0.892908 0.897873
O O10 0.786772 0.995439 0.907422
O O11 0.740628 0.904530 0.069334
O O12 0.500000 0.266737 0.738906
O O13 0.353368 0.187390 0.699594
O O14 0.326044 0.309870 0.674777
O O15 0.729938 0.610124 0.821072
O O16 0.770322 0.588921 0.069282
#
# Coordination Sequence:
#
# PCOD8175938 Si02
#       8
#     4   8   8   8   8   8   4   8
#     4  10  22  34  50  84 124 162 198 232 285 354
#     4  10  22  40  62  88 118 158 202 253 300 345
#     4  11  23  37  60  84 129 157 194 243 304 360
#     4  10  22  40  64  86 117 160 202 251 301 346
#     4  11  23  37  57  87 124 158 198 242 294 361
#     4  11  23  39  61  92 115 161 201 245 299 365
#     4  10  22  34  52  84 122 166 194 228 289 358
#     4  11  21  39  61  89 116 160 197 242 298 359
#
# _framework density 19.412420000000001
#
# number of rings (size 3 to 8) (size 9 to 14) (size 15 to 20)
#    0.000    1.429    4.286    0.857   10.000    0.000 
#    0.000    2.143    0.000    5.143    0.000    0.000 
#    0.000    0.000    0.000    0.000    0.000    0.000 
#
# Total GULP energy -347089.469564 kJ/mol
# GULP energy per Si atom -12396.052484 kJ/mol
# Density = 1.936824 g / cm^3
# Si number density = 19.412420 Si / 1000 Ang^3
#
#
#
# Elastic Constant Matrix: (Units=GPa)
#
#
# Indices 1 2 3 4 5 6 
#
# 1 30.2884 9.1490 10.2123 0.0000 0.0000 0.0000
# 2 9.1490 66.2717 5.7377 0.0000 0.0000 0.0000
# 3 10.2123 5.7377 88.1944 0.0000 0.0000 0.0000
# 4 0.0000 0.0000 0.0000 -428.4627 0.0000 0.0000
# 5 0.0000 0.0000 0.0000 0.0000 26.3130 0.0000
# 6 0.0000 0.0000 0.0000 0.0000 0.0000 25.9749
#
#
#
# Elastic Compliance Matrix: (Units=1/GPa)
#
#
# Indices 1 2 3 4 5 6 
#
# 1 0.035697 -0.004596 -0.003834 0.000000 0.000000 0.000000
# 2 -0.004596 0.015767 -0.000494 0.000000 0.000000 0.000000
# 3 -0.003834 -0.000494 0.011815 0.000000 0.000000 0.000000
# 4 0.000000 0.000000 0.000000 -0.002334 0.000000 0.000000
# 5 0.000000 0.000000 0.000000 0.000000 0.038004 0.000000
# 6 0.000000 0.000000 0.000000 0.000000 0.000000 0.038499
#
#
# Mechanical properties :
#
#
# Convention : Reuss Voigt Hill
#
# Bulk Modulus (GPa) = 22.01177 26.10584 24.05880
# Shear Modulus (GPa) = 29.33601 -64.59128 -17.62764
#
# Velocity S-wave (km/s) = 3.89163 -5.77455 -3.01667
# Velocity P-wave (km/s) = 5.61753 5.56627 0.53542
#
# Compressibility (1/GPa) = 0.04543023
#
# Stress axis : x y z
#
# Youngs Moduli (GPa) = 28.01343 63.42505 84.64026
#
# Poissons Ratio (x) = 0.29151 0.32455
# Poissons Ratio (y) = 0.12875 0.04177
# Poissons Ratio (z) = 0.10742 0.03130
#
# Static dielectric constant tensor:
#      x y z
#    x 3.528550 0.000000 0.000000 
#    y 0.000000 3.717160 0.000000 
#    z 0.000000 0.000000 3.748150 
# 
# 
# High freq. dielectric constant tensor:
#      x y z
#    x 1.719630 0.000000 0.000000 
#    y 0.000000 1.763950 0.000000 
#    z 0.000000 0.000000 1.771420 
# 
# From -- ./inp_files/4222.got.cif
#   From: 2010.03.12/outbox.cif.g09.slc.cpg/sg36_3_cif.got.tgz:4222.got - 2010.04.14 02:13:53.
