data_PCOD8175491
_publ_section_title
;
Structure prediction by ZEFSAII (Michael W. Deem and Ramdas Pophale) SiO2 
 PCOD8175491
Probable space group: C M C 21
;
_chemical_formula_sum "Si O2"
_cell_formula_units_Z 64
_cell_length_a 8.972373
_cell_length_b 31.331659
_cell_length_c 10.558612
_cell_angle_alpha 90.000000
_cell_angle_beta 90.000000
_cell_angle_gamma 90.000000
_cell_volume 2968.229944
_symmetry_space_group_name_H-M "C M C 21"
_symmetry_group_IT_number 36
_symmetry_cell_setting 'orthorhombic'
loop_
_space_group_symop_operation_xyz
x,y,z
-x,-y,1/2+z
x,-y,1/2+z
-x,y,z
1/2+x,1/2+y,z
1/2-x,1/2-y,1/2+z
1/2+x,1/2-y,1/2+z
1/2-x,1/2+y,z
loop_
_atom_site_type_symbol
_atom_site_label
_atom_site_fract_x
_atom_site_fract_y
_atom_site_fract_z
Si Si1 0.672325 0.964337 0.390980
Si Si2 0.329186 0.872532 0.788396
Si Si3 0.676548 0.711045 0.367324
Si Si4 0.665178 0.665006 0.782690
Si Si5 0.670735 0.551783 0.401234
Si Si6 0.324426 0.232994 0.624356
Si Si7 0.830473 0.625809 0.997068
Si Si8 0.338356 0.571654 0.676585
O O1 0.500000 0.975146 0.407818
O O2 0.723017 0.923191 0.473575
O O3 0.709229 0.955881 0.243224
O O4 0.766928 0.005052 0.431680
O O5 0.500000 0.872280 0.833820
O O6 0.239519 0.837167 0.868745
O O7 0.263028 0.920328 0.800773
O O8 0.314972 0.861086 0.641649
O O9 0.500000 0.709810 0.386999
O O10 0.719771 0.731713 0.231010
O O11 0.745415 0.738109 0.486049
O O12 0.500000 0.686167 0.790319
O O13 0.771865 0.688802 0.685189
O O14 0.654005 0.617614 0.735308
O O15 0.735533 0.661733 0.923113
O O16 0.500000 0.548794 0.356496
O O17 0.693494 0.577882 0.529779
O O18 0.500000 0.232575 0.600357
O O19 0.000000 0.628837 0.948247
O O20 0.500000 0.548813 0.696002
#
# Coordination Sequence:
#
# PCOD8175491 Si02
#       8
#     8   8   8   8   8   8   8   8
#     4  10  21  37  58  86 120 158 205 258 311 377
#     4  11  24  42  65  93 128 171 217 267 328 390
#     4  11  26  46  68  99 136 175 223 276 332 396
#     4  10  20  37  65  94 124 162 209 261 318 382
#     4  11  23  38  59  86 121 161 206 259 315 379
#     4  11  25  44  69 100 135 175 219 269 330 394
#     4   9  21  40  61  90 128 168 213 265 322 387
#     4   9  20  38  57  82 114 152 198 249 306 371
#
# _framework density 21.561672000000002
#
# number of rings (size 3 to 8) (size 9 to 14) (size 15 to 20)
#    0.000    1.750    0.000    3.000    3.500    6.000 
#    0.000    0.000    0.000    0.000    0.000    0.000 
#    0.000    0.000    0.000    0.000    0.000    0.000 
#
# Total GULP energy -396709.938925 kJ/mol
# GULP energy per Si atom -12397.185591 kJ/mol
# Density = 2.151260 g / cm^3
# Si number density = 21.561672 Si / 1000 Ang^3
#
#
#
# Elastic Constant Matrix: (Units=GPa)
#
#
# Indices 1 2 3 4 5 6 
#
# 1 112.7368 40.7639 41.4745 0.0000 0.0000 0.0000
# 2 40.7639 59.2877 26.7147 0.0000 0.0000 0.0000
# 3 41.4745 26.7147 74.9658 0.0000 0.0000 0.0000
# 4 0.0000 0.0000 0.0000 21.6801 0.0000 0.0000
# 5 0.0000 0.0000 0.0000 0.0000 36.5295 0.0000
# 6 0.0000 0.0000 0.0000 0.0000 0.0000 30.2042
#
#
#
# Elastic Compliance Matrix: (Units=1/GPa)
#
#
# Indices 1 2 3 4 5 6 
#
# 1 0.013119 -0.006850 -0.004817 0.000000 0.000000 0.000000
# 2 -0.006850 0.023670 -0.004645 0.000000 0.000000 0.000000
# 3 -0.004817 -0.004645 0.017660 0.000000 0.000000 0.000000
# 4 0.000000 0.000000 0.000000 0.046125 0.000000 0.000000
# 5 0.000000 0.000000 0.000000 0.000000 0.027375 0.000000
# 6 0.000000 0.000000 0.000000 0.000000 0.000000 0.033108
#
#
# Mechanical properties :
#
#
# Convention : Reuss Voigt Hill
#
# Bulk Modulus (GPa) = 45.82038 51.65516 48.73777
# Shear Modulus (GPa) = 24.88107 26.88524 25.88315
#
# Velocity S-wave (km/s) = 3.40067 3.53498 3.46847
# Velocity P-wave (km/s) = 6.05940 6.37733 6.22040
#
# Compressibility (1/GPa) = 0.02182435
#
# Stress axis : x y z
#
# Youngs Moduli (GPa) = 76.22469 42.24829 56.62541
#
# Poissons Ratio (x) = 0.28938 0.27277
# Poissons Ratio (y) = 0.52211 0.26305
# Poissons Ratio (z) = 0.36719 0.19626
#
# Static dielectric constant tensor:
#      x y z
#    x 4.299170 0.000000 0.000000 
#    y 0.000000 3.777120 0.000000 
#    z 0.000000 0.000000 3.976510 
# 
# 
# High freq. dielectric constant tensor:
#      x y z
#    x 1.852160 0.000000 0.000000 
#    y 0.000000 1.842340 0.000000 
#    z 0.000000 0.000000 1.849160 
# 
# From -- ./inp_files/7238.got.cif
#   From: 2010.03.12/outbox.cif.g09.slc.cpg/sg36_4_cif.got.tgz:7238.got - 2010.04.14 02:13:53.
