data_PCOD8175442
_publ_section_title
;
Structure prediction by ZEFSAII (Michael W. Deem and Ramdas Pophale) SiO2 
 PCOD8175442
Probable space group: C M C 21
;
_chemical_formula_sum "Si O2"
_cell_formula_units_Z 48
_cell_length_a 8.513822
_cell_length_b 18.925200
_cell_length_c 15.136829
_cell_angle_alpha 90.000000
_cell_angle_beta 90.000000
_cell_angle_gamma 90.000000
_cell_volume 2438.933442
_symmetry_space_group_name_H-M "C M C 21"
_symmetry_group_IT_number 36
_symmetry_cell_setting 'orthorhombic'
loop_
_space_group_symop_operation_xyz
x,y,z
-x,-y,1/2+z
x,-y,1/2+z
-x,y,z
1/2+x,1/2+y,z
1/2-x,1/2-y,1/2+z
1/2+x,1/2-y,1/2+z
1/2-x,1/2+y,z
loop_
_atom_site_type_symbol
_atom_site_label
_atom_site_fract_x
_atom_site_fract_y
_atom_site_fract_z
Si Si1 0.318874 0.666887 0.325640
Si Si2 0.682917 0.420921 0.170621
Si Si3 0.317416 0.082146 0.480866
Si Si4 0.815812 0.569548 0.179893
Si Si5 0.814485 0.669795 0.824180
Si Si6 0.315768 0.077866 0.984187
O O1 0.500000 0.656981 0.301164
O O2 0.285312 0.633426 0.420700
O O3 0.216083 0.630715 0.249754
O O4 0.271596 0.748389 0.330825
O O5 0.500000 0.419262 0.148219
O O6 0.730192 0.497474 0.209414
O O7 0.723846 0.361093 0.240829
O O8 0.779907 0.403041 0.082683
O O9 0.500000 0.096768 0.463076
O O10 0.271949 0.001795 0.456029
O O11 0.000000 0.552831 0.175732
O O12 0.751512 0.593386 0.083175
O O13 0.745875 0.632192 0.912603
O O14 0.000000 0.656409 0.813489
O O15 0.500000 0.088420 0.986469
#
# Coordination Sequence:
#
# PCOD8175442 Si02
#       6
#     8   8   8   8   8   8
#     4  11  23  36  54  85 120 152 189 236 284 332
#     4  11  22  37  59  86 114 145 190 243 287 333
#     4  10  20  37  61  84 109 148 194 235 284 345
#     4  10  20  37  60  83 111 150 194 236 285 343
#     4  10  21  38  57  81 117 154 188 230 284 342
#     4   8  17  35  59  81 101 139 191 234 274 329
#
# _framework density 19.680734000000001
#
# number of rings (size 3 to 8) (size 9 to 14) (size 15 to 20)
#    0.000    2.000    0.000    5.000    0.000    4.000 
#    0.000    5.833    0.000    0.000    0.000    0.000 
#    0.000    0.000    0.000    0.000    0.000    0.000 
#
# Total GULP energy -297669.232920 kJ/mol
# GULP energy per Si atom -12402.884705 kJ/mol
# Density = 1.963594 g / cm^3
# Si number density = 19.680734 Si / 1000 Ang^3
#
#
#
# Elastic Constant Matrix: (Units=GPa)
#
#
# Indices 1 2 3 4 5 6 
#
# 1 46.2992 28.1170 16.0364 0.0000 0.0000 0.0000
# 2 28.1170 119.9508 66.5251 0.0000 0.0000 0.0000
# 3 16.0364 66.5251 105.5754 0.0000 0.0000 0.0000
# 4 0.0000 0.0000 0.0000 15.3791 0.0000 0.0000
# 5 0.0000 0.0000 0.0000 0.0000 29.5409 0.0000
# 6 0.0000 0.0000 0.0000 0.0000 0.0000 25.6136
#
#
#
# Elastic Compliance Matrix: (Units=1/GPa)
#
#
# Indices 1 2 3 4 5 6 
#
# 1 0.025185 -0.005814 -0.000162 0.000000 0.000000 0.000000
# 2 -0.005814 0.014157 -0.008038 0.000000 0.000000 0.000000
# 3 -0.000162 -0.008038 0.014561 0.000000 0.000000 0.000000
# 4 0.000000 0.000000 0.000000 0.065023 0.000000 0.000000
# 5 0.000000 0.000000 0.000000 0.000000 0.033851 0.000000
# 6 0.000000 0.000000 0.000000 0.000000 0.000000 0.039042
#
#
# Mechanical properties :
#
#
# Convention : Reuss Voigt Hill
#
# Bulk Modulus (GPa) = 38.64471 54.79803 46.72137
# Shear Modulus (GPa) = 21.88444 24.84985 23.36714
#
# Velocity S-wave (km/s) = 3.33824 3.55723 3.44948
# Velocity P-wave (km/s) = 5.87681 6.69147 6.29733
#
# Compressibility (1/GPa) = 0.02587676
#
# Stress axis : x y z
#
# Youngs Moduli (GPa) = 39.70560 70.63552 68.67543
#
# Poissons Ratio (x) = 0.41064 0.01115
# Poissons Ratio (y) = 0.23083 0.55199
# Poissons Ratio (z) = 0.00644 0.56774
#
# Static dielectric constant tensor:
#      x y z
#    x 3.427420 0.000000 0.000000 
#    y 0.000000 3.585500 0.000000 
#    z 0.000000 0.000000 3.802580 
# 
# 
# High freq. dielectric constant tensor:
#      x y z
#    x 1.755410 0.000000 0.000000 
#    y 0.000000 1.761220 0.000000 
#    z 0.000000 0.000000 1.779570 
# 
# From -- ./inp_files/10367.got.cif
#   From: 2010.03.12/outbox.cif.g09.slc.cpg/sg36_6_cif.got.tgz:10367.got - 2010.04.14 02:13:53.
