data_PCOD8175547
_publ_section_title
;
Structure prediction by ZEFSAII (Michael W. Deem and Ramdas Pophale) SiO2 
 PCOD8175547
Probable space group: C M C 21
;
_chemical_formula_sum "Si O2"
_cell_formula_units_Z 36
_cell_length_a 7.497115
_cell_length_b 22.491638
_cell_length_c 11.259797
_cell_angle_alpha 90.000000
_cell_angle_beta 90.000000
_cell_angle_gamma 90.000000
_cell_volume 1898.653956
_symmetry_space_group_name_H-M "C M C 21"
_symmetry_group_IT_number 36
_symmetry_cell_setting 'orthorhombic'
loop_
_space_group_symop_operation_xyz
x,y,z
-x,-y,1/2+z
x,-y,1/2+z
-x,y,z
1/2+x,1/2+y,z
1/2-x,1/2-y,1/2+z
1/2+x,1/2-y,1/2+z
1/2-x,1/2+y,z
loop_
_atom_site_type_symbol
_atom_site_label
_atom_site_fract_x
_atom_site_fract_y
_atom_site_fract_z
Si Si1 0.296313 0.122214 0.465270
Si Si2 0.500000 0.452682 0.857688
Si Si3 0.794609 0.659840 0.728633
Si Si4 0.796247 0.295894 0.744926
Si Si5 0.500000 0.370022 0.634449
Si Si6 0.000000 0.091174 0.867567
O O1 0.500000 0.100066 0.462317
O O2 0.240735 0.146878 0.593190
O O3 0.262893 0.175956 0.374164
O O4 0.175109 0.066028 0.431581
O O5 0.500000 0.422908 0.728866
O O6 0.500000 0.522236 0.836473
O O7 0.757384 0.727945 0.757407
O O8 0.677862 0.619536 0.814534
O O9 0.000000 0.644206 0.752626
O O10 0.674496 0.328677 0.647769
O O11 0.000000 0.303129 0.703520
O O12 0.500000 0.400252 0.507668
#
# Coordination Sequence:
#
# PCOD8175547 Si02
#       6
#     8   4   8   8   4   4
#     4   9  21  40  64  89 121 164 207 252 310 364
#     4  10  23  44  67  84 120 173 214 246 308 365
#     4  11  23  38  62  97 126 159 204 257 313 368
#     4  10  20  38  64  94 125 161 199 251 316 372
#     4  10  24  42  60  94 128 161 204 262 303 363
#     4  12  27  40  63  94 128 164 216 250 301 370
#
# _framework density 18.960799999999999
#
# number of rings (size 3 to 8) (size 9 to 14) (size 15 to 20)
#    0.000    1.778    2.222    0.667    6.222    1.778 
#    0.000    0.000    0.000    0.000    0.000    0.000 
#    0.000    0.000    0.000    0.000    0.000    0.000 
#
# Total GULP energy -223287.253784 kJ/mol
# GULP energy per Si atom -12404.847432 kJ/mol
# Density = 1.891764 g / cm^3
# Si number density = 18.960800 Si / 1000 Ang^3
#
#
#
# Elastic Constant Matrix: (Units=GPa)
#
#
# Indices 1 2 3 4 5 6 
#
# 1 127.9581 56.4715 53.1074 0.0000 0.0000 0.0000
# 2 56.4715 149.9136 40.7079 0.0000 0.0000 0.0000
# 3 53.1074 40.7079 94.2611 0.0000 0.0000 0.0000
# 4 0.0000 0.0000 0.0000 17.2919 0.0000 0.0000
# 5 0.0000 0.0000 0.0000 0.0000 32.0236 0.0000
# 6 0.0000 0.0000 0.0000 0.0000 0.0000 46.0111
#
#
#
# Elastic Compliance Matrix: (Units=1/GPa)
#
#
# Indices 1 2 3 4 5 6 
#
# 1 0.011168 -0.002830 -0.005070 0.000000 0.000000 0.000000
# 2 -0.002830 0.008274 -0.001979 0.000000 0.000000 0.000000
# 3 -0.005070 -0.001979 0.014320 0.000000 0.000000 0.000000
# 4 0.000000 0.000000 0.000000 0.057831 0.000000 0.000000
# 5 0.000000 0.000000 0.000000 0.000000 0.031227 0.000000
# 6 0.000000 0.000000 0.000000 0.000000 0.000000 0.021734
#
#
# Mechanical properties :
#
#
# Convention : Reuss Voigt Hill
#
# Bulk Modulus (GPa) = 71.40695 74.74515 73.07605
# Shear Modulus (GPa) = 29.58933 33.85503 31.72218
#
# Velocity S-wave (km/s) = 3.95467 4.23013 4.09472
# Velocity P-wave (km/s) = 7.65471 7.96022 7.80896
#
# Compressibility (1/GPa) = 0.01400424
#
# Stress axis : x y z
#
# Youngs Moduli (GPa) = 89.53803 120.86126 69.83328
#
# Poissons Ratio (x) = 0.34208 0.35406
# Poissons Ratio (y) = 0.25342 0.13817
# Poissons Ratio (z) = 0.45396 0.23913
#
# Static dielectric constant tensor:
#      x y z
#    x 3.906400 0.000000 0.000000 
#    y 0.000000 3.324990 0.000000 
#    z 0.000000 0.000000 3.474860 
# 
# 
# High freq. dielectric constant tensor:
#      x y z
#    x 1.756430 0.000000 0.000000 
#    y 0.000000 1.729540 0.000000 
#    z 0.000000 0.000000 1.739260 
# 
# From -- ./inp_files/2365.got.cif
#   From: 2010.03.12/outbox.cif.g09.slc.cpg/sg36_2_cif.got.tgz:2365.got - 2010.04.14 02:13:53.
