data_PCOD8175899
_publ_section_title
;
Structure prediction by ZEFSAII (Michael W. Deem and Ramdas Pophale) SiO2 
 PCOD8175899
Probable space group: C M C 21
;
_chemical_formula_sum "Si O2"
_cell_formula_units_Z 56
_cell_length_a 14.102647
_cell_length_b 30.880045
_cell_length_c 5.147366
_cell_angle_alpha 90.000000
_cell_angle_beta 90.000000
_cell_angle_gamma 90.000000
_cell_volume 2241.628344
_symmetry_space_group_name_H-M "C M C 21"
_symmetry_group_IT_number 36
_symmetry_cell_setting 'orthorhombic'
loop_
_space_group_symop_operation_xyz
x,y,z
-x,-y,1/2+z
x,-y,1/2+z
-x,y,z
1/2+x,1/2+y,z
1/2-x,1/2-y,1/2+z
1/2+x,1/2-y,1/2+z
1/2-x,1/2+y,z
loop_
_atom_site_type_symbol
_atom_site_label
_atom_site_fract_x
_atom_site_fract_y
_atom_site_fract_z
Si Si1 0.109230 0.618772 0.651340
Si Si2 0.705795 0.613269 0.926455
Si Si3 0.111729 0.524214 0.477748
Si Si4 0.897199 0.144478 0.414160
Si Si5 0.391741 0.473376 0.435525
Si Si6 0.866653 0.237917 0.477239
Si Si7 0.851276 0.288028 0.976628
O O1 0.180652 0.620657 0.899099
O O2 0.135874 0.575422 0.488253
O O3 0.126489 0.660708 0.471611
O O4 0.000000 0.616285 0.750461
O O5 0.658415 0.622520 0.648744
O O6 0.680324 0.564743 0.007494
O O7 0.666100 0.644441 0.151687
O O8 0.156343 0.501884 0.222373
O O9 0.000000 0.517069 0.476999
O O10 0.924818 0.193777 0.478843
O O11 0.000000 0.120946 0.374713
O O12 0.371826 0.511152 0.642766
O O13 0.500000 0.456892 0.463506
O O14 0.896916 0.266593 0.723457
O O15 0.759108 0.221878 0.482080
O O16 0.896512 0.266863 0.232123
#
# Coordination Sequence:
#
# PCOD8175899 Si02
#       7
#     8   8   8   8   8   8   8
#     4  11  26  46  73 106 145 197 251 298 356 429
#     4  12  26  44  69 104 146 186 236 298 359 430
#     4   9  20  40  64  93 133 180 233 292 345 402
#     4  12  25  44  72 104 136 180 233 290 368 444
#     4  10  21  40  67 100 138 182 234 295 365 433
#     4  10  22  41  69  99 135 182 225 289 361 427
#     4  10  22  41  67 100 137 181 231 288 349 419
#
# _framework density 24.981840999999999
#
# number of rings (size 3 to 8) (size 9 to 14) (size 15 to 20)
#    0.000    1.429    1.429    3.000    4.000    5.714 
#    0.000    5.000    0.000    0.000    0.000    0.000 
#    0.000    0.000    0.000    0.000    0.000    0.000 
#
# Total GULP energy -347194.736588 kJ/mol
# GULP energy per Si atom -12399.812021 kJ/mol
# Density = 2.492498 g / cm^3
# Si number density = 24.981841 Si / 1000 Ang^3
#
#
#
# Elastic Constant Matrix: (Units=GPa)
#
#
# Indices 1 2 3 4 5 6 
#
# 1 117.2128 27.2770 29.4536 0.0000 0.0000 0.0000
# 2 27.2770 171.0826 50.8425 0.0000 0.0000 0.0000
# 3 29.4536 50.8425 150.0865 0.0000 0.0000 0.0000
# 4 0.0000 0.0000 0.0000 38.5545 0.0000 0.0000
# 5 0.0000 0.0000 0.0000 0.0000 2.6174 0.0000
# 6 0.0000 0.0000 0.0000 0.0000 0.0000 26.0663
#
#
#
# Elastic Compliance Matrix: (Units=1/GPa)
#
#
# Indices 1 2 3 4 5 6 
#
# 1 0.009133 -0.001027 -0.001445 0.000000 0.000000 0.000000
# 2 -0.001027 0.006615 -0.002039 0.000000 0.000000 0.000000
# 3 -0.001445 -0.002039 0.007637 0.000000 0.000000 0.000000
# 4 0.000000 0.000000 0.000000 0.025937 0.000000 0.000000
# 5 0.000000 0.000000 0.000000 0.000000 0.382054 0.000000
# 6 0.000000 0.000000 0.000000 0.000000 0.000000 0.038364
#
#
# Mechanical properties :
#
#
# Convention : Reuss Voigt Hill
#
# Bulk Modulus (GPa) = 69.61851 72.61423 71.11637
# Shear Modulus (GPa) = 10.34019 35.50158 22.92088
#
# Velocity S-wave (km/s) = 2.03668 3.77383 3.03232
# Velocity P-wave (km/s) = 5.78437 6.93678 6.38662
#
# Compressibility (1/GPa) = 0.01436400
#
# Stress axis : x y z
#
# Youngs Moduli (GPa) = 109.48761 151.17378 130.93940
#
# Poissons Ratio (x) = 0.15525 0.18914
# Poissons Ratio (y) = 0.11244 0.26702
# Poissons Ratio (z) = 0.15816 0.30829
#
# Static dielectric constant tensor:
#      x y z
#    x 4.530110 0.000000 0.000000 
#    y 0.000000 4.520680 0.000000 
#    z 0.000000 0.000000 4.560930 
# 
# 
# High freq. dielectric constant tensor:
#      x y z
#    x 2.001970 0.000000 0.000000 
#    y 0.000000 2.000950 0.000000 
#    z 0.000000 0.000000 1.988230 
# 
# From -- ./inp_files/938.got.cif
#   From: 2010.03.12/outbox.cif.g09.slc.cpg/sg36_1_cif.got.tgz:938.got - 2010.04.14 02:13:53.
