data_PCOD8175851
_publ_section_title
;
Structure prediction by ZEFSAII (Michael W. Deem and Ramdas Pophale) SiO2 
 PCOD8175851
Probable space group: C M C 21
;
_chemical_formula_sum "Si O2"
_cell_formula_units_Z 64
_cell_length_a 9.084567
_cell_length_b 23.875397
_cell_length_c 14.932789
_cell_angle_alpha 90.000000
_cell_angle_beta 90.000000
_cell_angle_gamma 90.000000
_cell_volume 3238.886748
_symmetry_space_group_name_H-M "C M C 21"
_symmetry_group_IT_number 36
_symmetry_cell_setting 'orthorhombic'
loop_
_space_group_symop_operation_xyz
x,y,z
-x,-y,1/2+z
x,-y,1/2+z
-x,y,z
1/2+x,1/2+y,z
1/2-x,1/2-y,1/2+z
1/2+x,1/2-y,1/2+z
1/2-x,1/2+y,z
loop_
_atom_site_type_symbol
_atom_site_label
_atom_site_fract_x
_atom_site_fract_y
_atom_site_fract_z
Si Si1 0.834524 0.372333 0.520300
Si Si2 0.334632 0.873776 0.725110
Si Si3 0.166711 0.022799 0.969015
Si Si4 0.674699 0.046633 0.618821
Si Si5 0.672562 0.248856 0.271736
Si Si6 0.171138 0.761139 0.478273
Si Si7 0.171512 0.675076 0.630837
Si Si8 0.333652 0.478602 0.770311
O O1 0.835992 0.392847 0.622394
O O2 0.734916 0.415202 0.465252
O O3 0.768599 0.310801 0.516451
O O4 0.000000 0.371860 0.481198
O O5 0.500000 0.876876 0.765681
O O6 0.272662 0.810967 0.734739
O O7 0.228536 0.915718 0.777440
O O8 0.000000 0.025872 0.005568
O O9 0.171313 0.002291 0.868739
O O10 0.260340 0.981332 0.030201
O O11 0.500000 0.040188 0.615825
O O12 0.724924 0.111295 0.620296
O O13 0.733669 0.016811 0.707413
O O14 0.500000 0.256372 0.256997
O O15 0.716164 0.250810 0.375841
O O16 0.749766 0.298032 0.216666
O O17 0.209137 0.706715 0.537950
O O18 0.000000 0.777061 0.486580
O O19 0.000000 0.677785 0.651865
O O20 0.500000 0.477219 0.732763
#
# Coordination Sequence:
#
# PCOD8175851 Si02
#       8
#     8   8   8   8   8   8   8   8
#     4  11  22  39  64  92 120 157 204 254 304 356
#     4  10  21  39  64  91 119 156 204 255 305 358
#     4  11  25  43  63  91 124 162 205 251 307 365
#     4  11  24  42  64  91 123 163 205 251 305 361
#     4  10  22  40  63  89 120 160 202 245 300 359
#     4  10  22  40  62  89 122 161 200 246 303 360
#     4  10  23  41  61  88 123 159 200 249 302 358
#     4  11  25  42  63  91 123 162 204 251 308 365
#
# _framework density 19.759875999999998
#
# number of rings (size 3 to 8) (size 9 to 14) (size 15 to 20)
#    0.000    1.500    2.500    1.500    3.500    4.500 
#    0.000    0.000    0.000    0.000    0.000    0.000 
#    0.000    0.000    0.000    0.000    0.000    0.000 
#
# Total GULP energy -396947.385829 kJ/mol
# GULP energy per Si atom -12404.605807 kJ/mol
# Density = 1.971490 g / cm^3
# Si number density = 19.759876 Si / 1000 Ang^3
#
#
#
# Elastic Constant Matrix: (Units=GPa)
#
#
# Indices 1 2 3 4 5 6 
#
# 1 90.8136 49.0740 26.6284 0.0000 0.0000 0.0000
# 2 49.0740 123.6181 17.5822 0.0000 0.0000 0.0000
# 3 26.6284 17.5822 74.3287 0.0000 0.0000 0.0000
# 4 0.0000 0.0000 0.0000 30.5434 0.0000 0.0000
# 5 0.0000 0.0000 0.0000 0.0000 23.8943 0.0000
# 6 0.0000 0.0000 0.0000 0.0000 0.0000 34.9597
#
#
#
# Elastic Compliance Matrix: (Units=1/GPa)
#
#
# Indices 1 2 3 4 5 6 
#
# 1 0.015161 -0.005429 -0.004147 0.000000 0.000000 0.000000
# 2 -0.005429 0.010315 -0.000495 0.000000 0.000000 0.000000
# 3 -0.004147 -0.000495 0.015057 0.000000 0.000000 0.000000
# 4 0.000000 0.000000 0.000000 0.032740 0.000000 0.000000
# 5 0.000000 0.000000 0.000000 0.000000 0.041851 0.000000
# 6 0.000000 0.000000 0.000000 0.000000 0.000000 0.028604
#
#
# Mechanical properties :
#
#
# Convention : Reuss Voigt Hill
#
# Bulk Modulus (GPa) = 49.04286 52.81438 50.92862
# Shear Modulus (GPa) = 29.29663 30.91121 30.10392
#
# Velocity S-wave (km/s) = 3.85467 3.95947 3.90742
# Velocity P-wave (km/s) = 6.68466 6.90574 6.79610
#
# Compressibility (1/GPa) = 0.02039033
#
# Stress axis : x y z
#
# Youngs Moduli (GPa) = 65.95725 96.94618 66.41570
#
# Poissons Ratio (x) = 0.52631 0.27545
# Poissons Ratio (y) = 0.35807 0.03288
# Poissons Ratio (z) = 0.27355 0.04800
#
# Static dielectric constant tensor:
#      x y z
#    x 3.718830 0.000000 0.000000 
#    y 0.000000 3.730640 0.000000 
#    z 0.000000 0.000000 3.642200 
# 
# 
# High freq. dielectric constant tensor:
#      x y z
#    x 1.773350 0.000000 0.000000 
#    y 0.000000 1.782740 0.000000 
#    z 0.000000 0.000000 1.772390 
# 
# From -- ./inp_files/10970.got.cif
#   From: 2010.03.12/outbox.cif.g09.slc.cpg/sg36_6_cif.got.tgz:10970.got - 2010.04.14 02:13:53.
