data_PCOD8175148
_publ_section_title
;
Structure prediction by ZEFSAII (Michael W. Deem and Ramdas Pophale) SiO2 
 PCOD8175148
Probable space group: C M C 21
;
_chemical_formula_sum "Si O2"
_cell_formula_units_Z 40
_cell_length_a 24.182997
_cell_length_b 15.971409
_cell_length_c 4.919214
_cell_angle_alpha 90.000000
_cell_angle_beta 90.000000
_cell_angle_gamma 90.000000
_cell_volume 1899.980175
_symmetry_space_group_name_H-M "C M C 21"
_symmetry_group_IT_number 36
_symmetry_cell_setting 'orthorhombic'
loop_
_space_group_symop_operation_xyz
x,y,z
-x,-y,1/2+z
x,-y,1/2+z
-x,y,z
1/2+x,1/2+y,z
1/2-x,1/2-y,1/2+z
1/2+x,1/2-y,1/2+z
1/2-x,1/2+y,z
loop_
_atom_site_type_symbol
_atom_site_label
_atom_site_fract_x
_atom_site_fract_y
_atom_site_fract_z
Si Si1 0.339039 0.556482 0.219070
Si Si2 0.395707 0.232570 0.320908
Si Si3 0.435716 0.053430 0.291720
Si Si4 0.563038 0.326566 0.799657
Si Si5 0.219448 0.779716 0.564655
O O1 0.332038 0.523193 0.524033
O O2 0.400394 0.596303 0.186160
O O3 0.291601 0.624471 0.153264
O O4 0.403447 0.137916 0.223428
O O5 0.436836 0.254053 0.570738
O O6 0.333404 0.240206 0.420353
O O7 0.407874 0.294865 0.073109
O O8 0.500000 0.074729 0.262797
O O9 0.418877 0.979803 0.086461
O O10 0.500000 0.354808 0.856259
O O11 0.267756 0.773410 0.338397
#
# Coordination Sequence:
#
# PCOD8175148 Si02
#       5
#     8   8   8   8   8
#     4  11  23  41  63  92 126 157 198 253 309 366
#     4  11  22  39  60  87 121 159 211 258 299 372
#     4  10  20  34  54  82 118 155 189 238 302 356
#     4  11  22  37  62  92 124 165 202 241 302 379
#     4  11  23  43  66  87 116 162 210 256 312 367
#
# _framework density 21.052848999999998
#
# number of rings (size 3 to 8) (size 9 to 14) (size 15 to 20)
#    0.000    1.200    0.000    9.000    0.000    2.400 
#    0.000    6.000    0.000    0.000    0.000    0.000 
#    0.000    0.000    0.000    0.000    0.000    0.000 
#
# Total GULP energy -248066.590108 kJ/mol
# GULP energy per Si atom -12403.329505 kJ/mol
# Density = 2.100493 g / cm^3
# Si number density = 21.052849 Si / 1000 Ang^3
#
#
#
# Elastic Constant Matrix: (Units=GPa)
#
#
# Indices 1 2 3 4 5 6 
#
# 1 86.1103 46.5480 31.7300 0.0000 0.0000 0.0000
# 2 46.5480 107.4172 34.4028 0.0000 0.0000 0.0000
# 3 31.7300 34.4028 114.2784 0.0000 0.0000 0.0000
# 4 0.0000 0.0000 0.0000 40.6866 0.0000 0.0000
# 5 0.0000 0.0000 0.0000 0.0000 30.2430 0.0000
# 6 0.0000 0.0000 0.0000 0.0000 0.0000 25.3025
#
#
#
# Elastic Compliance Matrix: (Units=1/GPa)
#
#
# Indices 1 2 3 4 5 6 
#
# 1 0.015823 -0.006031 -0.002578 0.000000 0.000000 0.000000
# 2 -0.006031 0.012602 -0.002119 0.000000 0.000000 0.000000
# 3 -0.002578 -0.002119 0.010104 0.000000 0.000000 0.000000
# 4 0.000000 0.000000 0.000000 0.024578 0.000000 0.000000
# 5 0.000000 0.000000 0.000000 0.000000 0.033066 0.000000
# 6 0.000000 0.000000 0.000000 0.000000 0.000000 0.039522
#
#
# Mechanical properties :
#
#
# Convention : Reuss Voigt Hill
#
# Bulk Modulus (GPa) = 58.57180 59.24086 58.90633
# Shear Modulus (GPa) = 30.70471 32.25475 31.47973
#
# Velocity S-wave (km/s) = 3.82312 3.91843 3.87107
# Velocity P-wave (km/s) = 6.88259 6.97656 6.92973
#
# Compressibility (1/GPa) = 0.01707306
#
# Stress axis : x y z
#
# Youngs Moduli (GPa) = 63.19879 79.35424 98.96866
#
# Poissons Ratio (x) = 0.47860 0.25511
# Poissons Ratio (y) = 0.38116 0.20972
# Poissons Ratio (z) = 0.16291 0.16816
#
# Static dielectric constant tensor:
#      x y z
#    x 3.670950 0.000000 0.000000 
#    y 0.000000 3.637200 0.000000 
#    z 0.000000 0.000000 4.033430 
# 
# 
# High freq. dielectric constant tensor:
#      x y z
#    x 1.810400 0.000000 0.000000 
#    y 0.000000 1.818170 0.000000 
#    z 0.000000 0.000000 1.848720 
# 
# From -- ./inp_files/1532.got.cif
#   From: 2010.03.12/outbox.cif.g09.slc.cpg/sg36_1_cif.got.tgz:1532.got - 2010.04.14 02:13:53.
