data_PCOD8175417
_publ_section_title
;
Structure prediction by ZEFSAII (Michael W. Deem and Ramdas Pophale) SiO2 
 PCOD8175417
Probable space group: C M C 21
;
_chemical_formula_sum "Si O2"
_cell_formula_units_Z 64
_cell_length_a 8.634686
_cell_length_b 20.677380
_cell_length_c 19.343978
_cell_angle_alpha 90.000000
_cell_angle_beta 90.000000
_cell_angle_gamma 90.000000
_cell_volume 3453.725744
_symmetry_space_group_name_H-M "C M C 21"
_symmetry_group_IT_number 36
_symmetry_cell_setting 'orthorhombic'
loop_
_space_group_symop_operation_xyz
x,y,z
-x,-y,1/2+z
x,-y,1/2+z
-x,y,z
1/2+x,1/2+y,z
1/2-x,1/2-y,1/2+z
1/2+x,1/2-y,1/2+z
1/2-x,1/2+y,z
loop_
_atom_site_type_symbol
_atom_site_label
_atom_site_fract_x
_atom_site_fract_y
_atom_site_fract_z
Si Si1 0.180492 0.738199 0.146420
Si Si2 0.180249 0.813139 0.779092
Si Si3 0.820278 0.240340 0.004023
Si Si4 0.316600 0.935049 0.854605
Si Si5 0.681408 0.068147 0.791776
Si Si6 0.319426 0.122134 0.647268
Si Si7 0.820367 0.806557 0.356464
Si Si8 0.318116 0.113407 0.496353
O O1 0.271797 0.692379 0.199210
O O2 0.223612 0.714697 0.069366
O O3 0.224655 0.812636 0.160140
O O4 0.000000 0.729364 0.159510
O O5 0.270743 0.872717 0.811425
O O6 0.219458 0.746540 0.817513
O O7 0.000000 0.827066 0.785384
O O8 0.763939 0.312741 0.985708
O O9 0.000000 0.240689 0.024915
O O10 0.786286 0.195248 0.938421
O O11 0.500000 0.938776 0.855425
O O12 0.252035 0.999889 0.818675
O O13 0.248041 0.929340 0.933379
O O14 0.500000 0.077068 0.807679
O O15 0.713236 0.072212 0.709258
O O16 0.775871 0.122771 0.831260
O O17 0.500000 0.141738 0.643706
O O18 0.267981 0.089956 0.573608
O O19 0.000000 0.791891 0.341244
O O20 0.500000 0.109025 0.488364
#
# Coordination Sequence:
#
# PCOD8175417 Si02
#       8
#     8   8   8   8   8   8   8   8
#     4  11  21  33  54  84 112 143 185 236 283 336
#     4  12  23  36  56  82 113 147 187 235 285 333
#     4   9  18  34  55  80 110 146 183 229 286 339
#     4  10  20  37  56  80 112 152 195 234 281 339
#     4  10  21  35  55  82 116 151 191 236 280 337
#     4   9  17  32  52  78 108 146 186 229 282 334
#     4  11  21  36  59  83 112 148 188 230 281 337
#     4   8  14  29  53  75 103 141 185 227 276 331
#
# _framework density 18.530712999999999
#
# number of rings (size 3 to 8) (size 9 to 14) (size 15 to 20)
#    0.000    2.000    2.500    3.375    0.000    1.500 
#    0.000    1.250    0.000    3.000    0.000    0.000 
#    0.000    0.000    0.000    0.000    0.000    0.000 
#
# Total GULP energy -396725.862305 kJ/mol
# GULP energy per Si atom -12397.683197 kJ/mol
# Density = 1.848854 g / cm^3
# Si number density = 18.530713 Si / 1000 Ang^3
#
#
#
# Elastic Constant Matrix: (Units=GPa)
#
#
# Indices 1 2 3 4 5 6 
#
# 1 21.5044 -0.0149 11.8109 0.0000 0.0000 0.0000
# 2 -0.0149 88.1780 61.3016 0.0000 0.0000 0.0000
# 3 11.8109 61.3016 156.4823 0.0000 0.0000 0.0000
# 4 0.0000 0.0000 0.0000 28.9226 0.0000 0.0000
# 5 0.0000 0.0000 0.0000 0.0000 25.1658 0.0000
# 6 0.0000 0.0000 0.0000 0.0000 0.0000 21.8084
#
#
#
# Elastic Compliance Matrix: (Units=1/GPa)
#
#
# Indices 1 2 3 4 5 6 
#
# 1 0.049317 0.003568 -0.005120 0.000000 0.000000 0.000000
# 2 0.003568 0.015843 -0.006476 0.000000 0.000000 0.000000
# 3 -0.005120 -0.006476 0.009314 0.000000 0.000000 0.000000
# 4 0.000000 0.000000 0.000000 0.034575 0.000000 0.000000
# 5 0.000000 0.000000 0.000000 0.000000 0.039737 0.000000
# 6 0.000000 0.000000 0.000000 0.000000 0.000000 0.045854
#
#
# Mechanical properties :
#
#
# Convention : Reuss Voigt Hill
#
# Bulk Modulus (GPa) = 17.11815 45.81778 31.46796
# Shear Modulus (GPa) = 21.72326 28.05048 24.88687
#
# Velocity S-wave (km/s) = 3.42758 3.89489 3.66868
# Velocity P-wave (km/s) = 4.99221 6.70864 5.91304
#
# Compressibility (1/GPa) = 0.05841754
#
# Stress axis : x y z
#
# Youngs Moduli (GPa) = 20.27717 63.11796 107.36701
#
# Poissons Ratio (x) = -0.22519 0.54971
# Poissons Ratio (y) = -0.07234 0.69530
# Poissons Ratio (z) = 0.10382 0.40874
#
# Static dielectric constant tensor:
#      x y z
#    x 3.210590 0.000000 0.000000 
#    y 0.000000 3.247620 0.000000 
#    z 0.000000 0.000000 3.937610 
# 
# 
# High freq. dielectric constant tensor:
#      x y z
#    x 1.703180 0.000000 0.000000 
#    y 0.000000 1.683090 0.000000 
#    z 0.000000 0.000000 1.743070 
# 
# From -- ./inp_files/15829.got.cif
#   From: 2010.03.12/outbox.cif.g09.slc.cpg/sg36_8_cif.got.tgz:15829.got - 2010.04.14 02:13:53.
