data_PCOD8175309
_publ_section_title
;
Structure prediction by ZEFSAII (Michael W. Deem and Ramdas Pophale) SiO2 
 PCOD8175309
Probable space group: C M C 21
;
_chemical_formula_sum "Si O2"
_cell_formula_units_Z 64
_cell_length_a 9.181828
_cell_length_b 24.609054
_cell_length_c 14.103604
_cell_angle_alpha 90.000000
_cell_angle_beta 90.000000
_cell_angle_gamma 90.000000
_cell_volume 3186.795371
_symmetry_space_group_name_H-M "C M C 21"
_symmetry_group_IT_number 36
_symmetry_cell_setting 'orthorhombic'
loop_
_space_group_symop_operation_xyz
x,y,z
-x,-y,1/2+z
x,-y,1/2+z
-x,y,z
1/2+x,1/2+y,z
1/2-x,1/2-y,1/2+z
1/2+x,1/2-y,1/2+z
1/2-x,1/2+y,z
loop_
_atom_site_type_symbol
_atom_site_label
_atom_site_fract_x
_atom_site_fract_y
_atom_site_fract_z
Si Si1 0.671299 0.839120 0.379110
Si Si2 0.336557 0.879413 0.729727
Si Si3 0.331805 0.959626 0.401946
Si Si4 0.160697 0.513077 0.115356
Si Si5 0.165890 0.088439 0.599063
Si Si6 0.326639 0.791794 0.577466
Si Si7 0.834484 0.933336 0.878653
Si Si8 0.671678 0.808473 0.171956
O O1 0.500000 0.845429 0.393997
O O2 0.731749 0.900988 0.368131
O O3 0.732505 0.808261 0.472611
O O4 0.709439 0.804544 0.284682
O O5 0.500000 0.862820 0.759516
O O6 0.330556 0.939854 0.690741
O O7 0.276384 0.837610 0.651949
O O8 0.234792 0.882079 0.822206
O O9 0.500000 0.966887 0.372004
O O10 0.308898 0.959960 0.514220
O O11 0.244705 0.009558 0.355673
O O12 0.279623 0.468160 0.143944
O O13 0.000000 0.485896 0.115403
O O14 0.180561 0.083651 0.486844
O O15 0.273860 0.134192 0.634789
O O16 0.000000 0.099969 0.630497
O O17 0.500000 0.784084 0.576478
O O18 0.253229 0.736530 0.610843
O O19 0.000000 0.940308 0.846733
O O20 0.500000 0.803248 0.155457
#
# Coordination Sequence:
#
# PCOD8175309 Si02
#       8
#     8   8   8   8   8   8   8   8
#     4   9  19  38  63  86 111 149 194 241 291 351
#     4  10  20  35  59  88 116 154 200 240 287 350
#     4   9  16  33  59  84 111 149 197 241 287 348
#     4   9  17  32  57  86 114 147 191 241 290 344
#     4  10  22  40  57  80 119 161 196 236 293 351
#     4  10  21  42  65  86 116 156 200 244 295 351
#     4  10  22  36  53  84 125 163 195 237 295 350
#     4  11  24  40  61  90 118 151 199 248 296 347
#
# _framework density 20.08287
#
# number of rings (size 3 to 8) (size 9 to 14) (size 15 to 20)
#    0.000    2.250    1.250    1.125    1.750    3.500 
#    0.000    6.250    0.000    0.000    0.000    0.000 
#    0.000    0.000    0.000    0.000    0.000    0.000 
#
# Total GULP energy -396731.684705 kJ/mol
# GULP energy per Si atom -12397.865147 kJ/mol
# Density = 2.003716 g / cm^3
# Si number density = 20.082870 Si / 1000 Ang^3
#
#
#
# Elastic Constant Matrix: (Units=GPa)
#
#
# Indices 1 2 3 4 5 6 
#
# 1 52.9302 17.7781 16.9192 0.0000 0.0000 0.0000
# 2 17.7781 69.6679 29.6916 0.0000 0.0000 0.0000
# 3 16.9192 29.6916 43.3539 0.0000 0.0000 0.0000
# 4 0.0000 0.0000 0.0000 28.1147 0.0000 0.0000
# 5 0.0000 0.0000 0.0000 0.0000 24.0005 0.0000
# 6 0.0000 0.0000 0.0000 0.0000 0.0000 29.4862
#
#
#
# Elastic Compliance Matrix: (Units=1/GPa)
#
#
# Indices 1 2 3 4 5 6 
#
# 1 0.021954 -0.002755 -0.006681 0.000000 0.000000 0.000000
# 2 -0.002755 0.020616 -0.013044 0.000000 0.000000 0.000000
# 3 -0.006681 -0.013044 0.034607 0.000000 0.000000 0.000000
# 4 0.000000 0.000000 0.000000 0.035569 0.000000 0.000000
# 5 0.000000 0.000000 0.000000 0.000000 0.041666 0.000000
# 6 0.000000 0.000000 0.000000 0.000000 0.000000 0.033914
#
#
# Mechanical properties :
#
#
# Convention : Reuss Voigt Hill
#
# Bulk Modulus (GPa) = 31.03980 32.74775 31.89378
# Shear Modulus (GPa) = 20.48981 23.09114 21.79048
#
# Velocity S-wave (km/s) = 3.19762 3.39454 3.29755
# Velocity P-wave (km/s) = 5.39652 5.63077 5.51489
#
# Compressibility (1/GPa) = 0.03221670
#
# Stress axis : x y z
#
# Youngs Moduli (GPa) = 45.55050 48.50587 28.89613
#
# Poissons Ratio (x) = 0.13363 0.19305
# Poissons Ratio (y) = 0.12549 0.37692
# Poissons Ratio (z) = 0.30431 0.63272
#
# Static dielectric constant tensor:
#      x y z
#    x 3.581650 0.000000 0.000000 
#    y 0.000000 3.583430 0.000000 
#    z 0.000000 0.000000 3.791790 
# 
# 
# High freq. dielectric constant tensor:
#      x y z
#    x 1.763430 0.000000 0.000000 
#    y 0.000000 1.776990 0.000000 
#    z 0.000000 0.000000 1.794120 
# 
# From -- ./inp_files/10943.got.cif
#   From: 2010.03.12/outbox.cif.g09.slc.cpg/sg36_6_cif.got.tgz:10943.got - 2010.04.14 02:13:53.
