data_PCOD8175780
_publ_section_title
;
Structure prediction by ZEFSAII (Michael W. Deem and Ramdas Pophale) SiO2 
 PCOD8175780
Probable space group: C M C 21
;
_chemical_formula_sum "Si O2"
_cell_formula_units_Z 56
_cell_length_a 31.184092
_cell_length_b 17.306198
_cell_length_c 5.030126
_cell_angle_alpha 90.000000
_cell_angle_beta 90.000000
_cell_angle_gamma 90.000000
_cell_volume 2714.648695
_symmetry_space_group_name_H-M "C M C 21"
_symmetry_group_IT_number 36
_symmetry_cell_setting 'orthorhombic'
loop_
_space_group_symop_operation_xyz
x,y,z
-x,-y,1/2+z
x,-y,1/2+z
-x,y,z
1/2+x,1/2+y,z
1/2-x,1/2-y,1/2+z
1/2+x,1/2-y,1/2+z
1/2-x,1/2+y,z
loop_
_atom_site_type_symbol
_atom_site_label
_atom_site_fract_x
_atom_site_fract_y
_atom_site_fract_z
Si Si1 0.000000 0.876806 0.527190
Si Si2 0.133068 0.449735 0.590028
Si Si3 0.500000 0.272562 0.027539
Si Si4 0.630774 0.712690 0.095228
Si Si5 0.091756 0.289043 0.594694
Si Si6 0.730091 0.287644 0.625061
Si Si7 0.268736 0.050024 0.046816
Si Si8 0.908884 0.049747 0.085614
O O1 0.041173 0.929609 0.571066
O O2 0.000000 0.844961 0.227599
O O3 0.000000 0.804947 0.728799
O O4 0.123249 0.482680 0.880964
O O5 0.102981 0.377280 0.530618
O O6 0.182235 0.421573 0.569724
O O7 0.459132 0.218664 0.072529
O O8 0.606125 0.768107 0.891646
O O9 0.680787 0.729880 0.066277
O O10 0.620558 0.623895 0.031525
O O11 0.615037 0.731208 0.391724
O O12 0.741006 0.260726 0.921757
O O13 0.737765 0.378640 0.600527
O O14 0.259041 0.018325 0.753788
O O15 0.897550 0.984326 0.872297
#
# Coordination Sequence:
#
# PCOD8175780 Si02
#       8
#     4   8   4   8   8   8   8   8
#     4  12  22  43  62  95 128 164 222 262 308 373
#     4  10  21  38  62  92 121 155 200 251 307 372
#     4  12  22  41  68  91 128 166 212 264 312 381
#     4  12  25  42  65  91 129 168 211 263 313 375
#     4  12  23  43  66  93 126 166 209 259 316 379
#     4  12  25  42  65  95 125 165 213 263 314 371
#     4  10  21  38  61  87 120 161 201 247 308 372
#     4  12  24  40  62  94 130 170 215 264 315 367
#
# _framework density 20.628820000000001
#
# number of rings (size 3 to 8) (size 9 to 14) (size 15 to 20)
#    0.000    0.571    2.857    6.429    0.000    3.429 
#    0.000    0.714    0.000    0.000    0.000    0.000 
#    0.000    0.000    0.000    0.000    0.000    0.000 
#
# Total GULP energy -347483.661031 kJ/mol
# GULP energy per Si atom -12410.130751 kJ/mol
# Density = 2.058187 g / cm^3
# Si number density = 20.628820 Si / 1000 Ang^3
#
#
#
# Elastic Constant Matrix: (Units=GPa)
#
#
# Indices 1 2 3 4 5 6 
#
# 1 105.1721 37.1690 18.6111 0.0000 0.0000 0.0000
# 2 37.1690 78.3474 7.5460 0.0000 0.0000 0.0000
# 3 18.6111 7.5460 82.4865 0.0000 0.0000 0.0000
# 4 0.0000 0.0000 0.0000 27.2452 0.0000 0.0000
# 5 0.0000 0.0000 0.0000 0.0000 20.5080 0.0000
# 6 0.0000 0.0000 0.0000 0.0000 0.0000 27.4586
#
#
#
# Elastic Compliance Matrix: (Units=1/GPa)
#
#
# Indices 1 2 3 4 5 6 
#
# 1 0.011796 -0.005387 -0.002169 0.000000 0.000000 0.000000
# 2 -0.005387 0.015338 -0.000188 0.000000 0.000000 0.000000
# 3 -0.002169 -0.000188 0.012630 0.000000 0.000000 0.000000
# 4 0.000000 0.000000 0.000000 0.036704 0.000000 0.000000
# 5 0.000000 0.000000 0.000000 0.000000 0.048761 0.000000
# 6 0.000000 0.000000 0.000000 0.000000 0.000000 0.036418
#
#
# Mechanical properties :
#
#
# Convention : Reuss Voigt Hill
#
# Bulk Modulus (GPa) = 41.19276 43.62871 42.41074
# Shear Modulus (GPa) = 26.99409 28.55435 27.77422
#
# Velocity S-wave (km/s) = 3.62133 3.72452 3.67328
# Velocity P-wave (km/s) = 6.12350 6.30011 6.21243
#
# Compressibility (1/GPa) = 0.02427611
#
# Stress axis : x y z
#
# Youngs Moduli (GPa) = 84.77519 65.19955 79.17868
#
# Poissons Ratio (x) = 0.35125 0.17171
# Poissons Ratio (y) = 0.45671 0.01485
# Poissons Ratio (z) = 0.18385 0.01223
#
# Static dielectric constant tensor:
#      x y z
#    x 3.764880 0.000000 0.000000 
#    y 0.000000 3.559660 0.000000 
#    z 0.000000 0.000000 3.929340 
# 
# 
# High freq. dielectric constant tensor:
#      x y z
#    x 1.800820 0.000000 0.000000 
#    y 0.000000 1.807070 0.000000 
#    z 0.000000 0.000000 1.826500 
# 
# From -- ./inp_files/1871.got.cif
#   From: 2010.03.12/outbox.cif.g09.slc.cpg/sg36_1_cif.got.tgz:1871.got - 2010.04.14 02:13:53.
