data_PCOD8175527
_publ_section_title
;
Structure prediction by ZEFSAII (Michael W. Deem and Ramdas Pophale) SiO2 
 PCOD8175527
Probable space group: C M C 21
;
_chemical_formula_sum "Si O2"
_cell_formula_units_Z 52
_cell_length_a 18.787396
_cell_length_b 21.317474
_cell_length_c 5.151220
_cell_angle_alpha 90.000000
_cell_angle_beta 90.000000
_cell_angle_gamma 90.000000
_cell_volume 2063.062712
_symmetry_space_group_name_H-M "C M C 21"
_symmetry_group_IT_number 36
_symmetry_cell_setting 'orthorhombic'
loop_
_space_group_symop_operation_xyz
x,y,z
-x,-y,1/2+z
x,-y,1/2+z
-x,y,z
1/2+x,1/2+y,z
1/2-x,1/2-y,1/2+z
1/2+x,1/2-y,1/2+z
1/2-x,1/2+y,z
loop_
_atom_site_type_symbol
_atom_site_label
_atom_site_fract_x
_atom_site_fract_y
_atom_site_fract_z
Si Si1 0.917090 0.038495 0.947440
Si Si2 0.000000 0.773975 0.423409
Si Si3 0.748022 0.149188 0.198448
Si Si4 0.000000 0.538163 0.920882
Si Si5 0.844130 0.456715 0.489777
Si Si6 0.000000 0.149470 0.413136
Si Si7 0.346252 0.254659 0.389518
Si Si8 0.644550 0.372036 0.092895
O O1 0.000000 0.058903 0.929600
O O2 0.896865 0.988235 0.725059
O O3 0.862315 0.096458 0.881043
O O4 0.000000 0.833591 0.612221
O O5 0.926442 0.738041 0.490431
O O6 0.000000 0.794425 0.122139
O O7 0.711303 0.101835 0.992901
O O8 0.799508 0.202205 0.080630
O O9 0.686289 0.186808 0.346359
O O10 0.789169 0.107677 0.416126
O O11 0.924912 0.573017 0.984823
O O12 0.000000 0.521834 0.615246
O O13 0.831409 0.500096 0.740470
O O14 0.070661 0.107125 0.449716
O O15 0.352367 0.296338 0.126526
#
# Coordination Sequence:
#
# PCOD8175527 Si02
#       8
#     8   4   8   4   8   4   8   8
#     4  10  23  40  61  93 128 171 228 277 322 384
#     4  10  22  41  68  91 132 171 235 267 321 421
#     4  12  25  42  70  96 146 175 228 289 346 422
#     4   8  16  39  68  95 130 170 219 281 344 410
#     4  10  24  44  71 103 136 180 230 282 350 413
#     4  10  20  38  62  92 118 175 224 270 327 385
#     4  11  25  44  66 102 133 187 227 281 353 404
#     4  11  23  41  65  89 132 179 225 278 339 402
#
# _framework density 25.205245000000001
#
# number of rings (size 3 to 8) (size 9 to 14) (size 15 to 20)
#    0.000    1.538    3.846    0.000    4.308    1.846 
#    0.000    0.000    0.000    3.692    0.000    0.000 
#    0.000    0.000    0.000    0.000    0.000    0.000 
#
# Total GULP energy -322112.500004 kJ/mol
# GULP energy per Si atom -12388.942308 kJ/mol
# Density = 2.514788 g / cm^3
# Si number density = 25.205245 Si / 1000 Ang^3
#
#
#
# Elastic Constant Matrix: (Units=GPa)
#
#
# Indices 1 2 3 4 5 6 
#
# 1 136.8541 19.8914 14.1967 0.0000 0.0000 0.0000
# 2 19.8914 57.5258 13.4046 0.0000 0.0000 0.0000
# 3 14.1967 13.4046 82.8286 0.0000 0.0000 0.0000
# 4 0.0000 0.0000 0.0000 28.4179 0.0000 0.0000
# 5 0.0000 0.0000 0.0000 0.0000 26.1607 0.0000
# 6 0.0000 0.0000 0.0000 0.0000 0.0000 21.6124
#
#
#
# Elastic Compliance Matrix: (Units=1/GPa)
#
#
# Indices 1 2 3 4 5 6 
#
# 1 0.007762 -0.002467 -0.000931 0.000000 0.000000 0.000000
# 2 -0.002467 0.018849 -0.002628 0.000000 0.000000 0.000000
# 3 -0.000931 -0.002628 0.012658 0.000000 0.000000 0.000000
# 4 0.000000 0.000000 0.000000 0.035189 0.000000 0.000000
# 5 0.000000 0.000000 0.000000 0.000000 0.038225 0.000000
# 6 0.000000 0.000000 0.000000 0.000000 0.000000 0.046270
#
#
# Mechanical properties :
#
#
# Convention : Reuss Voigt Hill
#
# Bulk Modulus (GPa) = 36.74116 41.35488 39.04802
# Shear Modulus (GPa) = 27.76586 30.55257 29.15921
#
# Velocity S-wave (km/s) = 3.32262 3.48537 3.40497
# Velocity P-wave (km/s) = 5.41555 5.71314 5.56634
#
# Compressibility (1/GPa) = 0.02721743
#
# Stress axis : x y z
#
# Youngs Moduli (GPa) = 128.82900 53.05370 79.00163
#
# Poissons Ratio (x) = 0.13089 0.07356
# Poissons Ratio (y) = 0.31783 0.20758
# Poissons Ratio (z) = 0.11996 0.13940
#
# Static dielectric constant tensor:
#      x y z
#    x 5.190470 0.000000 0.000000 
#    y 0.000000 4.147520 0.000000 
#    z 0.000000 0.000000 4.620570 
# 
# 
# High freq. dielectric constant tensor:
#      x y z
#    x 2.026390 0.000000 0.000000 
#    y 0.000000 1.959460 0.000000 
#    z 0.000000 0.000000 2.014830 
# 
# From -- ./inp_files/1396.got.cif
#   From: 2010.03.12/outbox.cif.g09.slc.cpg/sg36_1_cif.got.tgz:1396.got - 2010.04.14 02:13:53.
