data_PCOD8175154
_publ_section_title
;
Structure prediction by ZEFSAII (Michael W. Deem and Ramdas Pophale) SiO2 
 PCOD8175154
Probable space group: C M C 21
;
_chemical_formula_sum "Si O2"
_cell_formula_units_Z 64
_cell_length_a 9.320613
_cell_length_b 24.319667
_cell_length_c 14.482721
_cell_angle_alpha 90.000000
_cell_angle_beta 90.000000
_cell_angle_gamma 90.000000
_cell_volume 3282.859260
_symmetry_space_group_name_H-M "C M C 21"
_symmetry_group_IT_number 36
_symmetry_cell_setting 'orthorhombic'
loop_
_space_group_symop_operation_xyz
x,y,z
-x,-y,1/2+z
x,-y,1/2+z
-x,y,z
1/2+x,1/2+y,z
1/2-x,1/2-y,1/2+z
1/2+x,1/2-y,1/2+z
1/2-x,1/2+y,z
loop_
_atom_site_type_symbol
_atom_site_label
_atom_site_fract_x
_atom_site_fract_y
_atom_site_fract_z
Si Si1 0.831950 0.704792 0.575490
Si Si2 0.330572 0.450195 0.914459
Si Si3 0.659790 0.885452 0.223388
Si Si4 0.834703 0.701215 0.180775
Si Si5 0.161962 0.402291 0.561884
Si Si6 0.331954 0.575106 0.885502
Si Si7 0.658186 0.024196 0.586213
Si Si8 0.330364 0.841394 0.877051
O O1 0.790842 0.654542 0.641729
O O2 0.755502 0.757378 0.618519
O O3 0.780887 0.689933 0.471068
O O4 0.000000 0.716879 0.574573
O O5 0.500000 0.440039 0.909745
O O6 0.288957 0.510566 0.873079
O O7 0.250873 0.399757 0.863780
O O8 0.279544 0.450590 0.020427
O O9 0.500000 0.869955 0.258812
O O10 0.771632 0.885125 0.306235
O O11 0.663189 0.946916 0.184537
O O12 0.802632 0.641372 0.140183
O O13 0.791407 0.697943 0.289506
O O14 0.000000 0.718410 0.171220
O O15 0.270998 0.397785 0.477754
O O16 0.184816 0.460937 0.609947
O O17 0.000000 0.395241 0.523844
O O18 0.500000 0.581886 0.887699
O O19 0.500000 0.033402 0.539975
O O20 0.500000 0.853838 0.879241
#
# Coordination Sequence:
#
# PCOD8175154 Si02
#       8
#     8   8   8   8   8   8   8   8
#     4  10  22  41  61  85 118 153 194 241 292 348
#     4  10  20  34  54  85 121 154 191 236 293 349
#     4  10  20  35  58  87 115 154 199 237 285 345
#     4  10  23  40  62  90 115 149 199 246 292 345
#     4   9  19  37  58  84 116 152 195 240 287 346
#     4  10  22  36  53  85 125 162 194 235 294 352
#     4   9  17  33  57  83 114 152 191 236 289 340
#     4  10  21  40  63  85 112 150 197 245 288 347
#
# _framework density 19.495200000000001
#
# number of rings (size 3 to 8) (size 9 to 14) (size 15 to 20)
#    0.000    2.250    1.250    0.750    1.750    5.000 
#    0.000    2.500    0.000    0.000    0.000    0.000 
#    0.000    0.000    0.000    0.000    0.000    0.000 
#
# Total GULP energy -396653.545309 kJ/mol
# GULP energy per Si atom -12395.423291 kJ/mol
# Density = 1.945083 g / cm^3
# Si number density = 19.495200 Si / 1000 Ang^3
#
#
#
# Elastic Constant Matrix: (Units=GPa)
#
#
# Indices 1 2 3 4 5 6 
#
# 1 55.4547 29.3387 29.0833 0.0000 0.0000 0.0000
# 2 29.3387 71.2478 38.0290 0.0000 0.0000 0.0000
# 3 29.0833 38.0290 88.1000 0.0000 0.0000 0.0000
# 4 0.0000 0.0000 0.0000 22.9640 0.0000 0.0000
# 5 0.0000 0.0000 0.0000 0.0000 16.5892 0.0000
# 6 0.0000 0.0000 0.0000 0.0000 0.0000 34.3490
#
#
#
# Elastic Compliance Matrix: (Units=1/GPa)
#
#
# Indices 1 2 3 4 5 6 
#
# 1 0.024560 -0.007518 -0.004863 0.000000 0.000000 0.000000
# 2 -0.007518 0.020539 -0.006384 0.000000 0.000000 0.000000
# 3 -0.004863 -0.006384 0.015712 0.000000 0.000000 0.000000
# 4 0.000000 0.000000 0.000000 0.043546 0.000000 0.000000
# 5 0.000000 0.000000 0.000000 0.000000 0.060280 0.000000
# 6 0.000000 0.000000 0.000000 0.000000 0.000000 0.029113
#
#
# Mechanical properties :
#
#
# Convention : Reuss Voigt Hill
#
# Bulk Modulus (GPa) = 42.95218 45.30049 44.12633
# Shear Modulus (GPa) = 20.91699 22.67054 21.79377
#
# Velocity S-wave (km/s) = 3.27912 3.41380 3.34713
# Velocity P-wave (km/s) = 6.03463 6.23104 6.13362
#
# Compressibility (1/GPa) = 0.02328171
#
# Stress axis : x y z
#
# Youngs Moduli (GPa) = 40.71589 48.68836 63.64734
#
# Poissons Ratio (x) = 0.36605 0.30949
# Poissons Ratio (y) = 0.30611 0.40632
# Poissons Ratio (z) = 0.19798 0.31082
#
# Static dielectric constant tensor:
#      x y z
#    x 3.549580 0.000000 0.000000 
#    y 0.000000 3.587900 0.000000 
#    z 0.000000 0.000000 3.516160 
# 
# 
# High freq. dielectric constant tensor:
#      x y z
#    x 1.751550 0.000000 0.000000 
#    y 0.000000 1.755430 0.000000 
#    z 0.000000 0.000000 1.754050 
# 
# From -- ./inp_files/11066.got.cif
#   From: 2010.03.12/outbox.cif.g09.slc.cpg/sg36_6_cif.got.tgz:11066.got - 2010.04.14 02:13:53.
