data_PCOD8175354
_publ_section_title
;
Structure prediction by ZEFSAII (Michael W. Deem and Ramdas Pophale) SiO2 
 PCOD8175354
Probable space group: C M C 21
;
_chemical_formula_sum "Si O2"
_cell_formula_units_Z 64
_cell_length_a 9.111266
_cell_length_b 14.708724
_cell_length_c 24.203013
_cell_angle_alpha 90.000000
_cell_angle_beta 90.000000
_cell_angle_gamma 90.000000
_cell_volume 3243.569132
_symmetry_space_group_name_H-M "C M C 21"
_symmetry_group_IT_number 36
_symmetry_cell_setting 'orthorhombic'
loop_
_space_group_symop_operation_xyz
x,y,z
-x,-y,1/2+z
x,-y,1/2+z
-x,y,z
1/2+x,1/2+y,z
1/2-x,1/2-y,1/2+z
1/2+x,1/2-y,1/2+z
1/2-x,1/2+y,z
loop_
_atom_site_type_symbol
_atom_site_label
_atom_site_fract_x
_atom_site_fract_y
_atom_site_fract_z
Si Si1 0.173126 0.336364 0.696930
Si Si2 0.825470 0.132819 0.711480
Si Si3 0.832662 0.330228 0.434124
Si Si4 0.338028 0.643210 0.830465
Si Si5 0.837425 0.641403 0.319563
Si Si6 0.674686 0.480955 0.626565
Si Si7 0.828801 0.490914 0.511289
Si Si8 0.326738 0.623524 0.426744
O O1 0.229752 0.232608 0.693951
O O2 0.210993 0.381119 0.756663
O O3 0.262524 0.386646 0.649117
O O4 0.000000 0.343398 0.684751
O O5 0.767464 0.105307 0.773095
O O6 0.000000 0.135903 0.715620
O O7 0.769558 0.060733 0.666994
O O8 0.754374 0.383768 0.384085
O O9 0.806895 0.387480 0.489867
O O10 0.778808 0.226761 0.442438
O O11 0.000000 0.327437 0.416110
O O12 0.500000 0.602608 0.839921
O O13 0.344674 0.750916 0.824352
O O14 0.721299 0.601007 0.363530
O O15 0.000000 0.601344 0.331822
O O16 0.500000 0.476425 0.622642
O O17 0.740034 0.502874 0.567210
O O18 0.763454 0.560587 0.467510
O O19 0.000000 0.512400 0.520608
O O20 0.500000 0.607126 0.433267
#
# Coordination Sequence:
#
# PCOD8175354 Si02
#       8
#     8   8   8   8   8   8   8   8
#     4   9  18  36  59  80 107 145 180 210 258 323
#     4   8  17  35  57  79 108 144 174 209 265 324
#     4   9  20  37  56  79 109 142 173 214 269 321
#     4   8  14  29  55  83 108 137 174 212 256 317
#     4   8  15  30  54  83 112 141 173 209 257 322
#     4  11  23  38  55  79 108 138 182 233 273 311
#     4  11  24  41  56  74 105 145 187 224 266 324
#     4  10  20  36  58  83 109 138 175 221 270 314
#
# _framework density 19.731351
#
# number of rings (size 3 to 8) (size 9 to 14) (size 15 to 20)
#    0.000    2.750    0.000    2.625    0.000    4.000 
#    0.000   11.875    0.000    0.000    0.000    0.000 
#    0.000    0.000    0.000    0.000    0.000    0.000 
#
# Total GULP energy -396695.838372 kJ/mol
# GULP energy per Si atom -12396.744949 kJ/mol
# Density = 1.968644 g / cm^3
# Si number density = 19.731351 Si / 1000 Ang^3
#
#
#
# Elastic Constant Matrix: (Units=GPa)
#
#
# Indices 1 2 3 4 5 6 
#
# 1 63.3276 14.5083 24.5899 0.0000 0.0000 0.0000
# 2 14.5083 43.0190 8.7369 0.0000 0.0000 0.0000
# 3 24.5899 8.7369 81.9033 0.0000 0.0000 0.0000
# 4 0.0000 0.0000 0.0000 30.5008 0.0000 0.0000
# 5 0.0000 0.0000 0.0000 0.0000 35.0043 0.0000
# 6 0.0000 0.0000 0.0000 0.0000 0.0000 23.4968
#
#
#
# Elastic Compliance Matrix: (Units=1/GPa)
#
#
# Indices 1 2 3 4 5 6 
#
# 1 0.019016 -0.005370 -0.005136 0.000000 0.000000 0.000000
# 2 -0.005370 0.025277 -0.001084 0.000000 0.000000 0.000000
# 3 -0.005136 -0.001084 0.013867 0.000000 0.000000 0.000000
# 4 0.000000 0.000000 0.000000 0.032786 0.000000 0.000000
# 5 0.000000 0.000000 0.000000 0.000000 0.028568 0.000000
# 6 0.000000 0.000000 0.000000 0.000000 0.000000 0.042559
#
#
# Mechanical properties :
#
#
# Convention : Reuss Voigt Hill
#
# Bulk Modulus (GPa) = 28.58865 31.54668 30.06766
# Shear Modulus (GPa) = 25.39197 27.16137 26.27667
#
# Velocity S-wave (km/s) = 3.59121 3.71423 3.65324
# Velocity P-wave (km/s) = 5.63171 5.86658 5.75034
#
# Compressibility (1/GPa) = 0.03497892
#
# Stress axis : x y z
#
# Youngs Moduli (GPa) = 52.58856 39.56205 72.11255
#
# Poissons Ratio (x) = 0.21245 0.37039
# Poissons Ratio (y) = 0.28240 0.07818
# Poissons Ratio (z) = 0.27011 0.04289
#
# Static dielectric constant tensor:
#      x y z
#    x 3.531810 0.000000 0.000000 
#    y 0.000000 3.576480 0.000000 
#    z 0.000000 0.000000 3.756310 
# 
# 
# High freq. dielectric constant tensor:
#      x y z
#    x 1.755110 0.000000 0.000000 
#    y 0.000000 1.763280 0.000000 
#    z 0.000000 0.000000 1.771180 
# 
# From -- ./inp_files/16659.got.cif
#   From: 2010.03.12/outbox.cif.g09.slc.cpg/sg36_9_cif.got.tgz:16659.got - 2010.04.14 02:13:53.
