data_PCOD8175548
_publ_section_title
;
Structure prediction by ZEFSAII (Michael W. Deem and Ramdas Pophale) SiO2 
 PCOD8175548
Probable space group: C M C 21
;
_chemical_formula_sum "Si O2"
_cell_formula_units_Z 64
_cell_length_a 8.614581
_cell_length_b 15.200757
_cell_length_c 23.445693
_cell_angle_alpha 90.000000
_cell_angle_beta 90.000000
_cell_angle_gamma 90.000000
_cell_volume 3070.170181
_symmetry_space_group_name_H-M "C M C 21"
_symmetry_group_IT_number 36
_symmetry_cell_setting 'orthorhombic'
loop_
_space_group_symop_operation_xyz
x,y,z
-x,-y,1/2+z
x,-y,1/2+z
-x,y,z
1/2+x,1/2+y,z
1/2-x,1/2-y,1/2+z
1/2+x,1/2-y,1/2+z
1/2-x,1/2+y,z
loop_
_atom_site_type_symbol
_atom_site_label
_atom_site_fract_x
_atom_site_fract_y
_atom_site_fract_z
Si Si1 0.179664 0.755347 0.972770
Si Si2 0.679482 0.646617 0.786982
Si Si3 0.818783 0.093669 0.912994
Si Si4 0.819377 0.412051 0.903642
Si Si5 0.179474 0.917606 0.665057
Si Si6 0.320659 0.755794 0.603981
Si Si7 0.820518 0.401629 0.172665
Si Si8 0.178944 0.647615 0.278904
O O1 0.224408 0.656794 0.954993
O O2 0.282358 0.824282 0.938280
O O3 0.000000 0.772466 0.959417
O O4 0.217285 0.768015 0.039131
O O5 0.500000 0.624387 0.775456
O O6 0.733668 0.611626 0.848247
O O7 0.783367 0.597434 0.740074
O O8 0.711744 0.749711 0.784947
O O9 0.000000 0.111805 0.921614
O O10 0.777930 0.993355 0.928931
O O11 0.774072 0.398734 0.837740
O O12 0.000000 0.432694 0.910218
O O13 0.220709 0.839658 0.622031
O O14 0.212842 0.890681 0.729977
O O15 0.000000 0.940892 0.658921
O O16 0.277114 0.003485 0.647050
O O17 0.500000 0.779660 0.613344
O O18 0.281249 0.672845 0.642930
O O19 0.000000 0.381551 0.161703
O O20 0.000000 0.629889 0.262892
#
# Coordination Sequence:
#
# PCOD8175548 Si02
#       8
#     8   8   8   8   8   8   8   8
#     4  11  25  44  67  92 121 164 212 261 314 367
#     4  10  20  38  64  94 130 167 203 251 310 370
#     4  11  23  41  65  95 129 167 207 254 310 369
#     4  11  23  41  65  95 129 167 207 254 310 369
#     4  12  25  41  65  96 127 166 208 254 312 371
#     4  11  25  46  67  90 123 162 210 265 314 367
#     4  12  25  41  65  96 127 166 208 254 312 371
#     4  10  20  38  64  94 130 167 203 251 310 370
#
# _framework density 20.845749999999999
#
# number of rings (size 3 to 8) (size 9 to 14) (size 15 to 20)
#    0.000    1.000    2.500    4.500    0.000    7.000 
#    0.000    0.000    0.000    0.000    0.000    0.000 
#    0.000    0.000    0.000    0.000    0.000    0.000 
#
# Total GULP energy -397069.049323 kJ/mol
# GULP energy per Si atom -12408.407791 kJ/mol
# Density = 2.079830 g / cm^3
# Si number density = 20.845750 Si / 1000 Ang^3
#
#
#
# Elastic Constant Matrix: (Units=GPa)
#
#
# Indices 1 2 3 4 5 6 
#
# 1 65.7793 11.9807 35.3209 0.0000 0.0000 0.0000
# 2 11.9807 88.5567 2.2384 0.0000 0.0000 0.0000
# 3 35.3209 2.2384 64.5577 0.0000 0.0000 0.0000
# 4 0.0000 0.0000 0.0000 7.4594 0.0000 0.0000
# 5 0.0000 0.0000 0.0000 0.0000 29.9040 0.0000
# 6 0.0000 0.0000 0.0000 0.0000 0.0000 36.7172
#
#
#
# Elastic Compliance Matrix: (Units=1/GPa)
#
#
# Indices 1 2 3 4 5 6 
#
# 1 0.022150 -0.002693 -0.012025 0.000000 0.000000 0.000000
# 2 -0.002693 0.011629 0.001070 0.000000 0.000000 0.000000
# 3 -0.012025 0.001070 0.022032 0.000000 0.000000 0.000000
# 4 0.000000 0.000000 0.000000 0.134058 0.000000 0.000000
# 5 0.000000 0.000000 0.000000 0.000000 0.033440 0.000000
# 6 0.000000 0.000000 0.000000 0.000000 0.000000 0.027235
#
#
# Mechanical properties :
#
#
# Convention : Reuss Voigt Hill
#
# Bulk Modulus (GPa) = 35.06858 35.33044 35.19951
# Shear Modulus (GPa) = 17.40059 26.10638 21.75348
#
# Velocity S-wave (km/s) = 2.89230 3.54271 3.23390
# Velocity P-wave (km/s) = 5.29276 5.80687 5.55576
#
# Compressibility (1/GPa) = 0.02851555
#
# Stress axis : x y z
#
# Youngs Moduli (GPa) = 45.14687 85.98867 45.38799
#
# Poissons Ratio (x) = 0.23154 0.54581
# Poissons Ratio (y) = 0.12157 -0.04856
# Poissons Ratio (z) = 0.54291 -0.09201
#
# Static dielectric constant tensor:
#      x y z
#    x 3.669140 0.000000 0.000000 
#    y 0.000000 3.844200 0.000000 
#    z 0.000000 0.000000 3.773720 
# 
# 
# High freq. dielectric constant tensor:
#      x y z
#    x 1.818330 0.000000 0.000000 
#    y 0.000000 1.831190 0.000000 
#    z 0.000000 0.000000 1.811040 
# 
# From -- ./inp_files/16649.got.cif
#   From: 2010.03.12/outbox.cif.g09.slc.cpg/sg36_9_cif.got.tgz:16649.got - 2010.04.14 02:13:53.
