data_PCOD8175478
_publ_section_title
;
Structure prediction by ZEFSAII (Michael W. Deem and Ramdas Pophale) SiO2 
 PCOD8175478
Probable space group: C M C 21
;
_chemical_formula_sum "Si O2"
_cell_formula_units_Z 64
_cell_length_a 12.819775
_cell_length_b 17.350822
_cell_length_c 14.349927
_cell_angle_alpha 90.000000
_cell_angle_beta 90.000000
_cell_angle_gamma 90.000000
_cell_volume 3191.906412
_symmetry_space_group_name_H-M "C M C 21"
_symmetry_group_IT_number 36
_symmetry_cell_setting 'orthorhombic'
loop_
_space_group_symop_operation_xyz
x,y,z
-x,-y,1/2+z
x,-y,1/2+z
-x,y,z
1/2+x,1/2+y,z
1/2-x,1/2-y,1/2+z
1/2+x,1/2-y,1/2+z
1/2-x,1/2+y,z
loop_
_atom_site_type_symbol
_atom_site_label
_atom_site_fract_x
_atom_site_fract_y
_atom_site_fract_z
Si Si1 0.113529 0.870908 0.939720
Si Si2 0.385273 0.664481 0.646267
Si Si3 0.125444 0.835629 0.472697
Si Si4 0.242725 0.013518 0.926151
Si Si5 0.731970 0.819125 0.648227
Si Si6 0.803133 0.406689 0.248576
Si Si7 0.716335 0.244146 0.836144
Si Si8 0.620641 0.976828 0.602880
O O1 0.146442 0.784088 0.914263
O O2 0.000000 0.886579 0.896939
O O3 0.191935 0.932893 0.899042
O O4 0.111674 0.881682 0.050299
O O5 0.500000 0.667366 0.691910
O O6 0.348499 0.751147 0.624808
O O7 0.313055 0.616458 0.715746
O O8 0.154488 0.924919 0.455741
O O9 0.172124 0.812523 0.574368
O O10 0.178099 0.785748 0.388708
O O11 0.000000 0.823797 0.472721
O O12 0.302323 0.034162 0.832525
O O13 0.330404 0.002324 0.003997
O O14 0.765253 0.807189 0.755392
O O15 0.677832 0.902335 0.644656
O O16 0.849378 0.326312 0.289190
O O17 0.868594 0.446500 0.166714
O O18 0.500000 0.957354 0.589709
#
# Coordination Sequence:
#
# PCOD8175478 Si02
#       8
#     8   8   8   8   8   8   8   8
#     4  11  21  37  60  87 120 159 200 245 304 360
#     4  10  20  37  63  88 117 160 204 247 301 358
#     4  10  21  39  62  88 121 162 204 256 314 364
#     4  10  22  40  62  88 120 157 204 254 299 363
#     4  10  21  39  60  88 123 157 206 255 296 365
#     4  10  22  41  61  90 124 154 202 257 304 362
#     4  10  22  39  61  90 123 158 202 257 309 366
#     4  11  23  40  61  87 122 163 202 249 305 362
#
# _framework density 20.050712000000001
#
# number of rings (size 3 to 8) (size 9 to 14) (size 15 to 20)
#    0.000    1.750    2.500    1.500    0.000    7.000 
#    0.000    5.000    0.000    0.000    0.000    0.000 
#    0.000    0.000    0.000    0.000    0.000    0.000 
#
# Total GULP energy -396615.163426 kJ/mol
# GULP energy per Si atom -12394.223857 kJ/mol
# Density = 2.000508 g / cm^3
# Si number density = 20.050712 Si / 1000 Ang^3
#
#
#
# Elastic Constant Matrix: (Units=GPa)
#
#
# Indices 1 2 3 4 5 6 
#
# 1 70.4832 29.6845 38.7203 0.0000 0.0000 0.0000
# 2 29.6845 92.2568 39.0647 0.0000 0.0000 0.0000
# 3 38.7203 39.0647 111.5449 0.0000 0.0000 0.0000
# 4 0.0000 0.0000 0.0000 40.8187 0.0000 0.0000
# 5 0.0000 0.0000 0.0000 0.0000 8.1626 0.0000
# 6 0.0000 0.0000 0.0000 0.0000 0.0000 23.9487
#
#
#
# Elastic Compliance Matrix: (Units=1/GPa)
#
#
# Indices 1 2 3 4 5 6 
#
# 1 0.018610 -0.003819 -0.005123 0.000000 0.000000 0.000000
# 2 -0.003819 0.013510 -0.003406 0.000000 0.000000 0.000000
# 3 -0.005123 -0.003406 0.011936 0.000000 0.000000 0.000000
# 4 0.000000 0.000000 0.000000 0.024499 0.000000 0.000000
# 5 0.000000 0.000000 0.000000 0.000000 0.122510 0.000000
# 6 0.000000 0.000000 0.000000 0.000000 0.000000 0.041756
#
#
# Mechanical properties :
#
#
# Convention : Reuss Voigt Hill
#
# Bulk Modulus (GPa) = 51.64850 54.35819 53.00335
# Shear Modulus (GPa) = 18.94159 25.70704 22.32432
#
# Velocity S-wave (km/s) = 3.07691 3.58453 3.34037
# Velocity P-wave (km/s) = 6.19984 6.65590 6.43191
#
# Compressibility (1/GPa) = 0.01936164
#
# Stress axis : x y z
#
# Youngs Moduli (GPa) = 53.73361 74.01793 83.78007
#
# Poissons Ratio (x) = 0.28267 0.42918
# Poissons Ratio (y) = 0.20520 0.28534
# Poissons Ratio (z) = 0.27526 0.25209
#
# Static dielectric constant tensor:
#      x y z
#    x 3.448310 0.000000 0.000000 
#    y 0.000000 3.705330 0.000000 
#    z 0.000000 0.000000 3.778130 
# 
# 
# High freq. dielectric constant tensor:
#      x y z
#    x 1.760170 0.000000 0.000000 
#    y 0.000000 1.788180 0.000000 
#    z 0.000000 0.000000 1.797860 
# 
# From -- ./inp_files/11797.got.cif
#   From: 2010.03.12/outbox.cif.g09.slc.cpg/sg36_6_cif.got.tgz:11797.got - 2010.04.14 02:13:53.
