data_PCOD8175827
_publ_section_title
;
Structure prediction by ZEFSAII (Michael W. Deem and Ramdas Pophale) SiO2 
 PCOD8175827
Probable space group: C M C 21
;
_chemical_formula_sum "Si O2"
_cell_formula_units_Z 64
_cell_length_a 9.068428
_cell_length_b 22.541146
_cell_length_c 15.999802
_cell_angle_alpha 90.000000
_cell_angle_beta 90.000000
_cell_angle_gamma 90.000000
_cell_volume 3270.563679
_symmetry_space_group_name_H-M "C M C 21"
_symmetry_group_IT_number 36
_symmetry_cell_setting 'orthorhombic'
loop_
_space_group_symop_operation_xyz
x,y,z
-x,-y,1/2+z
x,-y,1/2+z
-x,y,z
1/2+x,1/2+y,z
1/2-x,1/2-y,1/2+z
1/2+x,1/2-y,1/2+z
1/2-x,1/2+y,z
loop_
_atom_site_type_symbol
_atom_site_label
_atom_site_fract_x
_atom_site_fract_y
_atom_site_fract_z
Si Si1 0.824180 0.468459 0.501840
Si Si2 0.668460 0.331837 0.124368
Si Si3 0.671990 0.222195 0.469686
Si Si4 0.326750 0.534120 0.657400
Si Si5 0.164151 0.334088 0.509678
Si Si6 0.838560 0.711751 0.196491
Si Si7 0.168998 0.985516 0.836795
Si Si8 0.333971 0.345814 0.831890
O O1 0.756628 0.503528 0.580322
O O2 0.770930 0.400349 0.507348
O O3 0.768622 0.492405 0.412974
O O4 0.000000 0.474632 0.506825
O O5 0.500000 0.331596 0.091471
O O6 0.771494 0.315044 0.047869
O O7 0.711964 0.396216 0.158700
O O8 0.688958 0.283021 0.197720
O O9 0.500000 0.229395 0.478078
O O10 0.737026 0.288300 0.457314
O O11 0.713252 0.184214 0.389659
O O12 0.500000 0.522136 0.645090
O O13 0.272820 0.509572 0.747315
O O14 0.161331 0.310315 0.602691
O O15 0.000000 0.334037 0.471065
O O16 0.705183 0.677384 0.239868
O O17 0.000000 0.698131 0.236628
O O18 0.183000 0.915489 0.834647
O O19 0.000000 0.005684 0.851484
O O20 0.500000 0.326657 0.855703
#
# Coordination Sequence:
#
# PCOD8175827 Si02
#       8
#     8   8   8   8   8   8   8   8
#     4  11  23  38  60  89 119 152 190 238 292 341
#     4   9  19  37  58  81 113 148 181 225 284 337
#     4  11  22  35  56  83 108 141 188 234 275 332
#     4  10  21  39  62  85 115 157 198 235 280 339
#     4   9  20  39  58  80 113 147 179 223 286 344
#     4   9  18  34  56  80 107 141 183 230 279 335
#     4  10  23  40  58  84 117 156 199 237 279 342
#     4  11  22  36  54  78 112 148 184 230 283 332
#
# _framework density 19.568491999999999
#
# number of rings (size 3 to 8) (size 9 to 14) (size 15 to 20)
#    0.000    2.000    0.000    4.125    0.000    9.000 
#    0.000    1.250    0.000    0.000    0.000    0.000 
#    0.000    0.000    0.000    0.000    0.000    0.000 
#
# Total GULP energy -396748.665292 kJ/mol
# GULP energy per Si atom -12398.395790 kJ/mol
# Density = 1.952395 g / cm^3
# Si number density = 19.568492 Si / 1000 Ang^3
#
#
#
# Elastic Constant Matrix: (Units=GPa)
#
#
# Indices 1 2 3 4 5 6 
#
# 1 84.8393 54.7041 38.3066 0.0000 0.0000 0.0000
# 2 54.7041 135.4771 43.5213 0.0000 0.0000 0.0000
# 3 38.3066 43.5213 90.2741 0.0000 0.0000 0.0000
# 4 0.0000 0.0000 0.0000 27.0138 0.0000 0.0000
# 5 0.0000 0.0000 0.0000 0.0000 57.1915 0.0000
# 6 0.0000 0.0000 0.0000 0.0000 0.0000 -138.9348
#
#
#
# Elastic Compliance Matrix: (Units=1/GPa)
#
#
# Indices 1 2 3 4 5 6 
#
# 1 0.017508 -0.005541 -0.004758 0.000000 0.000000 0.000000
# 2 -0.005541 0.010488 -0.002705 0.000000 0.000000 0.000000
# 3 -0.004758 -0.002705 0.014400 0.000000 0.000000 0.000000
# 4 0.000000 0.000000 0.000000 0.037018 0.000000 0.000000
# 5 0.000000 0.000000 0.000000 0.000000 0.017485 0.000000
# 6 0.000000 0.000000 0.000000 0.000000 0.000000 -0.007198
#
#
# Mechanical properties :
#
#
# Convention : Reuss Voigt Hill
#
# Bulk Modulus (GPa) = 61.01889 64.85051 62.93470
# Shear Modulus (GPa) = 41.26345 0.65799 20.96072
#
# Velocity S-wave (km/s) = 4.59701 0.58050 3.27639
# Velocity P-wave (km/s) = 7.70886 5.80185 6.82232
#
# Compressibility (1/GPa) = 0.01638837
#
# Stress axis : x y z
#
# Youngs Moduli (GPa) = 57.11601 95.34994 69.44269
#
# Poissons Ratio (x) = 0.52835 0.33041
# Poissons Ratio (y) = 0.31649 0.18783
# Poissons Ratio (z) = 0.27176 0.25790
#
# Static dielectric constant tensor:
#      x y z
#    x 3.361040 0.000000 0.000000 
#    y 0.000000 3.960400 0.000000 
#    z 0.000000 0.000000 3.480020 
# 
# 
# High freq. dielectric constant tensor:
#      x y z
#    x 1.758970 0.000000 0.000000 
#    y 0.000000 1.778860 0.000000 
#    z 0.000000 0.000000 1.755380 
# 
# From -- ./inp_files/10982.got.cif
#   From: 2010.03.12/outbox.cif.g09.slc.cpg/sg36_6_cif.got.tgz:10982.got - 2010.04.14 02:13:53.
