data_PCOD8175822
_publ_section_title
;
Structure prediction by ZEFSAII (Michael W. Deem and Ramdas Pophale) SiO2 
 PCOD8175822
Probable space group: C M C 21
;
_chemical_formula_sum "Si O2"
_cell_formula_units_Z 48
_cell_length_a 8.402129
_cell_length_b 30.565262
_cell_length_c 8.829611
_cell_angle_alpha 90.000000
_cell_angle_beta 90.000000
_cell_angle_gamma 90.000000
_cell_volume 2267.561311
_symmetry_space_group_name_H-M "C M C 21"
_symmetry_group_IT_number 36
_symmetry_cell_setting 'orthorhombic'
loop_
_space_group_symop_operation_xyz
x,y,z
-x,-y,1/2+z
x,-y,1/2+z
-x,y,z
1/2+x,1/2+y,z
1/2-x,1/2-y,1/2+z
1/2+x,1/2-y,1/2+z
1/2-x,1/2+y,z
loop_
_atom_site_type_symbol
_atom_site_label
_atom_site_fract_x
_atom_site_fract_y
_atom_site_fract_z
Si Si1 0.815282 0.968722 0.342320
Si Si2 0.686388 0.702337 0.860187
Si Si3 0.188900 0.118492 0.678819
Si Si4 0.182831 0.709317 0.190343
Si Si5 0.682378 0.953298 0.663580
Si Si6 0.315087 0.373772 0.837713
O O1 0.749496 0.926492 0.252601
O O2 0.793995 0.962202 0.520524
O O3 0.000000 0.976579 0.307122
O O4 0.717159 0.011026 0.292291
O O5 0.500000 0.698293 0.898517
O O6 0.752983 0.659013 0.777445
O O7 0.723098 0.742469 0.749402
O O8 0.783470 0.708397 0.012987
O O9 0.253309 0.121777 0.507713
O O10 0.000000 0.120465 0.678068
O O11 0.293111 0.675538 0.280779
O O12 0.000000 0.697108 0.220464
O O13 0.500000 0.955679 0.612450
O O14 0.717568 0.905462 0.728254
O O15 0.500000 0.386701 0.831590
#
# Coordination Sequence:
#
# PCOD8175822 Si02
#       6
#     8   8   8   8   8   8
#     4  11  22  40  65  91 120 162 211 251 300 368
#     4  10  21  39  61  86 119 159 201 246 300 360
#     4   9  20  38  62  88 114 152 204 251 290 351
#     4  11  23  38  59  90 123 156 201 253 302 356
#     4  12  25  41  61  91 127 160 202 258 312 359
#     4  11  22  40  64  88 119 161 205 249 304 368
#
# _framework density 21.168116000000001
#
# number of rings (size 3 to 8) (size 9 to 14) (size 15 to 20)
#    0.000    1.333    0.000    6.000    0.000    5.333 
#    0.000    5.000    0.000    0.000    0.000    0.000 
#    0.000    0.000    0.000    0.000    0.000    0.000 
#
# Total GULP energy -297791.977037 kJ/mol
# GULP energy per Si atom -12407.999043 kJ/mol
# Density = 2.111994 g / cm^3
# Si number density = 21.168116 Si / 1000 Ang^3
#
#
#
# Elastic Constant Matrix: (Units=GPa)
#
#
# Indices 1 2 3 4 5 6 
#
# 1 53.0369 25.5070 14.1796 0.0000 0.0000 0.0000
# 2 25.5070 89.5898 6.6595 0.0000 0.0000 0.0000
# 3 14.1796 6.6595 105.4503 0.0000 0.0000 0.0000
# 4 0.0000 0.0000 0.0000 46.7392 0.0000 0.0000
# 5 0.0000 0.0000 0.0000 0.0000 28.3170 0.0000
# 6 0.0000 0.0000 0.0000 0.0000 0.0000 30.5245
#
#
#
# Elastic Compliance Matrix: (Units=1/GPa)
#
#
# Indices 1 2 3 4 5 6 
#
# 1 0.022554 -0.006225 -0.002640 0.000000 0.000000 0.000000
# 2 -0.006225 0.012933 0.000020 0.000000 0.000000 0.000000
# 3 -0.002640 0.000020 0.009837 0.000000 0.000000 0.000000
# 4 0.000000 0.000000 0.000000 0.021395 0.000000 0.000000
# 5 0.000000 0.000000 0.000000 0.000000 0.035314 0.000000
# 6 0.000000 0.000000 0.000000 0.000000 0.000000 0.032761
#
#
# Mechanical properties :
#
#
# Convention : Reuss Voigt Hill
#
# Bulk Modulus (GPa) = 36.18608 37.86325 37.02467
# Shear Modulus (GPa) = 30.92238 34.56488 32.74363
#
# Velocity S-wave (km/s) = 3.82619 4.04527 3.93725
# Velocity P-wave (km/s) = 6.05404 6.30434 6.18045
#
# Compressibility (1/GPa) = 0.02763493
#
# Stress axis : x y z
#
# Youngs Moduli (GPa) = 44.33720 77.32248 101.65906
#
# Poissons Ratio (x) = 0.48135 0.26835
# Poissons Ratio (y) = 0.27601 -0.00207
# Poissons Ratio (z) = 0.11704 -0.00157
#
# Static dielectric constant tensor:
#      x y z
#    x 3.580730 0.000000 0.000000 
#    y 0.000000 3.995850 0.000000 
#    z 0.000000 0.000000 3.862140 
# 
# 
# High freq. dielectric constant tensor:
#      x y z
#    x 1.812030 0.000000 0.000000 
#    y 0.000000 1.845660 0.000000 
#    z 0.000000 0.000000 1.842970 
# 
# From -- ./inp_files/2680.got.cif
#   From: 2010.03.12/outbox.cif.g09.slc.cpg/sg36_2_cif.got.tgz:2680.got - 2010.04.14 02:13:53.
