data_PCOD8175513
_publ_section_title
;
Structure prediction by ZEFSAII (Michael W. Deem and Ramdas Pophale) SiO2 
 PCOD8175513
Probable space group: C M C 21
;
_chemical_formula_sum "Si O2"
_cell_formula_units_Z 64
_cell_length_a 19.005973
_cell_length_b 9.720418
_cell_length_c 16.870452
_cell_angle_alpha 90.000000
_cell_angle_beta 90.000000
_cell_angle_gamma 90.000000
_cell_volume 3116.748560
_symmetry_space_group_name_H-M "C M C 21"
_symmetry_group_IT_number 36
_symmetry_cell_setting 'orthorhombic'
loop_
_space_group_symop_operation_xyz
x,y,z
-x,-y,1/2+z
x,-y,1/2+z
-x,y,z
1/2+x,1/2+y,z
1/2-x,1/2-y,1/2+z
1/2+x,1/2-y,1/2+z
1/2-x,1/2+y,z
loop_
_atom_site_type_symbol
_atom_site_label
_atom_site_fract_x
_atom_site_fract_y
_atom_site_fract_z
Si Si1 0.920160 0.623013 0.447640
Si Si2 0.286066 0.708845 0.560736
Si Si3 0.580103 0.793022 0.635588
Si Si4 0.781055 0.473670 0.465172
Si Si5 0.921084 0.608410 0.624417
Si Si6 0.920678 0.176299 0.804966
Si Si7 0.792261 0.989816 0.803403
Si Si8 0.705870 0.786442 0.214376
O O1 0.861226 0.505301 0.438012
O O2 0.914827 0.680603 0.537845
O O3 0.902025 0.742644 0.385456
O O4 0.000000 0.565671 0.432527
O O5 0.368731 0.692635 0.584608
O O6 0.247418 0.567311 0.537728
O O7 0.248527 0.767816 0.638799
O O8 0.276659 0.814883 0.488934
O O9 0.500000 0.758749 0.610661
O O10 0.590534 0.776667 0.729959
O O11 0.601166 0.948937 0.613019
O O12 0.728330 0.499888 0.394160
O O13 0.874111 0.684612 0.689022
O O14 0.000000 0.616322 0.657869
O O15 0.000000 0.120200 0.808049
O O16 0.871257 0.045247 0.794637
O O17 0.791831 0.830296 0.780702
O O18 0.739192 0.074656 0.748511
#
# Coordination Sequence:
#
# PCOD8175513 Si02
#       8
#     8   8   8   8   8   8   8   8
#     4  10  20  38  61  89 122 162 207 252 311 379
#     4  12  22  40  63  90 125 158 205 260 312 365
#     4  10  20  38  64  94 124 161 210 261 314 374
#     4  12  25  40  62  92 127 165 206 258 316 378
#     4  10  21  39  64  94 125 162 210 263 316 372
#     4  10  22  40  62  88 126 170 209 254 316 385
#     4  12  26  42  64  91 130 167 212 257 319 380
#     4  12  24  41  64  94 125 163 205 265 314 369
#
# _framework density 20.534219
#
# number of rings (size 3 to 8) (size 9 to 14) (size 15 to 20)
#    0.000    1.000    3.750    3.750    1.750    0.500 
#    0.000    0.625    0.000    3.750    0.000    0.000 
#    0.000    0.000    0.000    0.000    0.000    0.000 
#
# Total GULP energy -396868.016570 kJ/mol
# GULP energy per Si atom -12402.125518 kJ/mol
# Density = 2.048748 g / cm^3
# Si number density = 20.534219 Si / 1000 Ang^3
#
#
#
# Elastic Constant Matrix: (Units=GPa)
#
#
# Indices 1 2 3 4 5 6 
#
# 1 111.1382 26.4647 25.2603 0.0000 0.0000 0.0000
# 2 26.4647 48.7959 7.2246 0.0000 0.0000 0.0000
# 3 25.2603 7.2246 75.5814 0.0000 0.0000 0.0000
# 4 0.0000 0.0000 0.0000 30.9614 0.0000 0.0000
# 5 0.0000 0.0000 0.0000 0.0000 38.1533 0.0000
# 6 0.0000 0.0000 0.0000 0.0000 0.0000 27.8997
#
#
#
# Elastic Compliance Matrix: (Units=1/GPa)
#
#
# Indices 1 2 3 4 5 6 
#
# 1 0.011029 -0.005514 -0.003159 0.000000 0.000000 0.000000
# 2 -0.005514 0.023544 -0.000408 0.000000 0.000000 0.000000
# 3 -0.003159 -0.000408 0.014325 0.000000 0.000000 0.000000
# 4 0.000000 0.000000 0.000000 0.032298 0.000000 0.000000
# 5 0.000000 0.000000 0.000000 0.000000 0.026210 0.000000
# 6 0.000000 0.000000 0.000000 0.000000 0.000000 0.035843
#
#
# Mechanical properties :
#
#
# Convention : Reuss Voigt Hill
#
# Bulk Modulus (GPa) = 32.53337 39.26828 35.90082
# Shear Modulus (GPa) = 29.12797 31.17395 30.15096
#
# Velocity S-wave (km/s) = 3.77040 3.90057 3.83603
# Velocity P-wave (km/s) = 5.90190 6.28098 6.09439
#
# Compressibility (1/GPa) = 0.03073767
#
# Stress axis : x y z
#
# Youngs Moduli (GPa) = 90.67209 42.47309 69.80560
#
# Poissons Ratio (x) = 0.23419 0.22051
# Poissons Ratio (y) = 0.49995 0.02846
# Poissons Ratio (z) = 0.28642 0.01732
#
# Static dielectric constant tensor:
#      x y z
#    x 4.013650 0.000000 0.000000 
#    y 0.000000 3.366640 0.000000 
#    z 0.000000 0.000000 3.840430 
# 
# 
# High freq. dielectric constant tensor:
#      x y z
#    x 1.823660 0.000000 0.000000 
#    y 0.000000 1.768140 0.000000 
#    z 0.000000 0.000000 1.812880 
# 
# From -- ./inp_files/15025.got.cif
#   From: 2010.03.12/outbox.cif.g09.slc.cpg/sg36_8_cif.got.tgz:15025.got - 2010.04.14 02:13:53.
