data_PCOD8175353
_publ_section_title
;
Structure prediction by ZEFSAII (Michael W. Deem and Ramdas Pophale) SiO2 
 PCOD8175353
Probable space group: C M C 21
;
_chemical_formula_sum "Si O2"
_cell_formula_units_Z 40
_cell_length_a 16.270731
_cell_length_b 8.782692
_cell_length_c 13.217456
_cell_angle_alpha 90.000000
_cell_angle_beta 90.000000
_cell_angle_gamma 90.000000
_cell_volume 1888.785287
_symmetry_space_group_name_H-M "C M C 21"
_symmetry_group_IT_number 36
_symmetry_cell_setting 'orthorhombic'
loop_
_space_group_symop_operation_xyz
x,y,z
-x,-y,1/2+z
x,-y,1/2+z
-x,y,z
1/2+x,1/2+y,z
1/2-x,1/2-y,1/2+z
1/2+x,1/2-y,1/2+z
1/2-x,1/2+y,z
loop_
_atom_site_type_symbol
_atom_site_label
_atom_site_fract_x
_atom_site_fract_y
_atom_site_fract_z
Si Si1 0.363406 0.603412 0.289920
Si Si2 0.500000 0.987875 0.020610
Si Si3 0.250000 0.847898 0.218192
Si Si4 0.000000 0.164813 0.127419
Si Si5 0.500000 0.835187 0.808965
Si Si6 0.363406 0.896588 0.646463
Si Si7 0.000000 0.012125 0.915774
O O1 0.299845 0.743187 0.298455
O O2 0.312718 0.447640 0.282783
O O3 0.418612 0.628276 0.190243
O O4 0.419900 0.589733 0.389606
O O5 0.500000 0.839681 0.092841
O O6 0.580100 0.089733 0.046777
O O7 0.500000 0.949263 0.903557
O O8 0.312718 0.947640 0.153601
O O9 0.200155 0.743188 0.137929
O O10 0.000000 0.050737 0.032827
O O11 0.500000 0.660318 0.843542
O O12 0.418612 0.871724 0.746141
#
# Coordination Sequence:
#
# PCOD8175353 Si02
#       7
#     8   4   8   4   4   8   4
#     4  10  20  38  58  82 114 152 182 236 274 338
#     4  10  20  37  60  85 112 149 191 230 274 334
#     4  10  20  36  58  82 116 150 184 226 294 320
#     4  10  20  37  60  85 112 149 191 230 274 334
#     4  10  20  37  60  85 112 149 191 230 274 334
#     4  10  20  38  58  82 114 152 182 236 274 338
#     4  10  20  37  60  85 112 149 191 230 274 334
#
# _framework density 21.177631999999999
#
# number of rings (size 3 to 8) (size 9 to 14) (size 15 to 20)
#    0.000    2.000    4.000    0.000    0.000    0.000 
#    0.000   16.000    0.000    0.000    0.000    0.000 
#    0.000    0.000    0.000    0.000    0.000    0.000 
#
# Total GULP energy -248010.825348 kJ/mol
# GULP energy per Si atom -12400.541267 kJ/mol
# Density = 2.112943 g / cm^3
# Si number density = 21.177632 Si / 1000 Ang^3
#
#
#
# Elastic Constant Matrix: (Units=GPa)
#
#
# Indices 1 2 3 4 5 6 
#
# 1 123.8686 42.3638 14.4803 0.0000 0.0000 0.0000
# 2 42.3638 93.9568 -1.5176 0.0000 0.0000 0.0000
# 3 14.4803 -1.5176 59.1673 0.0000 0.0000 0.0000
# 4 0.0000 0.0000 0.0000 21.5844 0.0000 0.0000
# 5 0.0000 0.0000 0.0000 0.0000 9.1235 0.0000
# 6 0.0000 0.0000 0.0000 0.0000 0.0000 35.3616
#
#
#
# Elastic Compliance Matrix: (Units=1/GPa)
#
#
# Indices 1 2 3 4 5 6 
#
# 1 0.009913 -0.004511 -0.002542 0.000000 0.000000 0.000000
# 2 -0.004511 0.012700 0.001430 0.000000 0.000000 0.000000
# 3 -0.002542 0.001430 0.017560 0.000000 0.000000 0.000000
# 4 0.000000 0.000000 0.000000 0.046330 0.000000 0.000000
# 5 0.000000 0.000000 0.000000 0.000000 0.109607 0.000000
# 6 0.000000 0.000000 0.000000 0.000000 0.000000 0.028279
#
#
# Mechanical properties :
#
#
# Convention : Reuss Voigt Hill
#
# Bulk Modulus (GPa) = 34.56918 43.07173 38.82046
# Shear Modulus (GPa) = 20.38517 27.99165 24.18841
#
# Velocity S-wave (km/s) = 3.10591 3.63954 3.38326
# Velocity P-wave (km/s) = 5.40566 6.16799 5.79937
#
# Compressibility (1/GPa) = 0.02892750
#
# Stress axis : x y z
#
# Youngs Moduli (GPa) = 100.87903 78.73980 56.94775
#
# Poissons Ratio (x) = 0.35517 0.14475
# Poissons Ratio (y) = 0.45503 -0.08142
# Poissons Ratio (z) = 0.25641 -0.11257
#
# Static dielectric constant tensor:
#      x y z
#    x 4.202180 0.000000 0.000000 
#    y 0.000000 4.031200 0.000000 
#    z 0.000000 0.000000 3.288610 
# 
# 
# High freq. dielectric constant tensor:
#      x y z
#    x 1.854680 0.000000 0.000000 
#    y 0.000000 1.846060 0.000000 
#    z 0.000000 0.000000 1.783130 
# 
# From -- ./inp_files/3823.got.cif
#   From: 2010.03.12/outbox.cif.g09.slc.cpg/sg36_2_cif.got.tgz:3823.got - 2010.04.14 02:13:53.
