data_PCOD8175079
_publ_section_title
;
Structure prediction by ZEFSAII (Michael W. Deem and Ramdas Pophale) SiO2 
 PCOD8175079
Probable space group: C M C 21
;
_chemical_formula_sum "Si O2"
_cell_formula_units_Z 48
_cell_length_a 8.817695
_cell_length_b 29.808063
_cell_length_c 9.125434
_cell_angle_alpha 90.000000
_cell_angle_beta 90.000000
_cell_angle_gamma 90.000000
_cell_volume 2398.514546
_symmetry_space_group_name_H-M "C M C 21"
_symmetry_group_IT_number 36
_symmetry_cell_setting 'orthorhombic'
loop_
_space_group_symop_operation_xyz
x,y,z
-x,-y,1/2+z
x,-y,1/2+z
-x,y,z
1/2+x,1/2+y,z
1/2-x,1/2-y,1/2+z
1/2+x,1/2-y,1/2+z
1/2-x,1/2+y,z
loop_
_atom_site_type_symbol
_atom_site_label
_atom_site_fract_x
_atom_site_fract_y
_atom_site_fract_z
Si Si1 0.679492 0.519336 0.937760
Si Si2 0.669830 0.361187 0.197455
Si Si3 0.167966 0.113863 0.036005
Si Si4 0.675748 0.199346 0.111815
Si Si5 0.178895 0.550499 0.638276
Si Si6 0.177254 0.274968 0.283501
O O1 0.500000 0.509775 0.936241
O O2 0.732160 0.528868 0.773532
O O3 0.717778 0.561749 0.044538
O O4 0.772750 0.476705 0.994154
O O5 0.500000 0.360736 0.131574
O O6 0.667097 0.373771 0.366485
O O7 0.771014 0.397913 0.112552
O O8 0.741475 0.311839 0.180347
O O9 0.282297 0.146507 0.122728
O O10 0.000000 0.120413 0.102553
O O11 0.500000 0.205205 0.145520
O O12 0.769195 0.225866 0.234630
O O13 0.721643 0.218505 0.952958
O O14 0.000000 0.548261 0.665005
O O15 0.000000 0.280706 0.260412
#
# Coordination Sequence:
#
# PCOD8175079 Si02
#       6
#     8   8   8   8   8   8
#     4  10  20  36  56  78 105 140 178 215 260 313
#     4   9  17  32  53  75 101 136 174 209 253 311
#     4   8  16  31  52  74  98 132 171 208 249 302
#     4  10  20  33  52  77 103 133 169 209 255 305
#     4  11  21  34  54  81 109 137 173 218 264 309
#     4  10  20  34  53  77 104 134 171 213 255 302
#
# _framework density 20.012385999999999
#
# number of rings (size 3 to 8) (size 9 to 14) (size 15 to 20)
#    0.000    2.333    0.000    4.500    0.000    6.667 
#    0.000    1.667    0.000    6.000    0.000    0.000 
#    0.000    0.000    0.000    0.000    0.000    0.000 
#
# Total GULP energy -297594.448651 kJ/mol
# GULP energy per Si atom -12399.768694 kJ/mol
# Density = 1.996684 g / cm^3
# Si number density = 20.012386 Si / 1000 Ang^3
#
#
#
# Elastic Constant Matrix: (Units=GPa)
#
#
# Indices 1 2 3 4 5 6 
#
# 1 87.8820 12.6406 8.6848 0.0000 0.0000 0.0000
# 2 12.6406 30.6837 -9.9742 0.0000 0.0000 0.0000
# 3 8.6848 -9.9742 15.1571 0.0000 0.0000 0.0000
# 4 0.0000 0.0000 0.0000 28.6980 0.0000 0.0000
# 5 0.0000 0.0000 0.0000 0.0000 24.9067 0.0000
# 6 0.0000 0.0000 0.0000 0.0000 0.0000 39.9497
#
#
#
# Elastic Compliance Matrix: (Units=1/GPa)
#
#
# Indices 1 2 3 4 5 6 
#
# 1 0.014506 -0.011039 -0.015576 0.000000 0.000000 0.000000
# 2 -0.011039 0.049860 0.039136 0.000000 0.000000 0.000000
# 3 -0.015576 0.039136 0.100653 0.000000 0.000000 0.000000
# 4 0.000000 0.000000 0.000000 0.034846 0.000000 0.000000
# 5 0.000000 0.000000 0.000000 0.000000 0.040150 0.000000
# 6 0.000000 0.000000 0.000000 0.000000 0.000000 0.025031
#
#
# Mechanical properties :
#
#
# Convention : Reuss Voigt Hill
#
# Bulk Modulus (GPa) = 5.26149 17.38059 11.32104
# Shear Modulus (GPa) = 16.48213 26.86900 21.67556
#
# Velocity S-wave (km/s) = 2.87295 3.66815 3.29463
# Velocity P-wave (km/s) = 3.69323 5.16180 4.48799
#
# Compressibility (1/GPa) = 0.19006040
#
# Stress axis : x y z
#
# Youngs Moduli (GPa) = 68.93702 20.05615 9.93508
#
# Poissons Ratio (x) = 0.22140 0.15475
# Poissons Ratio (y) = 0.76101 -0.38882
# Poissons Ratio (z) = 1.07376 -0.78491
#
# Static dielectric constant tensor:
#      x y z
#    x 3.676330 0.000000 0.000000 
#    y 0.000000 3.951760 0.000000 
#    z 0.000000 0.000000 3.161500 
# 
# 
# High freq. dielectric constant tensor:
#      x y z
#    x 1.788610 0.000000 0.000000 
#    y 0.000000 1.791180 0.000000 
#    z 0.000000 0.000000 1.734760 
# 
# From -- ./inp_files/2647.got.cif
#   From: 2010.03.12/outbox.cif.g09.slc.cpg/sg36_2_cif.got.tgz:2647.got - 2010.04.14 02:13:53.
