data_PCOD8175885
_publ_section_title
;
Structure prediction by ZEFSAII (Michael W. Deem and Ramdas Pophale) SiO2 
 PCOD8175885
Probable space group: C M C 21
;
_chemical_formula_sum "Si O2"
_cell_formula_units_Z 48
_cell_length_a 8.413380
_cell_length_b 27.385324
_cell_length_c 10.010431
_cell_angle_alpha 90.000000
_cell_angle_beta 90.000000
_cell_angle_gamma 90.000000
_cell_volume 2306.434707
_symmetry_space_group_name_H-M "C M C 21"
_symmetry_group_IT_number 36
_symmetry_cell_setting 'orthorhombic'
loop_
_space_group_symop_operation_xyz
x,y,z
-x,-y,1/2+z
x,-y,1/2+z
-x,y,z
1/2+x,1/2+y,z
1/2-x,1/2-y,1/2+z
1/2+x,1/2-y,1/2+z
1/2-x,1/2+y,z
loop_
_atom_site_type_symbol
_atom_site_label
_atom_site_fract_x
_atom_site_fract_y
_atom_site_fract_z
Si Si1 0.314423 0.862791 0.425160
Si Si2 0.685730 0.292203 0.210115
Si Si3 0.182236 0.035855 0.832815
Si Si4 0.686456 0.144437 0.482077
Si Si5 0.183673 0.534590 0.550037
Si Si6 0.187039 0.317817 0.697139
O O1 0.500000 0.876446 0.430762
O O2 0.288468 0.819007 0.322222
O O3 0.218043 0.909467 0.377949
O O4 0.245164 0.846479 0.568919
O O5 0.500000 0.293864 0.247690
O O6 0.753586 0.237190 0.203904
O O7 0.713195 0.317181 0.067307
O O8 0.285314 0.020708 0.703901
O O9 0.000000 0.032358 0.790389
O O10 0.215001 0.999486 0.953955
O O11 0.500000 0.153932 0.505339
O O12 0.735450 0.090290 0.525791
O O13 0.735069 0.151892 0.328198
O O14 0.000000 0.526208 0.516386
O O15 0.000000 0.314088 0.679270
#
# Coordination Sequence:
#
# PCOD8175885 Si02
#       6
#     8   8   8   8   8   8
#     4  11  22  40  64  90 124 167 213 255 308 379
#     4  11  21  37  61  90 127 164 204 259 318 365
#     4  12  26  44  66  96 131 162 204 265 323 371
#     4  10  21  40  64  89 121 163 210 254 303 371
#     4  11  24  43  69  95 123 167 215 256 312 384
#     4   9  21  38  60  92 124 161 210 261 306 364
#
# _framework density 20.811342
#
# number of rings (size 3 to 8) (size 9 to 14) (size 15 to 20)
#    0.000    1.333    1.667    4.000    2.333    0.667 
#    0.000    5.000    0.000    0.000    0.000    0.000 
#    0.000    0.000    0.000    0.000    0.000    0.000 
#
# Total GULP energy -297751.737373 kJ/mol
# GULP energy per Si atom -12406.322391 kJ/mol
# Density = 2.076397 g / cm^3
# Si number density = 20.811342 Si / 1000 Ang^3
#
#
#
# Elastic Constant Matrix: (Units=GPa)
#
#
# Indices 1 2 3 4 5 6 
#
# 1 48.6152 19.0967 6.3694 0.0000 0.0000 0.0000
# 2 19.0967 84.3680 43.9388 0.0000 0.0000 0.0000
# 3 6.3694 43.9388 144.4300 0.0000 0.0000 0.0000
# 4 0.0000 0.0000 0.0000 42.1989 0.0000 0.0000
# 5 0.0000 0.0000 0.0000 0.0000 29.0494 0.0000
# 6 0.0000 0.0000 0.0000 0.0000 0.0000 22.9799
#
#
#
# Elastic Compliance Matrix: (Units=1/GPa)
#
#
# Indices 1 2 3 4 5 6 
#
# 1 0.022631 -0.005469 0.000666 0.000000 0.000000 0.000000
# 2 -0.005469 0.015406 -0.004446 0.000000 0.000000 0.000000
# 3 0.000666 -0.004446 0.008247 0.000000 0.000000 0.000000
# 4 0.000000 0.000000 0.000000 0.023697 0.000000 0.000000
# 5 0.000000 0.000000 0.000000 0.000000 0.034424 0.000000
# 6 0.000000 0.000000 0.000000 0.000000 0.000000 0.043516
#
#
# Mechanical properties :
#
#
# Convention : Reuss Voigt Hill
#
# Bulk Modulus (GPa) = 35.98978 46.24699 41.11838
# Shear Modulus (GPa) = 28.46057 32.71287 30.58672
#
# Velocity S-wave (km/s) = 3.70205 3.96899 3.83784
# Velocity P-wave (km/s) = 5.96695 6.57831 6.28007
#
# Compressibility (1/GPa) = 0.02778567
#
# Stress axis : x y z
#
# Youngs Moduli (GPa) = 44.18741 64.90930 121.25798
#
# Poissons Ratio (x) = 0.35501 -0.08074
# Poissons Ratio (y) = 0.24167 0.53907
# Poissons Ratio (z) = -0.02942 0.28857
#
# Static dielectric constant tensor:
#      x y z
#    x 3.542480 0.000000 0.000000 
#    y 0.000000 3.862370 0.000000 
#    z 0.000000 0.000000 3.936890 
# 
# 
# High freq. dielectric constant tensor:
#      x y z
#    x 1.799320 0.000000 0.000000 
#    y 0.000000 1.822410 0.000000 
#    z 0.000000 0.000000 1.830760 
# 
# From -- ./inp_files/2709.got.cif
#   From: 2010.03.12/outbox.cif.g09.slc.cpg/sg36_2_cif.got.tgz:2709.got - 2010.04.14 02:13:53.
