data_PCOD8175768
_publ_section_title
;
Structure prediction by ZEFSAII (Michael W. Deem and Ramdas Pophale) SiO2 
 PCOD8175768
Probable space group: C M C 21
;
_chemical_formula_sum "Si O2"
_cell_formula_units_Z 64
_cell_length_a 9.318397
_cell_length_b 28.644748
_cell_length_c 12.553922
_cell_angle_alpha 90.000000
_cell_angle_beta 90.000000
_cell_angle_gamma 90.000000
_cell_volume 3350.932202
_symmetry_space_group_name_H-M "C M C 21"
_symmetry_group_IT_number 36
_symmetry_cell_setting 'orthorhombic'
loop_
_space_group_symop_operation_xyz
x,y,z
-x,-y,1/2+z
x,-y,1/2+z
-x,y,z
1/2+x,1/2+y,z
1/2-x,1/2-y,1/2+z
1/2+x,1/2-y,1/2+z
1/2-x,1/2+y,z
loop_
_atom_site_type_symbol
_atom_site_label
_atom_site_fract_x
_atom_site_fract_y
_atom_site_fract_z
Si Si1 0.170510 0.818552 0.281400
Si Si2 0.830581 0.720357 0.364422
Si Si3 0.330714 0.583835 0.865923
Si Si4 0.834874 0.622992 0.270904
Si Si5 0.169550 0.974120 0.153326
Si Si6 0.167795 0.438965 0.579499
Si Si7 0.157100 0.083988 0.450430
Si Si8 0.657864 0.684575 0.546863
O O1 0.231471 0.769092 0.320985
O O2 0.223476 0.862741 0.350502
O O3 0.227487 0.824224 0.161704
O O4 0.000000 0.819591 0.281391
O O5 0.781852 0.676542 0.289792
O O6 0.765328 0.717154 0.481930
O O7 0.000000 0.722356 0.374366
O O8 0.500000 0.581274 0.889903
O O9 0.292630 0.554564 0.760066
O O10 0.246194 0.563234 0.966164
O O11 0.810588 0.608936 0.147390
O O12 0.757292 0.584860 0.346611
O O13 0.000000 0.619541 0.303419
O O14 0.000000 0.984458 0.148901
O O15 0.261267 0.021208 0.152701
O O16 0.220003 0.946288 0.047517
O O17 0.000000 0.449344 0.561150
O O18 0.139691 0.136131 0.489151
O O19 0.000000 0.064387 0.416819
O O20 0.500000 0.708622 0.555721
#
# Coordination Sequence:
#
# PCOD8175768 Si02
#       8
#     8   8   8   8   8   8   8   8
#     4   9  17  33  58  82 108 145 185 229 279 331
#     4   9  18  33  54  80 110 148 189 226 274 332
#     4  10  21  40  62  85 113 145 189 237 284 335
#     4   9  20  37  53  76 114 153 185 222 274 335
#     4  10  21  38  60  84 108 140 187 239 284 332
#     4  11  25  40  55  81 120 156 187 226 281 344
#     4   9  17  32  57  82 102 131 181 239 280 321
#     4   9  16  31  53  78 105 138 181 230 280 326
#
# _framework density 19.099163000000001
#
# number of rings (size 3 to 8) (size 9 to 14) (size 15 to 20)
#    0.000    2.500    1.250    0.375    1.750    3.000 
#    0.000    3.125    0.000    0.000    0.000    0.000 
#    0.000    0.000    0.000    0.000    0.000    0.000 
#
# Total GULP energy -396617.100182 kJ/mol
# GULP energy per Si atom -12394.284381 kJ/mol
# Density = 1.905569 g / cm^3
# Si number density = 19.099163 Si / 1000 Ang^3
#
#
#
# Elastic Constant Matrix: (Units=GPa)
#
#
# Indices 1 2 3 4 5 6 
#
# 1 47.7669 38.7861 37.9994 0.0000 0.0000 0.0000
# 2 38.7861 101.0537 47.1332 0.0000 0.0000 0.0000
# 3 37.9994 47.1332 104.2974 0.0000 0.0000 0.0000
# 4 0.0000 0.0000 0.0000 23.8710 0.0000 0.0000
# 5 0.0000 0.0000 0.0000 0.0000 27.2306 0.0000
# 6 0.0000 0.0000 0.0000 0.0000 0.0000 19.2554
#
#
#
# Elastic Compliance Matrix: (Units=1/GPa)
#
#
# Indices 1 2 3 4 5 6 
#
# 1 0.035632 -0.009656 -0.008618 0.000000 0.000000 0.000000
# 2 -0.009656 0.015156 -0.003331 0.000000 0.000000 0.000000
# 3 -0.008618 -0.003331 0.014233 0.000000 0.000000 0.000000
# 4 0.000000 0.000000 0.000000 0.041892 0.000000 0.000000
# 5 0.000000 0.000000 0.000000 0.000000 0.036723 0.000000
# 6 0.000000 0.000000 0.000000 0.000000 0.000000 0.051933
#
#
# Mechanical properties :
#
#
# Convention : Reuss Voigt Hill
#
# Bulk Modulus (GPa) = 45.85104 55.66170 50.75637
# Shear Modulus (GPa) = 20.32110 22.68468 21.50289
#
# Velocity S-wave (km/s) = 3.26541 3.45009 3.35902
# Velocity P-wave (km/s) = 6.18677 6.71399 6.45576
#
# Compressibility (1/GPa) = 0.02180976
#
# Stress axis : x y z
#
# Youngs Moduli (GPa) = 28.06485 65.98242 70.25883
#
# Poissons Ratio (x) = 0.63715 0.60550
# Poissons Ratio (y) = 0.27101 0.23402
# Poissons Ratio (z) = 0.24187 0.21977
#
# Static dielectric constant tensor:
#      x y z
#    x 3.487110 0.000000 0.000000 
#    y 0.000000 3.656590 0.000000 
#    z 0.000000 0.000000 3.562160 
# 
# 
# High freq. dielectric constant tensor:
#      x y z
#    x 1.718940 0.000000 0.000000 
#    y 0.000000 1.742130 0.000000 
#    z 0.000000 0.000000 1.745700 
# 
# From -- ./inp_files/7245.got.cif
#   From: 2010.03.12/outbox.cif.g09.slc.cpg/sg36_4_cif.got.tgz:7245.got - 2010.04.14 02:13:53.
