data_PCOD8175801
_publ_section_title
;
Structure prediction by ZEFSAII (Michael W. Deem and Ramdas Pophale) SiO2 
 PCOD8175801
Probable space group: C M C 21
;
_chemical_formula_sum "Si O2"
_cell_formula_units_Z 52
_cell_length_a 20.269852
_cell_length_b 21.073034
_cell_length_c 4.926955
_cell_angle_alpha 90.000000
_cell_angle_beta 90.000000
_cell_angle_gamma 90.000000
_cell_volume 2104.535429
_symmetry_space_group_name_H-M "C M C 21"
_symmetry_group_IT_number 36
_symmetry_cell_setting 'orthorhombic'
loop_
_space_group_symop_operation_xyz
x,y,z
-x,-y,1/2+z
x,-y,1/2+z
-x,y,z
1/2+x,1/2+y,z
1/2-x,1/2-y,1/2+z
1/2+x,1/2-y,1/2+z
1/2-x,1/2+y,z
loop_
_atom_site_type_symbol
_atom_site_label
_atom_site_fract_x
_atom_site_fract_y
_atom_site_fract_z
Si Si1 0.073034 0.268782 0.163000
Si Si2 0.199633 0.040645 0.883290
Si Si3 0.648313 0.960448 0.416979
Si Si4 0.000000 0.046420 0.328964
Si Si5 0.758434 0.206791 0.371091
Si Si6 0.126327 0.334036 0.656108
Si Si7 0.381028 0.365005 0.706963
O O1 0.122681 0.282670 0.413085
O O2 0.000000 0.278660 0.279859
O O3 0.079726 0.314695 0.904585
O O4 0.083459 0.195945 0.072114
O O5 0.275245 0.059903 0.931989
O O6 0.152184 0.098625 0.955232
O O7 0.183857 0.020247 0.575656
O O8 0.605183 0.901228 0.522533
O O9 0.631453 0.020793 0.608826
O O10 0.934769 0.090650 0.358444
O O11 0.000000 0.989822 0.543766
O O12 0.733804 0.235849 0.655102
O O13 0.700244 0.161068 0.268465
O O14 0.822848 0.161677 0.405778
#
# Coordination Sequence:
#
# PCOD8175801 Si02
#       7
#     8   8   8   4   8   8   8
#     4  12  27  45  69  99 132 182 228 284 347 414
#     4  10  22  37  58  91 131 171 215 266 322 387
#     4  10  21  38  64  98 131 166 205 260 332 405
#     4  12  30  50  70 100 146 208 258 294 340 420
#     4  12  24  40  64 106 139 179 229 295 369 418
#     4  12  23  45  69  98 139 173 221 286 347 423
#     4  12  24  45  68  97 142 183 241 287 347 413
#
# _framework density 24.708542000000001
#
# number of rings (size 3 to 8) (size 9 to 14) (size 15 to 20)
#    0.000    0.615    5.385    2.308    0.000    4.923 
#    0.000    0.000    0.000    9.231    0.000    0.000 
#    0.000    0.000    0.000    0.000    0.000    0.000 
#
# Total GULP energy -322407.154520 kJ/mol
# GULP energy per Si atom -12400.275174 kJ/mol
# Density = 2.465230 g / cm^3
# Si number density = 24.708542 Si / 1000 Ang^3
#
#
#
# Elastic Constant Matrix: (Units=GPa)
#
#
# Indices 1 2 3 4 5 6 
#
# 1 96.9543 44.0439 22.6470 0.0000 0.0000 0.0000
# 2 44.0439 88.3219 -3.2500 0.0000 0.0000 0.0000
# 3 22.6470 -3.2500 75.9702 0.0000 0.0000 0.0000
# 4 0.0000 0.0000 0.0000 16.7739 0.0000 0.0000
# 5 0.0000 0.0000 0.0000 0.0000 24.3184 0.0000
# 6 0.0000 0.0000 0.0000 0.0000 0.0000 48.7623
#
#
#
# Elastic Compliance Matrix: (Units=1/GPa)
#
#
# Indices 1 2 3 4 5 6 
#
# 1 0.014875 -0.007593 -0.004759 0.000000 0.000000 0.000000
# 2 -0.007593 0.015216 0.002914 0.000000 0.000000 0.000000
# 3 -0.004759 0.002914 0.014706 0.000000 0.000000 0.000000
# 4 0.000000 0.000000 0.000000 0.059616 0.000000 0.000000
# 5 0.000000 0.000000 0.000000 0.000000 0.041121 0.000000
# 6 0.000000 0.000000 0.000000 0.000000 0.000000 0.020508
#
#
# Mechanical properties :
#
#
# Convention : Reuss Voigt Hill
#
# Bulk Modulus (GPa) = 38.57718 43.12537 40.85128
# Shear Modulus (GPa) = 25.83194 31.15793 28.49493
#
# Velocity S-wave (km/s) = 3.23687 3.55493 3.39963
# Velocity P-wave (km/s) = 5.44211 5.86017 5.65501
#
# Compressibility (1/GPa) = 0.02592206
#
# Stress axis : x y z
#
# Youngs Moduli (GPa) = 67.22643 65.72078 67.99731
#
# Poissons Ratio (x) = 0.49902 0.32361
# Poissons Ratio (y) = 0.51045 -0.19817
# Poissons Ratio (z) = 0.31994 -0.19154
#
# Static dielectric constant tensor:
#      x y z
#    x 4.378500 0.000000 0.000000 
#    y 0.000000 4.423040 0.000000 
#    z 0.000000 0.000000 4.228050 
# 
# 
# High freq. dielectric constant tensor:
#      x y z
#    x 1.966950 0.000000 0.000000 
#    y 0.000000 1.991280 0.000000 
#    z 0.000000 0.000000 1.976750 
# 
# From -- ./inp_files/1392.got.cif
#   From: 2010.03.12/outbox.cif.g09.slc.cpg/sg36_1_cif.got.tgz:1392.got - 2010.04.14 02:13:53.
