data_PCOD8175892
_publ_section_title
;
Structure prediction by ZEFSAII (Michael W. Deem and Ramdas Pophale) SiO2 
 PCOD8175892
Probable space group: C M C 21
;
_chemical_formula_sum "Si O2"
_cell_formula_units_Z 64
_cell_length_a 8.681453
_cell_length_b 23.990494
_cell_length_c 15.154010
_cell_angle_alpha 90.000000
_cell_angle_beta 90.000000
_cell_angle_gamma 90.000000
_cell_volume 3156.161216
_symmetry_space_group_name_H-M "C M C 21"
_symmetry_group_IT_number 36
_symmetry_cell_setting 'orthorhombic'
loop_
_space_group_symop_operation_xyz
x,y,z
-x,-y,1/2+z
x,-y,1/2+z
-x,y,z
1/2+x,1/2+y,z
1/2-x,1/2-y,1/2+z
1/2+x,1/2-y,1/2+z
1/2-x,1/2+y,z
loop_
_atom_site_type_symbol
_atom_site_label
_atom_site_fract_x
_atom_site_fract_y
_atom_site_fract_z
Si Si1 0.173403 0.628346 0.000000
Si Si2 0.820074 0.994065 0.759943
Si Si3 0.818277 0.495674 0.450875
Si Si4 0.179956 0.773594 0.756801
Si Si5 0.817632 0.696372 0.599654
Si Si6 0.173256 0.383291 0.703333
Si Si7 0.316885 0.929646 0.114394
Si Si8 0.178766 0.234344 0.930893
O O1 0.229235 0.566729 0.975907
O O2 0.295601 0.670682 0.959110
O O3 0.000000 0.639084 0.964062
O O4 0.176515 0.637345 0.103834
O O5 0.760202 0.988854 0.859332
O O6 0.782372 0.936359 0.711976
O O7 0.000000 0.004765 0.760757
O O8 0.743327 0.044541 0.705912
O O9 0.757454 0.536163 0.528898
O O10 0.000000 0.502446 0.440401
O O11 0.247516 0.734266 0.679228
O O12 0.266219 0.832582 0.762203
O O13 0.211415 0.743548 0.848380
O O14 0.000000 0.784455 0.742622
O O15 0.752949 0.633466 0.606726
O O16 0.766114 0.723425 0.507328
O O17 0.000000 0.694795 0.606501
O O18 0.000000 0.399359 0.733132
O O19 0.500000 0.931521 0.118177
O O20 0.000000 0.243247 0.907063
#
# Coordination Sequence:
#
# PCOD8175892 Si02
#       8
#     8   8   8   8   8   8   8   8
#     4  10  21  40  65  92 119 158 211 265 312 362
#     4  12  26  41  61  95 131 163 201 258 322 374
#     4  10  22  41  66  91 119 163 216 258 306 371
#     4  11  23  41  62  94 129 165 207 259 315 365
#     4   9  21  40  63  88 123 165 206 250 306 364
#     4  11  22  42  68  92 119 163 215 260 311 375
#     4  10  21  43  67  89 120 167 215 255 302 371
#     4  11  23  40  62  93 126 166 209 253 312 376
#
# _framework density 20.277798000000001
#
# number of rings (size 3 to 8) (size 9 to 14) (size 15 to 20)
#    0.000    1.500    2.500    2.250    3.500    1.500 
#    0.000    1.875    0.000    0.000    0.000    0.000 
#    0.000    0.000    0.000    0.000    0.000    0.000 
#
# Total GULP energy -396923.277840 kJ/mol
# GULP energy per Si atom -12403.852432 kJ/mol
# Density = 2.023164 g / cm^3
# Si number density = 20.277798 Si / 1000 Ang^3
#
#
#
# Elastic Constant Matrix: (Units=GPa)
#
#
# Indices 1 2 3 4 5 6 
#
# 1 38.1100 19.7808 21.8209 0.0000 0.0000 0.0000
# 2 19.7808 124.7844 26.5858 0.0000 0.0000 0.0000
# 3 21.8209 26.5858 95.5075 0.0000 0.0000 0.0000
# 4 0.0000 0.0000 0.0000 29.1453 0.0000 0.0000
# 5 0.0000 0.0000 0.0000 0.0000 26.5508 0.0000
# 6 0.0000 0.0000 0.0000 0.0000 0.0000 30.0462
#
#
#
# Elastic Compliance Matrix: (Units=1/GPa)
#
#
# Indices 1 2 3 4 5 6 
#
# 1 0.031722 -0.003704 -0.006216 0.000000 0.000000 0.000000
# 2 -0.003704 0.008952 -0.001646 0.000000 0.000000 0.000000
# 3 -0.006216 -0.001646 0.012349 0.000000 0.000000 0.000000
# 4 0.000000 0.000000 0.000000 0.034311 0.000000 0.000000
# 5 0.000000 0.000000 0.000000 0.000000 0.037664 0.000000
# 6 0.000000 0.000000 0.000000 0.000000 0.000000 0.033282
#
#
# Mechanical properties :
#
#
# Convention : Reuss Voigt Hill
#
# Bulk Modulus (GPa) = 33.45606 43.86409 38.66008
# Shear Modulus (GPa) = 26.12681 29.82941 27.97811
#
# Velocity S-wave (km/s) = 3.59338 3.83957 3.71852
# Velocity P-wave (km/s) = 5.80958 6.42923 6.12724
#
# Compressibility (1/GPa) = 0.02988995
#
# Stress axis : x y z
#
# Youngs Moduli (GPa) = 31.52402 111.71215 80.98000
#
# Poissons Ratio (x) = 0.41379 0.50341
# Poissons Ratio (y) = 0.11677 0.13325
# Poissons Ratio (z) = 0.19597 0.18382
#
# Static dielectric constant tensor:
#      x y z
#    x 3.469540 0.000000 0.000000 
#    y 0.000000 3.849750 0.000000 
#    z 0.000000 0.000000 3.725670 
# 
# 
# High freq. dielectric constant tensor:
#      x y z
#    x 1.773240 0.000000 0.000000 
#    y 0.000000 1.804480 0.000000 
#    z 0.000000 0.000000 1.799210 
# 
# From -- ./inp_files/10966.got.cif
#   From: 2010.03.12/outbox.cif.g09.slc.cpg/sg36_6_cif.got.tgz:10966.got - 2010.04.14 02:13:53.
