data_PCOD8175461
_publ_section_title
;
Structure prediction by ZEFSAII (Michael W. Deem and Ramdas Pophale) SiO2 
 PCOD8175461
Probable space group: C M C 21
;
_chemical_formula_sum "Si O2"
_cell_formula_units_Z 64
_cell_length_a 8.926768
_cell_length_b 14.810877
_cell_length_c 24.260801
_cell_angle_alpha 90.000000
_cell_angle_beta 90.000000
_cell_angle_gamma 90.000000
_cell_volume 3207.599660
_symmetry_space_group_name_H-M "C M C 21"
_symmetry_group_IT_number 36
_symmetry_cell_setting 'orthorhombic'
loop_
_space_group_symop_operation_xyz
x,y,z
-x,-y,1/2+z
x,-y,1/2+z
-x,y,z
1/2+x,1/2+y,z
1/2-x,1/2-y,1/2+z
1/2+x,1/2-y,1/2+z
1/2-x,1/2+y,z
loop_
_atom_site_type_symbol
_atom_site_label
_atom_site_fract_x
_atom_site_fract_y
_atom_site_fract_z
Si Si1 0.172583 0.873148 0.913680
Si Si2 0.676571 0.127659 0.694115
Si Si3 0.823579 0.475556 0.484846
Si Si4 0.170591 0.848619 0.301392
Si Si5 0.324002 0.679798 0.921987
Si Si6 0.329300 0.332009 0.675245
Si Si7 0.831310 0.832738 0.795203
Si Si8 0.175702 0.519332 0.110226
O O1 0.230598 0.772026 0.923982
O O2 0.185551 0.898489 0.848115
O O3 0.000000 0.880500 0.932976
O O4 0.274143 0.941404 0.947315
O O5 0.500000 0.121614 0.694599
O O6 0.732183 0.099138 0.755420
O O7 0.730042 0.229043 0.679584
O O8 0.744777 0.060073 0.648368
O O9 0.735543 0.384320 0.470184
O O10 0.779319 0.499671 0.547393
O O11 0.000000 0.459363 0.477663
O O12 0.203476 0.876137 0.364872
O O13 0.204595 0.742427 0.299708
O O14 0.000000 0.866426 0.285558
O O15 0.500000 0.701098 0.929944
O O16 0.500000 0.333003 0.655294
O O17 0.311393 0.380758 0.735579
O O18 0.235206 0.383711 0.629480
O O19 0.000000 0.788962 0.796328
O O20 0.000000 0.521848 0.117328
#
# Coordination Sequence:
#
# PCOD8175461 Si02
#       8
#     8   8   8   8   8   8   8   8
#     4  10  20  37  61  87 115 146 182 228 282 336
#     4   9  19  37  57  78 109 146 177 214 273 333
#     4  11  24  40  56  79 112 150 195 238 276 326
#     4   9  17  30  53  85 113 137 174 222 269 324
#     4  10  21  38  59  84 115 149 185 228 279 332
#     4   9  18  34  57  82 108 141 177 215 268 329
#     4   8  16  32  54  81 113 144 173 212 270 336
#     4  10  23  40  55  76 107 143 187 233 271 316
#
# _framework density 19.952615999999999
#
# number of rings (size 3 to 8) (size 9 to 14) (size 15 to 20)
#    0.000    2.500    0.000    2.250    0.000    7.500 
#    0.000    5.000    0.000    0.000    0.000    0.000 
#    0.000    0.000    0.000    0.000    0.000    0.000 
#
# Total GULP energy -396620.679988 kJ/mol
# GULP energy per Si atom -12394.396250 kJ/mol
# Density = 1.990720 g / cm^3
# Si number density = 19.952616 Si / 1000 Ang^3
#
#
#
# Elastic Constant Matrix: (Units=GPa)
#
#
# Indices 1 2 3 4 5 6 
#
# 1 41.3668 13.0445 36.0861 0.0000 0.0000 0.0000
# 2 13.0445 46.3428 18.1146 0.0000 0.0000 0.0000
# 3 36.0861 18.1146 82.5781 0.0000 0.0000 0.0000
# 4 0.0000 0.0000 0.0000 32.4412 0.0000 0.0000
# 5 0.0000 0.0000 0.0000 0.0000 30.5194 0.0000
# 6 0.0000 0.0000 0.0000 0.0000 0.0000 28.4934
#
#
#
# Elastic Compliance Matrix: (Units=1/GPa)
#
#
# Indices 1 2 3 4 5 6 
#
# 1 0.040037 -0.004846 -0.016433 0.000000 0.000000 0.000000
# 2 -0.004846 0.024189 -0.003188 0.000000 0.000000 0.000000
# 3 -0.016433 -0.003188 0.019990 0.000000 0.000000 0.000000
# 4 0.000000 0.000000 0.000000 0.030825 0.000000 0.000000
# 5 0.000000 0.000000 0.000000 0.000000 0.032766 0.000000
# 6 0.000000 0.000000 0.000000 0.000000 0.000000 0.035096
#
#
# Mechanical properties :
#
#
# Convention : Reuss Voigt Hill
#
# Bulk Modulus (GPa) = 28.34373 33.86423 31.10398
# Shear Modulus (GPa) = 20.52555 25.16030 22.84293
#
# Velocity S-wave (km/s) = 3.21084 3.55491 3.38725
# Velocity P-wave (km/s) = 5.28983 5.81885 5.56064
#
# Compressibility (1/GPa) = 0.03528117
#
# Stress axis : x y z
#
# Youngs Moduli (GPa) = 24.97664 41.34157 50.02443
#
# Poissons Ratio (x) = 0.20035 0.82205
# Poissons Ratio (y) = 0.12104 0.15949
# Poissons Ratio (z) = 0.41044 0.13181
#
# Static dielectric constant tensor:
#      x y z
#    x 3.538460 0.000000 0.000000 
#    y 0.000000 3.425670 0.000000 
#    z 0.000000 0.000000 3.939680 
# 
# 
# High freq. dielectric constant tensor:
#      x y z
#    x 1.775370 0.000000 0.000000 
#    y 0.000000 1.756630 0.000000 
#    z 0.000000 0.000000 1.785160 
# 
# From -- ./inp_files/16665.got.cif
#   From: 2010.03.12/outbox.cif.g09.slc.cpg/sg36_9_cif.got.tgz:16665.got - 2010.04.14 02:13:53.
