data_PCOD8175500
_publ_section_title
;
Structure prediction by ZEFSAII (Michael W. Deem and Ramdas Pophale) SiO2 
 PCOD8175500
Probable space group: C M C 21
;
_chemical_formula_sum "Si O2"
_cell_formula_units_Z 64
_cell_length_a 8.364339
_cell_length_b 22.736609
_cell_length_c 16.328387
_cell_angle_alpha 90.000000
_cell_angle_beta 90.000000
_cell_angle_gamma 90.000000
_cell_volume 3105.278844
_symmetry_space_group_name_H-M "C M C 21"
_symmetry_group_IT_number 36
_symmetry_cell_setting 'orthorhombic'
loop_
_space_group_symop_operation_xyz
x,y,z
-x,-y,1/2+z
x,-y,1/2+z
-x,y,z
1/2+x,1/2+y,z
1/2-x,1/2-y,1/2+z
1/2+x,1/2-y,1/2+z
1/2-x,1/2+y,z
loop_
_atom_site_type_symbol
_atom_site_label
_atom_site_fract_x
_atom_site_fract_y
_atom_site_fract_z
Si Si1 0.181369 0.464206 0.660100
Si Si2 0.315266 0.237262 0.030212
Si Si3 0.810639 0.782692 0.854397
Si Si4 0.312088 0.420719 0.212934
Si Si5 0.813992 0.085652 0.320672
Si Si6 0.185064 0.966057 0.384543
Si Si7 0.684064 0.388258 0.527502
Si Si8 0.312605 0.791394 0.196159
O O1 0.229181 0.533040 0.651006
O O2 0.200238 0.439533 0.751062
O O3 0.304555 0.424077 0.610781
O O4 0.000000 0.456055 0.630235
O O5 0.500000 0.255425 0.039623
O O6 0.297726 0.167696 0.029884
O O7 0.220189 0.260608 0.109245
O O8 0.245171 0.260077 0.942485
O O9 0.753610 0.850280 0.847677
O O10 0.746023 0.745794 0.775135
O O11 0.000000 0.778289 0.854577
O O12 0.500000 0.430914 0.206801
O O13 0.242925 0.437930 0.301954
O O14 0.271861 0.354103 0.191891
O O15 0.000000 0.087625 0.292857
O O16 0.791313 0.036880 0.392763
O O17 0.262023 0.931612 0.459971
O O18 0.000000 0.950359 0.385943
O O19 0.500000 0.369371 0.512845
O O20 0.500000 0.800169 0.206749
#
# Coordination Sequence:
#
# PCOD8175500 Si02
#       8
#     8   8   8   8   8   8   8   8
#     4  11  22  36  55  84 115 146 184 234 286 341
#     4  11  23  39  58  86 117 153 198 244 289 346
#     4   9  20  37  60  85 117 157 196 237 288 342
#     4  10  20  38  60  83 110 147 190 234 283 343
#     4   9  17  36  60  82 109 148 191 231 280 343
#     4   8  17  32  56  84 108 139 187 236 281 334
#     4  11  21  36  56  81 112 149 188 233 285 340
#     4  11  22  38  59  87 120 157 194 239 292 345
#
# _framework density 20.610064000000001
#
# number of rings (size 3 to 8) (size 9 to 14) (size 15 to 20)
#    0.000    2.000    0.000    4.875    0.000    2.000 
#    0.000   11.875    0.000    0.000    0.000    0.000 
#    0.000    0.000    0.000    0.000    0.000    0.000 
#
# Total GULP energy -396615.422955 kJ/mol
# GULP energy per Si atom -12394.231967 kJ/mol
# Density = 2.056315 g / cm^3
# Si number density = 20.610064 Si / 1000 Ang^3
#
#
#
# Elastic Constant Matrix: (Units=GPa)
#
#
# Indices 1 2 3 4 5 6 
#
# 1 44.0280 6.4293 9.1069 0.0000 0.0000 0.0000
# 2 6.4293 160.4026 53.6392 0.0000 0.0000 0.0000
# 3 9.1069 53.6392 106.0879 0.0000 0.0000 0.0000
# 4 0.0000 0.0000 0.0000 36.3110 0.0000 0.0000
# 5 0.0000 0.0000 0.0000 0.0000 20.9872 0.0000
# 6 0.0000 0.0000 0.0000 0.0000 0.0000 24.0145
#
#
#
# Elastic Compliance Matrix: (Units=1/GPa)
#
#
# Indices 1 2 3 4 5 6 
#
# 1 0.023137 -0.000317 -0.001826 0.000000 0.000000 0.000000
# 2 -0.000317 0.007507 -0.003769 0.000000 0.000000 0.000000
# 3 -0.001826 -0.003769 0.011488 0.000000 0.000000 0.000000
# 4 0.000000 0.000000 0.000000 0.027540 0.000000 0.000000
# 5 0.000000 0.000000 0.000000 0.000000 0.047648 0.000000
# 6 0.000000 0.000000 0.000000 0.000000 0.000000 0.041641
#
#
# Mechanical properties :
#
#
# Convention : Reuss Voigt Hill
#
# Bulk Modulus (GPa) = 32.99268 49.87436 41.43352
# Shear Modulus (GPa) = 27.64149 32.35209 29.99679
#
# Velocity S-wave (km/s) = 3.66616 3.96627 3.81917
# Velocity P-wave (km/s) = 5.82785 6.72508 6.29247
#
# Compressibility (1/GPa) = 0.03030975
#
# Stress axis : x y z
#
# Youngs Moduli (GPa) = 43.22126 133.20505 87.04504
#
# Poissons Ratio (x) = 0.04220 0.15894
# Poissons Ratio (y) = 0.01369 0.32803
# Poissons Ratio (z) = 0.07892 0.50199
#
# Static dielectric constant tensor:
#      x y z
#    x 3.348330 0.000000 0.000000 
#    y 0.000000 3.928910 0.000000 
#    z 0.000000 0.000000 3.913770 
# 
# 
# High freq. dielectric constant tensor:
#      x y z
#    x 1.781250 0.000000 0.000000 
#    y 0.000000 1.821190 0.000000 
#    z 0.000000 0.000000 1.801270 
# 
# From -- ./inp_files/11036.got.cif
#   From: 2010.03.12/outbox.cif.g09.slc.cpg/sg36_6_cif.got.tgz:11036.got - 2010.04.14 02:13:53.
