data_PCOD8175625
_publ_section_title
;
Structure prediction by ZEFSAII (Michael W. Deem and Ramdas Pophale) SiO2 
 PCOD8175625
Probable space group: C M C 21
;
_chemical_formula_sum "Si O2"
_cell_formula_units_Z 64
_cell_length_a 8.965776
_cell_length_b 18.526553
_cell_length_c 20.286039
_cell_angle_alpha 90.000000
_cell_angle_beta 90.000000
_cell_angle_gamma 90.000000
_cell_volume 3369.610971
_symmetry_space_group_name_H-M "C M C 21"
_symmetry_group_IT_number 36
_symmetry_cell_setting 'orthorhombic'
loop_
_space_group_symop_operation_xyz
x,y,z
-x,-y,1/2+z
x,-y,1/2+z
-x,y,z
1/2+x,1/2+y,z
1/2-x,1/2-y,1/2+z
1/2+x,1/2-y,1/2+z
1/2-x,1/2+y,z
loop_
_atom_site_type_symbol
_atom_site_label
_atom_site_fract_x
_atom_site_fract_y
_atom_site_fract_z
Si Si1 0.176036 0.044046 0.597030
Si Si2 0.826104 0.536089 0.835054
Si Si3 0.326523 0.786514 0.474578
Si Si4 0.671200 0.046431 0.986605
Si Si5 0.676476 0.801624 0.085095
Si Si6 0.176488 0.047657 0.222200
Si Si7 0.322519 0.709252 0.208220
Si Si8 0.822769 0.303204 0.327962
O O1 0.255287 0.120348 0.595499
O O2 0.000000 0.055248 0.596551
O O3 0.219595 0.997114 0.533789
O O4 0.230780 0.003679 0.663106
O O5 0.795995 0.521217 0.912034
O O6 0.739091 0.477671 0.792186
O O7 0.763918 0.615499 0.816161
O O8 0.000000 0.529896 0.818756
O O9 0.500000 0.767438 0.483737
O O10 0.295500 0.868870 0.495377
O O11 0.228032 0.731808 0.516399
O O12 0.273323 0.774278 0.399423
O O13 0.500000 0.029626 0.004995
O O14 0.500000 0.809096 0.085551
O O15 0.735114 0.749459 0.143047
O O16 0.238885 0.127860 0.207899
O O17 0.000000 0.049060 0.226982
O O18 0.500000 0.710170 0.210705
O O19 0.257178 0.750867 0.271989
O O20 0.000000 0.306845 0.326647
#
# Coordination Sequence:
#
# PCOD8175625 Si02
#       8
#     8   8   8   8   8   8   8   8
#     4  11  23  37  53  76 109 145 184 229 272 319
#     4   9  18  34  56  81 108 139 176 217 262 317
#     4   9  18  34  56  81 109 140 174 215 263 317
#     4   9  19  36  57  81 110 144 183 223 264 319
#     4  11  22  36  56  79 105 139 180 226 273 322
#     4  10  21  35  52  78 109 140 178 223 269 320
#     4   9  18  33  53  76 102 135 175 215 259 315
#     4   8  15  31  55  78 102 136 174 208 250 311
#
# _framework density 18.993289999999998
#
# number of rings (size 3 to 8) (size 9 to 14) (size 15 to 20)
#    0.000    2.500    0.000    3.750    0.000    5.000 
#    0.000    4.375    0.000    2.250    0.000    0.000 
#    0.000    0.000    0.000    0.000    0.000    0.000 
#
# Total GULP energy -396830.022690 kJ/mol
# GULP energy per Si atom -12400.938209 kJ/mol
# Density = 1.895006 g / cm^3
# Si number density = 18.993290 Si / 1000 Ang^3
#
#
#
# Elastic Constant Matrix: (Units=GPa)
#
#
# Indices 1 2 3 4 5 6 
#
# 1 41.6498 31.0514 27.6045 0.0000 0.0000 0.0000
# 2 31.0514 91.7836 42.8733 0.0000 0.0000 0.0000
# 3 27.6045 42.8733 96.3294 0.0000 0.0000 0.0000
# 4 0.0000 0.0000 0.0000 40.1625 0.0000 0.0000
# 5 0.0000 0.0000 0.0000 0.0000 28.7044 0.0000
# 6 0.0000 0.0000 0.0000 0.0000 0.0000 19.2595
#
#
#
# Elastic Compliance Matrix: (Units=1/GPa)
#
#
# Indices 1 2 3 4 5 6 
#
# 1 0.034607 -0.008933 -0.005942 0.000000 0.000000 0.000000
# 2 -0.008933 0.016060 -0.004588 0.000000 0.000000 0.000000
# 3 -0.005942 -0.004588 0.014126 0.000000 0.000000 0.000000
# 4 0.000000 0.000000 0.000000 0.024899 0.000000 0.000000
# 5 0.000000 0.000000 0.000000 0.000000 0.034838 0.000000
# 6 0.000000 0.000000 0.000000 0.000000 0.000000 0.051922
#
#
# Mechanical properties :
#
#
# Convention : Reuss Voigt Hill
#
# Bulk Modulus (GPa) = 38.65692 48.09127 43.37410
# Shear Modulus (GPa) = 22.32140 26.17419 24.24780
#
# Velocity S-wave (km/s) = 3.43188 3.71627 3.57690
# Velocity P-wave (km/s) = 6.00840 6.61735 6.32021
#
# Compressibility (1/GPa) = 0.02586859
#
# Stress axis : x y z
#
# Youngs Moduli (GPa) = 28.89570 62.26485 70.79261
#
# Poissons Ratio (x) = 0.55619 0.42062
# Poissons Ratio (y) = 0.25811 0.32481
# Poissons Ratio (z) = 0.17168 0.28569
#
# Static dielectric constant tensor:
#      x y z
#    x 3.130430 0.000000 0.000000 
#    y 0.000000 3.589460 0.000000 
#    z 0.000000 0.000000 3.637880 
# 
# 
# High freq. dielectric constant tensor:
#      x y z
#    x 1.708680 0.000000 0.000000 
#    y 0.000000 1.744280 0.000000 
#    z 0.000000 0.000000 1.751370 
# 
# From -- ./inp_files/15600.got.cif
#   From: 2010.03.12/outbox.cif.g09.slc.cpg/sg36_8_cif.got.tgz:15600.got - 2010.04.14 02:13:53.
