data_PCOD8175044
_publ_section_title
;
Structure prediction by ZEFSAII (Michael W. Deem and Ramdas Pophale) SiO2 
 PCOD8175044
Probable space group: C M C 21
;
_chemical_formula_sum "Si O2"
_cell_formula_units_Z 64
_cell_length_a 21.589355
_cell_length_b 8.819157
_cell_length_c 18.228524
_cell_angle_alpha 90.000000
_cell_angle_beta 90.000000
_cell_angle_gamma 90.000000
_cell_volume 3470.709352
_symmetry_space_group_name_H-M "C M C 21"
_symmetry_group_IT_number 36
_symmetry_cell_setting 'orthorhombic'
loop_
_space_group_symop_operation_xyz
x,y,z
-x,-y,1/2+z
x,-y,1/2+z
-x,y,z
1/2+x,1/2+y,z
1/2-x,1/2-y,1/2+z
1/2+x,1/2-y,1/2+z
1/2-x,1/2+y,z
loop_
_atom_site_type_symbol
_atom_site_label
_atom_site_fract_x
_atom_site_fract_y
_atom_site_fract_z
Si Si1 0.317540 0.091303 0.606940
Si Si2 0.844352 0.095876 0.271737
Si Si3 0.821141 0.676697 0.896312
Si Si4 0.346031 0.272532 0.324457
Si Si5 0.266609 0.172467 0.187732
Si Si6 0.429776 0.811694 0.197376
Si Si7 0.271844 0.125786 0.445868
Si Si8 0.069563 0.502386 0.844639
O O1 0.267849 0.186184 0.652242
O O2 0.387713 0.132460 0.629427
O O3 0.309686 0.117215 0.520680
O O4 0.304129 0.915680 0.624342
O O5 0.818457 0.240122 0.317892
O O6 0.785958 0.058068 0.219831
O O7 0.904512 0.149527 0.226075
O O8 0.864779 0.949732 0.318822
O O9 0.799017 0.806824 0.955514
O O10 0.773978 0.533240 0.902190
O O11 0.890409 0.605544 0.902531
O O12 0.315666 0.220747 0.248639
O O13 0.300268 0.255184 0.393173
O O14 0.406196 0.169815 0.341014
O O15 0.500000 0.790697 0.169170
O O16 0.426606 0.932844 0.262738
O O17 0.000000 0.503206 0.875237
#
# Coordination Sequence:
#
# PCOD8175044 Si02
#       8
#     8   8   8   8   8   8   8   8
#     4  11  22  36  53  83 118 147 189 242 284 349
#     4  10  20  32  57  85 110 146 191 243 286 338
#     4  10  20  34  54  82 114 150 185 236 289 344
#     4  11  20  33  57  84 112 151 190 242 290 343
#     4  11  20  33  53  79 111 147 190 236 293 332
#     4   9  19  36  57  80 111 154 193 232 287 341
#     4  11  22  33  53  84 120 149 187 233 302 349
#     4   9  19  35  56  83 112 148 199 242 277 338
#
# _framework density 18.440035000000002
#
# number of rings (size 3 to 8) (size 9 to 14) (size 15 to 20)
#    0.000    1.750    3.750    1.500    3.500    0.500 
#    0.000    2.500    0.000    0.000    0.000   13.125 
#    0.000    0.000    0.000    0.000    0.000    0.000 
#
# Total GULP energy -396451.452039 kJ/mol
# GULP energy per Si atom -12389.107876 kJ/mol
# Density = 1.839806 g / cm^3
# Si number density = 18.440035 Si / 1000 Ang^3
#
#
#
# Elastic Constant Matrix: (Units=GPa)
#
#
# Indices 1 2 3 4 5 6 
#
# 1 126.3310 60.6553 37.6408 0.0000 0.0000 0.0000
# 2 60.6553 98.2187 25.1518 0.0000 0.0000 0.0000
# 3 37.6408 25.1518 72.2400 0.0000 0.0000 0.0000
# 4 0.0000 0.0000 0.0000 14.7042 0.0000 0.0000
# 5 0.0000 0.0000 0.0000 0.0000 21.9513 0.0000
# 6 0.0000 0.0000 0.0000 0.0000 0.0000 22.2155
#
#
#
# Elastic Compliance Matrix: (Units=1/GPa)
#
#
# Indices 1 2 3 4 5 6 
#
# 1 0.012278 -0.006526 -0.004125 0.000000 0.000000 0.000000
# 2 -0.006526 0.014647 -0.001699 0.000000 0.000000 0.000000
# 3 -0.004125 -0.001699 0.016584 0.000000 0.000000 0.000000
# 4 0.000000 0.000000 0.000000 0.068008 0.000000 0.000000
# 5 0.000000 0.000000 0.000000 0.000000 0.045555 0.000000
# 6 0.000000 0.000000 0.000000 0.000000 0.000000 0.045014
#
#
# Mechanical properties :
#
#
# Convention : Reuss Voigt Hill
#
# Bulk Modulus (GPa) = 53.16995 60.40948 56.78972
# Shear Modulus (GPa) = 21.45408 23.33034 22.39221
#
# Velocity S-wave (km/s) = 3.41464 3.56082 3.48850
# Velocity P-wave (km/s) = 6.66655 7.05245 6.86221
#
# Compressibility (1/GPa) = 0.01880762
#
# Stress axis : x y z
#
# Youngs Moduli (GPa) = 81.44493 68.27509 60.29947
#
# Poissons Ratio (x) = 0.44556 0.24876
# Poissons Ratio (y) = 0.53151 0.10246
# Poissons Ratio (z) = 0.33600 0.11601
#
# Static dielectric constant tensor:
#      x y z
#    x 3.481020 0.000000 0.000000 
#    y 0.000000 3.532660 0.000000 
#    z 0.000000 0.000000 3.174480 
# 
# 
# High freq. dielectric constant tensor:
#      x y z
#    x 1.698220 0.000000 0.000000 
#    y 0.000000 1.725140 0.000000 
#    z 0.000000 0.000000 1.686950 
# 
# From -- ./inp_files/15042.got.cif
#   From: 2010.03.12/outbox.cif.g09.slc.cpg/sg36_8_cif.got.tgz:15042.got - 2010.04.14 02:13:53.
