data_PCOD8175559
_publ_section_title
;
Structure prediction by ZEFSAII (Michael W. Deem and Ramdas Pophale) SiO2 
 PCOD8175559
Probable space group: C M C 21
;
_chemical_formula_sum "Si O2"
_cell_formula_units_Z 48
_cell_length_a 9.097270
_cell_length_b 14.892152
_cell_length_c 18.870524
_cell_angle_alpha 90.000000
_cell_angle_beta 90.000000
_cell_angle_gamma 90.000000
_cell_volume 2556.539485
_symmetry_space_group_name_H-M "C M C 21"
_symmetry_group_IT_number 36
_symmetry_cell_setting 'orthorhombic'
loop_
_space_group_symop_operation_xyz
x,y,z
-x,-y,1/2+z
x,-y,1/2+z
-x,y,z
1/2+x,1/2+y,z
1/2-x,1/2-y,1/2+z
1/2+x,1/2-y,1/2+z
1/2-x,1/2+y,z
loop_
_atom_site_type_symbol
_atom_site_label
_atom_site_fract_x
_atom_site_fract_y
_atom_site_fract_z
Si Si1 0.171047 0.457742 0.549080
Si Si2 0.828838 0.869599 0.300095
Si Si3 0.668909 0.883049 0.152578
Si Si4 0.672062 0.725305 0.048359
Si Si5 0.174667 0.020756 0.408033
Si Si6 0.170488 0.702309 0.394234
O O1 0.195418 0.520794 0.616843
O O2 0.235517 0.361571 0.570052
O O3 0.255025 0.501451 0.483663
O O4 0.000000 0.450033 0.529375
O O5 0.757005 0.878886 0.224414
O O6 0.793619 0.772074 0.332016
O O7 0.000000 0.883750 0.289665
O O8 0.768889 0.945940 0.352984
O O9 0.500000 0.867982 0.171253
O O10 0.722821 0.805295 0.099525
O O11 0.500000 0.703324 0.055337
O O12 0.711777 0.751846 0.968413
O O13 0.228291 0.116658 0.379596
O O14 0.000000 0.019259 0.416333
O O15 0.000000 0.672996 0.394614
#
# Coordination Sequence:
#
# PCOD8175559 Si02
#       6
#     8   8   8   8   8   8
#     4  11  22  38  61  90 119 155 201 245 293 351
#     4  10  23  41  60  85 122 158 193 242 300 352
#     4  10  23  41  60  85 122 158 193 242 300 352
#     4  10  20  39  62  86 119 155 194 244 296 347
#     4  11  22  38  61  90 119 155 201 245 293 351
#     4  10  20  39  62  86 119 155 194 244 296 347
#
# _framework density 18.775379999999998
#
# number of rings (size 3 to 8) (size 9 to 14) (size 15 to 20)
#    0.000    1.667    3.333    1.000    0.000    6.000 
#    0.000    6.667    0.000    0.000    0.000    0.000 
#    0.000    0.000    0.000    0.000    0.000    0.000 
#
# Total GULP energy -297711.031718 kJ/mol
# GULP energy per Si atom -12404.626322 kJ/mol
# Density = 1.873265 g / cm^3
# Si number density = 18.775380 Si / 1000 Ang^3
#
#
#
# Elastic Constant Matrix: (Units=GPa)
#
#
# Indices 1 2 3 4 5 6 
#
# 1 61.9984 42.0172 31.2353 0.0000 0.0000 0.0000
# 2 42.0172 99.6662 11.3957 0.0000 0.0000 0.0000
# 3 31.2353 11.3957 81.0635 0.0000 0.0000 0.0000
# 4 0.0000 0.0000 0.0000 26.0667 0.0000 0.0000
# 5 0.0000 0.0000 0.0000 0.0000 36.1342 0.0000
# 6 0.0000 0.0000 0.0000 0.0000 0.0000 39.1797
#
#
#
# Elastic Compliance Matrix: (Units=1/GPa)
#
#
# Indices 1 2 3 4 5 6 
#
# 1 0.028148 -0.010800 -0.009328 0.000000 0.000000 0.000000
# 2 -0.010800 0.014341 0.002145 0.000000 0.000000 0.000000
# 3 -0.009328 0.002145 0.015629 0.000000 0.000000 0.000000
# 4 0.000000 0.000000 0.000000 0.038363 0.000000 0.000000
# 5 0.000000 0.000000 0.000000 0.000000 0.027675 0.000000
# 6 0.000000 0.000000 0.000000 0.000000 0.000000 0.025523
#
#
# Mechanical properties :
#
#
# Convention : Reuss Voigt Hill
#
# Bulk Modulus (GPa) = 45.14042 45.78051 45.46046
# Shear Modulus (GPa) = 25.90284 30.81478 28.35881
#
# Velocity S-wave (km/s) = 3.71835 4.05561 3.89064
# Velocity P-wave (km/s) = 6.52145 6.80932 6.66694
#
# Compressibility (1/GPa) = 0.02215310
#
# Stress axis : x y z
#
# Youngs Moduli (GPa) = 35.52604 69.72854 63.98526
#
# Poissons Ratio (x) = 0.75308 0.59684
# Poissons Ratio (y) = 0.38369 -0.13728
# Poissons Ratio (z) = 0.33138 -0.14960
#
# Static dielectric constant tensor:
#      x y z
#    x 3.433910 0.000000 0.000000 
#    y 0.000000 3.829080 0.000000 
#    z 0.000000 0.000000 3.354380 
# 
# 
# High freq. dielectric constant tensor:
#      x y z
#    x 1.726850 0.000000 0.000000 
#    y 0.000000 1.745480 0.000000 
#    z 0.000000 0.000000 1.727460 
# 
# From -- ./inp_files/13482.got.cif
#   From: 2010.03.12/outbox.cif.g09.slc.cpg/sg36_7_cif.got.tgz:13482.got - 2010.04.14 02:13:53.
