data_PCOD8175115
_publ_section_title
;
Structure prediction by ZEFSAII (Michael W. Deem and Ramdas Pophale) SiO2 
 PCOD8175115
Probable space group: C M C 21
;
_chemical_formula_sum "Si O2"
_cell_formula_units_Z 64
_cell_length_a 8.860299
_cell_length_b 19.979792
_cell_length_c 19.935432
_cell_angle_alpha 90.000000
_cell_angle_beta 90.000000
_cell_angle_gamma 90.000000
_cell_volume 3529.108347
_symmetry_space_group_name_H-M "C M C 21"
_symmetry_group_IT_number 36
_symmetry_cell_setting 'orthorhombic'
loop_
_space_group_symop_operation_xyz
x,y,z
-x,-y,1/2+z
x,-y,1/2+z
-x,y,z
1/2+x,1/2+y,z
1/2-x,1/2-y,1/2+z
1/2+x,1/2-y,1/2+z
1/2-x,1/2+y,z
loop_
_atom_site_type_symbol
_atom_site_label
_atom_site_fract_x
_atom_site_fract_y
_atom_site_fract_z
Si Si1 0.825691 0.827929 0.691780
Si Si2 0.823264 0.424428 0.588944
Si Si3 0.828776 0.830233 0.847382
Si Si4 0.322770 0.925191 0.091246
Si Si5 0.677519 0.066275 0.441687
Si Si6 0.676102 0.824762 0.348044
Si Si7 0.177893 0.073838 0.948094
Si Si8 0.320437 0.178142 0.697645
O O1 0.721498 0.876079 0.648763
O O2 0.802604 0.845722 0.769419
O O3 0.767905 0.752647 0.677850
O O4 0.000000 0.836784 0.670843
O O5 0.778268 0.499430 0.611443
O O6 0.738120 0.405031 0.520974
O O7 0.000000 0.419234 0.574087
O O8 0.716302 0.876344 0.889140
O O9 0.794437 0.753121 0.863818
O O10 0.000000 0.847732 0.867569
O O11 0.500000 0.914337 0.095293
O O12 0.247850 0.873738 0.144239
O O13 0.266536 0.910467 0.015587
O O14 0.500000 0.053038 0.442045
O O15 0.755145 0.996399 0.422205
O O16 0.500000 0.842383 0.357295
O O17 0.777083 0.868035 0.397240
O O18 0.732414 0.840958 0.272540
O O19 0.000000 0.067315 0.951157
O O20 0.500000 0.177566 0.697966
#
# Coordination Sequence:
#
# PCOD8175115 Si02
#       8
#     8   8   8   8   8   8   8   8
#     4   9  18  33  53  77 105 137 170 207 255 311
#     4  10  20  34  52  76 105 135 171 217 263 311
#     4   9  19  35  53  76 109 143 174 212 260 314
#     4   8  16  31  50  73  98 126 167 213 253 299
#     4  10  20  34  53  77 105 137 177 223 265 311
#     4   9  18  34  55  78 106 139 173 213 261 313
#     4  11  22  36  54  75 103 139 177 220 268 317
#     4   8  15  31  54  76 101 134 169 207 255 308
#
# _framework density 18.134893000000002
#
# number of rings (size 3 to 8) (size 9 to 14) (size 15 to 20)
#    0.000    2.750    0.000    4.125    0.000    3.000 
#    0.000    4.375    0.000    7.500    0.000    0.000 
#    0.000    0.000    0.000    0.000    0.000    0.000 
#
# Total GULP energy -396766.440271 kJ/mol
# GULP energy per Si atom -12398.951258 kJ/mol
# Density = 1.809362 g / cm^3
# Si number density = 18.134893 Si / 1000 Ang^3
#
#
#
# Elastic Constant Matrix: (Units=GPa)
#
#
# Indices 1 2 3 4 5 6 
#
# 1 78.0612 44.3245 42.8333 0.0000 0.0000 0.0000
# 2 44.3245 113.1504 82.4009 0.0000 0.0000 0.0000
# 3 42.8333 82.4009 100.4745 0.0000 0.0000 0.0000
# 4 0.0000 0.0000 0.0000 40.9622 0.0000 0.0000
# 5 0.0000 0.0000 0.0000 0.0000 27.0399 0.0000
# 6 0.0000 0.0000 0.0000 0.0000 0.0000 27.1896
#
#
#
# Elastic Compliance Matrix: (Units=1/GPa)
#
#
# Indices 1 2 3 4 5 6 
#
# 1 0.017258 -0.003483 -0.004501 0.000000 0.000000 0.000000
# 2 -0.003483 0.022646 -0.017088 0.000000 0.000000 0.000000
# 3 -0.004501 -0.017088 0.025886 0.000000 0.000000 0.000000
# 4 0.000000 0.000000 0.000000 0.024413 0.000000 0.000000
# 5 0.000000 0.000000 0.000000 0.000000 0.036982 0.000000
# 6 0.000000 0.000000 0.000000 0.000000 0.000000 0.036779
#
#
# Mechanical properties :
#
#
# Convention : Reuss Voigt Hill
#
# Bulk Modulus (GPa) = 63.91150 70.08928 67.00039
# Shear Modulus (GPa) = 22.79757 27.18016 24.98886
#
# Velocity S-wave (km/s) = 3.54942 3.87560 3.71609
# Velocity P-wave (km/s) = 7.21919 7.66550 7.44569
#
# Compressibility (1/GPa) = 0.01564664
#
# Stress axis : x y z
#
# Youngs Moduli (GPa) = 57.94519 44.15775 38.63146
#
# Poissons Ratio (x) = 0.15378 0.17388
# Poissons Ratio (y) = 0.20180 0.66013
# Poissons Ratio (z) = 0.26081 0.75456
#
# Static dielectric constant tensor:
#      x y z
#    x 3.075210 0.000000 0.000000 
#    y 0.000000 4.229370 0.000000 
#    z 0.000000 0.000000 3.494680 
# 
# 
# High freq. dielectric constant tensor:
#      x y z
#    x 1.680560 0.000000 0.000000 
#    y 0.000000 1.706630 0.000000 
#    z 0.000000 0.000000 1.706380 
# 
# From -- ./inp_files/15588.got.cif
#   From: 2010.03.12/outbox.cif.g09.slc.cpg/sg36_8_cif.got.tgz:15588.got - 2010.04.14 02:13:53.
