data_PCOD8175595
_publ_section_title
;
Structure prediction by ZEFSAII (Michael W. Deem and Ramdas Pophale) SiO2 
 PCOD8175595
Probable space group: C M C 21
;
_chemical_formula_sum "Si O2"
_cell_formula_units_Z 64
_cell_length_a 8.797704
_cell_length_b 19.504667
_cell_length_c 18.127099
_cell_angle_alpha 90.000000
_cell_angle_beta 90.000000
_cell_angle_gamma 90.000000
_cell_volume 3110.542880
_symmetry_space_group_name_H-M "C M C 21"
_symmetry_group_IT_number 36
_symmetry_cell_setting 'orthorhombic'
loop_
_space_group_symop_operation_xyz
x,y,z
-x,-y,1/2+z
x,-y,1/2+z
-x,y,z
1/2+x,1/2+y,z
1/2-x,1/2-y,1/2+z
1/2+x,1/2-y,1/2+z
1/2-x,1/2+y,z
loop_
_atom_site_type_symbol
_atom_site_label
_atom_site_fract_x
_atom_site_fract_y
_atom_site_fract_z
Si Si1 0.676945 0.580269 0.705960
Si Si2 0.677418 0.630295 0.550960
Si Si3 0.178942 0.797391 0.747858
Si Si4 0.323309 0.782145 0.592653
Si Si5 0.179179 0.886189 0.484524
Si Si6 0.678516 0.973724 0.946143
Si Si7 0.319442 0.681094 0.831925
Si Si8 0.176300 0.050693 0.292284
O O1 0.500000 0.596821 0.701104
O O2 0.747896 0.599003 0.626721
O O3 0.743052 0.627830 0.770928
O O4 0.709124 0.501004 0.724730
O O5 0.500000 0.612782 0.543358
O O6 0.705775 0.711737 0.548450
O O7 0.764999 0.596774 0.482826
O O8 0.266283 0.771359 0.675738
O O9 0.235653 0.753064 0.817524
O O10 0.225797 0.875147 0.764503
O O11 0.000000 0.789527 0.736109
O O12 0.500000 0.801014 0.593772
O O13 0.231216 0.843603 0.555477
O O14 0.233223 0.846658 0.411206
O O15 0.000000 0.895259 0.486653
O O16 0.250544 0.961508 0.488413
O O17 0.500000 0.978767 0.952462
O O18 0.725736 0.973730 0.861167
O O19 0.500000 0.691143 0.829040
O O20 0.000000 0.047958 0.316079
#
# Coordination Sequence:
#
# PCOD8175595 Si02
#       8
#     8   8   8   8   8   8   8   8
#     4   9  17  38  67  89 111 155 212 253 303 370
#     4  10  22  41  66  90 123 170 209 254 315 379
#     4  11  24  39  63  96 129 166 210 260 314 376
#     4  11  24  43  65  93 129 166 212 264 315 373
#     4  11  24  43  67  91 125 170 212 257 319 386
#     4  12  26  42  62  94 129 164 210 265 316 369
#     4  10  20  40  67  90 117 161 209 259 312 369
#     4  10  22  42  65  91 123 166 214 256 308 378
#
# _framework density 20.575187
#
# number of rings (size 3 to 8) (size 9 to 14) (size 15 to 20)
#    0.000    1.500    2.500    2.250    3.500    3.000 
#    0.000    0.625    0.000    0.000    0.000    0.000 
#    0.000    0.000    0.000    0.000    0.000    0.000 
#
# Total GULP energy -396970.279808 kJ/mol
# GULP energy per Si atom -12405.321244 kJ/mol
# Density = 2.052836 g / cm^3
# Si number density = 20.575187 Si / 1000 Ang^3
#
#
#
# Elastic Constant Matrix: (Units=GPa)
#
#
# Indices 1 2 3 4 5 6 
#
# 1 76.5425 36.4053 18.1731 0.0000 0.0000 0.0000
# 2 36.4053 101.8778 2.5789 0.0000 0.0000 0.0000
# 3 18.1731 2.5789 48.9985 0.0000 0.0000 0.0000
# 4 0.0000 0.0000 0.0000 38.2111 0.0000 0.0000
# 5 0.0000 0.0000 0.0000 0.0000 29.8283 0.0000
# 6 0.0000 0.0000 0.0000 0.0000 0.0000 30.6230
#
#
#
# Elastic Compliance Matrix: (Units=1/GPa)
#
#
# Indices 1 2 3 4 5 6 
#
# 1 0.017406 -0.006065 -0.006137 0.000000 0.000000 0.000000
# 2 -0.006065 0.011942 0.001621 0.000000 0.000000 0.000000
# 3 -0.006137 0.001621 0.022600 0.000000 0.000000 0.000000
# 4 0.000000 0.000000 0.000000 0.026170 0.000000 0.000000
# 5 0.000000 0.000000 0.000000 0.000000 0.033525 0.000000
# 6 0.000000 0.000000 0.000000 0.000000 0.000000 0.032655
#
#
# Mechanical properties :
#
#
# Convention : Reuss Voigt Hill
#
# Bulk Modulus (GPa) = 32.48168 37.97038 35.22603
# Shear Modulus (GPa) = 28.45419 31.08326 29.76872
#
# Velocity S-wave (km/s) = 3.72282 3.89101 3.80784
# Velocity P-wave (km/s) = 5.85664 6.21941 6.04075
#
# Compressibility (1/GPa) = 0.03078659
#
# Stress axis : x y z
#
# Youngs Moduli (GPa) = 57.45124 83.73954 44.24876
#
# Poissons Ratio (x) = 0.50785 0.27154
# Poissons Ratio (y) = 0.34842 -0.07172
# Poissons Ratio (z) = 0.35255 -0.13572
#
# Static dielectric constant tensor:
#      x y z
#    x 3.484010 0.000000 0.000000 
#    y 0.000000 3.836780 0.000000 
#    z 0.000000 0.000000 3.752480 
# 
# 
# High freq. dielectric constant tensor:
#      x y z
#    x 1.785900 0.000000 0.000000 
#    y 0.000000 1.819200 0.000000 
#    z 0.000000 0.000000 1.807220 
# 
# From -- ./inp_files/15727.got.cif
#   From: 2010.03.12/outbox.cif.g09.slc.cpg/sg36_8_cif.got.tgz:15727.got - 2010.04.14 02:13:53.
