data_PCOD8175381
_publ_section_title
;
Structure prediction by ZEFSAII (Michael W. Deem and Ramdas Pophale) SiO2 
 PCOD8175381
Probable space group: C M C 21
;
_chemical_formula_sum "Si O2"
_cell_formula_units_Z 64
_cell_length_a 8.510109
_cell_length_b 15.427344
_cell_length_c 23.841858
_cell_angle_alpha 90.000000
_cell_angle_beta 90.000000
_cell_angle_gamma 90.000000
_cell_volume 3130.158890
_symmetry_space_group_name_H-M "C M C 21"
_symmetry_group_IT_number 36
_symmetry_cell_setting 'orthorhombic'
loop_
_space_group_symop_operation_xyz
x,y,z
-x,-y,1/2+z
x,-y,1/2+z
-x,y,z
1/2+x,1/2+y,z
1/2-x,1/2-y,1/2+z
1/2+x,1/2-y,1/2+z
1/2-x,1/2+y,z
loop_
_atom_site_type_symbol
_atom_site_label
_atom_site_fract_x
_atom_site_fract_y
_atom_site_fract_z
Si Si1 0.182992 0.380417 0.388610
Si Si2 0.322598 0.298302 0.575706
Si Si3 0.181103 0.882403 0.267863
Si Si4 0.181297 0.774552 0.701184
Si Si5 0.179741 0.729392 0.457511
Si Si6 0.319716 0.976354 0.578011
Si Si7 0.314844 0.037541 0.200650
Si Si8 0.313763 0.961777 0.962805
O O1 0.281754 0.367908 0.332703
O O2 0.206064 0.296761 0.427726
O O3 0.250716 0.465079 0.420629
O O4 0.000000 0.390143 0.373974
O O5 0.500000 0.336775 0.576304
O O6 0.289428 0.252911 0.635475
O O7 0.302111 0.230595 0.525125
O O8 0.198923 0.374537 0.565516
O O9 0.218534 0.793755 0.235985
O O10 0.280761 0.963976 0.246016
O O11 0.000000 0.904968 0.259620
O O12 0.000000 0.762886 0.717648
O O13 0.232834 0.872082 0.717090
O O14 0.229913 0.632634 0.438682
O O15 0.000000 0.749477 0.440183
O O16 0.500000 0.002829 0.580333
O O17 0.247835 0.995442 0.639894
O O18 0.239759 0.026701 0.525596
O O19 0.500000 0.055190 0.197351
O O20 0.500000 0.973808 0.967972
#
# Coordination Sequence:
#
# PCOD8175381 Si02
#       8
#     8   8   8   8   8   8   8   8
#     4  11  23  42  62  84 118 158 205 256 305 363
#     4   9  18  32  57  88 124 157 190 241 301 360
#     4  12  26  43  63  87 120 164 214 262 308 364
#     4  10  21  39  62  92 126 162 205 253 306 365
#     4  10  20  36  59  88 120 157 197 242 300 363
#     4   9  17  33  59  87 121 158 196 240 293 359
#     4  10  21  38  63  93 126 163 203 249 307 367
#     4   9  19  35  59  87 117 155 196 239 294 359
#
# _framework density 20.446245999999999
#
# number of rings (size 3 to 8) (size 9 to 14) (size 15 to 20)
#    0.000    2.000    1.250    2.250    1.750    2.000 
#    0.000    5.625    0.000    0.000    0.000    0.000 
#    0.000    0.000    0.000    0.000    0.000    0.000 
#
# Total GULP energy -396739.161057 kJ/mol
# GULP energy per Si atom -12398.098783 kJ/mol
# Density = 2.039971 g / cm^3
# Si number density = 20.446246 Si / 1000 Ang^3
#
#
#
# Elastic Constant Matrix: (Units=GPa)
#
#
# Indices 1 2 3 4 5 6 
#
# 1 43.5598 9.7817 16.5336 0.0000 0.0000 0.0000
# 2 9.7817 113.2358 52.9055 0.0000 0.0000 0.0000
# 3 16.5336 52.9055 111.1982 0.0000 0.0000 0.0000
# 4 0.0000 0.0000 0.0000 24.3398 0.0000 0.0000
# 5 0.0000 0.0000 0.0000 0.0000 21.5794 0.0000
# 6 0.0000 0.0000 0.0000 0.0000 0.0000 29.0826
#
#
#
# Elastic Compliance Matrix: (Units=1/GPa)
#
#
# Indices 1 2 3 4 5 6 
#
# 1 0.024355 -0.000530 -0.003369 0.000000 0.000000 0.000000
# 2 -0.000530 0.011367 -0.005329 0.000000 0.000000 0.000000
# 3 -0.003369 -0.005329 0.012029 0.000000 0.000000 0.000000
# 4 0.000000 0.000000 0.000000 0.041085 0.000000 0.000000
# 5 0.000000 0.000000 0.000000 0.000000 0.046341 0.000000
# 6 0.000000 0.000000 0.000000 0.000000 0.000000 0.034385
#
#
# Mechanical properties :
#
#
# Convention : Reuss Voigt Hill
#
# Bulk Modulus (GPa) = 34.13600 47.38172 40.75886
# Shear Modulus (GPa) = 25.28028 27.58522 26.43275
#
# Velocity S-wave (km/s) = 3.52010 3.67707 3.59944
# Velocity P-wave (km/s) = 5.76656 6.42277 6.10349
#
# Compressibility (1/GPa) = 0.02929458
#
# Stress axis : x y z
#
# Youngs Moduli (GPa) = 41.05985 87.97537 83.12923
#
# Poissons Ratio (x) = 0.04660 0.28008
# Poissons Ratio (y) = 0.02175 0.44302
# Poissons Ratio (z) = 0.13834 0.46885
#
# Static dielectric constant tensor:
#      x y z
#    x 3.492200 0.000000 0.000000 
#    y 0.000000 3.573860 0.000000 
#    z 0.000000 0.000000 3.838430 
# 
# 
# High freq. dielectric constant tensor:
#      x y z
#    x 1.779200 0.000000 0.000000 
#    y 0.000000 1.795270 0.000000 
#    z 0.000000 0.000000 1.803510 
# 
# From -- ./inp_files/16683.got.cif
#   From: 2010.03.12/outbox.cif.g09.slc.cpg/sg36_9_cif.got.tgz:16683.got - 2010.04.14 02:13:53.
