data_PCOD8175627
_publ_section_title
;
Structure prediction by ZEFSAII (Michael W. Deem and Ramdas Pophale) SiO2 
 PCOD8175627
Probable space group: C M C 21
;
_chemical_formula_sum "Si O2"
_cell_formula_units_Z 56
_cell_length_a 34.227934
_cell_length_b 4.930603
_cell_length_c 15.619770
_cell_angle_alpha 90.000000
_cell_angle_beta 90.000000
_cell_angle_gamma 90.000000
_cell_volume 2636.060395
_symmetry_space_group_name_H-M "C M C 21"
_symmetry_group_IT_number 36
_symmetry_cell_setting 'orthorhombic'
loop_
_space_group_symop_operation_xyz
x,y,z
-x,-y,1/2+z
x,-y,1/2+z
-x,y,z
1/2+x,1/2+y,z
1/2-x,1/2-y,1/2+z
1/2+x,1/2-y,1/2+z
1/2-x,1/2+y,z
loop_
_atom_site_type_symbol
_atom_site_label
_atom_site_fract_x
_atom_site_fract_y
_atom_site_fract_z
Si Si1 0.223832 0.424679 0.422440
Si Si2 0.883275 0.930222 0.589232
Si Si3 0.615542 0.611300 0.276876
Si Si4 0.957574 0.292137 0.378106
Si Si5 0.333804 0.874792 0.775948
Si Si6 0.667752 0.915696 0.581810
Si Si7 0.542726 0.705075 0.987311
O O1 0.261679 0.616261 0.416919
O O2 0.197875 0.504702 0.340593
O O3 0.202514 0.441679 0.513837
O O4 0.894352 0.015886 0.685003
O O5 0.848734 0.715520 0.587129
O O6 0.921723 0.788590 0.552543
O O7 0.865270 0.203170 0.545920
O O8 0.574829 0.635073 0.324633
O O9 0.647676 0.402361 0.316907
O O10 0.631288 0.913216 0.269493
O O11 0.946253 0.595472 0.408015
O O12 0.000000 0.299105 0.330130
O O13 0.961579 0.106801 0.461590
O O14 0.317292 0.827887 0.678158
O O15 0.500000 0.797503 0.025130
#
# Coordination Sequence:
#
# PCOD8175627 Si02
#       7
#     8   8   8   8   8   8   8
#     4  12  26  42  64  94 119 156 201 236 312 384
#     4  10  21  38  60  87 117 159 206 246 300 354
#     4  10  21  38  60  87 117 159 206 246 300 354
#     4  10  21  35  54  86 122 159 202 250 302 350
#     4  10  23  41  62  91 122 155 201 253 299 359
#     4  10  23  41  62  91 122 155 201 253 299 359
#     4  10  21  35  54  86 122 159 202 250 302 350
#
# _framework density 21.243821000000001
#
# number of rings (size 3 to 8) (size 9 to 14) (size 15 to 20)
#    0.000    1.714    0.000    3.429    6.000    1.714 
#    0.000    0.000    0.000   10.286    0.000    0.000 
#    0.000    0.000    0.000    0.000    0.000    0.000 
#
# Total GULP energy -346920.106137 kJ/mol
# GULP energy per Si atom -12390.003791 kJ/mol
# Density = 2.119547 g / cm^3
# Si number density = 21.243821 Si / 1000 Ang^3
#
#
#
# Elastic Constant Matrix: (Units=GPa)
#
#
# Indices 1 2 3 4 5 6 
#
# 1 102.2112 13.3255 57.1697 0.0000 0.0000 0.0000
# 2 13.3255 89.3626 11.9074 0.0000 0.0000 0.0000
# 3 57.1697 11.9074 83.7133 0.0000 0.0000 0.0000
# 4 0.0000 0.0000 0.0000 27.7405 0.0000 0.0000
# 5 0.0000 0.0000 0.0000 0.0000 0.0760 0.0000
# 6 0.0000 0.0000 0.0000 0.0000 0.0000 41.3759
#
#
#
# Elastic Compliance Matrix: (Units=1/GPa)
#
#
# Indices 1 2 3 4 5 6 
#
# 1 0.015908 -0.000942 -0.010730 0.000000 0.000000 0.000000
# 2 -0.000942 0.011462 -0.000987 0.000000 0.000000 0.000000
# 3 -0.010730 -0.000987 0.019414 0.000000 0.000000 0.000000
# 4 0.000000 0.000000 0.000000 0.036048 0.000000 0.000000
# 5 0.000000 0.000000 0.000000 0.000000 13.158923 0.000000
# 6 0.000000 0.000000 0.000000 0.000000 0.000000 0.024169
#
#
# Mechanical properties :
#
#
# Convention : Reuss Voigt Hill
#
# Bulk Modulus (GPa) = 46.58586 48.89914 47.74250
# Shear Modulus (GPa) = 0.37599 26.69746 13.53672
#
# Velocity S-wave (km/s) = 0.42115 3.54887 2.52704
# Velocity P-wave (km/s) = 4.71309 6.31353 5.57108
#
# Compressibility (1/GPa) = 0.02146574
#
# Stress axis : x y z
#
# Youngs Moduli (GPa) = 62.86100 87.24191 51.51018
#
# Poissons Ratio (x) = 0.08222 0.55270
# Poissons Ratio (y) = 0.05924 0.05083
# Poissons Ratio (z) = 0.67450 0.08609
#
# Static dielectric constant tensor:
#      x y z
#    x 3.846500 0.000000 0.000000 
#    y 0.000000 4.084270 0.000000 
#    z 0.000000 0.000000 3.782210 
# 
# 
# High freq. dielectric constant tensor:
#      x y z
#    x 1.829820 0.000000 0.000000 
#    y 0.000000 1.856820 0.000000 
#    z 0.000000 0.000000 1.809190 
# 
# From -- ./inp_files/13158.got.cif
#   From: 2010.03.12/outbox.cif.g09.slc.cpg/sg36_7_cif.got.tgz:13158.got - 2010.04.14 02:13:53.
