data_PCOD8175518
_publ_section_title
;
Structure prediction by ZEFSAII (Michael W. Deem and Ramdas Pophale) SiO2 
 PCOD8175518
Probable space group: C M C 21
;
_chemical_formula_sum "Si O2"
_cell_formula_units_Z 48
_cell_length_a 8.725185
_cell_length_b 30.408086
_cell_length_c 9.242339
_cell_angle_alpha 90.000000
_cell_angle_beta 90.000000
_cell_angle_gamma 90.000000
_cell_volume 2452.142039
_symmetry_space_group_name_H-M "C M C 21"
_symmetry_group_IT_number 36
_symmetry_cell_setting 'orthorhombic'
loop_
_space_group_symop_operation_xyz
x,y,z
-x,-y,1/2+z
x,-y,1/2+z
-x,y,z
1/2+x,1/2+y,z
1/2-x,1/2-y,1/2+z
1/2+x,1/2-y,1/2+z
1/2-x,1/2+y,z
loop_
_atom_site_type_symbol
_atom_site_label
_atom_site_fract_x
_atom_site_fract_y
_atom_site_fract_z
Si Si1 0.174982 0.783819 0.644720
Si Si2 0.677457 0.874178 0.635066
Si Si3 0.175075 0.205937 0.479560
Si Si4 0.819829 0.459412 0.454191
Si Si5 0.819698 0.962481 0.137766
Si Si6 0.822277 0.615671 0.466002
O O1 0.224190 0.831922 0.588916
O O2 0.200280 0.780138 0.814976
O O3 0.282113 0.747097 0.576879
O O4 0.000000 0.775669 0.598771
O O5 0.500000 0.860900 0.627496
O O6 0.719562 0.912466 0.523921
O O7 0.718759 0.890019 0.796968
O O8 0.282183 0.164699 0.519355
O O9 0.000000 0.192440 0.508727
O O10 0.749493 0.496599 0.553963
O O11 0.748915 0.461151 0.296782
O O12 0.000000 0.467474 0.443556
O O13 0.000000 0.968244 0.148610
O O14 0.780681 0.917940 0.054463
O O15 0.000000 0.606030 0.497318
#
# Coordination Sequence:
#
# PCOD8175518 Si02
#       6
#     8   8   8   8   8   8
#     4  10  21  36  57  84 114 150 190 234 287 344
#     4   9  20  38  61  85 111 147 191 238 286 339
#     4  10  21  37  57  83 115 150 191 238 287 340
#     4  11  23  41  63  87 117 155 196 238 289 348
#     4  12  25  40  60  89 121 153 192 240 292 344
#     4  10  20  38  62  86 114 151 194 238 289 347
#
# _framework density 19.574722000000001
#
# number of rings (size 3 to 8) (size 9 to 14) (size 15 to 20)
#    0.000    1.667    0.000    4.500    0.000    6.667 
#    0.000    1.667    0.000    0.000    0.000    0.000 
#    0.000    0.000    0.000    0.000    0.000    0.000 
#
# Total GULP energy -297739.671968 kJ/mol
# GULP energy per Si atom -12405.819665 kJ/mol
# Density = 1.953017 g / cm^3
# Si number density = 19.574722 Si / 1000 Ang^3
#
#
#
# Elastic Constant Matrix: (Units=GPa)
#
#
# Indices 1 2 3 4 5 6 
#
# 1 94.7449 65.6396 60.2538 0.0000 0.0000 0.0000
# 2 65.6396 185.1156 139.7706 0.0000 0.0000 0.0000
# 3 60.2538 139.7706 175.2738 0.0000 0.0000 0.0000
# 4 0.0000 0.0000 0.0000 27.4416 0.0000 0.0000
# 5 0.0000 0.0000 0.0000 0.0000 27.8991 0.0000
# 6 0.0000 0.0000 0.0000 0.0000 0.0000 39.8844
#
#
#
# Elastic Compliance Matrix: (Units=1/GPa)
#
#
# Indices 1 2 3 4 5 6 
#
# 1 0.014320 -0.003420 -0.002196 0.000000 0.000000 0.000000
# 2 -0.003420 0.014393 -0.010302 0.000000 0.000000 0.000000
# 3 -0.002196 -0.010302 0.014675 0.000000 0.000000 0.000000
# 4 0.000000 0.000000 0.000000 0.036441 0.000000 0.000000
# 5 0.000000 0.000000 0.000000 0.000000 0.035843 0.000000
# 6 0.000000 0.000000 0.000000 0.000000 0.000000 0.025072
#
#
# Mechanical properties :
#
#
# Convention : Reuss Voigt Hill
#
# Bulk Modulus (GPa) = 86.55295 109.60692 98.07993
# Shear Modulus (GPa) = 28.33942 31.67638 30.00790
#
# Velocity S-wave (km/s) = 3.80907 4.02709 3.91959
# Velocity P-wave (km/s) = 7.97860 8.81697 8.40824
#
# Compressibility (1/GPa) = 0.01155362
#
# Stress axis : x y z
#
# Youngs Moduli (GPa) = 69.83044 69.47704 68.14093
#
# Poissons Ratio (x) = 0.23761 0.14962
# Poissons Ratio (y) = 0.23882 0.70199
# Poissons Ratio (z) = 0.15332 0.71576
#
# Static dielectric constant tensor:
#      x y z
#    x 3.683460 0.000000 0.000000 
#    y 0.000000 3.676650 0.000000 
#    z 0.000000 0.000000 3.506670 
# 
# 
# High freq. dielectric constant tensor:
#      x y z
#    x 1.774700 0.000000 0.000000 
#    y 0.000000 1.775070 0.000000 
#    z 0.000000 0.000000 1.762670 
# 
# From -- ./inp_files/2635.got.cif
#   From: 2010.03.12/outbox.cif.g09.slc.cpg/sg36_2_cif.got.tgz:2635.got - 2010.04.14 02:13:53.
