data_PCOD8175208
_publ_section_title
;
Structure prediction by ZEFSAII (Michael W. Deem and Ramdas Pophale) SiO2 
 PCOD8175208
Probable space group: C M C 21
;
_chemical_formula_sum "Si O2"
_cell_formula_units_Z 64
_cell_length_a 9.001334
_cell_length_b 14.366989
_cell_length_c 26.657165
_cell_angle_alpha 90.000000
_cell_angle_beta 90.000000
_cell_angle_gamma 90.000000
_cell_volume 3447.359667
_symmetry_space_group_name_H-M "C M C 21"
_symmetry_group_IT_number 36
_symmetry_cell_setting 'orthorhombic'
loop_
_space_group_symop_operation_xyz
x,y,z
-x,-y,1/2+z
x,-y,1/2+z
-x,y,z
1/2+x,1/2+y,z
1/2-x,1/2-y,1/2+z
1/2+x,1/2-y,1/2+z
1/2-x,1/2+y,z
loop_
_atom_site_type_symbol
_atom_site_label
_atom_site_fract_x
_atom_site_fract_y
_atom_site_fract_z
Si Si1 0.331159 0.122813 0.007200
Si Si2 0.174949 0.944097 0.978613
Si Si3 0.823875 0.705500 0.538850
Si Si4 0.324825 0.526589 0.788363
Si Si5 0.826737 0.123487 0.369360
Si Si6 0.331936 0.820610 0.613107
Si Si7 0.674456 0.113487 0.219911
Si Si8 0.674454 0.263783 0.301973
O O1 0.500000 0.126086 0.986510
O O2 0.251136 0.222662 0.998892
O O3 0.330727 0.103366 0.067704
O O4 0.234757 0.048884 0.976757
O O5 0.217198 0.895401 0.926523
O O6 0.000000 0.943601 0.988869
O O7 0.261838 0.895299 0.024231
O O8 0.769913 0.732838 0.595341
O O9 0.000000 0.707878 0.535353
O O10 0.500000 0.528383 0.780516
O O11 0.277216 0.466241 0.836786
O O12 0.253843 0.479917 0.739062
O O13 0.263209 0.631574 0.794905
O O14 0.745115 0.216950 0.351251
O O15 0.000000 0.140773 0.362821
O O16 0.500000 0.784244 0.622576
O O17 0.267778 0.866266 0.663602
O O18 0.500000 0.094610 0.221010
O O19 0.718142 0.202741 0.253470
O O20 0.500000 0.266537 0.310776
#
# Coordination Sequence:
#
# PCOD8175208 Si02
#       8
#     8   8   8   8   8   8   8   8
#     4   9  19  36  54  75 106 141 176 221 263 310
#     4  11  21  35  54  78 106 143 183 222 267 318
#     4  10  20  35  54  76 104 139 179 222 267 314
#     4   9  18  34  52  76 106 133 170 218 258 309
#     4   9  20  35  52  74 105 137 169 215 266 309
#     4   8  17  35  54  73 108 143 172 218 264 310
#     4   9  17  33  54  76 105 139 171 208 258 311
#     4   9  18  33  54  78 104 135 172 212 259 313
#
# _framework density 18.564933
#
# number of rings (size 3 to 8) (size 9 to 14) (size 15 to 20)
#    0.750    2.000    0.000    1.500    0.000    3.000 
#    2.250    1.250    0.000    0.000    0.000    0.000 
#    0.000    0.000    0.000    0.000    0.000    0.000 
#
# Total GULP energy -396629.547965 kJ/mol
# GULP energy per Si atom -12394.673374 kJ/mol
# Density = 1.852268 g / cm^3
# Si number density = 18.564933 Si / 1000 Ang^3
#
#
#
# Elastic Constant Matrix: (Units=GPa)
#
#
# Indices 1 2 3 4 5 6 
#
# 1 71.0108 19.6403 17.9877 0.0000 0.0000 0.0000
# 2 19.6403 84.5755 1.7699 0.0000 0.0000 0.0000
# 3 17.9877 1.7699 44.2348 0.0000 0.0000 0.0000
# 4 0.0000 0.0000 0.0000 20.9000 0.0000 0.0000
# 5 0.0000 0.0000 0.0000 0.0000 25.6907 0.0000
# 6 0.0000 0.0000 0.0000 0.0000 0.0000 29.9968
#
#
#
# Elastic Compliance Matrix: (Units=1/GPa)
#
#
# Indices 1 2 3 4 5 6 
#
# 1 0.016818 -0.003766 -0.006688 0.000000 0.000000 0.000000
# 2 -0.003766 0.012677 0.001024 0.000000 0.000000 0.000000
# 3 -0.006688 0.001024 0.025285 0.000000 0.000000 0.000000
# 4 0.000000 0.000000 0.000000 0.047847 0.000000 0.000000
# 5 0.000000 0.000000 0.000000 0.000000 0.038925 0.000000
# 6 0.000000 0.000000 0.000000 0.000000 0.000000 0.033337
#
#
# Mechanical properties :
#
#
# Convention : Reuss Voigt Hill
#
# Bulk Modulus (GPa) = 27.83919 30.95745 29.39832
# Shear Modulus (GPa) = 24.30468 26.01237 25.15853
#
# Velocity S-wave (km/s) = 3.62217 3.74726 3.68525
# Velocity P-wave (km/s) = 5.70278 5.95265 5.82905
#
# Compressibility (1/GPa) = 0.03592058
#
# Stress axis : x y z
#
# Youngs Moduli (GPa) = 59.45991 78.88450 39.54856
#
# Poissons Ratio (x) = 0.29704 0.26451
# Poissons Ratio (y) = 0.22390 -0.04050
# Poissons Ratio (z) = 0.39768 -0.08078
#
# Static dielectric constant tensor:
#      x y z
#    x 3.271770 0.000000 0.000000 
#    y 0.000000 3.352200 0.000000 
#    z 0.000000 0.000000 3.327010 
# 
# 
# High freq. dielectric constant tensor:
#      x y z
#    x 1.716890 0.000000 0.000000 
#    y 0.000000 1.711890 0.000000 
#    z 0.000000 0.000000 1.707000 
# 
# From -- ./inp_files/17353.got.cif
#   From: 2010.03.12/outbox.cif.g09.slc.cpg/sg36_9_cif.got.tgz:17353.got - 2010.04.14 02:13:53.
