data_PCOD8175300
_publ_section_title
;
Structure prediction by ZEFSAII (Michael W. Deem and Ramdas Pophale) SiO2 
 PCOD8175300
Probable space group: C M C 21
;
_chemical_formula_sum "Si O2"
_cell_formula_units_Z 64
_cell_length_a 8.855544
_cell_length_b 15.518109
_cell_length_c 23.594595
_cell_angle_alpha 90.000000
_cell_angle_beta 90.000000
_cell_angle_gamma 90.000000
_cell_volume 3242.399848
_symmetry_space_group_name_H-M "C M C 21"
_symmetry_group_IT_number 36
_symmetry_cell_setting 'orthorhombic'
loop_
_space_group_symop_operation_xyz
x,y,z
-x,-y,1/2+z
x,-y,1/2+z
-x,y,z
1/2+x,1/2+y,z
1/2-x,1/2-y,1/2+z
1/2+x,1/2-y,1/2+z
1/2-x,1/2+y,z
loop_
_atom_site_type_symbol
_atom_site_label
_atom_site_fract_x
_atom_site_fract_y
_atom_site_fract_z
Si Si1 0.324552 0.729206 0.621790
Si Si2 0.178843 0.127828 0.316090
Si Si3 0.678934 0.613323 0.186458
Si Si4 0.822364 0.031740 0.887942
Si Si5 0.173751 0.296107 0.378643
Si Si6 0.825824 0.535562 0.494091
Si Si7 0.321766 0.045262 0.623023
Si Si8 0.329562 0.710184 0.493436
O O1 0.500000 0.732738 0.639167
O O2 0.232139 0.801222 0.654758
O O3 0.259818 0.635249 0.637267
O O4 0.302618 0.750509 0.555298
O O5 0.230069 0.122420 0.251353
O O6 0.241910 0.215482 0.343959
O O7 0.000000 0.127224 0.322013
O O8 0.245199 0.046913 0.351018
O O9 0.500000 0.603130 0.179632
O O10 0.759985 0.528127 0.163914
O O11 0.764774 0.119803 0.859815
O O12 0.000000 0.031407 0.886596
O O13 0.767824 0.026359 0.952928
O O14 0.194635 0.282933 0.446200
O O15 0.000000 0.310506 0.362694
O O16 0.783903 0.515185 0.559116
O O17 0.787470 0.634478 0.480870
O O18 0.000000 0.518677 0.481728
O O19 0.500000 0.057860 0.631643
O O20 0.500000 0.672027 0.489035
#
# Coordination Sequence:
#
# PCOD8175300 Si02
#       8
#     8   8   8   8   8   8   8   8
#     4  10  21  38  60  90 122 157 197 243 297 354
#     4   9  21  42  62  81 117 158 197 243 294 348
#     4  11  23  40  63  89 118 159 204 247 294 352
#     4  11  22  38  59  87 118 154 196 242 295 351
#     4  10  20  38  60  85 116 155 192 236 295 353
#     4  10  20  35  58  87 121 154 193 242 293 349
#     4  10  22  40  60  87 122 160 200 246 296 351
#     4   9  18  35  60  84 118 157 189 233 296 354
#
# _framework density 19.738468000000001
#
# number of rings (size 3 to 8) (size 9 to 14) (size 15 to 20)
#    0.000    2.000    1.250    1.875    1.750    3.500 
#    0.000    6.250    0.000    0.000    0.000    0.000 
#    0.000    0.000    0.000    0.000    0.000    0.000 
#
# Total GULP energy -396863.279099 kJ/mol
# GULP energy per Si atom -12401.977472 kJ/mol
# Density = 1.969354 g / cm^3
# Si number density = 19.738468 Si / 1000 Ang^3
#
#
#
# Elastic Constant Matrix: (Units=GPa)
#
#
# Indices 1 2 3 4 5 6 
#
# 1 56.0297 29.2115 28.6844 0.0000 0.0000 0.0000
# 2 29.2115 123.3923 52.4267 0.0000 0.0000 0.0000
# 3 28.6844 52.4267 100.5199 0.0000 0.0000 0.0000
# 4 0.0000 0.0000 0.0000 24.8153 0.0000 0.0000
# 5 0.0000 0.0000 0.0000 0.0000 21.9362 0.0000
# 6 0.0000 0.0000 0.0000 0.0000 0.0000 38.5644
#
#
#
# Elastic Compliance Matrix: (Units=1/GPa)
#
#
# Indices 1 2 3 4 5 6 
#
# 1 0.021868 -0.003245 -0.004548 0.000000 0.000000 0.000000
# 2 -0.003245 0.010893 -0.004755 0.000000 0.000000 0.000000
# 3 -0.004548 -0.004755 0.013726 0.000000 0.000000 0.000000
# 4 0.000000 0.000000 0.000000 0.040298 0.000000 0.000000
# 5 0.000000 0.000000 0.000000 0.000000 0.045587 0.000000
# 6 0.000000 0.000000 0.000000 0.000000 0.000000 0.025931
#
#
# Mechanical properties :
#
#
# Convention : Reuss Voigt Hill
#
# Bulk Modulus (GPa) = 46.74864 55.62080 51.18472
# Shear Modulus (GPa) = 26.24291 28.37113 27.30702
#
# Velocity S-wave (km/s) = 3.65023 3.79536 3.72350
# Velocity P-wave (km/s) = 6.44213 6.88813 6.66886
#
# Compressibility (1/GPa) = 0.02139100
#
# Stress axis : x y z
#
# Youngs Moduli (GPa) = 45.72982 91.80396 72.85318
#
# Poissons Ratio (x) = 0.29786 0.33133
# Poissons Ratio (y) = 0.14837 0.34644
# Poissons Ratio (z) = 0.20798 0.43656
#
# Static dielectric constant tensor:
#      x y z
#    x 3.502000 0.000000 0.000000 
#    y 0.000000 3.606990 0.000000 
#    z 0.000000 0.000000 3.702350 
# 
# 
# High freq. dielectric constant tensor:
#      x y z
#    x 1.761520 0.000000 0.000000 
#    y 0.000000 1.773700 0.000000 
#    z 0.000000 0.000000 1.768230 
# 
# From -- ./inp_files/16567.got.cif
#   From: 2010.03.12/outbox.cif.g09.slc.cpg/sg36_9_cif.got.tgz:16567.got - 2010.04.14 02:13:53.
