data_PCOD8175815
_publ_section_title
;
Structure prediction by ZEFSAII (Michael W. Deem and Ramdas Pophale) SiO2 
 PCOD8175815
Probable space group: C M C 21
;
_chemical_formula_sum "Si O2"
_cell_formula_units_Z 48
_cell_length_a 8.681623
_cell_length_b 30.337270
_cell_length_c 9.330927
_cell_angle_alpha 90.000000
_cell_angle_beta 90.000000
_cell_angle_gamma 90.000000
_cell_volume 2457.549144
_symmetry_space_group_name_H-M "C M C 21"
_symmetry_group_IT_number 36
_symmetry_cell_setting 'orthorhombic'
loop_
_space_group_symop_operation_xyz
x,y,z
-x,-y,1/2+z
x,-y,1/2+z
-x,y,z
1/2+x,1/2+y,z
1/2-x,1/2-y,1/2+z
1/2+x,1/2-y,1/2+z
1/2-x,1/2+y,z
loop_
_atom_site_type_symbol
_atom_site_label
_atom_site_fract_x
_atom_site_fract_y
_atom_site_fract_z
Si Si1 0.676339 0.868674 0.954680
Si Si2 0.182161 0.712183 0.967492
Si Si3 0.319723 0.706591 0.280514
Si Si4 0.323438 0.030632 0.470430
Si Si5 0.818413 0.629302 0.783116
Si Si6 0.678592 0.461229 0.272186
O O1 0.500000 0.854638 0.930390
O O2 0.782231 0.840595 0.849052
O O3 0.701690 0.919708 0.914282
O O4 0.724993 0.859696 0.118817
O O5 0.245028 0.755241 0.884916
O O6 0.239314 0.669159 0.881962
O O7 0.000000 0.712943 0.973047
O O8 0.243887 0.711681 0.126916
O O9 0.500000 0.711481 0.258814
O O10 0.500000 0.015764 0.448451
O O11 0.285289 0.027960 0.637448
O O12 0.207612 0.998537 0.389475
O O13 0.727285 0.586132 0.836290
O O14 0.000000 0.620274 0.796891
O O15 0.500000 0.460792 0.228776
#
# Coordination Sequence:
#
# PCOD8175815 Si02
#       6
#     8   8   8   8   8   8
#     4   9  19  37  60  82 108 145 186 227 271 327
#     4  10  22  39  58  81 111 148 186 224 270 330
#     4  11  23  37  57  85 113 143 182 229 278 325
#     4  10  21  39  60  81 111 155 195 224 272 344
#     4   9  19  38  60  80 108 149 191 225 270 338
#     4  11  22  36  57  87 117 144 184 241 291 324
#
# _framework density 19.531655000000001
#
# number of rings (size 3 to 8) (size 9 to 14) (size 15 to 20)
#    0.000    2.000    0.000    4.500    0.000    8.000 
#    0.000    1.667    0.000    0.000    0.000    0.000 
#    0.000    0.000    0.000    0.000    0.000    0.000 
#
# Total GULP energy -297703.178330 kJ/mol
# GULP energy per Si atom -12404.299097 kJ/mol
# Density = 1.948720 g / cm^3
# Si number density = 19.531655 Si / 1000 Ang^3
#
#
#
# Elastic Constant Matrix: (Units=GPa)
#
#
# Indices 1 2 3 4 5 6 
#
# 1 46.6557 35.0341 19.9820 0.0000 0.0000 0.0000
# 2 35.0341 116.1465 57.8841 0.0000 0.0000 0.0000
# 3 19.9820 57.8841 93.4366 0.0000 0.0000 0.0000
# 4 0.0000 0.0000 0.0000 37.9007 0.0000 0.0000
# 5 0.0000 0.0000 0.0000 0.0000 33.0201 0.0000
# 6 0.0000 0.0000 0.0000 0.0000 0.0000 27.7413
#
#
#
# Elastic Compliance Matrix: (Units=1/GPa)
#
#
# Indices 1 2 3 4 5 6 
#
# 1 0.027786 -0.007841 -0.001085 0.000000 0.000000 0.000000
# 2 -0.007841 0.014668 -0.007410 0.000000 0.000000 0.000000
# 3 -0.001085 -0.007410 0.015525 0.000000 0.000000 0.000000
# 4 0.000000 0.000000 0.000000 0.026385 0.000000 0.000000
# 5 0.000000 0.000000 0.000000 0.000000 0.030285 0.000000
# 6 0.000000 0.000000 0.000000 0.000000 0.000000 0.036047
#
#
# Mechanical properties :
#
#
# Convention : Reuss Voigt Hill
#
# Bulk Modulus (GPa) = 39.51380 53.55992 46.53686
# Shear Modulus (GPa) = 26.06859 29.28832 27.67846
#
# Velocity S-wave (km/s) = 3.65730 3.87658 3.76853
# Velocity P-wave (km/s) = 6.17325 6.89339 6.54323
#
# Compressibility (1/GPa) = 0.02530761
#
# Stress axis : x y z
#
# Youngs Moduli (GPa) = 35.98967 68.17706 64.41257
#
# Poissons Ratio (x) = 0.53454 0.06989
# Poissons Ratio (y) = 0.28218 0.47729
# Poissons Ratio (z) = 0.03905 0.50519
#
# Static dielectric constant tensor:
#      x y z
#    x 3.413610 0.000000 0.000000 
#    y 0.000000 3.766740 0.000000 
#    z 0.000000 0.000000 3.447010 
# 
# 
# High freq. dielectric constant tensor:
#      x y z
#    x 1.755900 0.000000 0.000000 
#    y 0.000000 1.772280 0.000000 
#    z 0.000000 0.000000 1.757580 
# 
# From -- ./inp_files/2651.got.cif
#   From: 2010.03.12/outbox.cif.g09.slc.cpg/sg36_2_cif.got.tgz:2651.got - 2010.04.14 02:13:53.
