data_PCOD8175890
_publ_section_title
;
Structure prediction by ZEFSAII (Michael W. Deem and Ramdas Pophale) SiO2 
 PCOD8175890
Probable space group: C M C 21
;
_chemical_formula_sum "Si O2"
_cell_formula_units_Z 64
_cell_length_a 17.363822
_cell_length_b 15.684213
_cell_length_c 10.584400
_cell_angle_alpha 90.000000
_cell_angle_beta 90.000000
_cell_angle_gamma 90.000000
_cell_volume 2882.533086
_symmetry_space_group_name_H-M "C M C 21"
_symmetry_group_IT_number 36
_symmetry_cell_setting 'orthorhombic'
loop_
_space_group_symop_operation_xyz
x,y,z
-x,-y,1/2+z
x,-y,1/2+z
-x,y,z
1/2+x,1/2+y,z
1/2-x,1/2-y,1/2+z
1/2+x,1/2-y,1/2+z
1/2-x,1/2+y,z
loop_
_atom_site_type_symbol
_atom_site_label
_atom_site_fract_x
_atom_site_fract_y
_atom_site_fract_z
Si Si1 0.254038 0.403376 0.981930
Si Si2 0.819110 0.326726 0.755178
Si Si3 0.186971 0.717935 0.682049
Si Si4 0.089181 0.177616 0.814505
Si Si5 0.911307 0.868618 0.584741
Si Si6 0.910469 0.064287 0.583980
Si Si7 0.912865 0.428299 0.295187
Si Si8 0.353595 0.960947 0.570496
O O1 0.215914 0.401539 0.842883
O O2 0.216146 0.320958 0.049752
O O3 0.347838 0.409496 0.975491
O O4 0.225798 0.487784 0.054353
O O5 0.761756 0.246259 0.758563
O O6 0.896674 0.279948 0.803353
O O7 0.832130 0.365179 0.615040
O O8 0.136021 0.803127 0.669773
O O9 0.142615 0.650588 0.768229
O O10 0.120815 0.122507 0.697814
O O11 0.000000 0.160417 0.815256
O O12 0.122979 0.139183 0.943444
O O13 0.000000 0.839536 0.590917
O O14 0.902356 0.966426 0.628327
O O15 0.000000 0.082626 0.541134
O O16 0.899051 0.462741 0.437769
O O17 0.903015 0.500454 0.187216
O O18 0.000000 0.395522 0.287893
#
# Coordination Sequence:
#
# PCOD8175890 Si02
#       8
#     8   8   8   8   8   8   8   8
#     4  11  23  43  64  99 135 177 228 283 346 416
#     4  12  24  43  68  97 134 182 229 283 340 417
#     4  11  24  39  67  98 133 177 226 286 343 414
#     4  10  22  40  64  95 131 177 229 283 346 416
#     4  10  21  40  64  93 131 176 226 279 346 412
#     4  10  22  41  66  96 132 173 227 292 350 414
#     4  11  25  46  71 104 146 182 234 294 354 421
#     4  11  25  46  70 104 138 190 235 286 353 414
#
# _framework density 22.202694000000001
#
# number of rings (size 3 to 8) (size 9 to 14) (size 15 to 20)
#    0.000    1.250    3.750    1.500    1.750    4.000 
#    0.000    3.750    0.000    0.000    0.000    0.000 
#    0.000    0.000    0.000    0.000    0.000    0.000 
#
# Total GULP energy -396635.855209 kJ/mol
# GULP energy per Si atom -12394.870475 kJ/mol
# Density = 2.215216 g / cm^3
# Si number density = 22.202694 Si / 1000 Ang^3
#
#
#
# Elastic Constant Matrix: (Units=GPa)
#
#
# Indices 1 2 3 4 5 6 
#
# 1 67.4526 23.4651 19.0119 0.0000 0.0000 0.0000
# 2 23.4651 101.5553 27.5489 0.0000 0.0000 0.0000
# 3 19.0119 27.5489 104.6929 0.0000 0.0000 0.0000
# 4 0.0000 0.0000 0.0000 36.9472 0.0000 0.0000
# 5 0.0000 0.0000 0.0000 0.0000 23.8137 0.0000
# 6 0.0000 0.0000 0.0000 0.0000 0.0000 36.0467
#
#
#
# Elastic Compliance Matrix: (Units=1/GPa)
#
#
# Indices 1 2 3 4 5 6 
#
# 1 0.016560 -0.003242 -0.002154 0.000000 0.000000 0.000000
# 2 -0.003242 0.011238 -0.002369 0.000000 0.000000 0.000000
# 3 -0.002154 -0.002369 0.010566 0.000000 0.000000 0.000000
# 4 0.000000 0.000000 0.000000 0.027066 0.000000 0.000000
# 5 0.000000 0.000000 0.000000 0.000000 0.041993 0.000000
# 6 0.000000 0.000000 0.000000 0.000000 0.000000 0.027742
#
#
# Mechanical properties :
#
#
# Convention : Reuss Voigt Hill
#
# Bulk Modulus (GPa) = 43.79168 45.97253 44.88210
# Shear Modulus (GPa) = 31.58434 32.93983 32.26209
#
# Velocity S-wave (km/s) = 3.77576 3.85593 3.81605
# Velocity P-wave (km/s) = 6.22695 6.36985 6.29880
#
# Compressibility (1/GPa) = 0.02283539
#
# Stress axis : x y z
#
# Youngs Moduli (GPa) = 60.38573 88.98021 94.64136
#
# Poissons Ratio (x) = 0.28847 0.20388
# Poissons Ratio (y) = 0.19577 0.22416
# Poissons Ratio (z) = 0.13008 0.21075
#
# Static dielectric constant tensor:
#      x y z
#    x 4.006100 0.000000 0.000000 
#    y 0.000000 3.900430 0.000000 
#    z 0.000000 0.000000 4.030850 
# 
# 
# High freq. dielectric constant tensor:
#      x y z
#    x 1.879470 0.000000 0.000000 
#    y 0.000000 1.875950 0.000000 
#    z 0.000000 0.000000 1.863630 
# 
# From -- ./inp_files/8997.got.cif
#   From: 2010.03.12/outbox.cif.g09.slc.cpg/sg36_5_cif.got.tgz:8997.got - 2010.04.14 02:13:53.
