data_PCOD8175023
_publ_section_title
;
Structure prediction by ZEFSAII (Michael W. Deem and Ramdas Pophale) SiO2 
 PCOD8175023
Probable space group: C M C 21
;
_chemical_formula_sum "Si O2"
_cell_formula_units_Z 40
_cell_length_a 17.304731
_cell_length_b 7.818702
_cell_length_c 14.317224
_cell_angle_alpha 90.000000
_cell_angle_beta 90.000000
_cell_angle_gamma 90.000000
_cell_volume 1937.128065
_symmetry_space_group_name_H-M "C M C 21"
_symmetry_group_IT_number 36
_symmetry_cell_setting 'orthorhombic'
loop_
_space_group_symop_operation_xyz
x,y,z
-x,-y,1/2+z
x,-y,1/2+z
-x,y,z
1/2+x,1/2+y,z
1/2-x,1/2-y,1/2+z
1/2+x,1/2-y,1/2+z
1/2-x,1/2+y,z
loop_
_atom_site_type_symbol
_atom_site_label
_atom_site_fract_x
_atom_site_fract_y
_atom_site_fract_z
Si Si1 0.296208 0.712638 0.557100
Si Si2 0.653821 0.212141 0.436755
Si Si3 0.651268 0.068282 0.624009
Si Si4 0.088768 0.406135 0.325096
Si Si5 0.089193 0.060198 0.432118
O O1 0.244020 0.750176 0.463196
O O2 0.343442 0.870279 0.597324
O O3 0.240304 0.634105 0.637047
O O4 0.361748 0.576596 0.527784
O O5 0.614583 0.377559 0.388002
O O6 0.611435 0.164180 0.535477
O O7 0.645127 0.050158 0.367770
O O8 0.600562 0.100865 0.714327
O O9 0.108908 0.218270 0.364108
O O10 0.000000 0.454277 0.346682
O O11 0.000000 0.056982 0.458214
#
# Coordination Sequence:
#
# PCOD8175023 Si02
#       5
#     8   8   8   8   8
#     4  10  19  43  64  95 123 179 219 269 333 384
#     4  10  21  44  70  92 134 177 226 265 337 397
#     4  10  22  42  66  96 135 171 227 272 329 399
#     4  11  25  42  65 101 137 175 221 281 340 395
#     4  11  22  41  68  98 131 170 221 277 332 393
#
# _framework density 20.649127
#
# number of rings (size 3 to 8) (size 9 to 14) (size 15 to 20)
#    1.200    0.400    4.000    0.600    0.000    4.000 
#    7.200    0.000    0.000    0.000    0.000    0.000 
#    0.000    0.000    0.000    0.000    0.000    0.000 
#
# Total GULP energy -247797.095714 kJ/mol
# GULP energy per Si atom -12389.854786 kJ/mol
# Density = 2.060213 g / cm^3
# Si number density = 20.649127 Si / 1000 Ang^3
#
#
#
# Elastic Constant Matrix: (Units=GPa)
#
#
# Indices 1 2 3 4 5 6 
#
# 1 67.7379 16.4958 12.3009 0.0000 0.0000 0.0000
# 2 16.4958 132.3011 26.4699 0.0000 0.0000 0.0000
# 3 12.3009 26.4699 69.8348 0.0000 0.0000 0.0000
# 4 0.0000 0.0000 0.0000 19.4782 0.0000 0.0000
# 5 0.0000 0.0000 0.0000 0.0000 29.6098 0.0000
# 6 0.0000 0.0000 0.0000 0.0000 0.0000 22.0079
#
#
#
# Elastic Compliance Matrix: (Units=1/GPa)
#
#
# Indices 1 2 3 4 5 6 
#
# 1 0.015522 -0.001502 -0.002165 0.000000 0.000000 0.000000
# 2 -0.001502 0.008324 -0.002891 0.000000 0.000000 0.000000
# 3 -0.002165 -0.002891 0.015796 0.000000 0.000000 0.000000
# 4 0.000000 0.000000 0.000000 0.051339 0.000000 0.000000
# 5 0.000000 0.000000 0.000000 0.000000 0.033773 0.000000
# 6 0.000000 0.000000 0.000000 0.000000 0.000000 0.045438
#
#
# Mechanical properties :
#
#
# Convention : Reuss Voigt Hill
#
# Bulk Modulus (GPa) = 37.69681 42.26744 39.98212
# Shear Modulus (GPa) = 26.02135 28.52631 27.27383
#
# Velocity S-wave (km/s) = 3.55373 3.72086 3.63826
# Velocity P-wave (km/s) = 5.92741 6.24288 6.08719
#
# Compressibility (1/GPa) = 0.02652745
#
# Stress axis : x y z
#
# Youngs Moduli (GPa) = 64.42589 120.13251 63.30545
#
# Poissons Ratio (x) = 0.18046 0.13703
# Poissons Ratio (y) = 0.09678 0.18299
# Poissons Ratio (z) = 0.13946 0.34725
#
# Static dielectric constant tensor:
#      x y z
#    x 3.597270 0.000000 0.000000 
#    y 0.000000 3.807700 0.000000 
#    z 0.000000 0.000000 3.335580 
# 
# 
# High freq. dielectric constant tensor:
#      x y z
#    x 1.800530 0.000000 0.000000 
#    y 0.000000 1.824130 0.000000 
#    z 0.000000 0.000000 1.767540 
# 
# From -- ./inp_files/9158.got.cif
#   From: 2010.03.12/outbox.cif.g09.slc.cpg/sg36_5_cif.got.tgz:9158.got - 2010.04.14 02:13:53.
