data_PCOD8175279
_publ_section_title
;
Structure prediction by ZEFSAII (Michael W. Deem and Ramdas Pophale) SiO2 
 PCOD8175279
Probable space group: C M C 21
;
_chemical_formula_sum "Si O2"
_cell_formula_units_Z 48
_cell_length_a 13.903761
_cell_length_b 14.645406
_cell_length_c 12.136280
_cell_angle_alpha 90.000000
_cell_angle_beta 90.000000
_cell_angle_gamma 90.000000
_cell_volume 2471.264879
_symmetry_space_group_name_H-M "C M C 21"
_symmetry_group_IT_number 36
_symmetry_cell_setting 'orthorhombic'
loop_
_space_group_symop_operation_xyz
x,y,z
-x,-y,1/2+z
x,-y,1/2+z
-x,y,z
1/2+x,1/2+y,z
1/2-x,1/2-y,1/2+z
1/2+x,1/2-y,1/2+z
1/2-x,1/2+y,z
loop_
_atom_site_type_symbol
_atom_site_label
_atom_site_fract_x
_atom_site_fract_y
_atom_site_fract_z
Si Si1 0.606746 0.701821 0.684790
Si Si2 0.107794 0.411949 0.101419
Si Si3 0.388224 0.672567 0.437262
Si Si4 0.710567 0.845452 0.320567
Si Si5 0.396870 0.905244 0.708766
Si Si6 0.768336 0.456997 0.901176
O O1 0.500000 0.676751 0.729533
O O2 0.625924 0.656324 0.567485
O O3 0.681730 0.674428 0.778936
O O4 0.614184 0.807835 0.652850
O O5 0.144615 0.364367 0.213540
O O6 0.105088 0.520963 0.112159
O O7 0.000000 0.374059 0.076588
O O8 0.178830 0.399360 0.998264
O O9 0.500000 0.679030 0.403354
O O10 0.333000 0.761314 0.389170
O O11 0.341893 0.577921 0.392916
O O12 0.719307 0.933092 0.402523
O O13 0.500000 0.913150 0.772202
O O14 0.309814 0.920674 0.788490
#
# Coordination Sequence:
#
# PCOD8175279 Si02
#       6
#     8   8   8   8   8   8
#     4  10  20  37  60  83 115 156 198 239 294 360
#     4  10  20  35  57  87 117 147 193 250 303 354
#     4  11  23  40  61  87 120 159 198 245 301 357
#     4  11  22  38  61  88 117 158 203 244 296 360
#     4   9  18  33  56  84 110 144 188 238 294 350
#     4  11  21  35  59  85 117 152 192 246 296 353
#
# _framework density 19.423252000000002
#
# number of rings (size 3 to 8) (size 9 to 14) (size 15 to 20)
#    0.000    1.667    3.333    2.000    0.000    4.000 
#    0.000    0.000    0.000    0.000    0.000    0.000 
#    0.000    0.000    0.000    0.000    0.000    0.000 
#
# Total GULP energy -297358.144088 kJ/mol
# GULP energy per Si atom -12389.922670 kJ/mol
# Density = 1.937904 g / cm^3
# Si number density = 19.423252 Si / 1000 Ang^3
#
#
#
# Elastic Constant Matrix: (Units=GPa)
#
#
# Indices 1 2 3 4 5 6 
#
# 1 143.1757 31.8010 31.9837 0.0000 0.0000 0.0000
# 2 31.8010 56.7570 7.4672 0.0000 0.0000 0.0000
# 3 31.9837 7.4672 43.6806 0.0000 0.0000 0.0000
# 4 0.0000 0.0000 0.0000 21.9003 0.0000 0.0000
# 5 0.0000 0.0000 0.0000 0.0000 32.0352 0.0000
# 6 0.0000 0.0000 0.0000 0.0000 0.0000 23.8993
#
#
#
# Elastic Compliance Matrix: (Units=1/GPa)
#
#
# Indices 1 2 3 4 5 6 
#
# 1 0.009323 -0.004425 -0.006070 0.000000 0.000000 0.000000
# 2 -0.004425 0.020125 -0.000200 0.000000 0.000000 0.000000
# 3 -0.006070 -0.000200 0.027372 0.000000 0.000000 0.000000
# 4 0.000000 0.000000 0.000000 0.045661 0.000000 0.000000
# 5 0.000000 0.000000 0.000000 0.000000 0.031216 0.000000
# 6 0.000000 0.000000 0.000000 0.000000 0.000000 0.041842
#
#
# Mechanical properties :
#
#
# Convention : Reuss Voigt Hill
#
# Bulk Modulus (GPa) = 28.22517 42.90191 35.56354
# Shear Modulus (GPa) = 23.95318 27.05774 25.50546
#
# Velocity S-wave (km/s) = 3.51554 3.73642 3.62766
# Velocity P-wave (km/s) = 5.57152 6.38360 5.99133
#
# Compressibility (1/GPa) = 0.03542938
#
# Stress axis : x y z
#
# Youngs Moduli (GPa) = 107.25780 49.68996 36.53323
#
# Poissons Ratio (x) = 0.21989 0.22176
# Poissons Ratio (y) = 0.47464 0.00731
# Poissons Ratio (z) = 0.65108 0.00994
#
# Static dielectric constant tensor:
#      x y z
#    x 3.756610 0.000000 0.000000 
#    y 0.000000 3.614500 0.000000 
#    z 0.000000 0.000000 3.274750 
# 
# 
# High freq. dielectric constant tensor:
#      x y z
#    x 1.768650 0.000000 0.000000 
#    y 0.000000 1.745070 0.000000 
#    z 0.000000 0.000000 1.744190 
# 
# From -- ./inp_files/7678.got.cif
#   From: 2010.03.12/outbox.cif.g09.slc.cpg/sg36_4_cif.got.tgz:7678.got - 2010.04.14 02:13:53.
