data_PCOD8175246
_publ_section_title
;
Structure prediction by ZEFSAII (Michael W. Deem and Ramdas Pophale) SiO2 
 PCOD8175246
Probable space group: C M C 21
;
_chemical_formula_sum "Si O2"
_cell_formula_units_Z 64
_cell_length_a 8.699663
_cell_length_b 20.613039
_cell_length_c 19.108166
_cell_angle_alpha 90.000000
_cell_angle_beta 90.000000
_cell_angle_gamma 90.000000
_cell_volume 3426.600391
_symmetry_space_group_name_H-M "C M C 21"
_symmetry_group_IT_number 36
_symmetry_cell_setting 'orthorhombic'
loop_
_space_group_symop_operation_xyz
x,y,z
-x,-y,1/2+z
x,-y,1/2+z
-x,y,z
1/2+x,1/2+y,z
1/2-x,1/2-y,1/2+z
1/2+x,1/2-y,1/2+z
1/2-x,1/2+y,z
loop_
_atom_site_type_symbol
_atom_site_label
_atom_site_fract_x
_atom_site_fract_y
_atom_site_fract_z
Si Si1 0.180402 0.242243 0.956450
Si Si2 0.181146 0.737820 0.102944
Si Si3 0.818847 0.563032 0.740168
Si Si4 0.679803 0.811916 0.323562
Si Si5 0.678304 0.613556 0.606031
Si Si6 0.180336 0.880995 0.948940
Si Si7 0.818815 0.434476 0.816286
Si Si8 0.821505 0.183996 0.236291
O O1 0.224288 0.192809 0.894892
O O2 0.232736 0.313948 0.933803
O O3 0.000000 0.241522 0.970679
O O4 0.268959 0.217873 0.025198
O O5 0.231242 0.812158 0.116501
O O6 0.270462 0.691116 0.156007
O O7 0.000000 0.728335 0.111552
O O8 0.757710 0.624696 0.783548
O O9 0.765142 0.566719 0.659691
O O10 0.755745 0.497654 0.775788
O O11 0.000000 0.562700 0.739516
O O12 0.500000 0.817087 0.341394
O O13 0.715660 0.750780 0.274964
O O14 0.500000 0.606441 0.621514
O O15 0.717768 0.592028 0.526499
O O16 0.236470 0.932980 0.891985
O O17 0.000000 0.866481 0.940889
O O18 0.778330 0.371898 0.771065
O O19 0.000000 0.437974 0.828387
O O20 0.000000 0.165328 0.240777
#
# Coordination Sequence:
#
# PCOD8175246 Si02
#       8
#     8   8   8   8   8   8   8   8
#     4  11  21  33  55  86 116 148 190 235 285 341
#     4  10  20  35  56  84 118 149 186 236 287 337
#     4  10  22  39  58  82 114 151 190 231 279 339
#     4  10  20  36  57  82 113 147 188 233 282 333
#     4   9  19  34  56  83 110 143 185 231 282 334
#     4  10  20  36  56  82 113 148 188 234 285 335
#     4  11  23  38  57  84 115 151 192 232 282 340
#     4  11  21  35  59  85 113 147 187 234 284 333
#
# _framework density 18.677405
#
# number of rings (size 3 to 8) (size 9 to 14) (size 15 to 20)
#    0.000    1.750    2.500    3.375    0.000    4.500 
#    0.000    1.250    0.000    4.500    0.000    0.000 
#    0.000    0.000    0.000    0.000    0.000    0.000 
#
# Total GULP energy -396916.213786 kJ/mol
# GULP energy per Si atom -12403.631681 kJ/mol
# Density = 1.863489 g / cm^3
# Si number density = 18.677405 Si / 1000 Ang^3
#
#
#
# Elastic Constant Matrix: (Units=GPa)
#
#
# Indices 1 2 3 4 5 6 
#
# 1 40.3015 22.9624 25.5606 0.0000 0.0000 0.0000
# 2 22.9624 85.2123 49.8543 0.0000 0.0000 0.0000
# 3 25.5606 49.8543 140.1780 0.0000 0.0000 0.0000
# 4 0.0000 0.0000 0.0000 29.1300 0.0000 0.0000
# 5 0.0000 0.0000 0.0000 0.0000 37.5796 0.0000
# 6 0.0000 0.0000 0.0000 0.0000 0.0000 22.9967
#
#
#
# Elastic Compliance Matrix: (Units=1/GPa)
#
#
# Indices 1 2 3 4 5 6 
#
# 1 0.030498 -0.006269 -0.003331 0.000000 0.000000 0.000000
# 2 -0.006269 0.016108 -0.004586 0.000000 0.000000 0.000000
# 3 -0.003331 -0.004586 0.009372 0.000000 0.000000 0.000000
# 4 0.000000 0.000000 0.000000 0.034329 0.000000 0.000000
# 5 0.000000 0.000000 0.000000 0.000000 0.026610 0.000000
# 6 0.000000 0.000000 0.000000 0.000000 0.000000 0.043485
#
#
# Mechanical properties :
#
#
# Convention : Reuss Voigt Hill
#
# Bulk Modulus (GPa) = 36.22514 51.38293 43.80404
# Shear Modulus (GPa) = 25.25568 29.09556 27.17562
#
# Velocity S-wave (km/s) = 3.68122 3.95117 3.81858
# Velocity P-wave (km/s) = 6.12420 6.95602 6.55332
#
# Compressibility (1/GPa) = 0.02760514
#
# Stress axis : x y z
#
# Youngs Moduli (GPa) = 32.78919 62.08252 106.69985
#
# Poissons Ratio (x) = 0.38921 0.35546
# Poissons Ratio (y) = 0.20556 0.48927
# Poissons Ratio (z) = 0.10923 0.28468
#
# Static dielectric constant tensor:
#      x y z
#    x 3.347900 0.000000 0.000000 
#    y 0.000000 3.308110 0.000000 
#    z 0.000000 0.000000 3.633520 
# 
# 
# High freq. dielectric constant tensor:
#      x y z
#    x 1.728120 0.000000 0.000000 
#    y 0.000000 1.692920 0.000000 
#    z 0.000000 0.000000 1.742090 
# 
# From -- ./inp_files/13989.got.cif
#   From: 2010.03.12/outbox.cif.g09.slc.cpg/sg36_7_cif.got.tgz:13989.got - 2010.04.14 02:13:53.
