data_PCOD8175723
_publ_section_title
;
Structure prediction by ZEFSAII (Michael W. Deem and Ramdas Pophale) SiO2 
 PCOD8175723
Probable space group: C M C 21
;
_chemical_formula_sum "Si O2"
_cell_formula_units_Z 64
_cell_length_a 17.925259
_cell_length_b 9.335591
_cell_length_c 19.869679
_cell_angle_alpha 90.000000
_cell_angle_beta 90.000000
_cell_angle_gamma 90.000000
_cell_volume 3325.049440
_symmetry_space_group_name_H-M "C M C 21"
_symmetry_group_IT_number 36
_symmetry_cell_setting 'orthorhombic'
loop_
_space_group_symop_operation_xyz
x,y,z
-x,-y,1/2+z
x,-y,1/2+z
-x,y,z
1/2+x,1/2+y,z
1/2-x,1/2-y,1/2+z
1/2+x,1/2-y,1/2+z
1/2-x,1/2+y,z
loop_
_atom_site_type_symbol
_atom_site_label
_atom_site_fract_x
_atom_site_fract_y
_atom_site_fract_z
Si Si1 0.169254 0.198089 0.144710
Si Si2 0.413047 0.191676 0.260634
Si Si3 0.584654 0.859124 0.911222
Si Si4 0.672189 0.644140 0.526359
Si Si5 0.675225 0.028522 0.015874
Si Si6 0.414806 0.390925 0.511746
Si Si7 0.584744 0.041039 0.650185
Si Si8 0.817574 0.120072 0.670974
O O1 0.145399 0.165563 0.067184
O O2 0.101575 0.294983 0.173517
O O3 0.239632 0.302656 0.154344
O O4 0.188507 0.051643 0.183822
O O5 0.500000 0.236871 0.259804
O O6 0.385432 0.153403 0.335235
O O7 0.362398 0.322228 0.234876
O O8 0.396397 0.056852 0.213564
O O9 0.500000 0.914200 0.910779
O O10 0.591903 0.705349 0.945891
O O11 0.631962 0.975594 0.950666
O O12 0.686392 0.803186 0.499913
O O13 0.747676 0.552838 0.523441
O O14 0.608980 0.551424 0.487278
O O15 0.637249 0.647441 0.602115
O O16 0.631882 0.005385 0.085370
O O17 0.500000 0.388363 0.539613
O O18 0.500000 0.027533 0.627419
#
# Coordination Sequence:
#
# PCOD8175723 Si02
#       8
#     8   8   8   8   8   8   8   8
#     4  11  21  35  60  90 117 153 202 253 307 355
#     4  10  23  40  60  89 124 164 203 249 311 379
#     4  10  21  41  63  85 124 166 202 248 311 377
#     4  11  22  35  62  90 124 151 199 261 304 358
#     4  12  21  38  61  91 121 160 204 255 309 356
#     4  10  21  37  59  89 122 157 199 252 308 367
#     4  11  21  36  59  88 120 157 205 253 303 364
#     4  11  20  36  58  84 120 158 192 249 305 360
#
# _framework density 19.247834999999998
#
# number of rings (size 3 to 8) (size 9 to 14) (size 15 to 20)
#    0.000    1.250    3.750    3.750    0.000    3.500 
#    0.000    6.250    0.000    4.500    0.000    0.000 
#    0.000    0.000    0.000    0.000    0.000    0.000 
#
# Total GULP energy -396516.595412 kJ/mol
# GULP energy per Si atom -12391.143607 kJ/mol
# Density = 1.920403 g / cm^3
# Si number density = 19.247835 Si / 1000 Ang^3
#
#
#
# Elastic Constant Matrix: (Units=GPa)
#
#
# Indices 1 2 3 4 5 6 
#
# 1 83.4773 58.2133 52.0581 0.0000 0.0000 0.0000
# 2 58.2133 165.7312 47.2730 0.0000 0.0000 0.0000
# 3 52.0581 47.2730 107.3644 0.0000 0.0000 0.0000
# 4 0.0000 0.0000 0.0000 21.6711 0.0000 0.0000
# 5 0.0000 0.0000 0.0000 0.0000 22.7211 0.0000
# 6 0.0000 0.0000 0.0000 0.0000 0.0000 34.7177
#
#
#
# Elastic Compliance Matrix: (Units=1/GPa)
#
#
# Indices 1 2 3 4 5 6 
#
# 1 0.020145 -0.004906 -0.007608 0.000000 0.000000 0.000000
# 2 -0.004906 0.008095 -0.001186 0.000000 0.000000 0.000000
# 3 -0.007608 -0.001186 0.013525 0.000000 0.000000 0.000000
# 4 0.000000 0.000000 0.000000 0.046144 0.000000 0.000000
# 5 0.000000 0.000000 0.000000 0.000000 0.044012 0.000000
# 6 0.000000 0.000000 0.000000 0.000000 0.000000 0.028804
#
#
# Mechanical properties :
#
#
# Convention : Reuss Voigt Hill
#
# Bulk Modulus (GPa) = 69.60580 74.62909 72.11745
# Shear Modulus (GPa) = 25.91858 29.09054 27.50456
#
# Velocity S-wave (km/s) = 3.67355 3.89185 3.78427
# Velocity P-wave (km/s) = 7.36442 7.68454 7.52618
#
# Compressibility (1/GPa) = 0.01436662
#
# Stress axis : x y z
#
# Youngs Moduli (GPa) = 49.64097 123.52918 73.93822
#
# Poissons Ratio (x) = 0.60602 0.56249
# Poissons Ratio (y) = 0.24353 0.08767
# Poissons Ratio (z) = 0.37764 0.14646
#
# Static dielectric constant tensor:
#      x y z
#    x 3.711090 0.000000 0.000000 
#    y 0.000000 3.968380 0.000000 
#    z 0.000000 0.000000 3.345060 
# 
# 
# High freq. dielectric constant tensor:
#      x y z
#    x 1.756420 0.000000 0.000000 
#    y 0.000000 1.765560 0.000000 
#    z 0.000000 0.000000 1.711140 
# 
# From -- ./inp_files/16238.got.cif
#   From: 2010.03.12/outbox.cif.g09.slc.cpg/sg36_9_cif.got.tgz:16238.got - 2010.04.14 02:13:53.
