data_PCOD8175926
_publ_section_title
;
Structure prediction by ZEFSAII (Michael W. Deem and Ramdas Pophale) SiO2 
 PCOD8175926
Probable space group: C M C 21
;
_chemical_formula_sum "Si O2"
_cell_formula_units_Z 64
_cell_length_a 26.907253
_cell_length_b 12.140925
_cell_length_c 8.724553
_cell_angle_alpha 90.000000
_cell_angle_beta 90.000000
_cell_angle_gamma 90.000000
_cell_volume 2850.127732
_symmetry_space_group_name_H-M "C M C 21"
_symmetry_group_IT_number 36
_symmetry_cell_setting 'orthorhombic'
loop_
_space_group_symop_operation_xyz
x,y,z
-x,-y,1/2+z
x,-y,1/2+z
-x,y,z
1/2+x,1/2+y,z
1/2-x,1/2-y,1/2+z
1/2+x,1/2-y,1/2+z
1/2-x,1/2+y,z
loop_
_atom_site_type_symbol
_atom_site_label
_atom_site_fract_x
_atom_site_fract_y
_atom_site_fract_z
Si Si1 0.190455 0.998774 0.454600
Si Si2 0.119471 0.960633 0.702157
Si Si3 0.879701 0.640676 0.263587
Si Si4 0.869186 0.579351 0.607415
Si Si5 0.444141 0.725217 0.143629
Si Si6 0.701604 0.724632 0.605281
Si Si7 0.277887 0.148293 0.811694
Si Si8 0.444465 0.664709 0.800188
O O1 0.167617 0.054863 0.306445
O O2 0.203200 0.093015 0.579225
O O3 0.144011 0.933358 0.534283
O O4 0.238654 0.930762 0.400948
O O5 0.080519 0.866064 0.754201
O O6 0.092879 0.079622 0.716685
O O7 0.860472 0.591005 0.425718
O O8 0.887585 0.544370 0.140064
O O9 0.841365 0.735678 0.216899
O O10 0.931385 0.706821 0.268215
O O11 0.911773 0.664502 0.656072
O O12 0.818465 0.588345 0.705663
O O13 0.500000 0.755098 0.195366
O O14 0.443551 0.658472 0.983894
O O15 0.695121 0.789418 0.448587
O O16 0.751966 0.740873 0.704112
O O17 0.500000 0.641436 0.737844
#
# Coordination Sequence:
#
# PCOD8175926 Si02
#       8
#     8   8   8   8   8   8   8   8
#     4  12  26  43  66 101 140 184 232 287 351 422
#     4  12  22  43  70 100 145 184 229 292 355 421
#     4  11  24  46  68  99 136 185 231 293 350 420
#     4  11  26  45  73  98 143 183 237 293 352 418
#     4  10  23  44  72 104 139 184 237 294 357 423
#     4  12  27  44  68  96 139 184 236 285 348 422
#     4  12  28  42  67 101 137 190 233 291 346 430
#     4  10  21  41  69 101 136 180 230 291 361 422
#
# _framework density 22.455133
#
# number of rings (size 3 to 8) (size 9 to 14) (size 15 to 20)
#    0.000    0.750    3.750    2.625   10.500    0.500 
#    0.000    0.000    0.000    0.000    0.000    0.000 
#    0.000    0.000    0.000    0.000    0.000    0.000 
#
# Total GULP energy -396530.185282 kJ/mol
# GULP energy per Si atom -12391.568290 kJ/mol
# Density = 2.240402 g / cm^3
# Si number density = 22.455133 Si / 1000 Ang^3
#
#
#
# Elastic Constant Matrix: (Units=GPa)
#
#
# Indices 1 2 3 4 5 6 
#
# 1 119.3019 36.3988 21.3101 0.0000 0.0000 0.0000
# 2 36.3988 90.1234 17.6038 0.0000 0.0000 0.0000
# 3 21.3101 17.6038 68.5994 0.0000 0.0000 0.0000
# 4 0.0000 0.0000 0.0000 36.1019 0.0000 0.0000
# 5 0.0000 0.0000 0.0000 0.0000 24.2016 0.0000
# 6 0.0000 0.0000 0.0000 0.0000 0.0000 31.9489
#
#
#
# Elastic Compliance Matrix: (Units=1/GPa)
#
#
# Indices 1 2 3 4 5 6 
#
# 1 0.009852 -0.003559 -0.002147 0.000000 0.000000 0.000000
# 2 -0.003559 0.012968 -0.002222 0.000000 0.000000 0.000000
# 3 -0.002147 -0.002222 0.015815 0.000000 0.000000 0.000000
# 4 0.000000 0.000000 0.000000 0.027699 0.000000 0.000000
# 5 0.000000 0.000000 0.000000 0.000000 0.041320 0.000000
# 6 0.000000 0.000000 0.000000 0.000000 0.000000 0.031300
#
#
# Mechanical properties :
#
#
# Convention : Reuss Voigt Hill
#
# Bulk Modulus (GPa) = 43.90415 47.62779 45.76597
# Shear Modulus (GPa) = 30.78791 31.96463 31.37627
#
# Velocity S-wave (km/s) = 3.70683 3.77701 3.74209
# Velocity P-wave (km/s) = 6.15753 6.34644 6.25270
#
# Compressibility (1/GPa) = 0.02277689
#
# Stress axis : x y z
#
# Youngs Moduli (GPa) = 101.50661 77.11585 63.23299
#
# Poissons Ratio (x) = 0.27449 0.13576
# Poissons Ratio (y) = 0.36131 0.14050
# Poissons Ratio (z) = 0.21793 0.17135
#
# Static dielectric constant tensor:
#      x y z
#    x 4.049690 0.000000 0.000000 
#    y 0.000000 3.932030 0.000000 
#    z 0.000000 0.000000 4.100270 
# 
# 
# High freq. dielectric constant tensor:
#      x y z
#    x 1.886620 0.000000 0.000000 
#    y 0.000000 1.882690 0.000000 
#    z 0.000000 0.000000 1.887260 
# 
# From -- ./inp_files/6079.got.cif
#   From: 2010.03.12/outbox.cif.g09.slc.cpg/sg36_4_cif.got.tgz:6079.got - 2010.04.14 02:13:53.
