data_PCOD8175928
_publ_section_title
;
Structure prediction by ZEFSAII (Michael W. Deem and Ramdas Pophale) SiO2 
 PCOD8175928
Probable space group: C M C 21
;
_chemical_formula_sum "Si O2"
_cell_formula_units_Z 48
_cell_length_a 15.591909
_cell_length_b 8.646305
_cell_length_c 16.236835
_cell_angle_alpha 90.000000
_cell_angle_beta 90.000000
_cell_angle_gamma 90.000000
_cell_volume 2188.926707
_symmetry_space_group_name_H-M "C M C 21"
_symmetry_group_IT_number 36
_symmetry_cell_setting 'orthorhombic'
loop_
_space_group_symop_operation_xyz
x,y,z
-x,-y,1/2+z
x,-y,1/2+z
-x,y,z
1/2+x,1/2+y,z
1/2-x,1/2-y,1/2+z
1/2+x,1/2-y,1/2+z
1/2-x,1/2+y,z
loop_
_atom_site_type_symbol
_atom_site_label
_atom_site_fract_x
_atom_site_fract_y
_atom_site_fract_z
Si Si1 0.000000 0.911646 0.941360
Si Si2 0.822349 0.465966 0.243174
Si Si3 0.163555 0.111413 0.989161
Si Si4 0.666475 0.369717 0.676833
Si Si5 0.000000 0.468099 0.181032
Si Si6 0.500000 0.623524 0.249497
Si Si7 0.324796 0.053302 0.426857
Si Si8 0.000000 0.574848 0.995163
O O1 0.000000 0.854254 0.847191
O O2 0.000000 0.761195 0.000089
O O3 0.084390 0.010290 0.958175
O O4 0.751561 0.529381 0.180704
O O5 0.823211 0.282807 0.231841
O O6 0.914427 0.542455 0.220538
O O7 0.796648 0.508247 0.335279
O O8 0.170894 0.262065 0.932382
O O9 0.250827 0.011976 0.986520
O O10 0.147219 0.168746 0.082006
O O11 0.585859 0.463626 0.717359
O O12 0.000000 0.286437 0.200477
O O13 0.000000 0.497167 0.084003
O O14 0.416261 0.978692 0.446116
#
# Coordination Sequence:
#
# PCOD8175928 Si02
#       8
#     4   8   8   8   4   4   8   4
#     4  12  26  44  68 100 135 178 225 274 331 396
#     4  11  23  41  64  93 127 170 215 267 326 389
#     4  12  25  43  67 100 135 178 225 276 333 398
#     4  11  22  41  64  92 129 169 213 268 327 387
#     4  10  22  40  63  92 125 168 213 262 329 394
#     4  10  21  42  64  90 129 173 213 266 326 388
#     4  12  24  43  68  98 134 175 224 276 331 398
#     4  12  23  42  69  98 133 175 219 274 332 396
#
# _framework density 21.928554999999999
#
# number of rings (size 3 to 8) (size 9 to 14) (size 15 to 20)
#    0.000    0.667    0.000   10.500    0.000    1.333 
#    0.000    2.500    0.000    0.000    0.000    0.000 
#    0.000    0.000    0.000    0.000    0.000    0.000 
#
# Total GULP energy -297695.090040 kJ/mol
# GULP energy per Si atom -12403.962085 kJ/mol
# Density = 2.187864 g / cm^3
# Si number density = 21.928555 Si / 1000 Ang^3
#
#
#
# Elastic Constant Matrix: (Units=GPa)
#
#
# Indices 1 2 3 4 5 6 
#
# 1 183.2717 49.3613 17.3423 0.0000 0.0000 0.0000
# 2 49.3613 111.5854 19.4063 0.0000 0.0000 0.0000
# 3 17.3423 19.4063 119.6839 0.0000 0.0000 0.0000
# 4 0.0000 0.0000 0.0000 28.9999 0.0000 0.0000
# 5 0.0000 0.0000 0.0000 0.0000 36.4262 0.0000
# 6 0.0000 0.0000 0.0000 0.0000 0.0000 32.5541
#
#
#
# Elastic Compliance Matrix: (Units=1/GPa)
#
#
# Indices 1 2 3 4 5 6 
#
# 1 0.006220 -0.002670 -0.000468 0.000000 0.000000 0.000000
# 2 -0.002670 0.010368 -0.001294 0.000000 0.000000 0.000000
# 3 -0.000468 -0.001294 0.008633 0.000000 0.000000 0.000000
# 4 0.000000 0.000000 0.000000 0.034483 0.000000 0.000000
# 5 0.000000 0.000000 0.000000 0.000000 0.027453 0.000000
# 6 0.000000 0.000000 0.000000 0.000000 0.000000 0.030718
#
#
# Mechanical properties :
#
#
# Convention : Reuss Voigt Hill
#
# Bulk Modulus (GPa) = 61.14067 65.19564 63.16816
# Shear Modulus (GPa) = 37.82389 41.49144 39.65767
#
# Velocity S-wave (km/s) = 4.15766 4.35457 4.25725
# Velocity P-wave (km/s) = 7.14076 7.42149 7.28248
#
# Compressibility (1/GPa) = 0.01635572
#
# Stress axis : x y z
#
# Youngs Moduli (GPa) = 160.77671 96.45134 115.83377
#
# Poissons Ratio (x) = 0.25752 0.05425
# Poissons Ratio (y) = 0.42927 0.14992
# Poissons Ratio (z) = 0.07530 0.12483
#
# Static dielectric constant tensor:
#      x y z
#    x 4.764080 0.000000 0.000000 
#    y 0.000000 3.722830 0.000000 
#    z 0.000000 0.000000 3.903280 
# 
# 
# High freq. dielectric constant tensor:
#      x y z
#    x 1.893830 0.000000 0.000000 
#    y 0.000000 1.843290 0.000000 
#    z 0.000000 0.000000 1.872200 
# 
# From -- ./inp_files/12533.got.cif
#   From: 2010.03.12/outbox.cif.g09.slc.cpg/sg36_7_cif.got.tgz:12533.got - 2010.04.14 02:13:53.
