data_PCOD8175864
_publ_section_title
;
Structure prediction by ZEFSAII (Michael W. Deem and Ramdas Pophale) SiO2 
 PCOD8175864
Probable space group: C M C 21
;
_chemical_formula_sum "Si O2"
_cell_formula_units_Z 40
_cell_length_a 8.077371
_cell_length_b 25.077017
_cell_length_c 10.046092
_cell_angle_alpha 90.000000
_cell_angle_beta 90.000000
_cell_angle_gamma 90.000000
_cell_volume 2034.899927
_symmetry_space_group_name_H-M "C M C 21"
_symmetry_group_IT_number 36
_symmetry_cell_setting 'orthorhombic'
loop_
_space_group_symop_operation_xyz
x,y,z
-x,-y,1/2+z
x,-y,1/2+z
-x,y,z
1/2+x,1/2+y,z
1/2-x,1/2-y,1/2+z
1/2+x,1/2-y,1/2+z
1/2-x,1/2+y,z
loop_
_atom_site_type_symbol
_atom_site_label
_atom_site_fract_x
_atom_site_fract_y
_atom_site_fract_z
Si Si1 0.186357 0.328092 0.375000
Si Si2 0.684501 0.786263 0.870856
Si Si3 0.500000 0.551884 0.530844
Si Si4 0.695646 0.871915 0.090304
Si Si5 0.000000 0.953797 0.727868
Si Si6 0.321741 0.644489 0.151691
O O1 0.196609 0.264275 0.362709
O O2 0.244532 0.355765 0.239408
O O3 0.289931 0.352435 0.495193
O O4 0.000000 0.343945 0.404936
O O5 0.500000 0.763593 0.882807
O O6 0.690367 0.823410 0.739490
O O7 0.731224 0.820621 0.999520
O O8 0.672574 0.583620 0.547165
O O9 0.500000 0.505494 0.637848
O O10 0.500000 0.528412 0.381628
O O11 0.500000 0.889659 0.077227
O O12 0.835764 0.917923 0.695082
O O13 0.500000 0.672142 0.179414
#
# Coordination Sequence:
#
# PCOD8175864 Si02
#       6
#     8   8   4   8   4   8
#     4  11  23  36  60  96 132 174 217 257 314 394
#     4  11  21  38  62  91 130 177 215 260 324 384
#     4  12  24  48  74  94 128 172 218 278 347 366
#     4  10  24  42  63  96 133 171 216 272 322 395
#     4  10  26  42  74  96 120 170 222 272 333 392
#     4  10  21  40  58  91 129 161 212 267 316 381
#
# _framework density 19.656987000000001
#
# number of rings (size 3 to 8) (size 9 to 14) (size 15 to 20)
#    0.600    0.800    2.000    3.000    7.000    1.600 
#    0.000    3.000    0.000    0.000    0.000    0.000 
#    0.000    0.000    0.000    0.000    0.000    0.000 
#
# Total GULP energy -247901.856610 kJ/mol
# GULP energy per Si atom -12395.092830 kJ/mol
# Density = 1.961225 g / cm^3
# Si number density = 19.656987 Si / 1000 Ang^3
#
#
#
# Elastic Constant Matrix: (Units=GPa)
#
#
# Indices 1 2 3 4 5 6 
#
# 1 63.8355 36.8120 34.1866 0.0000 0.0000 0.0000
# 2 36.8120 69.0751 33.2875 0.0000 0.0000 0.0000
# 3 34.1866 33.2875 143.3356 0.0000 0.0000 0.0000
# 4 0.0000 0.0000 0.0000 40.1950 0.0000 0.0000
# 5 0.0000 0.0000 0.0000 0.0000 26.1018 0.0000
# 6 0.0000 0.0000 0.0000 0.0000 0.0000 19.1520
#
#
#
# Elastic Compliance Matrix: (Units=1/GPa)
#
#
# Indices 1 2 3 4 5 6 
#
# 1 0.023757 -0.011182 -0.003070 0.000000 0.000000 0.000000
# 2 -0.011182 0.021564 -0.002341 0.000000 0.000000 0.000000
# 3 -0.003070 -0.002341 0.008252 0.000000 0.000000 0.000000
# 4 0.000000 0.000000 0.000000 0.024879 0.000000 0.000000
# 5 0.000000 0.000000 0.000000 0.000000 0.038312 0.000000
# 6 0.000000 0.000000 0.000000 0.000000 0.000000 0.052214
#
#
# Mechanical properties :
#
#
# Convention : Reuss Voigt Hill
#
# Bulk Modulus (GPa) = 49.04514 53.86872 51.45693
# Shear Modulus (GPa) = 23.92815 28.55375 26.24095
#
# Velocity S-wave (km/s) = 3.49275 3.81543 3.65765
# Velocity P-wave (km/s) = 6.42420 6.84645 6.63868
#
# Compressibility (1/GPa) = 0.02038938
#
# Stress axis : x y z
#
# Youngs Moduli (GPa) = 42.09244 46.37321 121.17680
#
# Poissons Ratio (x) = 0.51853 0.37195
# Poissons Ratio (y) = 0.47066 0.28368
# Poissons Ratio (z) = 0.12920 0.10856
#
# Static dielectric constant tensor:
#      x y z
#    x 3.607410 0.000000 0.000000 
#    y 0.000000 3.283730 0.000000 
#    z 0.000000 0.000000 3.720130 
# 
# 
# High freq. dielectric constant tensor:
#      x y z
#    x 1.765970 0.000000 0.000000 
#    y 0.000000 1.739590 0.000000 
#    z 0.000000 0.000000 1.789490 
# 
# From -- ./inp_files/2540.got.cif
#   From: 2010.03.12/outbox.cif.g09.slc.cpg/sg36_2_cif.got.tgz:2540.got - 2010.04.14 02:13:53.
