data_PCOD8175536
_publ_section_title
;
Structure prediction by ZEFSAII (Michael W. Deem and Ramdas Pophale) SiO2 
 PCOD8175536
Probable space group: C M C 21
;
_chemical_formula_sum "Si O2"
_cell_formula_units_Z 48
_cell_length_a 8.889325
_cell_length_b 19.488711
_cell_length_c 13.868644
_cell_angle_alpha 90.000000
_cell_angle_beta 90.000000
_cell_angle_gamma 90.000000
_cell_volume 2402.624494
_symmetry_space_group_name_H-M "C M C 21"
_symmetry_group_IT_number 36
_symmetry_cell_setting 'orthorhombic'
loop_
_space_group_symop_operation_xyz
x,y,z
-x,-y,1/2+z
x,-y,1/2+z
-x,y,z
1/2+x,1/2+y,z
1/2-x,1/2-y,1/2+z
1/2+x,1/2-y,1/2+z
1/2-x,1/2+y,z
loop_
_atom_site_type_symbol
_atom_site_label
_atom_site_fract_x
_atom_site_fract_y
_atom_site_fract_z
Si Si1 0.671847 0.302108 0.981370
Si Si2 0.823984 0.954053 0.494631
Si Si3 0.677156 0.606700 0.788836
Si Si4 0.822208 0.419960 0.093770
Si Si5 0.170540 0.333149 0.594327
Si Si6 0.823401 0.735947 0.294052
O O1 0.500000 0.327958 0.983823
O O2 0.737642 0.308319 0.874383
O O3 0.767051 0.346528 0.056235
O O4 0.684900 0.223019 0.010927
O O5 0.776728 0.931371 0.387208
O O6 0.781164 0.895349 0.571018
O O7 0.000000 0.968150 0.502155
O O8 0.736128 0.022961 0.519767
O O9 0.500000 0.603445 0.770039
O O10 0.759117 0.567628 0.701319
O O11 0.732150 0.685438 0.793161
O O12 0.000000 0.422056 0.097178
O O13 0.220378 0.299176 0.694130
O O14 0.000000 0.361069 0.600550
O O15 0.000000 0.733040 0.315638
#
# Coordination Sequence:
#
# PCOD8175536 Si02
#       6
#     8   8   8   8   8   8
#     4  11  22  39  63  93 126 162 207 257 307 365
#     4  11  24  42  66  92 126 165 207 258 313 375
#     4  10  21  41  66  92 123 163 207 257 317 375
#     4  12  26  42  64  92 127 168 211 258 312 373
#     4  10  21  38  62  91 126 161 201 255 308 365
#     4  10  20  38  63  94 128 163 207 259 309 365
#
# _framework density 19.978154
#
# number of rings (size 3 to 8) (size 9 to 14) (size 15 to 20)
#    0.000    1.333    3.333    2.500    0.000    4.667 
#    0.000    0.000    0.000    0.000    0.000    0.000 
#    0.000    0.000    0.000    0.000    0.000    0.000 
#
# Total GULP energy -297744.819108 kJ/mol
# GULP energy per Si atom -12406.034130 kJ/mol
# Density = 1.993268 g / cm^3
# Si number density = 19.978154 Si / 1000 Ang^3
#
#
#
# Elastic Constant Matrix: (Units=GPa)
#
#
# Indices 1 2 3 4 5 6 
#
# 1 82.7908 28.3165 45.7186 0.0000 0.0000 0.0000
# 2 28.3165 60.5834 20.3426 0.0000 0.0000 0.0000
# 3 45.7186 20.3426 120.3208 0.0000 0.0000 0.0000
# 4 0.0000 0.0000 0.0000 33.6008 0.0000 0.0000
# 5 0.0000 0.0000 0.0000 0.0000 33.7920 0.0000
# 6 0.0000 0.0000 0.0000 0.0000 0.0000 34.8282
#
#
#
# Elastic Compliance Matrix: (Units=1/GPa)
#
#
# Indices 1 2 3 4 5 6 
#
# 1 0.017241 -0.006211 -0.005501 0.000000 0.000000 0.000000
# 2 -0.006211 0.019737 -0.000977 0.000000 0.000000 0.000000
# 3 -0.005501 -0.000977 0.010566 0.000000 0.000000 0.000000
# 4 0.000000 0.000000 0.000000 0.029761 0.000000 0.000000
# 5 0.000000 0.000000 0.000000 0.000000 0.029593 0.000000
# 6 0.000000 0.000000 0.000000 0.000000 0.000000 0.028712
#
#
# Mechanical properties :
#
#
# Convention : Reuss Voigt Hill
#
# Bulk Modulus (GPa) = 45.11304 50.27226 47.69265
# Shear Modulus (GPa) = 29.69521 31.73205 30.71363
#
# Velocity S-wave (km/s) = 3.85955 3.98972 3.92517
# Velocity P-wave (km/s) = 6.51856 6.81484 6.66835
#
# Compressibility (1/GPa) = 0.02216654
#
# Stress axis : x y z
#
# Youngs Moduli (GPa) = 58.00237 50.66558 94.63914
#
# Poissons Ratio (x) = 0.31469 0.52060
# Poissons Ratio (y) = 0.36026 0.09245
# Poissons Ratio (z) = 0.31906 0.04950
#
# Static dielectric constant tensor:
#      x y z
#    x 3.555650 0.000000 0.000000 
#    y 0.000000 3.507510 0.000000 
#    z 0.000000 0.000000 3.711240 
# 
# 
# High freq. dielectric constant tensor:
#      x y z
#    x 1.777310 0.000000 0.000000 
#    y 0.000000 1.772450 0.000000 
#    z 0.000000 0.000000 1.792750 
# 
# From -- ./inp_files/10361.got.cif
#   From: 2010.03.12/outbox.cif.g09.slc.cpg/sg36_6_cif.got.tgz:10361.got - 2010.04.14 02:13:53.
