data_PCOD8175623
_publ_section_title
;
Structure prediction by ZEFSAII (Michael W. Deem and Ramdas Pophale) SiO2 
 PCOD8175623
Probable space group: C M C 21
;
_chemical_formula_sum "Si O2"
_cell_formula_units_Z 64
_cell_length_a 19.527139
_cell_length_b 20.758667
_cell_length_c 9.022795
_cell_angle_alpha 90.000000
_cell_angle_beta 90.000000
_cell_angle_gamma 90.000000
_cell_volume 3657.456505
_symmetry_space_group_name_H-M "C M C 21"
_symmetry_group_IT_number 36
_symmetry_cell_setting 'orthorhombic'
loop_
_space_group_symop_operation_xyz
x,y,z
-x,-y,1/2+z
x,-y,1/2+z
-x,y,z
1/2+x,1/2+y,z
1/2-x,1/2-y,1/2+z
1/2+x,1/2-y,1/2+z
1/2-x,1/2+y,z
loop_
_atom_site_type_symbol
_atom_site_label
_atom_site_fract_x
_atom_site_fract_y
_atom_site_fract_z
Si Si1 0.574197 0.380086 0.893220
Si Si2 0.577438 0.233588 0.889610
Si Si3 0.792227 0.692906 0.392097
Si Si4 0.925803 0.880086 0.541177
Si Si5 0.213875 0.935652 0.891759
Si Si6 0.577438 0.766412 0.044787
Si Si7 0.707773 0.807094 0.542300
Si Si8 0.786125 0.935652 0.542638
O O1 0.500000 0.405769 0.951433
O O2 0.584933 0.306853 0.946037
O O3 0.574412 0.379459 0.717198
O O4 0.636355 0.423656 0.952657
O O5 0.500000 0.208745 0.916732
O O6 0.597111 0.227981 0.717198
O O7 0.629619 0.191097 0.985707
O O8 0.760266 0.624555 0.438286
O O9 0.870381 0.691097 0.448690
O O10 0.750000 0.750000 0.467198
O O11 0.789207 0.703276 0.217198
O O12 0.915067 0.806853 0.488359
O O13 0.863645 0.923656 0.481740
O O14 0.000000 0.905769 0.482964
O O15 0.214380 0.945793 0.717198
O O16 0.243107 1.000000 0.967198
O O17 0.500000 0.791255 0.017665
O O18 0.739734 0.875445 0.496111
#
# Coordination Sequence:
#
# PCOD8175623 Si02
#       8
#     8   8   8   8   8   8   8   8
#     4   8  14  28  49  71 101 138 170 202 247 304
#     4   9  17  32  55  80 106 136 170 213 267 319
#     4  11  21  34  54  79 107 138 177 221 264 309
#     4   8  14  28  49  71 101 138 170 202 247 304
#     4  10  21  35  50  73 104 140 177 214 260 308
#     4   9  17  32  55  80 106 136 170 213 267 319
#     4  11  21  34  54  79 107 138 177 221 264 309
#     4  10  21  35  50  73 104 140 177 214 260 308
#
# _framework density 17.4985
#
# number of rings (size 3 to 8) (size 9 to 14) (size 15 to 20)
#    0.000    2.500    2.500    2.250    0.000    3.000 
#    0.000    0.000    0.000    0.750    0.000    0.000 
#    0.000    0.000    0.000    0.000    0.000    0.000 
#
# Total GULP energy -396671.912004 kJ/mol
# GULP energy per Si atom -12395.997250 kJ/mol
# Density = 1.745867 g / cm^3
# Si number density = 17.498500 Si / 1000 Ang^3
#
#
#
# Elastic Constant Matrix: (Units=GPa)
#
#
# Indices 1 2 3 4 5 6 
#
# 1 110.8299 62.0930 39.0565 0.0000 0.0000 0.0000
# 2 62.0930 117.1738 44.3800 0.0000 0.0000 0.0000
# 3 39.0565 44.3800 46.2971 0.0000 0.0000 0.0000
# 4 0.0000 0.0000 0.0000 25.2134 0.0000 0.0000
# 5 0.0000 0.0000 0.0000 0.0000 29.5161 0.0000
# 6 0.0000 0.0000 0.0000 0.0000 0.0000 23.2598
#
#
#
# Elastic Compliance Matrix: (Units=1/GPa)
#
#
# Indices 1 2 3 4 5 6 
#
# 1 0.014339 -0.004737 -0.007556 0.000000 0.000000 0.000000
# 2 -0.004737 0.014964 -0.010348 0.000000 0.000000 0.000000
# 3 -0.007556 -0.010348 0.037894 0.000000 0.000000 0.000000
# 4 0.000000 0.000000 0.000000 0.039661 0.000000 0.000000
# 5 0.000000 0.000000 0.000000 0.000000 0.033880 0.000000
# 6 0.000000 0.000000 0.000000 0.000000 0.000000 0.042993
#
#
# Mechanical properties :
#
#
# Convention : Reuss Voigt Hill
#
# Bulk Modulus (GPa) = 45.63154 62.81777 54.22465
# Shear Modulus (GPa) = 21.15789 24.18261 22.67025
#
# Velocity S-wave (km/s) = 3.48102 3.72153 3.60329
# Velocity P-wave (km/s) = 6.50313 7.37857 6.95464
#
# Compressibility (1/GPa) = 0.02191467
#
# Stress axis : x y z
#
# Youngs Moduli (GPa) = 69.73748 66.82721 26.38959
#
# Poissons Ratio (x) = 0.31656 0.19940
# Poissons Ratio (y) = 0.33034 0.27309
# Poissons Ratio (z) = 0.52694 0.69154
#
# Static dielectric constant tensor:
#      x y z
#    x 3.628230 0.000000 0.000000 
#    y 0.000000 3.085780 0.000000 
#    z 0.000000 0.000000 2.974080 
# 
# 
# High freq. dielectric constant tensor:
#      x y z
#    x 1.685660 0.000000 0.000000 
#    y 0.000000 1.651760 0.000000 
#    z 0.000000 0.000000 1.652160 
# 
# From -- ./inp_files/4943.got.cif
#   From: 2010.03.12/outbox.cif.g09.slc.cpg/sg36_3_cif.got.tgz:4943.got - 2010.04.14 02:13:53.
