data_PCOD8175880
_publ_section_title
;
Structure prediction by ZEFSAII (Michael W. Deem and Ramdas Pophale) SiO2 
 PCOD8175880
Probable space group: C M C 21
;
_chemical_formula_sum "Si O2"
_cell_formula_units_Z 52
_cell_length_a 15.501434
_cell_length_b 10.699246
_cell_length_c 15.423076
_cell_angle_alpha 90.000000
_cell_angle_beta 90.000000
_cell_angle_gamma 90.000000
_cell_volume 2557.973537
_symmetry_space_group_name_H-M "C M C 21"
_symmetry_group_IT_number 36
_symmetry_cell_setting 'orthorhombic'
loop_
_space_group_symop_operation_xyz
x,y,z
-x,-y,1/2+z
x,-y,1/2+z
-x,y,z
1/2+x,1/2+y,z
1/2-x,1/2-y,1/2+z
1/2+x,1/2-y,1/2+z
1/2-x,1/2+y,z
loop_
_atom_site_type_symbol
_atom_site_label
_atom_site_fract_x
_atom_site_fract_y
_atom_site_fract_z
Si Si1 0.401086 0.588253 0.530920
Si Si2 0.174828 0.332682 0.472646
Si Si3 0.852751 0.877980 0.396970
Si Si4 0.500000 0.802249 0.899041
Si Si5 0.000000 0.570158 0.230528
Si Si6 0.184256 0.105541 0.705119
Si Si7 0.000000 0.572823 0.895470
Si Si8 0.815150 0.395634 0.659697
O O1 0.500000 0.633274 0.526411
O O2 0.332505 0.693732 0.507896
O O3 0.385048 0.483787 0.460532
O O4 0.379394 0.552696 0.630360
O O5 0.252428 0.343624 0.405175
O O6 0.198651 0.416054 0.556604
O O7 0.086323 0.358492 0.423189
O O8 0.866061 0.911896 0.296150
O O9 0.911795 0.763131 0.427273
O O10 0.500000 0.810374 0.794300
O O11 0.500000 0.938163 0.943301
O O12 0.083476 0.579984 0.171067
O O13 0.000000 0.444631 0.290588
O O14 0.210243 0.253803 0.692140
O O15 0.264552 0.007435 0.708260
#
# Coordination Sequence:
#
# PCOD8175880 Si02
#       8
#     8   8   8   4   4   8   4   8
#     4  11  25  43  67  95 130 171 227 270 328 394
#     4  11  24  40  65  96 128 172 220 274 323 394
#     4  12  24  42  66  95 133 171 221 271 337 386
#     4  10  24  39  64  95 128 172 214 268 327 393
#     4  10  21  41  65  94 127 174 217 263 328 414
#     4  11  25  42  68  94 134 176 217 273 333 399
#     4  10  21  40  63  93 123 168 221 257 327 389
#     4  11  23  43  65  95 132 172 222 268 336 390
#
# _framework density 20.328592
#
# number of rings (size 3 to 8) (size 9 to 14) (size 15 to 20)
#    0.462    0.615    4.615    1.385    8.615    0.000 
#    0.000    0.000    1.692    0.000    0.000    0.000 
#    0.000    0.000    0.000    0.000    0.000    0.000 
#
# Total GULP energy -322184.276227 kJ/mol
# GULP energy per Si atom -12391.702932 kJ/mol
# Density = 2.028232 g / cm^3
# Si number density = 20.328592 Si / 1000 Ang^3
#
#
#
# Elastic Constant Matrix: (Units=GPa)
#
#
# Indices 1 2 3 4 5 6 
#
# 1 105.0035 34.4050 18.1512 0.0000 0.0000 0.0000
# 2 34.4050 66.7876 24.6360 0.0000 0.0000 0.0000
# 3 18.1512 24.6360 106.0556 0.0000 0.0000 0.0000
# 4 0.0000 0.0000 0.0000 28.1978 0.0000 0.0000
# 5 0.0000 0.0000 0.0000 0.0000 22.1702 0.0000
# 6 0.0000 0.0000 0.0000 0.0000 0.0000 59.8307
#
#
#
# Elastic Compliance Matrix: (Units=1/GPa)
#
#
# Indices 1 2 3 4 5 6 
#
# 1 0.011498 -0.005684 -0.000647 0.000000 0.000000 0.000000
# 2 -0.005684 0.019186 -0.003484 0.000000 0.000000 0.000000
# 3 -0.000647 -0.003484 0.010349 0.000000 0.000000 0.000000
# 4 0.000000 0.000000 0.000000 0.035464 0.000000 0.000000
# 5 0.000000 0.000000 0.000000 0.000000 0.045106 0.000000
# 6 0.000000 0.000000 0.000000 0.000000 0.000000 0.016714
#
#
# Mechanical properties :
#
#
# Convention : Reuss Voigt Hill
#
# Bulk Modulus (GPa) = 46.72479 48.02569 47.37524
# Shear Modulus (GPa) = 30.28807 35.41671 32.85239
#
# Velocity S-wave (km/s) = 3.86414 4.17851 4.02440
# Velocity P-wave (km/s) = 6.55313 6.85244 6.70445
#
# Compressibility (1/GPa) = 0.02140191
#
# Stress axis : x y z
#
# Youngs Moduli (GPa) = 86.97263 52.12096 96.62654
#
# Poissons Ratio (x) = 0.29627 0.06256
# Poissons Ratio (y) = 0.49437 0.33664
# Poissons Ratio (z) = 0.05631 0.18159
#
# Static dielectric constant tensor:
#      x y z
#    x 3.991830 0.000000 0.000000 
#    y 0.000000 3.693370 0.000000 
#    z 0.000000 0.000000 3.811150 
# 
# 
# High freq. dielectric constant tensor:
#      x y z
#    x 1.798270 0.000000 0.000000 
#    y 0.000000 1.784900 0.000000 
#    z 0.000000 0.000000 1.800760 
# 
# From -- ./inp_files/12182.got.cif
#   From: 2010.03.12/outbox.cif.g09.slc.cpg/sg36_7_cif.got.tgz:12182.got - 2010.04.14 02:13:53.
