data_PCOD8175758
_publ_section_title
;
Structure prediction by ZEFSAII (Michael W. Deem and Ramdas Pophale) SiO2 
 PCOD8175758
Probable space group: C M C 21
;
_chemical_formula_sum "Si O2"
_cell_formula_units_Z 64
_cell_length_a 8.542026
_cell_length_b 19.913553
_cell_length_c 18.883394
_cell_angle_alpha 90.000000
_cell_angle_beta 90.000000
_cell_angle_gamma 90.000000
_cell_volume 3212.104738
_symmetry_space_group_name_H-M "C M C 21"
_symmetry_group_IT_number 36
_symmetry_cell_setting 'orthorhombic'
loop_
_space_group_symop_operation_xyz
x,y,z
-x,-y,1/2+z
x,-y,1/2+z
-x,y,z
1/2+x,1/2+y,z
1/2-x,1/2-y,1/2+z
1/2+x,1/2-y,1/2+z
1/2-x,1/2+y,z
loop_
_atom_site_type_symbol
_atom_site_label
_atom_site_fract_x
_atom_site_fract_y
_atom_site_fract_z
Si Si1 0.682466 0.618992 0.729520
Si Si2 0.185718 0.555479 0.460870
Si Si3 0.318595 0.071790 0.873572
Si Si4 0.815657 0.519690 0.614814
Si Si5 0.185112 0.368421 0.629108
Si Si6 0.681321 0.671652 0.982607
Si Si7 0.316609 0.805377 0.904854
Si Si8 0.185578 0.731653 0.251682
O O1 0.500000 0.617230 0.713460
O O2 0.712619 0.587964 0.806450
O O3 0.766594 0.575843 0.670076
O O4 0.748704 0.695330 0.727040
O O5 0.232524 0.500898 0.402176
O O6 0.257495 0.535836 0.537527
O O7 0.258376 0.626124 0.435111
O O8 0.000000 0.559734 0.468450
O O9 0.500000 0.073236 0.851210
O O10 0.291117 0.124160 0.936360
O O11 0.761011 0.445588 0.639819
O O12 0.000000 0.520292 0.609274
O O13 0.277375 0.336135 0.564244
O O14 0.237482 0.326458 0.697767
O O15 0.000000 0.362876 0.615284
O O16 0.500000 0.654153 0.968196
O O17 0.719058 0.747957 0.961733
O O18 0.500000 0.816644 0.893938
O O19 0.242470 0.786239 0.828614
O O20 0.000000 0.736723 0.257543
#
# Coordination Sequence:
#
# PCOD8175758 Si02
#       8
#     8   8   8   8   8   8   8   8
#     4  11  23  39  57  84 118 152 189 235 291 346
#     4   9  19  35  58  85 113 145 191 240 281 332
#     4  11  21  38  63  87 110 148 195 240 282 335
#     4  10  21  38  58  86 115 148 193 237 280 335
#     4  10  21  38  60  84 113 151 197 238 276 338
#     4  11  21  36  60  85 114 151 186 233 294 343
#     4   9  18  34  57  83 111 146 190 236 284 340
#     4   9  19  36  57  80 112 153 191 229 282 343
#
# _framework density 19.924631000000002
#
# number of rings (size 3 to 8) (size 9 to 14) (size 15 to 20)
#    0.000    2.000    2.500    1.125    3.500    0.500 
#    0.000    0.625    0.000    3.000    0.000    0.000 
#    0.000    0.000    0.000    0.000    0.000    0.000 
#
# Total GULP energy -396832.739739 kJ/mol
# GULP energy per Si atom -12401.023117 kJ/mol
# Density = 1.987928 g / cm^3
# Si number density = 19.924631 Si / 1000 Ang^3
#
#
#
# Elastic Constant Matrix: (Units=GPa)
#
#
# Indices 1 2 3 4 5 6 
#
# 1 10.1013 16.4562 6.4328 0.0000 0.0000 0.0000
# 2 16.4562 189.5242 76.9174 0.0000 0.0000 0.0000
# 3 6.4328 76.9174 120.1462 0.0000 0.0000 0.0000
# 4 0.0000 0.0000 0.0000 41.1085 0.0000 0.0000
# 5 0.0000 0.0000 0.0000 0.0000 28.8935 0.0000
# 6 0.0000 0.0000 0.0000 0.0000 0.0000 17.6231
#
#
#
# Elastic Compliance Matrix: (Units=1/GPa)
#
#
# Indices 1 2 3 4 5 6 
#
# 1 0.115316 -0.010142 0.000319 0.000000 0.000000 0.000000
# 2 -0.010142 0.008021 -0.004592 0.000000 0.000000 0.000000
# 3 0.000319 -0.004592 0.011246 0.000000 0.000000 0.000000
# 4 0.000000 0.000000 0.000000 0.024326 0.000000 0.000000
# 5 0.000000 0.000000 0.000000 0.000000 0.034610 0.000000
# 6 0.000000 0.000000 0.000000 0.000000 0.000000 0.056744
#
#
# Mechanical properties :
#
#
# Convention : Reuss Voigt Hill
#
# Bulk Modulus (GPa) = 9.45605 57.70942 33.58273
# Shear Modulus (GPa) = 15.90618 32.18936 24.04777
#
# Velocity S-wave (km/s) = 2.82852 4.02376 3.47787
# Velocity P-wave (km/s) = 3.92728 7.11437 5.74621
#
# Compressibility (1/GPa) = 0.10575245
#
# Stress axis : x y z
#
# Youngs Moduli (GPa) = 8.67179 124.68013 88.92272
#
# Poissons Ratio (x) = 1.26453 -0.02835
# Poissons Ratio (y) = 0.08795 0.40831
# Poissons Ratio (z) = -0.00276 0.57249
#
# Static dielectric constant tensor:
#      x y z
#    x 3.199510 0.000000 0.000000 
#    y 0.000000 3.976060 0.000000 
#    z 0.000000 0.000000 3.776600 
# 
# 
# High freq. dielectric constant tensor:
#      x y z
#    x 1.735560 0.000000 0.000000 
#    y 0.000000 1.794250 0.000000 
#    z 0.000000 0.000000 1.786120 
# 
# From -- ./inp_files/13967.got.cif
#   From: 2010.03.12/outbox.cif.g09.slc.cpg/sg36_7_cif.got.tgz:13967.got - 2010.04.14 02:13:53.
