data_PCOD8175032
_publ_section_title
;
Structure prediction by ZEFSAII (Michael W. Deem and Ramdas Pophale) SiO2 
 PCOD8175032
Probable space group: C M C 21
;
_chemical_formula_sum "Si O2"
_cell_formula_units_Z 40
_cell_length_a 12.735265
_cell_length_b 20.648186
_cell_length_c 9.451656
_cell_angle_alpha 90.000000
_cell_angle_beta 90.000000
_cell_angle_gamma 90.000000
_cell_volume 2485.408600
_symmetry_space_group_name_H-M "C M C 21"
_symmetry_group_IT_number 36
_symmetry_cell_setting 'orthorhombic'
loop_
_space_group_symop_operation_xyz
x,y,z
-x,-y,1/2+z
x,-y,1/2+z
-x,y,z
1/2+x,1/2+y,z
1/2-x,1/2-y,1/2+z
1/2+x,1/2-y,1/2+z
1/2-x,1/2+y,z
loop_
_atom_site_type_symbol
_atom_site_label
_atom_site_fract_x
_atom_site_fract_y
_atom_site_fract_z
Si Si1 0.613719 0.801926 0.478240
Si Si2 0.835197 0.179857 0.652904
Si Si3 0.000000 0.075890 0.614743
Si Si4 0.665825 0.655675 0.975908
Si Si5 0.385322 0.777057 0.159589
Si Si6 0.000000 0.051838 0.940693
O O1 0.500000 0.837336 0.491376
O O2 0.619292 0.746915 0.596372
O O3 0.708139 0.853989 0.496989
O O4 0.623810 0.765936 0.327572
O O5 0.895681 0.118705 0.586962
O O6 0.857752 0.182527 0.819821
O O7 0.710463 0.175365 0.613563
O O8 0.000000 0.046219 0.771569
O O9 0.000000 0.019970 0.499791
O O10 0.604529 0.588400 0.997104
O O11 0.623648 0.707210 0.088075
O O12 0.500000 0.807551 0.121373
#
# Coordination Sequence:
#
# PCOD8175032 Si02
#       6
#     8   8   4   8   8   4
#     4   9  16  26  44  68  91 113 139 176 219 265
#     4   9  17  29  43  63  90 117 144 176 219 261
#     4  10  20  32  46  62  86 120 153 184 215 254
#     4   9  17  29  43  63  90 117 144 176 219 261
#     4   9  16  26  44  68  91 113 139 176 219 265
#     4  10  20  32  46  62  86 120 153 184 215 254
#
# _framework density 16.093931999999999
#
# number of rings (size 3 to 8) (size 9 to 14) (size 15 to 20)
#    0.000    2.800    2.000    0.000    0.000    1.600 
#    0.000    0.000    0.000    1.200    0.000    0.000 
#    0.000    0.000    0.000    0.000    0.000    0.000 
#
# Total GULP energy -247806.552078 kJ/mol
# GULP energy per Si atom -12390.327604 kJ/mol
# Density = 1.605730 g / cm^3
# Si number density = 16.093932 Si / 1000 Ang^3
#
#
#
# Elastic Constant Matrix: (Units=GPa)
#
#
# Indices 1 2 3 4 5 6 
#
# 1 150.0573 27.8755 11.0214 0.0000 0.0000 0.0000
# 2 27.8755 36.6781 1.3055 0.0000 0.0000 0.0000
# 3 11.0214 1.3055 16.4708 0.0000 0.0000 0.0000
# 4 0.0000 0.0000 0.0000 22.7499 0.0000 0.0000
# 5 0.0000 0.0000 0.0000 0.0000 17.4922 0.0000
# 6 0.0000 0.0000 0.0000 0.0000 0.0000 19.2291
#
#
#
# Elastic Compliance Matrix: (Units=1/GPa)
#
#
# Indices 1 2 3 4 5 6 
#
# 1 0.008147 -0.006015 -0.004975 0.000000 0.000000 0.000000
# 2 -0.006015 0.031782 0.001505 0.000000 0.000000 0.000000
# 3 -0.004975 0.001505 0.063923 0.000000 0.000000 0.000000
# 4 0.000000 0.000000 0.000000 0.043956 0.000000 0.000000
# 5 0.000000 0.000000 0.000000 0.000000 0.057168 0.000000
# 6 0.000000 0.000000 0.000000 0.000000 0.000000 0.052004
#
#
# Mechanical properties :
#
#
# Convention : Reuss Voigt Hill
#
# Bulk Modulus (GPa) = 11.78078 31.51236 21.64657
# Shear Modulus (GPa) = 16.43425 22.76117 19.59771
#
# Velocity S-wave (km/s) = 3.19900 3.76476 3.49335
# Velocity P-wave (km/s) = 4.58047 6.20650 5.45442
#
# Compressibility (1/GPa) = 0.08488405
#
# Stress axis : x y z
#
# Youngs Moduli (GPa) = 122.74767 31.46466 15.64381
#
# Poissons Ratio (x) = 0.18924 0.07782
# Poissons Ratio (y) = 0.73827 -0.02355
# Poissons Ratio (z) = 0.61063 -0.04737
#
# Static dielectric constant tensor:
#      x y z
#    x 3.723640 0.000000 0.000000 
#    y 0.000000 2.569260 0.000000 
#    z 0.000000 0.000000 3.058130 
# 
# 
# High freq. dielectric constant tensor:
#      x y z
#    x 1.646390 0.000000 0.000000 
#    y 0.000000 1.556180 0.000000 
#    z 0.000000 0.000000 1.620760 
# 
# From -- ./inp_files/3833.got.cif
#   From: 2010.03.12/outbox.cif.g09.slc.cpg/sg36_2_cif.got.tgz:3833.got - 2010.04.14 02:13:53.
