data_PCOD8175560
_publ_section_title
;
Structure prediction by ZEFSAII (Michael W. Deem and Ramdas Pophale) SiO2 
 PCOD8175560
Probable space group: C M C 21
;
_chemical_formula_sum "Si O2"
_cell_formula_units_Z 64
_cell_length_a 13.916227
_cell_length_b 18.680343
_cell_length_c 12.319301
_cell_angle_alpha 90.000000
_cell_angle_beta 90.000000
_cell_angle_gamma 90.000000
_cell_volume 3202.524178
_symmetry_space_group_name_H-M "C M C 21"
_symmetry_group_IT_number 36
_symmetry_cell_setting 'orthorhombic'
loop_
_space_group_symop_operation_xyz
x,y,z
-x,-y,1/2+z
x,-y,1/2+z
-x,y,z
1/2+x,1/2+y,z
1/2-x,1/2-y,1/2+z
1/2+x,1/2-y,1/2+z
1/2-x,1/2+y,z
loop_
_atom_site_type_symbol
_atom_site_label
_atom_site_fract_x
_atom_site_fract_y
_atom_site_fract_z
Si Si1 0.112996 0.641237 0.958840
Si Si2 0.608314 0.069166 0.183873
Si Si3 0.299040 0.725671 0.355917
Si Si4 0.891405 0.208674 0.912876
Si Si5 0.755406 0.073115 0.374756
Si Si6 0.321008 0.920203 0.110523
Si Si7 0.394381 0.233036 0.641690
Si Si8 0.718769 0.579568 0.821765
O O1 0.143419 0.724439 0.941331
O O2 0.175974 0.593965 0.875356
O O3 0.000000 0.629829 0.932872
O O4 0.138206 0.618515 0.081317
O O5 0.500000 0.086456 0.218124
O O6 0.673711 0.088805 0.285815
O O7 0.614830 0.985388 0.154157
O O8 0.183705 0.733709 0.366855
O O9 0.325166 0.642699 0.378056
O O10 0.318638 0.747886 0.233146
O O11 0.862980 0.129684 0.872109
O O12 0.000000 0.226714 0.874322
O O13 0.883985 0.210962 0.043312
O O14 0.714173 0.057575 0.492672
O O15 0.814408 0.002184 0.341612
O O16 0.381587 0.847674 0.099044
O O17 0.231169 0.907601 0.192749
O O18 0.500000 0.239625 0.693720
#
# Coordination Sequence:
#
# PCOD8175560 Si02
#       8
#     8   8   8   8   8   8   8   8
#     4  10  20  39  62  88 123 161 198 248 314 373
#     4  10  23  37  57  91 129 162 197 252 320 382
#     4  11  23  37  63  90 126 161 208 255 307 366
#     4  10  22  40  63  88 120 166 211 252 303 363
#     4  11  24  37  60  90 122 164 207 255 307 362
#     4  11  20  37  61  92 124 161 197 252 312 383
#     4  11  22  37  62  94 126 165 208 255 313 377
#     4  10  22  40  63  87 122 164 202 253 312 368
#
# _framework density 19.984235999999999
#
# number of rings (size 3 to 8) (size 9 to 14) (size 15 to 20)
#    0.000    1.500    5.000    0.750    3.500    3.500 
#    0.000    1.250    0.000    1.500    0.000    0.000 
#    0.000    0.000    0.000    0.000    0.000    0.000 
#
# Total GULP energy -396729.471388 kJ/mol
# GULP energy per Si atom -12397.795981 kJ/mol
# Density = 1.993875 g / cm^3
# Si number density = 19.984236 Si / 1000 Ang^3
#
#
#
# Elastic Constant Matrix: (Units=GPa)
#
#
# Indices 1 2 3 4 5 6 
#
# 1 75.1533 10.0625 31.2796 0.0000 0.0000 0.0000
# 2 10.0625 122.9989 24.6991 0.0000 0.0000 0.0000
# 3 31.2796 24.6991 122.6718 0.0000 0.0000 0.0000
# 4 0.0000 0.0000 0.0000 35.1424 0.0000 0.0000
# 5 0.0000 0.0000 0.0000 0.0000 22.1140 0.0000
# 6 0.0000 0.0000 0.0000 0.0000 0.0000 16.5661
#
#
#
# Elastic Compliance Matrix: (Units=1/GPa)
#
#
# Indices 1 2 3 4 5 6 
#
# 1 0.014913 -0.000476 -0.003707 0.000000 0.000000 0.000000
# 2 -0.000476 0.008488 -0.001588 0.000000 0.000000 0.000000
# 3 -0.003707 -0.001588 0.009417 0.000000 0.000000 0.000000
# 4 0.000000 0.000000 0.000000 0.028456 0.000000 0.000000
# 5 0.000000 0.000000 0.000000 0.000000 0.045220 0.000000
# 6 0.000000 0.000000 0.000000 0.000000 0.000000 0.060364
#
#
# Mechanical properties :
#
#
# Convention : Reuss Voigt Hill
#
# Bulk Modulus (GPa) = 46.99912 50.32294 48.66103
# Shear Modulus (GPa) = 26.95569 31.75003 29.35286
#
# Velocity S-wave (km/s) = 3.67665 3.99024 3.83665
# Velocity P-wave (km/s) = 6.44925 6.81655 6.63544
#
# Compressibility (1/GPa) = 0.02127699
#
# Stress axis : x y z
#
# Youngs Moduli (GPa) = 67.05737 117.81489 106.19465
#
# Poissons Ratio (x) = 0.05604 0.39364
# Poissons Ratio (y) = 0.03190 0.16860
# Poissons Ratio (z) = 0.24856 0.18705
#
# Static dielectric constant tensor:
#      x y z
#    x 3.356600 0.000000 0.000000 
#    y 0.000000 3.812440 0.000000 
#    z 0.000000 0.000000 3.699630 
# 
# 
# High freq. dielectric constant tensor:
#      x y z
#    x 1.744240 0.000000 0.000000 
#    y 0.000000 1.789100 0.000000 
#    z 0.000000 0.000000 1.789730 
# 
# From -- ./inp_files/8645.got.cif
#   From: 2010.03.12/outbox.cif.g09.slc.cpg/sg36_5_cif.got.tgz:8645.got - 2010.04.14 02:13:53.
