data_PCOD8175103
_publ_section_title
;
Structure prediction by ZEFSAII (Michael W. Deem and Ramdas Pophale) SiO2 
 PCOD8175103
Probable space group: C M C 21
;
_chemical_formula_sum "Si O2"
_cell_formula_units_Z 64
_cell_length_a 14.012334
_cell_length_b 19.187607
_cell_length_c 13.471198
_cell_angle_alpha 90.000000
_cell_angle_beta 90.000000
_cell_angle_gamma 90.000000
_cell_volume 3621.908836
_symmetry_space_group_name_H-M "C M C 21"
_symmetry_group_IT_number 36
_symmetry_cell_setting 'orthorhombic'
loop_
_space_group_symop_operation_xyz
x,y,z
-x,-y,1/2+z
x,-y,1/2+z
-x,y,z
1/2+x,1/2+y,z
1/2-x,1/2-y,1/2+z
1/2+x,1/2-y,1/2+z
1/2-x,1/2+y,z
loop_
_atom_site_type_symbol
_atom_site_label
_atom_site_fract_x
_atom_site_fract_y
_atom_site_fract_z
Si Si1 0.893375 0.457004 0.771390
Si Si2 0.606222 0.908972 0.136570
Si Si3 0.886814 0.737685 0.986187
Si Si4 0.214215 0.519834 0.473195
Si Si5 0.109175 0.105749 0.439104
Si Si6 0.393686 0.361789 0.710950
Si Si7 0.108771 0.708378 0.769365
Si Si8 0.792651 0.615892 0.102248
O O1 0.896979 0.521683 0.699238
O O2 0.825639 0.476391 0.862421
O O3 0.851827 0.394680 0.704070
O O4 0.000000 0.437682 0.808805
O O5 0.500000 0.884036 0.107600
O O6 0.660160 0.850393 0.202680
O O7 0.661877 0.920152 0.035069
O O8 0.867655 0.820874 0.995240
O O9 0.846433 0.714307 0.878657
O O10 0.000000 0.722877 0.998529
O O11 0.826308 0.691821 0.064031
O O12 0.325492 0.541948 0.477020
O O13 0.192839 0.443351 0.518155
O O14 0.127697 0.112559 0.321913
O O15 0.000000 0.085051 0.460594
O O16 0.500000 0.385604 0.678470
O O17 0.385082 0.279001 0.708318
O O18 0.318789 0.389609 0.630560
O O19 0.000000 0.685041 0.786381
#
# Coordination Sequence:
#
# PCOD8175103 Si02
#       8
#     8   8   8   8   8   8   8   8
#     4  10  20  34  49  73 111 140 165 209 262 315
#     4   9  18  30  48  75 104 134 164 201 253 315
#     4   9  18  33  55  80 103 136 175 214 258 307
#     4  11  21  32  50  78 104 136 175 208 262 312
#     4   9  19  37  56  73 100 137 180 219 255 306
#     4   9  18  34  53  73  99 133 175 218 257 298
#     4   8  15  30  51  74  99 130 168 206 249 302
#     4  11  21  32  53  82 106 134 177 217 261 315
#
# _framework density 17.67024
#
# number of rings (size 3 to 8) (size 9 to 14) (size 15 to 20)
#    0.000    2.500    1.250    3.000    1.750    3.000 
#    0.000    0.000    0.000    0.000    0.000    0.000 
#    0.000    0.000    0.000    0.000    0.000    0.000 
#
# Total GULP energy -396556.536530 kJ/mol
# GULP energy per Si atom -12392.391767 kJ/mol
# Density = 1.763002 g / cm^3
# Si number density = 17.670240 Si / 1000 Ang^3
#
#
#
# Elastic Constant Matrix: (Units=GPa)
#
#
# Indices 1 2 3 4 5 6 
#
# 1 89.3274 19.9284 28.6239 0.0000 0.0000 0.0000
# 2 19.9284 29.0877 10.6798 0.0000 0.0000 0.0000
# 3 28.6239 10.6798 64.4392 0.0000 0.0000 0.0000
# 4 0.0000 0.0000 0.0000 20.6212 0.0000 0.0000
# 5 0.0000 0.0000 0.0000 0.0000 26.4053 0.0000
# 6 0.0000 0.0000 0.0000 0.0000 0.0000 26.4851
#
#
#
# Elastic Compliance Matrix: (Units=1/GPa)
#
#
# Indices 1 2 3 4 5 6 
#
# 1 0.014669 -0.008154 -0.005164 0.000000 0.000000 0.000000
# 2 -0.008154 0.041138 -0.003196 0.000000 0.000000 0.000000
# 3 -0.005164 -0.003196 0.018342 0.000000 0.000000 0.000000
# 4 0.000000 0.000000 0.000000 0.048494 0.000000 0.000000
# 5 0.000000 0.000000 0.000000 0.000000 0.037871 0.000000
# 6 0.000000 0.000000 0.000000 0.000000 0.000000 0.037757
#
#
# Mechanical properties :
#
#
# Convention : Reuss Voigt Hill
#
# Bulk Modulus (GPa) = 24.31860 33.47984 28.89922
# Shear Modulus (GPa) = 20.40759 22.94381 21.67570
#
# Velocity S-wave (km/s) = 3.40209 3.60730 3.50620
# Velocity P-wave (km/s) = 5.40598 6.02813 5.72551
#
# Compressibility (1/GPa) = 0.04112079
#
# Stress axis : x y z
#
# Youngs Moduli (GPa) = 68.17240 24.30816 54.51879
#
# Poissons Ratio (x) = 0.19820 0.28156
# Poissons Ratio (y) = 0.55585 0.17426
# Poissons Ratio (z) = 0.35208 0.07770
#
# Static dielectric constant tensor:
#      x y z
#    x 3.285420 0.000000 0.000000 
#    y 0.000000 3.181360 0.000000 
#    z 0.000000 0.000000 3.202630 
# 
# 
# High freq. dielectric constant tensor:
#      x y z
#    x 1.670940 0.000000 0.000000 
#    y 0.000000 1.673500 0.000000 
#    z 0.000000 0.000000 1.675850 
# 
# From -- ./inp_files/8027.got.cif
#   From: 2010.03.12/outbox.cif.g09.slc.cpg/sg36_5_cif.got.tgz:8027.got - 2010.04.14 02:13:53.
