data_PCOD8175490
_publ_section_title
;
Structure prediction by ZEFSAII (Michael W. Deem and Ramdas Pophale) SiO2 
 PCOD8175490
Probable space group: C M C 21
;
_chemical_formula_sum "Si O2"
_cell_formula_units_Z 36
_cell_length_a 13.651633
_cell_length_b 18.653507
_cell_length_c 5.585533
_cell_angle_alpha 90.000000
_cell_angle_beta 90.000000
_cell_angle_gamma 90.000000
_cell_volume 1422.360624
_symmetry_space_group_name_H-M "C M C 21"
_symmetry_group_IT_number 36
_symmetry_cell_setting 'orthorhombic'
loop_
_space_group_symop_operation_xyz
x,y,z
-x,-y,1/2+z
x,-y,1/2+z
-x,y,z
1/2+x,1/2+y,z
1/2-x,1/2-y,1/2+z
1/2+x,1/2-y,1/2+z
1/2-x,1/2+y,z
loop_
_atom_site_type_symbol
_atom_site_label
_atom_site_fract_x
_atom_site_fract_y
_atom_site_fract_z
Si Si1 0.000000 0.957490 0.766810
Si Si2 0.610518 0.698453 0.857161
Si Si3 0.161212 0.476815 0.509637
Si Si4 0.819082 0.090163 0.496851
Si Si5 0.206835 0.674454 0.148931
O O1 0.100266 0.912076 0.781390
O O2 0.000000 0.999390 0.519974
O O3 0.500000 0.698520 0.962148
O O4 0.628093 0.621802 0.730512
O O5 0.693293 0.711504 0.055790
O O6 0.623024 0.764933 0.670075
O O7 0.106982 0.494234 0.767183
O O8 0.269024 0.513231 0.555232
O O9 0.171005 0.390846 0.477612
O O10 0.730910 0.141125 0.409220
#
# Coordination Sequence:
#
# PCOD8175490 Si02
#       5
#     4   8   8   8   8
#     4  12  26  38  60 102 144 176 226 286 360 436
#     4  12  25  42  67  98 137 187 233 280 355 423
#     4  10  20  37  65  93 129 182 220 282 352 410
#     4  11  23  38  63  97 131 183 224 286 351 418
#     4  11  24  44  63  96 142 179 231 286 347 416
#
# _framework density 25.310037999999999
#
# number of rings (size 3 to 8) (size 9 to 14) (size 15 to 20)
#    0.000    0.889    5.556    2.667    4.667    0.000 
#    0.000    0.000    0.000    5.333    0.000    0.000 
#    0.000    0.000    0.000    0.000    0.000    0.000 
#
# Total GULP energy -223016.709881 kJ/mol
# GULP energy per Si atom -12389.817216 kJ/mol
# Density = 2.525243 g / cm^3
# Si number density = 25.310038 Si / 1000 Ang^3
#
#
#
# Elastic Constant Matrix: (Units=GPa)
#
#
# Indices 1 2 3 4 5 6 
#
# 1 50.6092 -5.6393 -1.6740 0.0000 0.0000 0.0000
# 2 -5.6393 83.4993 4.5335 0.0000 0.0000 0.0000
# 3 -1.6740 4.5335 113.4586 0.0000 0.0000 0.0000
# 4 0.0000 0.0000 0.0000 33.5959 0.0000 0.0000
# 5 0.0000 0.0000 0.0000 0.0000 12.0757 0.0000
# 6 0.0000 0.0000 0.0000 0.0000 0.0000 27.8452
#
#
#
# Elastic Compliance Matrix: (Units=1/GPa)
#
#
# Indices 1 2 3 4 5 6 
#
# 1 0.019916 0.001332 0.000241 0.000000 0.000000 0.000000
# 2 0.001332 0.012091 -0.000463 0.000000 0.000000 0.000000
# 3 0.000241 -0.000463 0.008836 0.000000 0.000000 0.000000
# 4 0.000000 0.000000 0.000000 0.029766 0.000000 0.000000
# 5 0.000000 0.000000 0.000000 0.000000 0.082811 0.000000
# 6 0.000000 0.000000 0.000000 0.000000 0.000000 0.035913
#
#
# Mechanical properties :
#
#
# Convention : Reuss Voigt Hill
#
# Bulk Modulus (GPa) = 23.22287 26.88971 25.05629
# Shear Modulus (GPa) = 24.81790 31.39314 28.10552
#
# Velocity S-wave (km/s) = 3.13478 3.52567 3.33596
# Velocity P-wave (km/s) = 4.72205 5.21738 4.97588
#
# Compressibility (1/GPa) = 0.04306101
#
# Stress axis : x y z
#
# Youngs Moduli (GPa) = 50.21177 82.70428 113.17519
#
# Poissons Ratio (x) = -0.11016 -0.02723
# Poissons Ratio (y) = -0.06688 0.05245
# Poissons Ratio (z) = -0.01208 0.03833
#
# Static dielectric constant tensor:
#      x y z
#    x 4.178920 0.000000 0.000000 
#    y 0.000000 4.773080 0.000000 
#    z 0.000000 0.000000 4.566620 
# 
# 
# High freq. dielectric constant tensor:
#      x y z
#    x 1.961050 0.000000 0.000000 
#    y 0.000000 2.017960 0.000000 
#    z 0.000000 0.000000 2.015190 
# 
# From -- ./inp_files/686.got.cif
#   From: 2010.03.12/outbox.cif.g09.slc.cpg/sg36_1_cif.got.tgz:686.got - 2010.04.14 02:13:53.
