data_PCOD8175803
_publ_section_title
;
Structure prediction by ZEFSAII (Michael W. Deem and Ramdas Pophale) SiO2 
 PCOD8175803
Probable space group: C M C 21
;
_chemical_formula_sum "Si O2"
_cell_formula_units_Z 64
_cell_length_a 28.089875
_cell_length_b 10.326355
_cell_length_c 10.775771
_cell_angle_alpha 90.000000
_cell_angle_beta 90.000000
_cell_angle_gamma 90.000000
_cell_volume 3125.685019
_symmetry_space_group_name_H-M "C M C 21"
_symmetry_group_IT_number 36
_symmetry_cell_setting 'orthorhombic'
loop_
_space_group_symop_operation_xyz
x,y,z
-x,-y,1/2+z
x,-y,1/2+z
-x,y,z
1/2+x,1/2+y,z
1/2-x,1/2-y,1/2+z
1/2+x,1/2-y,1/2+z
1/2-x,1/2+y,z
loop_
_atom_site_type_symbol
_atom_site_label
_atom_site_fract_x
_atom_site_fract_y
_atom_site_fract_z
Si Si1 0.554260 0.128044 0.705610
Si Si2 0.110450 0.278097 0.974786
Si Si3 0.646810 0.829096 0.327588
Si Si4 0.947460 0.672794 0.239322
Si Si5 0.817093 0.604085 0.306447
Si Si6 0.634823 0.243991 0.088904
Si Si7 0.706959 0.418843 0.782100
Si Si8 0.663921 0.522454 0.028016
O O1 0.500000 0.185212 0.707888
O O2 0.577527 0.141133 0.569380
O O3 0.591082 0.201252 0.797295
O O4 0.552378 0.981336 0.752972
O O5 0.126974 0.141399 0.032297
O O6 0.078329 0.256985 0.853674
O O7 0.158135 0.357835 0.937377
O O8 0.653765 0.841030 0.474580
O O9 0.679214 0.715686 0.274890
O O10 0.663940 0.962844 0.264273
O O11 0.919932 0.709358 0.114347
O O12 0.000000 0.730026 0.229113
O O13 0.831529 0.710607 0.204595
O O14 0.760912 0.607324 0.320360
O O15 0.634162 0.393593 0.051760
O O16 0.702292 0.473938 0.641711
O O17 0.687686 0.515117 0.890548
#
# Coordination Sequence:
#
# PCOD8175803 Si02
#       8
#     8   8   8   8   8   8   8   8
#     4  11  22  39  67  98 127 169 219 279 338 386
#     4  11  22  42  64  91 130 177 217 274 326 410
#     4  11  23  41  62  99 133 166 224 278 324 404
#     4  10  21  38  65  96 126 164 215 276 341 395
#     4  11  25  39  68  95 134 169 219 272 336 390
#     4  10  23  42  61  92 132 170 213 272 329 395
#     4  11  26  41  67  99 132 181 223 269 332 396
#     4  11  25  44  67  88 136 176 224 266 330 394
#
# _framework density 20.475511999999998
#
# number of rings (size 3 to 8) (size 9 to 14) (size 15 to 20)
#    0.000    1.250    3.750    2.625    5.250    1.500 
#    0.000    1.250    0.000    0.750    0.000    0.000 
#    0.000    0.000    0.000    0.000    0.000    0.000 
#
# Total GULP energy -396664.481908 kJ/mol
# GULP energy per Si atom -12395.765060 kJ/mol
# Density = 2.042891 g / cm^3
# Si number density = 20.475512 Si / 1000 Ang^3
#
#
#
# Elastic Constant Matrix: (Units=GPa)
#
#
# Indices 1 2 3 4 5 6 
#
# 1 155.6173 43.4660 19.8877 0.0000 0.0000 0.0000
# 2 43.4660 64.6905 34.8909 0.0000 0.0000 0.0000
# 3 19.8877 34.8909 86.6910 0.0000 0.0000 0.0000
# 4 0.0000 0.0000 0.0000 29.0911 0.0000 0.0000
# 5 0.0000 0.0000 0.0000 0.0000 24.4804 0.0000
# 6 0.0000 0.0000 0.0000 0.0000 0.0000 19.8172
#
#
#
# Elastic Compliance Matrix: (Units=1/GPa)
#
#
# Indices 1 2 3 4 5 6 
#
# 1 0.007922 -0.005547 0.000415 0.000000 0.000000 0.000000
# 2 -0.005547 0.023628 -0.008237 0.000000 0.000000 0.000000
# 3 0.000415 -0.008237 0.014755 0.000000 0.000000 0.000000
# 4 0.000000 0.000000 0.000000 0.034375 0.000000 0.000000
# 5 0.000000 0.000000 0.000000 0.000000 0.040849 0.000000
# 6 0.000000 0.000000 0.000000 0.000000 0.000000 0.050461
#
#
# Mechanical properties :
#
#
# Convention : Reuss Voigt Hill
#
# Bulk Modulus (GPa) = 51.10518 55.94312 53.52415
# Shear Modulus (GPa) = 24.36045 28.59470 26.47757
#
# Velocity S-wave (km/s) = 3.45300 3.74107 3.59992
# Velocity P-wave (km/s) = 6.39617 6.78543 6.59367
#
# Compressibility (1/GPa) = 0.01956749
#
# Stress axis : x y z
#
# Youngs Moduli (GPa) = 126.22591 42.32285 67.77260
#
# Poissons Ratio (x) = 0.23476 -0.02813
# Poissons Ratio (y) = 0.70016 0.55825
# Poissons Ratio (z) = -0.05239 0.34862
#
# Static dielectric constant tensor:
#      x y z
#    x 3.895670 0.000000 0.000000 
#    y 0.000000 3.581660 0.000000 
#    z 0.000000 0.000000 3.869770 
# 
# 
# High freq. dielectric constant tensor:
#      x y z
#    x 1.799250 0.000000 0.000000 
#    y 0.000000 1.788570 0.000000 
#    z 0.000000 0.000000 1.811520 
# 
# From -- ./inp_files/9747.got.cif
#   From: 2010.03.12/outbox.cif.g09.slc.cpg/sg36_5_cif.got.tgz:9747.got - 2010.04.14 02:13:53.
