data_PCOD8175882
_publ_section_title
;
Structure prediction by ZEFSAII (Michael W. Deem and Ramdas Pophale) SiO2 
 PCOD8175882
Probable space group: C M C 21
;
_chemical_formula_sum "Si O2"
_cell_formula_units_Z 48
_cell_length_a 8.571511
_cell_length_b 14.974469
_cell_length_c 18.592968
_cell_angle_alpha 90.000000
_cell_angle_beta 90.000000
_cell_angle_gamma 90.000000
_cell_volume 2386.478575
_symmetry_space_group_name_H-M "C M C 21"
_symmetry_group_IT_number 36
_symmetry_cell_setting 'orthorhombic'
loop_
_space_group_symop_operation_xyz
x,y,z
-x,-y,1/2+z
x,-y,1/2+z
-x,y,z
1/2+x,1/2+y,z
1/2-x,1/2-y,1/2+z
1/2+x,1/2-y,1/2+z
1/2-x,1/2+y,z
loop_
_atom_site_type_symbol
_atom_site_label
_atom_site_fract_x
_atom_site_fract_y
_atom_site_fract_z
Si Si1 0.680509 0.420756 0.789920
Si Si2 0.180316 0.610119 0.782917
Si Si3 0.820078 0.735912 0.374681
Si Si4 0.319076 0.255064 0.027606
Si Si5 0.681711 0.105897 0.140155
Si Si6 0.320970 0.904558 0.117533
O O1 0.500000 0.446559 0.792608
O O2 0.780933 0.508994 0.805404
O O3 0.716796 0.348195 0.850785
O O4 0.721278 0.378011 0.712691
O O5 0.286471 0.677488 0.827003
O O6 0.216797 0.624266 0.698952
O O7 0.000000 0.628666 0.800521
O O8 0.782009 0.758511 0.456718
O O9 0.000000 0.710295 0.366374
O O10 0.500000 0.245138 0.008076
O O11 0.263949 0.178833 0.082811
O O12 0.289213 0.351221 0.063243
O O13 0.500000 0.114884 0.160268
O O14 0.716756 0.008832 0.106908
O O15 0.500000 0.883809 0.098455
#
# Coordination Sequence:
#
# PCOD8175882 Si02
#       6
#     8   8   8   8   8   8
#     4  11  22  38  62  90 118 151 195 241 288 344
#     4  10  21  40  64  89 118 151 192 241 292 345
#     4  12  25  40  58  83 119 159 198 240 290 346
#     4  11  23  38  57  83 116 153 194 239 289 344
#     4   9  20  39  61  84 114 152 191 235 289 344
#     4   9  19  37  60  85 113 148 188 232 286 345
#
# _framework density 20.113316999999999
#
# number of rings (size 3 to 8) (size 9 to 14) (size 15 to 20)
#    0.000    1.667    0.000    6.000    0.000    8.667 
#    0.000    5.000    0.000    0.000    0.000    0.000 
#    0.000    0.000    0.000    0.000    0.000    0.000 
#
# Total GULP energy -297769.879671 kJ/mol
# GULP energy per Si atom -12407.078320 kJ/mol
# Density = 2.006754 g / cm^3
# Si number density = 20.113317 Si / 1000 Ang^3
#
#
#
# Elastic Constant Matrix: (Units=GPa)
#
#
# Indices 1 2 3 4 5 6 
#
# 1 69.8569 10.4220 24.2936 0.0000 0.0000 0.0000
# 2 10.4220 66.6003 22.5065 0.0000 0.0000 0.0000
# 3 24.2936 22.5065 55.0123 0.0000 0.0000 0.0000
# 4 0.0000 0.0000 0.0000 12.6360 0.0000 0.0000
# 5 0.0000 0.0000 0.0000 0.0000 34.2589 0.0000
# 6 0.0000 0.0000 0.0000 0.0000 0.0000 34.6093
#
#
#
# Elastic Compliance Matrix: (Units=1/GPa)
#
#
# Indices 1 2 3 4 5 6 
#
# 1 0.016913 -0.000142 -0.007411 0.000000 0.000000 0.000000
# 2 -0.000142 0.017425 -0.007066 0.000000 0.000000 0.000000
# 3 -0.007411 -0.007066 0.024341 0.000000 0.000000 0.000000
# 4 0.000000 0.000000 0.000000 0.079139 0.000000 0.000000
# 5 0.000000 0.000000 0.000000 0.000000 0.029189 0.000000
# 6 0.000000 0.000000 0.000000 0.000000 0.000000 0.028894
#
#
# Mechanical properties :
#
#
# Convention : Reuss Voigt Hill
#
# Bulk Modulus (GPa) = 33.96583 33.99042 33.97813
# Shear Modulus (GPa) = 21.28074 25.25067 23.26570
#
# Velocity S-wave (km/s) = 3.25628 3.54704 3.40476
# Velocity P-wave (km/s) = 5.57331 5.80615 5.69092
#
# Compressibility (1/GPa) = 0.02944135
#
# Stress axis : x y z
#
# Youngs Moduli (GPa) = 59.12464 57.38849 41.08251
#
# Poissons Ratio (x) = 0.00817 0.30445
# Poissons Ratio (y) = 0.00842 0.29029
# Poissons Ratio (z) = 0.43816 0.40551
#
# Static dielectric constant tensor:
#      x y z
#    x 3.591400 0.000000 0.000000 
#    y 0.000000 3.680700 0.000000 
#    z 0.000000 0.000000 3.567980 
# 
# 
# High freq. dielectric constant tensor:
#      x y z
#    x 1.787170 0.000000 0.000000 
#    y 0.000000 1.794720 0.000000 
#    z 0.000000 0.000000 1.778760 
# 
# From -- ./inp_files/13484.got.cif
#   From: 2010.03.12/outbox.cif.g09.slc.cpg/sg36_7_cif.got.tgz:13484.got - 2010.04.14 02:13:53.
