data_PCOD8175528
_publ_section_title
;
Structure prediction by ZEFSAII (Michael W. Deem and Ramdas Pophale) SiO2 
 PCOD8175528
Probable space group: C M C 21
;
_chemical_formula_sum "Si O2"
_cell_formula_units_Z 64
_cell_length_a 9.148314
_cell_length_b 30.311810
_cell_length_c 11.911789
_cell_angle_alpha 90.000000
_cell_angle_beta 90.000000
_cell_angle_gamma 90.000000
_cell_volume 3303.162387
_symmetry_space_group_name_H-M "C M C 21"
_symmetry_group_IT_number 36
_symmetry_cell_setting 'orthorhombic'
loop_
_space_group_symop_operation_xyz
x,y,z
-x,-y,1/2+z
x,-y,1/2+z
-x,y,z
1/2+x,1/2+y,z
1/2-x,1/2-y,1/2+z
1/2+x,1/2-y,1/2+z
1/2-x,1/2+y,z
loop_
_atom_site_type_symbol
_atom_site_label
_atom_site_fract_x
_atom_site_fract_y
_atom_site_fract_z
Si Si1 0.670786 0.040434 0.923630
Si Si2 0.173030 0.120417 0.047594
Si Si3 0.835446 0.325840 0.198432
Si Si4 0.328412 0.549873 0.471512
Si Si5 0.828608 0.127905 0.305845
Si Si6 0.329710 0.295738 0.405985
Si Si7 0.328787 0.196836 0.453876
Si Si8 0.836516 0.574690 0.685855
O O1 0.500000 0.041868 0.953465
O O2 0.697645 0.042994 0.790183
O O3 0.738197 0.994541 0.960602
O O4 0.748698 0.079540 0.989748
O O5 0.220504 0.121651 0.177532
O O6 0.000000 0.113960 0.035243
O O7 0.226541 0.165985 0.989745
O O8 0.741745 0.297427 0.283842
O O9 0.828852 0.376378 0.236688
O O10 0.000000 0.307045 0.200894
O O11 0.772632 0.322036 0.072557
O O12 0.500000 0.539627 0.467874
O O13 0.282172 0.584268 0.374810
O O14 0.286583 0.569650 0.592054
O O15 0.751664 0.171351 0.354099
O O16 0.000000 0.136114 0.315685
O O17 0.500000 0.301287 0.387140
O O18 0.288727 0.248396 0.456315
O O19 0.500000 0.188595 0.436914
O O20 0.000000 0.565799 0.636822
#
# Coordination Sequence:
#
# PCOD8175528 Si02
#       8
#     8   8   8   8   8   8   8   8
#     4  11  24  41  62  90 120 154 200 246 297 355
#     4  10  22  41  61  85 121 160 198 243 297 353
#     4  10  20  38  63  86 116 154 196 246 298 348
#     4  11  24  40  61  90 121 155 199 245 297 356
#     4  10  23  41  61  87 119 158 199 242 295 352
#     4  10  22  38  59  88 120 156 199 244 294 350
#     4  10  22  39  60  88 120 157 198 243 296 350
#     4  10  21  40  63  88 117 154 199 247 298 352
#
# _framework density 19.375373
#
# number of rings (size 3 to 8) (size 9 to 14) (size 15 to 20)
#    0.000    1.750    2.500    0.750    3.500    3.500 
#    0.000    0.000    0.000    0.000    0.000    0.000 
#    0.000    0.000    0.000    0.000    0.000    0.000 
#
# Total GULP energy -396896.384903 kJ/mol
# GULP energy per Si atom -12403.012028 kJ/mol
# Density = 1.933127 g / cm^3
# Si number density = 19.375373 Si / 1000 Ang^3
#
#
#
# Elastic Constant Matrix: (Units=GPa)
#
#
# Indices 1 2 3 4 5 6 
#
# 1 48.2408 44.8567 43.8987 0.0000 0.0000 0.0000
# 2 44.8567 113.8341 49.6341 0.0000 0.0000 0.0000
# 3 43.8987 49.6341 114.3445 0.0000 0.0000 0.0000
# 4 0.0000 0.0000 0.0000 25.6126 0.0000 0.0000
# 5 0.0000 0.0000 0.0000 0.0000 34.9308 0.0000
# 6 0.0000 0.0000 0.0000 0.0000 0.0000 32.4595
#
#
#
# Elastic Compliance Matrix: (Units=1/GPa)
#
#
# Indices 1 2 3 4 5 6 
#
# 1 0.041367 -0.011565 -0.010861 0.000000 0.000000 0.000000
# 2 -0.011565 0.014069 -0.001667 0.000000 0.000000 0.000000
# 3 -0.010861 -0.001667 0.013639 0.000000 0.000000 0.000000
# 4 0.000000 0.000000 0.000000 0.039043 0.000000 0.000000
# 5 0.000000 0.000000 0.000000 0.000000 0.028628 0.000000
# 6 0.000000 0.000000 0.000000 0.000000 0.000000 0.030808
#
#
# Mechanical properties :
#
#
# Convention : Reuss Voigt Hill
#
# Bulk Modulus (GPa) = 47.87436 61.46650 54.67043
# Shear Modulus (GPa) = 22.45151 27.80258 25.12705
#
# Velocity S-wave (km/s) = 3.40776 3.79218 3.60509
# Velocity P-wave (km/s) = 6.34399 7.13912 6.75327
#
# Compressibility (1/GPa) = 0.02088801
#
# Stress axis : x y z
#
# Youngs Moduli (GPa) = 24.17406 71.07966 73.31977
#
# Poissons Ratio (x) = 0.82203 0.79635
# Poissons Ratio (y) = 0.27957 0.12222
# Poissons Ratio (z) = 0.26256 0.11848
#
# Static dielectric constant tensor:
#      x y z
#    x 3.469790 0.000000 0.000000 
#    y 0.000000 3.601790 0.000000 
#    z 0.000000 0.000000 3.576080 
# 
# 
# High freq. dielectric constant tensor:
#      x y z
#    x 1.747690 0.000000 0.000000 
#    y 0.000000 1.762440 0.000000 
#    z 0.000000 0.000000 1.762260 
# 
# From -- ./inp_files/7103.got.cif
#   From: 2010.03.12/outbox.cif.g09.slc.cpg/sg36_4_cif.got.tgz:7103.got - 2010.04.14 02:13:53.
