data_PCOD8175904
_publ_section_title
;
Structure prediction by ZEFSAII (Michael W. Deem and Ramdas Pophale) SiO2 
 PCOD8175904
Probable space group: C M C 21
;
_chemical_formula_sum "Si O2"
_cell_formula_units_Z 64
_cell_length_a 8.757988
_cell_length_b 24.168634
_cell_length_c 15.098516
_cell_angle_alpha 90.000000
_cell_angle_beta 90.000000
_cell_angle_gamma 90.000000
_cell_volume 3195.881843
_symmetry_space_group_name_H-M "C M C 21"
_symmetry_group_IT_number 36
_symmetry_cell_setting 'orthorhombic'
loop_
_space_group_symop_operation_xyz
x,y,z
-x,-y,1/2+z
x,-y,1/2+z
-x,y,z
1/2+x,1/2+y,z
1/2-x,1/2-y,1/2+z
1/2+x,1/2-y,1/2+z
1/2-x,1/2+y,z
loop_
_atom_site_type_symbol
_atom_site_label
_atom_site_fract_x
_atom_site_fract_y
_atom_site_fract_z
Si Si1 0.318685 0.321943 0.809800
Si Si2 0.328875 0.869878 0.220920
Si Si3 0.329864 0.126555 0.924828
Si Si4 0.180951 0.757207 0.170772
Si Si5 0.178673 0.978923 0.172596
Si Si6 0.318675 0.244759 0.968975
Si Si7 0.819546 0.513874 0.994154
Si Si8 0.179342 0.947592 0.839815
O O1 0.500000 0.316434 0.799649
O O2 0.241774 0.297011 0.721470
O O3 0.258925 0.290044 0.898171
O O4 0.265965 0.385580 0.816641
O O5 0.500000 0.870256 0.179836
O O6 0.336674 0.886692 0.322127
O O7 0.255878 0.809817 0.216300
O O8 0.221180 0.914251 0.173208
O O9 0.500000 0.131297 0.964904
O O10 0.245813 0.184698 0.945243
O O11 0.247158 0.073743 0.968783
O O12 0.000000 0.759660 0.179206
O O13 0.233528 0.758736 0.068363
O O14 0.000000 0.985316 0.153827
O O15 0.228287 0.010437 0.261999
O O16 0.275057 0.005743 0.094944
O O17 0.500000 0.242656 0.960651
O O18 0.754185 0.465710 0.931921
O O19 0.000000 0.514022 0.981779
O O20 0.000000 0.948449 0.854580
#
# Coordination Sequence:
#
# PCOD8175904 Si02
#       8
#     8   8   8   8   8   8   8   8
#     4  10  21  41  63  83 118 166 203 240 300 366
#     4  11  21  40  66  88 117 158 207 257 305 361
#     4   9  18  36  62  87 112 151 201 250 298 354
#     4  11  23  37  60  94 123 156 201 252 305 358
#     4  11  24  41  60  89 127 162 204 253 309 366
#     4   9  19  37  60  85 116 158 198 237 297 360
#     4  11  23  39  63  92 120 156 207 255 305 366
#     4  10  23  41  62  88 123 165 205 252 309 361
#
# _framework density 20.025770999999999
#
# number of rings (size 3 to 8) (size 9 to 14) (size 15 to 20)
#    0.000    1.750    2.500    1.500    3.500    1.000 
#    0.000    1.250    0.000    0.000    0.000    0.000 
#    0.000    0.000    0.000    0.000    0.000    0.000 
#
# Total GULP energy -396799.061749 kJ/mol
# GULP energy per Si atom -12399.970680 kJ/mol
# Density = 1.998019 g / cm^3
# Si number density = 20.025771 Si / 1000 Ang^3
#
#
#
# Elastic Constant Matrix: (Units=GPa)
#
#
# Indices 1 2 3 4 5 6 
#
# 1 42.3414 32.2529 24.6955 0.0000 0.0000 0.0000
# 2 32.2529 119.3574 14.8248 0.0000 0.0000 0.0000
# 3 24.6955 14.8248 78.0245 0.0000 0.0000 0.0000
# 4 0.0000 0.0000 0.0000 30.7122 0.0000 0.0000
# 5 0.0000 0.0000 0.0000 0.0000 26.8418 0.0000
# 6 0.0000 0.0000 0.0000 0.0000 0.0000 25.1739
#
#
#
# Elastic Compliance Matrix: (Units=1/GPa)
#
#
# Indices 1 2 3 4 5 6 
#
# 1 0.035705 -0.008444 -0.009697 0.000000 0.000000 0.000000
# 2 -0.008444 0.010578 0.000663 0.000000 0.000000 0.000000
# 3 -0.009697 0.000663 0.015760 0.000000 0.000000 0.000000
# 4 0.000000 0.000000 0.000000 0.032560 0.000000 0.000000
# 5 0.000000 0.000000 0.000000 0.000000 0.037255 0.000000
# 6 0.000000 0.000000 0.000000 0.000000 0.000000 0.039724
#
#
# Mechanical properties :
#
#
# Convention : Reuss Voigt Hill
#
# Bulk Modulus (GPa) = 36.91828 42.58553 39.75190
# Shear Modulus (GPa) = 23.19473 27.74226 25.46849
#
# Velocity S-wave (km/s) = 3.40699 3.72604 3.57008
# Velocity P-wave (km/s) = 5.82685 6.31052 6.07350
#
# Compressibility (1/GPa) = 0.02708686
#
# Stress axis : x y z
#
# Youngs Moduli (GPa) = 28.00716 94.53944 63.45316
#
# Poissons Ratio (x) = 0.79828 0.61529
# Poissons Ratio (y) = 0.23649 -0.04206
# Poissons Ratio (z) = 0.27158 -0.06266
#
# Static dielectric constant tensor:
#      x y z
#    x 3.398410 0.000000 0.000000 
#    y 0.000000 3.881020 0.000000 
#    z 0.000000 0.000000 3.642940 
# 
# 
# High freq. dielectric constant tensor:
#      x y z
#    x 1.755720 0.000000 0.000000 
#    y 0.000000 1.798390 0.000000 
#    z 0.000000 0.000000 1.785310 
# 
# From -- ./inp_files/10951.got.cif
#   From: 2010.03.12/outbox.cif.g09.slc.cpg/sg36_6_cif.got.tgz:10951.got - 2010.04.14 02:13:53.
