data_PCOD8175002
_publ_section_title
;
Structure prediction by ZEFSAII (Michael W. Deem and Ramdas Pophale) SiO2 
 PCOD8175002
Probable space group: C M C 21
;
_chemical_formula_sum "Si O2"
_cell_formula_units_Z 48
_cell_length_a 8.813536
_cell_length_b 14.899766
_cell_length_c 18.791278
_cell_angle_alpha 90.000000
_cell_angle_beta 90.000000
_cell_angle_gamma 90.000000
_cell_volume 2467.663562
_symmetry_space_group_name_H-M "C M C 21"
_symmetry_group_IT_number 36
_symmetry_cell_setting 'orthorhombic'
loop_
_space_group_symop_operation_xyz
x,y,z
-x,-y,1/2+z
x,-y,1/2+z
-x,y,z
1/2+x,1/2+y,z
1/2-x,1/2-y,1/2+z
1/2+x,1/2-y,1/2+z
1/2-x,1/2+y,z
loop_
_atom_site_type_symbol
_atom_site_label
_atom_site_fract_x
_atom_site_fract_y
_atom_site_fract_z
Si Si1 0.825540 0.245177 0.715730
Si Si2 0.320033 0.508321 0.085461
Si Si3 0.179719 0.857527 0.978643
Si Si4 0.321181 0.290032 0.570289
Si Si5 0.675643 0.456099 0.241300
Si Si6 0.822199 0.395450 0.828359
O O1 0.722888 0.248192 0.645952
O O2 0.802392 0.149719 0.754183
O O3 0.774127 0.322191 0.769777
O O4 0.000000 0.257000 0.691903
O O5 0.500000 0.503385 0.086064
O O6 0.262893 0.607497 0.065222
O O7 0.259889 0.482659 0.163684
O O8 0.255369 0.437758 0.028173
O O9 0.232564 0.873002 0.899113
O O10 0.000000 0.854560 0.981471
O O11 0.243303 0.763084 0.006188
O O12 0.500000 0.284037 0.560755
O O13 0.500000 0.484284 0.249105
O O14 0.773199 0.506749 0.300897
O O15 0.000000 0.393212 0.844146
#
# Coordination Sequence:
#
# PCOD8175002 Si02
#       6
#     8   8   8   8   8   8
#     4  10  21  38  61  86 119 158 197 236 290 360
#     4   9  19  36  61  87 114 151 199 238 285 356
#     4  11  23  42  62  84 119 163 199 236 295 362
#     4  11  21  36  61  91 118 147 195 252 293 338
#     4  10  19  38  63  86 113 156 201 235 284 359
#     4  11  24  40  58  90 125 153 193 251 301 339
#
# _framework density 19.451598000000001
#
# number of rings (size 3 to 8) (size 9 to 14) (size 15 to 20)
#    0.000    1.667    3.333    1.500    0.000    2.667 
#    0.000   10.000    0.000    0.000    0.000    0.000 
#    0.000    0.000    0.000    0.000    0.000    0.000 
#
# Total GULP energy -297711.767864 kJ/mol
# GULP energy per Si atom -12404.656994 kJ/mol
# Density = 1.940733 g / cm^3
# Si number density = 19.451598 Si / 1000 Ang^3
#
#
#
# Elastic Constant Matrix: (Units=GPa)
#
#
# Indices 1 2 3 4 5 6 
#
# 1 51.4755 22.9276 16.6806 0.0000 0.0000 0.0000
# 2 22.9276 93.9082 12.4083 0.0000 0.0000 0.0000
# 3 16.6806 12.4083 66.0617 0.0000 0.0000 0.0000
# 4 0.0000 0.0000 0.0000 32.1418 0.0000 0.0000
# 5 0.0000 0.0000 0.0000 0.0000 34.7657 0.0000
# 6 0.0000 0.0000 0.0000 0.0000 0.0000 30.8123
#
#
#
# Elastic Compliance Matrix: (Units=1/GPa)
#
#
# Indices 1 2 3 4 5 6 
#
# 1 0.023264 -0.005029 -0.004930 0.000000 0.000000 0.000000
# 2 -0.005029 0.012007 -0.000985 0.000000 0.000000 0.000000
# 3 -0.004930 -0.000985 0.016567 0.000000 0.000000 0.000000
# 4 0.000000 0.000000 0.000000 0.031112 0.000000 0.000000
# 5 0.000000 0.000000 0.000000 0.000000 0.028764 0.000000
# 6 0.000000 0.000000 0.000000 0.000000 0.000000 0.032455
#
#
# Mechanical properties :
#
#
# Convention : Reuss Voigt Hill
#
# Bulk Modulus (GPa) = 33.38847 35.05315 34.22081
# Shear Modulus (GPa) = 28.40275 30.17253 29.28764
#
# Velocity S-wave (km/s) = 3.82537 3.94275 3.88450
# Velocity P-wave (km/s) = 6.05916 6.22791 6.14411
#
# Compressibility (1/GPa) = 0.02995046
#
# Stress axis : x y z
#
# Youngs Moduli (GPa) = 42.98502 83.28740 60.36022
#
# Poissons Ratio (x) = 0.41881 0.29755
# Poissons Ratio (y) = 0.21615 0.05948
# Poissons Ratio (z) = 0.21190 0.08208
#
# Static dielectric constant tensor:
#      x y z
#    x 3.377770 0.000000 0.000000 
#    y 0.000000 3.903670 0.000000 
#    z 0.000000 0.000000 3.477150 
# 
# 
# High freq. dielectric constant tensor:
#      x y z
#    x 1.743130 0.000000 0.000000 
#    y 0.000000 1.773390 0.000000 
#    z 0.000000 0.000000 1.752950 
# 
# From -- ./inp_files/13464.got.cif
#   From: 2010.03.12/outbox.cif.g09.slc.cpg/sg36_7_cif.got.tgz:13464.got - 2010.04.14 02:13:53.
