data_PCOD8175333
_publ_section_title
;
Structure prediction by ZEFSAII (Michael W. Deem and Ramdas Pophale) SiO2 
 PCOD8175333
Probable space group: C M C 21
;
_chemical_formula_sum "Si O2"
_cell_formula_units_Z 64
_cell_length_a 9.062415
_cell_length_b 24.332517
_cell_length_c 14.934242
_cell_angle_alpha 90.000000
_cell_angle_beta 90.000000
_cell_angle_gamma 90.000000
_cell_volume 3293.170119
_symmetry_space_group_name_H-M "C M C 21"
_symmetry_group_IT_number 36
_symmetry_cell_setting 'orthorhombic'
loop_
_space_group_symop_operation_xyz
x,y,z
-x,-y,1/2+z
x,-y,1/2+z
-x,y,z
1/2+x,1/2+y,z
1/2-x,1/2-y,1/2+z
1/2+x,1/2-y,1/2+z
1/2-x,1/2+y,z
loop_
_atom_site_type_symbol
_atom_site_label
_atom_site_fract_x
_atom_site_fract_y
_atom_site_fract_z
Si Si1 0.338068 0.255547 0.196520
Si Si2 0.329215 0.139103 0.690159
Si Si3 0.675748 0.866363 0.693940
Si Si4 0.674099 0.135907 0.485262
Si Si5 0.174626 0.637089 0.992144
Si Si6 0.664514 0.256480 0.983877
Si Si7 0.826163 0.446273 0.339813
Si Si8 0.675526 0.562084 0.342462
O O1 0.500000 0.264718 0.237002
O O2 0.238980 0.305402 0.232250
O O3 0.279575 0.195319 0.225639
O O4 0.344447 0.256852 0.090179
O O5 0.500000 0.151130 0.693406
O O6 0.278825 0.127393 0.588568
O O7 0.287090 0.086775 0.749626
O O8 0.500000 0.875416 0.703757
O O9 0.730256 0.876880 0.592141
O O10 0.763411 0.908901 0.754154
O O11 0.500000 0.130530 0.469868
O O12 0.726671 0.195604 0.449630
O O13 0.756911 0.088723 0.431328
O O14 0.231420 0.696766 0.956504
O O15 0.000000 0.643043 0.995725
O O16 0.224577 0.589484 0.925156
O O17 0.500000 0.266515 0.943985
O O18 0.726046 0.499473 0.339544
O O19 0.000000 0.460919 0.344417
O O20 0.500000 0.565860 0.345278
#
# Coordination Sequence:
#
# PCOD8175333 Si02
#       8
#     8   8   8   8   8   8   8   8
#     4   8  15  29  53  82 113 143 172 210 262 317
#     4   9  19  34  56  84 113 144 179 216 261 316
#     4   9  18  36  59  83 110 143 178 215 263 324
#     4  10  20  36  56  80 110 146 182 219 263 317
#     4   8  16  33  60  86 110 142 177 212 262 323
#     4   8  14  29  53  84 115 141 171 211 260 319
#     4  10  21  39  58  78 105 141 183 224 263 317
#     4  12  26  40  53  75 104 140 186 235 278 317
#
# _framework density 19.434161
#
# number of rings (size 3 to 8) (size 9 to 14) (size 15 to 20)
#    0.000    2.750    0.000    3.000    0.000    3.500 
#    0.000    9.375    0.000    0.000    0.000    0.000 
#    0.000    0.000    0.000    0.000    0.000    0.000 
#
# Total GULP energy -396674.986293 kJ/mol
# GULP energy per Si atom -12396.093322 kJ/mol
# Density = 1.938993 g / cm^3
# Si number density = 19.434161 Si / 1000 Ang^3
#
#
#
# Elastic Constant Matrix: (Units=GPa)
#
#
# Indices 1 2 3 4 5 6 
#
# 1 81.1213 66.0242 44.3253 0.0000 0.0000 0.0000
# 2 66.0242 159.4471 66.5294 0.0000 0.0000 0.0000
# 3 44.3253 66.5294 96.0092 0.0000 0.0000 0.0000
# 4 0.0000 0.0000 0.0000 42.9779 0.0000 0.0000
# 5 0.0000 0.0000 0.0000 0.0000 18.6504 0.0000
# 6 0.0000 0.0000 0.0000 0.0000 0.0000 5.2719
#
#
#
# Elastic Compliance Matrix: (Units=1/GPa)
#
#
# Indices 1 2 3 4 5 6 
#
# 1 0.020138 -0.006273 -0.004950 0.000000 0.000000 0.000000
# 2 -0.006273 0.010777 -0.004572 0.000000 0.000000 0.000000
# 3 -0.004950 -0.004572 0.015869 0.000000 0.000000 0.000000
# 4 0.000000 0.000000 0.000000 0.023268 0.000000 0.000000
# 5 0.000000 0.000000 0.000000 0.000000 0.053618 0.000000
# 6 0.000000 0.000000 0.000000 0.000000 0.000000 0.189683
#
#
# Mechanical properties :
#
#
# Convention : Reuss Voigt Hill
#
# Bulk Modulus (GPa) = 65.81711 76.70392 71.26052
# Shear Modulus (GPa) = 14.28542 24.02663 19.15603
#
# Velocity S-wave (km/s) = 2.71415 3.51993 3.14297
# Velocity P-wave (km/s) = 6.61532 7.48827 7.06529
#
# Compressibility (1/GPa) = 0.01519362
#
# Stress axis : x y z
#
# Youngs Moduli (GPa) = 49.65794 92.79201 63.01650
#
# Poissons Ratio (x) = 0.58211 0.31194
# Poissons Ratio (y) = 0.31152 0.28808
# Poissons Ratio (z) = 0.24581 0.42420
#
# Static dielectric constant tensor:
#      x y z
#    x 3.421400 0.000000 0.000000 
#    y 0.000000 3.705170 0.000000 
#    z 0.000000 0.000000 3.819090 
# 
# 
# High freq. dielectric constant tensor:
#      x y z
#    x 1.733750 0.000000 0.000000 
#    y 0.000000 1.761770 0.000000 
#    z 0.000000 0.000000 1.753090 
# 
# From -- ./inp_files/11091.got.cif
#   From: 2010.03.12/outbox.cif.g09.slc.cpg/sg36_6_cif.got.tgz:11091.got - 2010.04.14 02:13:53.
