data_PCOD8175075
_publ_section_title
;
Structure prediction by ZEFSAII (Michael W. Deem and Ramdas Pophale) SiO2 
 PCOD8175075
Probable space group: C M C 21
;
_chemical_formula_sum "Si O2"
_cell_formula_units_Z 64
_cell_length_a 28.841647
_cell_length_b 13.990833
_cell_length_c 8.719683
_cell_angle_alpha 90.000000
_cell_angle_beta 90.000000
_cell_angle_gamma 90.000000
_cell_volume 3518.554858
_symmetry_space_group_name_H-M "C M C 21"
_symmetry_group_IT_number 36
_symmetry_cell_setting 'orthorhombic'
loop_
_space_group_symop_operation_xyz
x,y,z
-x,-y,1/2+z
x,-y,1/2+z
-x,y,z
1/2+x,1/2+y,z
1/2-x,1/2-y,1/2+z
1/2+x,1/2-y,1/2+z
1/2-x,1/2+y,z
loop_
_atom_site_type_symbol
_atom_site_label
_atom_site_fract_x
_atom_site_fract_y
_atom_site_fract_z
Si Si1 0.290833 0.870516 0.124000
Si Si2 0.637970 0.626929 0.500917
Si Si3 0.171793 0.953123 0.691965
Si Si4 0.800549 0.249635 0.679342
Si Si5 0.852411 0.216896 0.993248
Si Si6 0.275007 0.051463 0.287473
Si Si7 0.551593 0.431651 0.133248
Si Si8 0.552383 0.373074 0.480280
O O1 0.248773 0.804235 0.183677
O O2 0.336633 0.806036 0.099400
O O3 0.303031 0.954010 0.246471
O O4 0.277646 0.921627 0.964795
O O5 0.652835 0.553348 0.634294
O O6 0.641102 0.588588 0.329902
O O7 0.670260 0.720630 0.526441
O O8 0.583732 0.643411 0.539229
O O9 0.171551 0.879228 0.552704
O O10 0.222485 0.974056 0.752600
O O11 0.791804 0.362892 0.677084
O O12 0.833021 0.226820 0.823279
O O13 0.908728 0.209941 0.998077
O O14 0.500000 0.411045 0.073307
O O15 0.556062 0.418564 0.313326
O O16 0.565205 0.542082 0.098187
O O17 0.500000 0.332634 0.509306
#
# Coordination Sequence:
#
# PCOD8175075 Si02
#       8
#     8   8   8   8   8   8   8   8
#     4  11  24  37  55  76 108 144 186 226 270 324
#     4  12  21  33  50  79 105 151 180 215 267 321
#     4  12  21  31  52  75 109 142 185 218 264 317
#     4  11  22  36  54  77 106 143 185 221 263 328
#     4  11  23  37  53  80 110 147 187 224 269 332
#     4  11  23  36  51  77 105 144 178 227 268 313
#     4  10  20  33  51  78 111 144 180 222 268 323
#     4  10  20  35  55  80 112 147 184 227 275 330
#
# _framework density 18.189285000000002
#
# number of rings (size 3 to 8) (size 9 to 14) (size 15 to 20)
#    0.000    1.000    6.250    1.500    1.750    1.000 
#    0.000    0.000    0.000    0.000    0.000    4.375 
#    0.000    0.000    0.000    0.000    0.000    0.000 
#
# Total GULP energy -396737.895278 kJ/mol
# GULP energy per Si atom -12398.059227 kJ/mol
# Density = 1.814789 g / cm^3
# Si number density = 18.189285 Si / 1000 Ang^3
#
#
#
# Elastic Constant Matrix: (Units=GPa)
#
#
# Indices 1 2 3 4 5 6 
#
# 1 109.2447 37.3048 16.2590 0.0000 0.0000 0.0000
# 2 37.3048 74.1900 5.6095 0.0000 0.0000 0.0000
# 3 16.2590 5.6095 28.1414 0.0000 0.0000 0.0000
# 4 0.0000 0.0000 0.0000 24.6168 0.0000 0.0000
# 5 0.0000 0.0000 0.0000 0.0000 21.4328 0.0000
# 6 0.0000 0.0000 0.0000 0.0000 0.0000 24.0131
#
#
#
# Elastic Compliance Matrix: (Units=1/GPa)
#
#
# Indices 1 2 3 4 5 6 
#
# 1 0.011909 -0.005552 -0.005774 0.000000 0.000000 0.000000
# 2 -0.005552 0.016273 -0.000036 0.000000 0.000000 0.000000
# 3 -0.005774 -0.000036 0.038878 0.000000 0.000000 0.000000
# 4 0.000000 0.000000 0.000000 0.040623 0.000000 0.000000
# 5 0.000000 0.000000 0.000000 0.000000 0.046658 0.000000
# 6 0.000000 0.000000 0.000000 0.000000 0.000000 0.041644
#
#
# Mechanical properties :
#
#
# Convention : Reuss Voigt Hill
#
# Bulk Modulus (GPa) = 22.55476 36.65806 29.60641
# Shear Modulus (GPa) = 21.41454 24.17272 22.79363
#
# Velocity S-wave (km/s) = 3.43493 3.64944 3.54380
# Velocity P-wave (km/s) = 5.30647 6.16078 5.74951
#
# Compressibility (1/GPa) = 0.04433653
#
# Stress axis : x y z
#
# Youngs Moduli (GPa) = 83.97131 61.45103 25.72153
#
# Poissons Ratio (x) = 0.34115 0.14851
# Poissons Ratio (y) = 0.46617 0.00093
# Poissons Ratio (z) = 0.48484 0.00223
#
# Static dielectric constant tensor:
#      x y z
#    x 3.632500 0.000000 0.000000 
#    y 0.000000 3.371310 0.000000 
#    z 0.000000 0.000000 3.481590 
# 
# 
# High freq. dielectric constant tensor:
#      x y z
#    x 1.698000 0.000000 0.000000 
#    y 0.000000 1.672470 0.000000 
#    z 0.000000 0.000000 1.717250 
# 
# From -- ./inp_files/6126.got.cif
#   From: 2010.03.12/outbox.cif.g09.slc.cpg/sg36_4_cif.got.tgz:6126.got - 2010.04.14 02:13:53.
