data_PCOD8175674
_publ_section_title
;
Structure prediction by ZEFSAII (Michael W. Deem and Ramdas Pophale) SiO2 
 PCOD8175674
Probable space group: C M C 21
;
_chemical_formula_sum "Si O2"
_cell_formula_units_Z 64
_cell_length_a 8.984239
_cell_length_b 23.556737
_cell_length_c 15.220322
_cell_angle_alpha 90.000000
_cell_angle_beta 90.000000
_cell_angle_gamma 90.000000
_cell_volume 3221.219135
_symmetry_space_group_name_H-M "C M C 21"
_symmetry_group_IT_number 36
_symmetry_cell_setting 'orthorhombic'
loop_
_space_group_symop_operation_xyz
x,y,z
-x,-y,1/2+z
x,-y,1/2+z
-x,y,z
1/2+x,1/2+y,z
1/2-x,1/2-y,1/2+z
1/2+x,1/2-y,1/2+z
1/2-x,1/2+y,z
loop_
_atom_site_type_symbol
_atom_site_label
_atom_site_fract_x
_atom_site_fract_y
_atom_site_fract_z
Si Si1 0.674013 0.299715 0.898650
Si Si2 0.329979 0.604837 0.745477
Si Si3 0.673188 0.607740 0.076671
Si Si4 0.169332 0.113162 0.548704
Si Si5 0.172924 0.502439 0.306001
Si Si6 0.823072 0.626668 0.252247
Si Si7 0.673747 0.680854 0.904717
Si Si8 0.172994 0.499062 0.507445
O O1 0.500000 0.299869 0.877004
O O2 0.761053 0.325670 0.816704
O O3 0.729212 0.236608 0.915733
O O4 0.710691 0.334139 0.987252
O O5 0.500000 0.591830 0.769171
O O6 0.311154 0.633038 0.649648
O O7 0.247949 0.544340 0.744366
O O8 0.266552 0.648085 0.818186
O O9 0.500000 0.604919 0.099393
O O10 0.759258 0.638914 0.155513
O O11 0.733940 0.543819 0.067404
O O12 0.705859 0.641849 0.988320
O O13 0.282492 0.063014 0.528309
O O14 0.000000 0.092499 0.531552
O O15 0.235100 0.565066 0.284547
O O16 0.208499 0.486486 0.406077
O O17 0.000000 0.501422 0.284873
O O18 0.000000 0.630854 0.251293
O O19 0.500000 0.696643 0.896357
O O20 0.000000 0.490908 0.529122
#
# Coordination Sequence:
#
# PCOD8175674 Si02
#       8
#     8   8   8   8   8   8   8   8
#     4  11  24  41  62  89 120 157 206 255 301 356
#     4  10  21  39  62  88 118 156 197 243 300 358
#     4  11  23  40  62  92 124 160 203 248 301 361
#     4  10  22  39  61  89 120 155 198 246 299 358
#     4  10  21  36  58  89 122 156 196 241 297 358
#     4  11  23  41  63  90 123 162 201 247 306 361
#     4  10  23  42  62  85 119 159 202 249 302 356
#     4  11  21  36  60  90 124 159 197 243 300 360
#
# _framework density 19.868252999999999
#
# number of rings (size 3 to 8) (size 9 to 14) (size 15 to 20)
#    0.000    1.500    2.500    2.250    0.000    7.000 
#    0.000    1.250    0.000    0.000    0.000    0.000 
#    0.000    0.000    0.000    0.000    0.000    0.000 
#
# Total GULP energy -396987.108984 kJ/mol
# GULP energy per Si atom -12405.847156 kJ/mol
# Density = 1.982303 g / cm^3
# Si number density = 19.868253 Si / 1000 Ang^3
#
#
#
# Elastic Constant Matrix: (Units=GPa)
#
#
# Indices 1 2 3 4 5 6 
#
# 1 74.8030 43.5363 51.2628 0.0000 0.0000 0.0000
# 2 43.5363 104.1177 34.5727 0.0000 0.0000 0.0000
# 3 51.2628 34.5727 92.3224 0.0000 0.0000 0.0000
# 4 0.0000 0.0000 0.0000 14.3655 0.0000 0.0000
# 5 0.0000 0.0000 0.0000 0.0000 28.0119 0.0000
# 6 0.0000 0.0000 0.0000 0.0000 0.0000 36.7467
#
#
#
# Elastic Compliance Matrix: (Units=1/GPa)
#
#
# Indices 1 2 3 4 5 6 
#
# 1 0.025100 -0.006701 -0.011428 0.000000 0.000000 0.000000
# 2 -0.006701 0.012757 -0.001057 0.000000 0.000000 0.000000
# 3 -0.011428 -0.001057 0.017573 0.000000 0.000000 0.000000
# 4 0.000000 0.000000 0.000000 0.069611 0.000000 0.000000
# 5 0.000000 0.000000 0.000000 0.000000 0.035699 0.000000
# 6 0.000000 0.000000 0.000000 0.000000 0.000000 0.027213
#
#
# Mechanical properties :
#
#
# Convention : Reuss Voigt Hill
#
# Bulk Modulus (GPa) = 58.61803 58.88742 58.75273
# Shear Modulus (GPa) = 21.55081 25.28290 23.41685
#
# Velocity S-wave (km/s) = 3.29703 3.57112 3.43681
# Velocity P-wave (km/s) = 6.63787 6.83426 6.73678
#
# Compressibility (1/GPa) = 0.01705960
#
# Stress axis : x y z
#
# Youngs Moduli (GPa) = 39.84113 78.38669 56.90700
#
# Poissons Ratio (x) = 0.52525 0.65031
# Poissons Ratio (y) = 0.26697 0.06013
# Poissons Ratio (z) = 0.45529 0.08283
#
# Static dielectric constant tensor:
#      x y z
#    x 3.567620 0.000000 0.000000 
#    y 0.000000 3.451450 0.000000 
#    z 0.000000 0.000000 3.830940 
# 
# 
# High freq. dielectric constant tensor:
#      x y z
#    x 1.775030 0.000000 0.000000 
#    y 0.000000 1.766070 0.000000 
#    z 0.000000 0.000000 1.791340 
# 
# From -- ./inp_files/10921.got.cif
#   From: 2010.03.12/outbox.cif.g09.slc.cpg/sg36_6_cif.got.tgz:10921.got - 2010.04.14 02:13:53.
