data_PCOD8175655
_publ_section_title
;
Structure prediction by ZEFSAII (Michael W. Deem and Ramdas Pophale) SiO2 
 PCOD8175655
Probable space group: C M C 21
;
_chemical_formula_sum "Si O2"
_cell_formula_units_Z 64
_cell_length_a 8.947127
_cell_length_b 15.420977
_cell_length_c 24.197362
_cell_angle_alpha 90.000000
_cell_angle_beta 90.000000
_cell_angle_gamma 90.000000
_cell_volume 3338.593266
_symmetry_space_group_name_H-M "C M C 21"
_symmetry_group_IT_number 36
_symmetry_cell_setting 'orthorhombic'
loop_
_space_group_symop_operation_xyz
x,y,z
-x,-y,1/2+z
x,-y,1/2+z
-x,y,z
1/2+x,1/2+y,z
1/2-x,1/2-y,1/2+z
1/2+x,1/2-y,1/2+z
1/2-x,1/2+y,z
loop_
_atom_site_type_symbol
_atom_site_label
_atom_site_fract_x
_atom_site_fract_y
_atom_site_fract_z
Si Si1 0.321136 0.710834 0.940960
Si Si2 0.822624 0.016360 0.933324
Si Si3 0.822804 0.125729 0.634038
Si Si4 0.173563 0.524023 0.201635
Si Si5 0.668645 0.479355 0.310397
Si Si6 0.823922 0.716898 0.206395
Si Si7 0.332385 0.276397 0.319722
Si Si8 0.322369 0.360116 0.008669
O O1 0.500000 0.717421 0.943080
O O2 0.268361 0.611767 0.952773
O O3 0.257788 0.738476 0.880005
O O4 0.248120 0.771580 0.986566
O O5 0.768413 0.994941 0.870997
O O6 0.000000 0.017480 0.932597
O O7 0.760618 0.942667 0.974347
O O8 0.765831 0.038763 0.662533
O O9 0.757286 0.210555 0.665151
O O10 0.766557 0.127897 0.571162
O O11 0.000000 0.124051 0.636368
O O12 0.220992 0.519224 0.265431
O O13 0.208538 0.622108 0.181641
O O14 0.000000 0.501084 0.196689
O O15 0.500000 0.514673 0.301315
O O16 0.668338 0.376686 0.303697
O O17 0.752222 0.726816 0.268383
O O18 0.000000 0.733540 0.212475
O O19 0.500000 0.241460 0.325470
O O20 0.500000 0.352986 0.004510
#
# Coordination Sequence:
#
# PCOD8175655 Si02
#       8
#     8   8   8   8   8   8   8   8
#     4   9  18  33  55  79 104 142 178 210 261 324
#     4   8  17  34  54  79 110 142 175 215 264 319
#     4  10  21  40  59  72 102 152 190 210 257 335
#     4  11  22  33  52  82 109 131 173 236 276 298
#     4   9  16  32  57  77 105 147 179 204 258 338
#     4   9  18  33  53  76 103 139 178 215 260 323
#     4   8  14  29  54  76 100 139 181 205 242 326
#     4  10  21  36  56  81 107 140 182 227 264 307
#
# _framework density 19.169750000000001
#
# number of rings (size 3 to 8) (size 9 to 14) (size 15 to 20)
#    0.000    2.750    1.250    1.875    1.750    1.500 
#    0.000    4.375    0.000    0.000    0.000    0.000 
#    0.000    0.000    0.000    0.000    0.000    0.000 
#
# Total GULP energy -396622.089426 kJ/mol
# GULP energy per Si atom -12394.440295 kJ/mol
# Density = 1.912612 g / cm^3
# Si number density = 19.169750 Si / 1000 Ang^3
#
#
#
# Elastic Constant Matrix: (Units=GPa)
#
#
# Indices 1 2 3 4 5 6 
#
# 1 13.2180 12.9289 17.2613 0.0000 0.0000 0.0000
# 2 12.9289 98.5282 63.3057 0.0000 0.0000 0.0000
# 3 17.2613 63.3057 135.3692 0.0000 0.0000 0.0000
# 4 0.0000 0.0000 0.0000 27.2267 0.0000 0.0000
# 5 0.0000 0.0000 0.0000 0.0000 21.0713 0.0000
# 6 0.0000 0.0000 0.0000 0.0000 0.0000 21.6401
#
#
#
# Elastic Compliance Matrix: (Units=1/GPa)
#
#
# Indices 1 2 3 4 5 6 
#
# 1 0.093679 -0.006601 -0.008858 0.000000 0.000000 0.000000
# 2 -0.006601 0.014974 -0.006161 0.000000 0.000000 0.000000
# 3 -0.008858 -0.006161 0.011398 0.000000 0.000000 0.000000
# 4 0.000000 0.000000 0.000000 0.036729 0.000000 0.000000
# 5 0.000000 0.000000 0.000000 0.000000 0.047458 0.000000
# 6 0.000000 0.000000 0.000000 0.000000 0.000000 0.046210
#
#
# Mechanical properties :
#
#
# Convention : Reuss Voigt Hill
#
# Bulk Modulus (GPa) = 13.01904 48.23412 30.62658
# Shear Modulus (GPa) = 15.65964 24.22891 19.94427
#
# Velocity S-wave (km/s) = 2.86123 3.55901 3.22903
# Velocity P-wave (km/s) = 4.20972 6.48883 5.46931
#
# Compressibility (1/GPa) = 0.07681060
#
# Stress axis : x y z
#
# Youngs Moduli (GPa) = 10.67474 66.78227 87.73524
#
# Poissons Ratio (x) = 0.44083 0.77719
# Poissons Ratio (y) = 0.07046 0.54053
# Poissons Ratio (z) = 0.09456 0.41144
#
# Static dielectric constant tensor:
#      x y z
#    x 3.021920 0.000000 0.000000 
#    y 0.000000 3.568530 0.000000 
#    z 0.000000 0.000000 3.755200 
# 
# 
# High freq. dielectric constant tensor:
#      x y z
#    x 1.696110 0.000000 0.000000 
#    y 0.000000 1.751020 0.000000 
#    z 0.000000 0.000000 1.751280 
# 
# From -- ./inp_files/16689.got.cif
#   From: 2010.03.12/outbox.cif.g09.slc.cpg/sg36_9_cif.got.tgz:16689.got - 2010.04.14 02:13:53.
