data_PCOD8175047
_publ_section_title
;
Structure prediction by ZEFSAII (Michael W. Deem and Ramdas Pophale) SiO2 
 PCOD8175047
Probable space group: C M C 21
;
_chemical_formula_sum "Si O2"
_cell_formula_units_Z 64
_cell_length_a 8.762473
_cell_length_b 31.284626
_cell_length_c 12.275290
_cell_angle_alpha 90.000000
_cell_angle_beta 90.000000
_cell_angle_gamma 90.000000
_cell_volume 3365.033726
_symmetry_space_group_name_H-M "C M C 21"
_symmetry_group_IT_number 36
_symmetry_cell_setting 'orthorhombic'
loop_
_space_group_symop_operation_xyz
x,y,z
-x,-y,1/2+z
x,-y,1/2+z
-x,y,z
1/2+x,1/2+y,z
1/2-x,1/2-y,1/2+z
1/2+x,1/2-y,1/2+z
1/2-x,1/2+y,z
loop_
_atom_site_type_symbol
_atom_site_label
_atom_site_fract_x
_atom_site_fract_y
_atom_site_fract_z
Si Si1 0.318160 0.455409 0.979500
Si Si2 0.818299 0.126276 0.869001
Si Si3 0.681731 0.375205 0.120170
Si Si4 0.680634 0.293449 0.980662
Si Si5 0.680697 0.327375 0.753413
Si Si6 0.181557 0.078524 0.254452
Si Si7 0.817787 0.049887 0.022795
Si Si8 0.181249 0.797530 0.523112
O O1 0.500000 0.454445 0.985713
O O2 0.259959 0.448840 0.856290
O O3 0.255713 0.418246 0.060626
O O4 0.253442 0.502176 0.006707
O O5 0.756242 0.126056 0.744694
O O6 0.000000 0.126178 0.868784
O O7 0.758528 0.083739 0.931990
O O8 0.758771 0.169125 0.931044
O O9 0.500000 0.376019 0.118967
O O10 0.738801 0.332856 0.055918
O O11 0.500000 0.288877 0.992683
O O12 0.761399 0.250087 0.011212
O O13 0.731930 0.299318 0.855689
O O14 0.500000 0.328656 0.744243
O O15 0.744192 0.374337 0.775512
O O16 0.749237 0.310917 0.640108
O O17 0.248659 0.062359 0.140462
O O18 0.000000 0.077466 0.248552
O O19 0.000000 0.050150 0.020842
O O20 0.000000 0.798013 0.522140
#
# Coordination Sequence:
#
# PCOD8175047 Si02
#       8
#     8   8   8   8   8   8   8   8
#     4   9  16  23  35  56  82 115 150 181 216 265
#     4   9  17  28  40  58  87 119 148 182 226 272
#     4   9  17  28  40  58  87 119 148 182 226 272
#     4  10  20  33  49  68  91 122 157 191 230 273
#     4   9  16  30  47  62  85 121 159 189 223 272
#     4   9  14  24  38  52  77 115 153 181 213 264
#     4   9  16  23  35  56  82 115 150 181 216 265
#     4  10  20  33  49  68  91 122 157 191 230 273
#
# _framework density 19.019127000000001
#
# number of rings (size 3 to 8) (size 9 to 14) (size 15 to 20)
#    0.000    2.750    2.500    0.000    3.500    0.000 
#    0.000    0.000    0.000    0.000    0.000    0.000 
#    0.000    1.000    0.000    1.500    0.000    1.000 
#
# Total GULP energy -396523.725157 kJ/mol
# GULP energy per Si atom -12391.366411 kJ/mol
# Density = 1.897584 g / cm^3
# Si number density = 19.019127 Si / 1000 Ang^3
#
#
#
# Elastic Constant Matrix: (Units=GPa)
#
#
# Indices 1 2 3 4 5 6 
#
# 1 1.5232 2.9845 5.0623 0.0000 0.0000 0.0000
# 2 2.9845 133.6883 52.3835 0.0000 0.0000 0.0000
# 3 5.0623 52.3835 155.9822 0.0000 0.0000 0.0000
# 4 0.0000 0.0000 0.0000 36.8711 0.0000 0.0000
# 5 0.0000 0.0000 0.0000 0.0000 4.0426 0.0000
# 6 0.0000 0.0000 0.0000 0.0000 0.0000 16.3045
#
#
#
# Elastic Compliance Matrix: (Units=1/GPa)
#
#
# Indices 1 2 3 4 5 6 
#
# 1 0.743640 -0.008227 -0.021372 0.000000 0.000000 0.000000
# 2 -0.008227 0.008705 -0.002656 0.000000 0.000000 0.000000
# 3 -0.021372 -0.002656 0.007997 0.000000 0.000000 0.000000
# 4 0.000000 0.000000 0.000000 0.027122 0.000000 0.000000
# 5 0.000000 0.000000 0.000000 0.000000 0.247363 0.000000
# 6 0.000000 0.000000 0.000000 0.000000 0.000000 0.061333
#
#
# Mechanical properties :
#
#
# Convention : Reuss Voigt Hill
#
# Bulk Modulus (GPa) = 1.43713 45.78382 23.61048
# Shear Modulus (GPa) = 3.59037 26.82787 15.20912
#
# Velocity S-wave (km/s) = 1.37545 3.75983 2.83092
# Velocity P-wave (km/s) = 1.81101 6.55540 4.80900
#
# Compressibility (1/GPa) = 0.69583153
#
# Stress axis : x y z
#
# Youngs Moduli (GPa) = 1.34474 114.88243 125.05252
#
# Poissons Ratio (x) = 0.94515 2.67258
# Poissons Ratio (y) = 0.01106 0.33217
# Poissons Ratio (z) = 0.02874 0.30516
#
# Static dielectric constant tensor:
#      x y z
#    x 2.617260 0.000000 0.000000 
#    y 0.000000 3.702550 0.000000 
#    z 0.000000 0.000000 3.965740 
# 
# 
# High freq. dielectric constant tensor:
#      x y z
#    x 1.645480 0.000000 0.000000 
#    y 0.000000 1.754580 0.000000 
#    z 0.000000 0.000000 1.760670 
# 
# From -- ./inp_files/8073.got.cif
#   From: 2010.03.12/outbox.cif.g09.slc.cpg/sg36_5_cif.got.tgz:8073.got - 2010.04.14 02:13:53.
