data_PCOD8175986
_publ_section_title
;
Structure prediction by ZEFSAII (Michael W. Deem and Ramdas Pophale) SiO2 
 PCOD8175986
Probable space group: C M C 21
;
_chemical_formula_sum "Si O2"
_cell_formula_units_Z 64
_cell_length_a 8.747376
_cell_length_b 20.393045
_cell_length_c 19.360752
_cell_angle_alpha 90.000000
_cell_angle_beta 90.000000
_cell_angle_gamma 90.000000
_cell_volume 3453.679989
_symmetry_space_group_name_H-M "C M C 21"
_symmetry_group_IT_number 36
_symmetry_cell_setting 'orthorhombic'
loop_
_space_group_symop_operation_xyz
x,y,z
-x,-y,1/2+z
x,-y,1/2+z
-x,y,z
1/2+x,1/2+y,z
1/2-x,1/2-y,1/2+z
1/2+x,1/2-y,1/2+z
1/2-x,1/2+y,z
loop_
_atom_site_type_symbol
_atom_site_label
_atom_site_fract_x
_atom_site_fract_y
_atom_site_fract_z
Si Si1 0.324068 0.749262 0.820880
Si Si2 0.678824 0.241584 0.170282
Si Si3 0.179441 0.609591 0.816465
Si Si4 0.820760 0.312882 0.531743
Si Si5 0.321300 0.432270 0.452180
Si Si6 0.323029 0.190480 0.462671
Si Si7 0.679416 0.611625 0.673868
Si Si8 0.821118 0.934691 0.025928
O O1 0.500000 0.725824 0.818057
O O2 0.279106 0.783063 0.747506
O O3 0.226072 0.684178 0.833668
O O4 0.296216 0.802331 0.880344
O O5 0.500000 0.246706 0.157646
O O6 0.738157 0.191216 0.111734
O O7 0.745153 0.315114 0.160175
O O8 0.239884 0.563399 0.877991
O O9 0.243227 0.583390 0.743219
O O10 0.000000 0.604320 0.814357
O O11 0.724285 0.367591 0.493612
O O12 0.786764 0.241837 0.500096
O O13 0.000000 0.329008 0.524365
O O14 0.500000 0.430187 0.438439
O O15 0.272992 0.494469 0.497930
O O16 0.500000 0.203598 0.481688
O O17 0.276042 0.117685 0.483269
O O18 0.500000 0.613128 0.687964
O O19 0.721061 0.567573 0.607374
O O20 0.000000 0.919839 0.015128
#
# Coordination Sequence:
#
# PCOD8175986 Si02
#       8
#     8   8   8   8   8   8   8   8
#     4   9  18  34  54  79 111 148 184 225 279 338
#     4   8  15  30  54  79 106 141 181 223 276 334
#     4  11  21  33  54  84 112 144 185 233 279 334
#     4  11  20  34  57  83 112 146 187 233 282 336
#     4  11  23  39  57  81 113 153 194 234 281 335
#     4  11  21  33  56  85 115 145 183 234 284 334
#     4   9  17  35  58  79 106 144 186 230 280 338
#     4  10  22  40  60  80 111 153 194 232 281 339
#
# _framework density 18.530958999999999
#
# number of rings (size 3 to 8) (size 9 to 14) (size 15 to 20)
#    0.000    2.000    2.500    3.000    0.000    2.000 
#    0.000    1.875    0.000    3.000    0.000    0.000 
#    0.000    0.000    0.000    0.000    0.000    0.000 
#
# Total GULP energy -396733.034996 kJ/mol
# GULP energy per Si atom -12397.907344 kJ/mol
# Density = 1.848878 g / cm^3
# Si number density = 18.530959 Si / 1000 Ang^3
#
#
#
# Elastic Constant Matrix: (Units=GPa)
#
#
# Indices 1 2 3 4 5 6 
#
# 1 66.5042 21.5868 44.3569 0.0000 0.0000 0.0000
# 2 21.5868 63.4480 49.0872 0.0000 0.0000 0.0000
# 3 44.3569 49.0872 168.1004 0.0000 0.0000 0.0000
# 4 0.0000 0.0000 0.0000 30.5878 0.0000 0.0000
# 5 0.0000 0.0000 0.0000 0.0000 26.0225 0.0000
# 6 0.0000 0.0000 0.0000 0.0000 0.0000 23.1426
#
#
#
# Elastic Compliance Matrix: (Units=1/GPa)
#
#
# Indices 1 2 3 4 5 6 
#
# 1 0.018768 -0.003299 -0.003989 0.000000 0.000000 0.000000
# 2 -0.003299 0.020941 -0.005244 0.000000 0.000000 0.000000
# 3 -0.003989 -0.005244 0.008533 0.000000 0.000000 0.000000
# 4 0.000000 0.000000 0.000000 0.032693 0.000000 0.000000
# 5 0.000000 0.000000 0.000000 0.000000 0.038428 0.000000
# 6 0.000000 0.000000 0.000000 0.000000 0.000000 0.043210
#
#
# Mechanical properties :
#
#
# Convention : Reuss Voigt Hill
#
# Bulk Modulus (GPa) = 43.14723 58.67938 50.91331
# Shear Modulus (GPa) = 25.59327 28.15203 26.87265
#
# Velocity S-wave (km/s) = 3.72036 3.90191 3.81221
# Velocity P-wave (km/s) = 6.46445 7.21347 6.84921
#
# Compressibility (1/GPa) = 0.02317646
#
# Stress axis : x y z
#
# Youngs Moduli (GPa) = 53.28188 47.75369 117.19498
#
# Poissons Ratio (x) = 0.15756 0.46748
# Poissons Ratio (y) = 0.17580 0.61461
# Poissons Ratio (z) = 0.21254 0.25044
#
# Static dielectric constant tensor:
#      x y z
#    x 3.267030 0.000000 0.000000 
#    y 0.000000 3.133700 0.000000 
#    z 0.000000 0.000000 3.896450 
# 
# 
# High freq. dielectric constant tensor:
#      x y z
#    x 1.710040 0.000000 0.000000 
#    y 0.000000 1.679970 0.000000 
#    z 0.000000 0.000000 1.743160 
# 
# From -- ./inp_files/15694.got.cif
#   From: 2010.03.12/outbox.cif.g09.slc.cpg/sg36_8_cif.got.tgz:15694.got - 2010.04.14 02:13:53.
