data_PCOD8175868
_publ_section_title
;
Structure prediction by ZEFSAII (Michael W. Deem and Ramdas Pophale) SiO2 
 PCOD8175868
Probable space group: C M C 21
;
_chemical_formula_sum "Si O2"
_cell_formula_units_Z 48
_cell_length_a 13.447873
_cell_length_b 29.247053
_cell_length_c 5.476247
_cell_angle_alpha 90.000000
_cell_angle_beta 90.000000
_cell_angle_gamma 90.000000
_cell_volume 2153.866291
_symmetry_space_group_name_H-M "C M C 21"
_symmetry_group_IT_number 36
_symmetry_cell_setting 'orthorhombic'
loop_
_space_group_symop_operation_xyz
x,y,z
-x,-y,1/2+z
x,-y,1/2+z
-x,y,z
1/2+x,1/2+y,z
1/2-x,1/2-y,1/2+z
1/2+x,1/2-y,1/2+z
1/2-x,1/2+y,z
loop_
_atom_site_type_symbol
_atom_site_label
_atom_site_fract_x
_atom_site_fract_y
_atom_site_fract_z
Si Si1 0.615818 0.473261 0.635650
Si Si2 0.242040 0.686504 0.179254
Si Si3 0.109989 0.154635 0.561452
Si Si4 0.233119 0.100405 0.905897
Si Si5 0.115123 0.526950 0.784303
Si Si6 0.890042 0.757412 0.393970
O O1 0.644273 0.499641 0.382344
O O2 0.500000 0.460507 0.638967
O O3 0.683724 0.427711 0.631048
O O4 0.305952 0.655732 0.359901
O O5 0.214961 0.649035 0.974539
O O6 0.141340 0.708209 0.284302
O O7 0.310654 0.729347 0.099995
O O8 0.000000 0.144470 0.453125
O O9 0.138736 0.112308 0.734864
O O10 0.108335 0.203466 0.692615
O O11 0.318772 0.072420 0.767659
O O12 0.140645 0.497552 0.542781
O O13 0.000000 0.541308 0.779922
O O14 0.000000 0.751711 0.509591
#
# Coordination Sequence:
#
# PCOD8175868 Si02
#       6
#     8   8   8   8   8   8
#     4  10  22  39  60  89 126 168 210 256 317 389
#     4  11  22  39  62  91 126 168 216 268 331 395
#     4  10  22  39  62  89 123 165 206 265 330 393
#     4  11  24  37  62  94 127 162 215 270 322 389
#     4  10  23  44  70  96 130 177 223 270 332 399
#     4  10  21  40  62  87 120 164 216 263 322 397
#
# _framework density 22.285506000000002
#
# number of rings (size 3 to 8) (size 9 to 14) (size 15 to 20)
#    0.000    1.667    1.667    2.000    4.667    2.667 
#    0.000    0.833    0.000    0.000    0.000    0.000 
#    0.000    0.000    0.000    0.000    0.000    0.000 
#
# Total GULP energy -297510.647983 kJ/mol
# GULP energy per Si atom -12396.276999 kJ/mol
# Density = 2.223478 g / cm^3
# Si number density = 22.285506 Si / 1000 Ang^3
#
#
#
# Elastic Constant Matrix: (Units=GPa)
#
#
# Indices 1 2 3 4 5 6 
#
# 1 93.0136 63.2407 20.0543 0.0000 0.0000 0.0000
# 2 63.2407 111.2186 21.6884 0.0000 0.0000 0.0000
# 3 20.0543 21.6884 81.0039 0.0000 0.0000 0.0000
# 4 0.0000 0.0000 0.0000 22.8893 0.0000 0.0000
# 5 0.0000 0.0000 0.0000 0.0000 23.6438 0.0000
# 6 0.0000 0.0000 0.0000 0.0000 0.0000 22.5332
#
#
#
# Elastic Compliance Matrix: (Units=1/GPa)
#
#
# Indices 1 2 3 4 5 6 
#
# 1 0.017769 -0.009755 -0.001787 0.000000 0.000000 0.000000
# 2 -0.009755 0.014842 -0.001559 0.000000 0.000000 0.000000
# 3 -0.001787 -0.001559 0.013205 0.000000 0.000000 0.000000
# 4 0.000000 0.000000 0.000000 0.043688 0.000000 0.000000
# 5 0.000000 0.000000 0.000000 0.000000 0.042294 0.000000
# 6 0.000000 0.000000 0.000000 0.000000 0.000000 0.044379
#
#
# Mechanical properties :
#
#
# Convention : Reuss Voigt Hill
#
# Bulk Modulus (GPa) = 50.98474 55.02254 53.00364
# Shear Modulus (GPa) = 23.93274 25.83011 24.88143
#
# Velocity S-wave (km/s) = 3.28062 3.40818 3.34501
# Velocity P-wave (km/s) = 6.10554 6.34279 6.22530
#
# Compressibility (1/GPa) = 0.01961371
#
# Stress axis : x y z
#
# Youngs Moduli (GPa) = 56.27721 67.37491 75.72942
#
# Poissons Ratio (x) = 0.65726 0.13534
# Poissons Ratio (y) = 0.54900 0.11805
# Poissons Ratio (z) = 0.10058 0.10503
#
# Static dielectric constant tensor:
#      x y z
#    x 4.124760 0.000000 0.000000 
#    y 0.000000 3.885330 0.000000 
#    z 0.000000 0.000000 3.986350 
# 
# 
# High freq. dielectric constant tensor:
#      x y z
#    x 1.878910 0.000000 0.000000 
#    y 0.000000 1.876680 0.000000 
#    z 0.000000 0.000000 1.869760 
# 
# From -- ./inp_files/820.got.cif
#   From: 2010.03.12/outbox.cif.g09.slc.cpg/sg36_1_cif.got.tgz:820.got - 2010.04.14 02:13:53.
