data_PCOD8175830
_publ_section_title
;
Structure prediction by ZEFSAII (Michael W. Deem and Ramdas Pophale) SiO2 
 PCOD8175830
Probable space group: C M C 21
;
_chemical_formula_sum "Si O2"
_cell_formula_units_Z 64
_cell_length_a 8.885335
_cell_length_b 28.582231
_cell_length_c 12.469275
_cell_angle_alpha 90.000000
_cell_angle_beta 90.000000
_cell_angle_gamma 90.000000
_cell_volume 3166.730715
_symmetry_space_group_name_H-M "C M C 21"
_symmetry_group_IT_number 36
_symmetry_cell_setting 'orthorhombic'
loop_
_space_group_symop_operation_xyz
x,y,z
-x,-y,1/2+z
x,-y,1/2+z
-x,y,z
1/2+x,1/2+y,z
1/2-x,1/2-y,1/2+z
1/2+x,1/2-y,1/2+z
1/2-x,1/2+y,z
loop_
_atom_site_type_symbol
_atom_site_label
_atom_site_fract_x
_atom_site_fract_y
_atom_site_fract_z
Si Si1 0.664907 0.158145 0.405620
Si Si2 0.823018 0.675263 0.959198
Si Si3 0.334310 0.902365 0.118518
Si Si4 0.676139 0.419616 0.787650
Si Si5 0.179039 0.738444 0.553226
Si Si6 0.824458 0.479854 0.967329
Si Si7 0.174191 0.423187 0.562659
Si Si8 0.322942 0.675391 0.732856
O O1 0.500000 0.161927 0.351170
O O2 0.652660 0.128074 0.512301
O O3 0.774665 0.132976 0.321711
O O4 0.720864 0.209287 0.444439
O O5 0.728030 0.684943 0.853036
O O6 0.000000 0.680984 0.937391
O O7 0.765599 0.712356 0.047325
O O8 0.782645 0.624139 0.002439
O O9 0.500000 0.905736 0.173604
O O10 0.276828 0.953283 0.078489
O O11 0.219715 0.878165 0.201241
O O12 0.500000 0.421802 0.794530
O O13 0.727607 0.429758 0.667994
O O14 0.738638 0.460096 0.864585
O O15 0.236603 0.712129 0.658514
O O16 0.000000 0.745332 0.562775
O O17 0.787940 0.534506 0.981213
O O18 0.000000 0.470434 0.946755
O O19 0.000000 0.424084 0.596781
O O20 0.500000 0.682649 0.720874
#
# Coordination Sequence:
#
# PCOD8175830 Si02
#       8
#     8   8   8   8   8   8   8   8
#     4   8  16  33  57  82 110 146 188 230 272 331
#     4  11  24  41  60  84 115 151 194 241 287 337
#     4   8  15  31  56  84 111 141 185 238 281 323
#     4  11  22  35  57  88 120 150 182 234 295 340
#     4  10  21  39  62  87 115 149 193 241 287 340
#     4   9  19  38  62  84 110 151 199 238 276 335
#     4  10  23  42  61  81 111 154 198 235 276 337
#     4  11  22  37  59  86 118 154 189 231 288 347
#
# _framework density 20.210117
#
# number of rings (size 3 to 8) (size 9 to 14) (size 15 to 20)
#    0.000    2.250    0.000    4.500    0.000    8.500 
#    0.000    6.250    0.000    0.000    0.000    0.000 
#    0.000    0.000    0.000    0.000    0.000    0.000 
#
# Total GULP energy -396753.352988 kJ/mol
# GULP energy per Si atom -12398.542281 kJ/mol
# Density = 2.016412 g / cm^3
# Si number density = 20.210117 Si / 1000 Ang^3
#
#
#
# Elastic Constant Matrix: (Units=GPa)
#
#
# Indices 1 2 3 4 5 6 
#
# 1 98.2943 45.0893 42.6228 0.0000 0.0000 0.0000
# 2 45.0893 135.8203 35.1540 0.0000 0.0000 0.0000
# 3 42.6228 35.1540 81.0288 0.0000 0.0000 0.0000
# 4 0.0000 0.0000 0.0000 22.0249 0.0000 0.0000
# 5 0.0000 0.0000 0.0000 0.0000 27.5802 0.0000
# 6 0.0000 0.0000 0.0000 0.0000 0.0000 23.0924
#
#
#
# Elastic Compliance Matrix: (Units=1/GPa)
#
#
# Indices 1 2 3 4 5 6 
#
# 1 0.014284 -0.003151 -0.006147 0.000000 0.000000 0.000000
# 2 -0.003151 0.008989 -0.002242 0.000000 0.000000 0.000000
# 3 -0.006147 -0.002242 0.016547 0.000000 0.000000 0.000000
# 4 0.000000 0.000000 0.000000 0.045403 0.000000 0.000000
# 5 0.000000 0.000000 0.000000 0.000000 0.036258 0.000000
# 6 0.000000 0.000000 0.000000 0.000000 0.000000 0.043304
#
#
# Mechanical properties :
#
#
# Convention : Reuss Voigt Hill
#
# Bulk Modulus (GPa) = 59.73541 62.31950 61.02745
# Shear Modulus (GPa) = 25.84687 27.35799 26.60243
#
# Velocity S-wave (km/s) = 3.58006 3.68323 3.63201
# Velocity P-wave (km/s) = 6.83451 6.99935 6.91742
#
# Compressibility (1/GPa) = 0.01674049
#
# Stress axis : x y z
#
# Youngs Moduli (GPa) = 70.00643 111.24509 60.43226
#
# Poissons Ratio (x) = 0.35055 0.37146
# Poissons Ratio (y) = 0.22060 0.13551
# Poissons Ratio (z) = 0.43031 0.24945
#
# Static dielectric constant tensor:
#      x y z
#    x 3.567450 0.000000 0.000000 
#    y 0.000000 4.197210 0.000000 
#    z 0.000000 0.000000 3.439620 
# 
# 
# High freq. dielectric constant tensor:
#      x y z
#    x 1.781290 0.000000 0.000000 
#    y 0.000000 1.795870 0.000000 
#    z 0.000000 0.000000 1.773370 
# 
# From -- ./inp_files/7222.got.cif
#   From: 2010.03.12/outbox.cif.g09.slc.cpg/sg36_4_cif.got.tgz:7222.got - 2010.04.14 02:13:53.
