data_PCOD8175275
_publ_section_title
;
Structure prediction by ZEFSAII (Michael W. Deem and Ramdas Pophale) SiO2 
 PCOD8175275
Probable space group: C M C 21
;
_chemical_formula_sum "Si O2"
_cell_formula_units_Z 64
_cell_length_a 13.231033
_cell_length_b 19.358597
_cell_length_c 13.285158
_cell_angle_alpha 90.000000
_cell_angle_beta 90.000000
_cell_angle_gamma 90.000000
_cell_volume 3402.783791
_symmetry_space_group_name_H-M "C M C 21"
_symmetry_group_IT_number 36
_symmetry_cell_setting 'orthorhombic'
loop_
_space_group_symop_operation_xyz
x,y,z
-x,-y,1/2+z
x,-y,1/2+z
-x,y,z
1/2+x,1/2+y,z
1/2-x,1/2-y,1/2+z
1/2+x,1/2-y,1/2+z
1/2-x,1/2+y,z
loop_
_atom_site_type_symbol
_atom_site_label
_atom_site_fract_x
_atom_site_fract_y
_atom_site_fract_z
Si Si1 0.882368 0.907840 0.112570
Si Si2 0.735063 0.280788 0.856420
Si Si3 0.619690 0.965815 0.557863
Si Si4 0.114130 0.237856 0.697306
Si Si5 0.222585 0.021144 0.224963
Si Si6 0.237594 0.571409 0.437810
Si Si7 0.205441 0.677199 0.032237
Si Si8 0.882237 0.841341 0.674287
O O1 0.856573 0.828157 0.130429
O O2 0.000000 0.923926 0.111014
O O3 0.828609 0.948118 0.203027
O O4 0.838062 0.931342 0.005672
O O5 0.823016 0.240037 0.799646
O O6 0.784092 0.349534 0.906067
O O7 0.647970 0.299854 0.775825
O O8 0.689406 0.229402 0.939685
O O9 0.500000 0.957936 0.568773
O O10 0.670374 0.969701 0.668090
O O11 0.669916 0.899789 0.500251
O O12 0.644140 0.036651 0.497423
O O13 0.133008 0.303629 0.626209
O O14 0.000000 0.234890 0.733697
O O15 0.242839 0.023363 0.342561
O O16 0.142199 0.078621 0.190805
O O17 0.320214 0.683065 0.075098
O O18 0.000000 0.829689 0.652572
#
# Coordination Sequence:
#
# PCOD8175275 Si02
#       8
#     8   8   8   8   8   8   8   8
#     4  10  20  35  57  86 115 146 188 238 291 347
#     4  10  21  36  58  82 115 151 188 241 292 346
#     4  10  22  38  58  84 114 154 198 237 284 343
#     4  10  21  36  57  83 112 149 192 238 288 346
#     4   9  20  37  58  80 117 148 185 243 287 341
#     4  10  21  38  59  85 114 154 191 238 291 342
#     4  10  20  37  57  80 116 151 187 244 287 340
#     4   9  19  35  56  82 109 147 191 233 290 349
#
# _framework density 18.808130999999999
#
# number of rings (size 3 to 8) (size 9 to 14) (size 15 to 20)
#    0.000    2.250    1.250    1.500    1.750    5.000 
#    0.000    0.000    0.000    0.000    0.000    0.000 
#    0.000    0.000    0.000    0.000    0.000    0.000 
#
# Total GULP energy -396774.048066 kJ/mol
# GULP energy per Si atom -12399.189002 kJ/mol
# Density = 1.876532 g / cm^3
# Si number density = 18.808131 Si / 1000 Ang^3
#
#
#
# Elastic Constant Matrix: (Units=GPa)
#
#
# Indices 1 2 3 4 5 6 
#
# 1 130.3650 51.6098 47.4504 0.0000 0.0000 0.0000
# 2 51.6098 59.3121 20.6150 0.0000 0.0000 0.0000
# 3 47.4504 20.6150 85.2381 0.0000 0.0000 0.0000
# 4 0.0000 0.0000 0.0000 33.7107 0.0000 0.0000
# 5 0.0000 0.0000 0.0000 0.0000 15.4588 0.0000
# 6 0.0000 0.0000 0.0000 0.0000 0.0000 23.6206
#
#
#
# Elastic Compliance Matrix: (Units=1/GPa)
#
#
# Indices 1 2 3 4 5 6 
#
# 1 0.013459 -0.009943 -0.005088 0.000000 0.000000 0.000000
# 2 -0.009943 0.025753 -0.000693 0.000000 0.000000 0.000000
# 3 -0.005088 -0.000693 0.014732 0.000000 0.000000 0.000000
# 4 0.000000 0.000000 0.000000 0.029664 0.000000 0.000000
# 5 0.000000 0.000000 0.000000 0.000000 0.064688 0.000000
# 6 0.000000 0.000000 0.000000 0.000000 0.000000 0.042336
#
#
# Mechanical properties :
#
#
# Convention : Reuss Voigt Hill
#
# Bulk Modulus (GPa) = 44.45305 57.14061 50.79683
# Shear Modulus (GPa) = 21.77921 24.90736 23.34329
#
# Velocity S-wave (km/s) = 3.40658 3.64302 3.52679
# Velocity P-wave (km/s) = 6.25775 6.93846 6.60688
#
# Compressibility (1/GPa) = 0.02249564
#
# Stress axis : x y z
#
# Youngs Moduli (GPa) = 74.30118 38.83114 67.88094
#
# Poissons Ratio (x) = 0.38609 0.34535
# Poissons Ratio (y) = 0.73876 0.04707
# Poissons Ratio (z) = 0.37801 0.02693
#
# Static dielectric constant tensor:
#      x y z
#    x 3.212170 0.000000 0.000000 
#    y 0.000000 3.593460 0.000000 
#    z 0.000000 0.000000 3.413760 
# 
# 
# High freq. dielectric constant tensor:
#      x y z
#    x 1.716220 0.000000 0.000000 
#    y 0.000000 1.738530 0.000000 
#    z 0.000000 0.000000 1.729030 
# 
# From -- ./inp_files/11796.got.cif
#   From: 2010.03.12/outbox.cif.g09.slc.cpg/sg36_6_cif.got.tgz:11796.got - 2010.04.14 02:13:53.
