data_PCOD8175992
_publ_section_title
;
Structure prediction by ZEFSAII (Michael W. Deem and Ramdas Pophale) SiO2 
 PCOD8175992
Probable space group: C M C 21
;
_chemical_formula_sum "Si O2"
_cell_formula_units_Z 48
_cell_length_a 27.795636
_cell_length_b 16.043721
_cell_length_c 4.905799
_cell_angle_alpha 90.000000
_cell_angle_beta 90.000000
_cell_angle_gamma 90.000000
_cell_volume 2187.718640
_symmetry_space_group_name_H-M "C M C 21"
_symmetry_group_IT_number 36
_symmetry_cell_setting 'orthorhombic'
loop_
_space_group_symop_operation_xyz
x,y,z
-x,-y,1/2+z
x,-y,1/2+z
-x,y,z
1/2+x,1/2+y,z
1/2-x,1/2-y,1/2+z
1/2+x,1/2-y,1/2+z
1/2-x,1/2+y,z
loop_
_atom_site_type_symbol
_atom_site_label
_atom_site_fract_x
_atom_site_fract_y
_atom_site_fract_z
Si Si1 0.553572 0.192376 0.794920
Si Si2 0.217736 0.157260 0.549536
Si Si3 0.122113 0.445523 0.546615
Si Si4 0.782033 0.654473 0.041089
Si Si5 0.125224 0.054631 0.661834
Si Si6 0.946264 0.197866 0.802981
O O1 0.500000 0.154228 0.748078
O O2 0.574149 0.230838 0.511062
O O3 0.587113 0.124418 0.932591
O O4 0.551144 0.269117 0.998709
O O5 0.197436 0.251681 0.580119
O O6 0.237238 0.136677 0.246159
O O7 0.177649 0.095772 0.665708
O O8 0.264281 0.145919 0.734313
O O9 0.112536 0.526250 0.356222
O O10 0.176401 0.413213 0.559910
O O11 0.086608 0.117262 0.787081
O O12 0.119229 0.027381 0.348517
O O13 0.000000 0.172769 0.904376
#
# Coordination Sequence:
#
# PCOD8175992 Si02
#       6
#     8   8   8   8   8   8
#     4  10  22  42  66  89 119 163 210 252 298 364
#     4  10  22  40  61  84 115 161 211 253 297 361
#     4  12  25  38  60  93 126 158 194 251 316 366
#     4  10  22  40  61  84 115 161 211 253 297 361
#     4  12  25  38  60  93 126 158 194 251 316 366
#     4  10  22  42  66  89 119 163 210 252 298 364
#
# _framework density 21.940664999999999
#
# number of rings (size 3 to 8) (size 9 to 14) (size 15 to 20)
#    0.000    1.333    0.000    5.000    0.000    9.333 
#    0.000    0.000    0.000    0.000    0.000    0.000 
#    0.000    0.000    0.000    0.000    0.000    0.000 
#
# Total GULP energy -297515.020528 kJ/mol
# GULP energy per Si atom -12396.459189 kJ/mol
# Density = 2.189073 g / cm^3
# Si number density = 21.940665 Si / 1000 Ang^3
#
#
#
# Elastic Constant Matrix: (Units=GPa)
#
#
# Indices 1 2 3 4 5 6 
#
# 1 84.2277 44.7750 12.2899 0.0000 0.0000 0.0000
# 2 44.7750 75.8876 13.0064 0.0000 0.0000 0.0000
# 3 12.2899 13.0064 92.3673 0.0000 0.0000 0.0000
# 4 0.0000 0.0000 0.0000 47.1073 0.0000 0.0000
# 5 0.0000 0.0000 0.0000 0.0000 19.8818 0.0000
# 6 0.0000 0.0000 0.0000 0.0000 0.0000 -99.8432
#
#
#
# Elastic Compliance Matrix: (Units=1/GPa)
#
#
# Indices 1 2 3 4 5 6 
#
# 1 0.017369 -0.010096 -0.000889 0.000000 0.000000 0.000000
# 2 -0.010096 0.019371 -0.001384 0.000000 0.000000 0.000000
# 3 -0.000889 -0.001384 0.011140 0.000000 0.000000 0.000000
# 4 0.000000 0.000000 0.000000 0.021228 0.000000 0.000000
# 5 0.000000 0.000000 0.000000 0.000000 0.050297 0.000000
# 6 0.000000 0.000000 0.000000 0.000000 0.000000 -0.010016
#
#
# Mechanical properties :
#
#
# Convention : Reuss Voigt Hill
#
# Bulk Modulus (GPa) = 43.21341 43.62503 43.41922
# Shear Modulus (GPa) = 35.25035 5.58993 20.42014
#
# Velocity S-wave (km/s) = 4.01262 1.59790 3.05404
# Velocity P-wave (km/s) = 6.41923 4.83019 5.68055
#
# Compressibility (1/GPa) = 0.02314097
#
# Stress axis : x y z
#
# Youngs Moduli (GPa) = 57.57321 51.62280 89.76953
#
# Poissons Ratio (x) = 0.52117 0.07985
# Poissons Ratio (y) = 0.58124 0.12428
# Poissons Ratio (z) = 0.05121 0.07147
#
# Static dielectric constant tensor:
#      x y z
#    x 3.873890 0.000000 0.000000 
#    y 0.000000 3.974780 0.000000 
#    z 0.000000 0.000000 4.184330 
# 
# 
# High freq. dielectric constant tensor:
#      x y z
#    x 1.855250 0.000000 0.000000 
#    y 0.000000 1.857830 0.000000 
#    z 0.000000 0.000000 1.883470 
# 
# From -- ./inp_files/1727.got.cif
#   From: 2010.03.12/outbox.cif.g09.slc.cpg/sg36_1_cif.got.tgz:1727.got - 2010.04.14 02:13:53.
