data_PCOD8175296
_publ_section_title
;
Structure prediction by ZEFSAII (Michael W. Deem and Ramdas Pophale) SiO2 
 PCOD8175296
Probable space group: C M C 21
;
_chemical_formula_sum "Si O2"
_cell_formula_units_Z 48
_cell_length_a 17.369842
_cell_length_b 24.352583
_cell_length_c 4.952316
_cell_angle_alpha 90.000000
_cell_angle_beta 90.000000
_cell_angle_gamma 90.000000
_cell_volume 2094.832238
_symmetry_space_group_name_H-M "C M C 21"
_symmetry_group_IT_number 36
_symmetry_cell_setting 'orthorhombic'
loop_
_space_group_symop_operation_xyz
x,y,z
-x,-y,1/2+z
x,-y,1/2+z
-x,y,z
1/2+x,1/2+y,z
1/2-x,1/2-y,1/2+z
1/2+x,1/2-y,1/2+z
1/2-x,1/2+y,z
loop_
_atom_site_type_symbol
_atom_site_label
_atom_site_fract_x
_atom_site_fract_y
_atom_site_fract_z
Si Si1 0.085189 0.907696 0.386200
Si Si2 0.304723 0.877255 0.729536
Si Si3 0.800596 0.258752 0.575220
Si Si4 0.909857 0.463881 0.985558
Si Si5 0.261447 0.465449 0.368749
Si Si6 0.361918 0.652482 0.384401
O O1 0.147350 0.956244 0.416551
O O2 0.103302 0.857497 0.589372
O O3 0.000000 0.932068 0.437523
O O4 0.087760 0.882981 0.087988
O O5 0.337887 0.818552 0.630318
O O6 0.367700 0.906996 0.916276
O O7 0.285744 0.912207 0.460096
O O8 0.227089 0.867399 0.903337
O O9 0.767150 0.234012 0.854229
O O10 0.865117 0.217119 0.458920
O O11 0.886876 0.485943 0.283238
O O12 0.000000 0.451526 0.962285
O O13 0.241047 0.518853 0.557514
#
# Coordination Sequence:
#
# PCOD8175296 Si02
#       6
#     8   8   8   8   8   8
#     4  11  23  40  59  81 118 159 192 234 288 338
#     4  10  21  37  62  86 114 150 191 237 286 341
#     4  10  20  35  58  87 116 144 184 240 291 334
#     4  10  22  39  58  83 117 153 188 232 288 343
#     4  11  22  35  54  83 112 144 192 238 276 329
#     4  10  21  38  59  88 114 148 197 237 282 339
#
# _framework density 22.913530000000002
#
# number of rings (size 3 to 8) (size 9 to 14) (size 15 to 20)
#    0.000    1.667    0.000    6.500    0.000    7.333 
#    0.000    1.667    0.000    2.000    0.000    0.000 
#    0.000    0.000    0.000    0.000    0.000    0.000 
#
# Total GULP energy -297667.830449 kJ/mol
# GULP energy per Si atom -12402.826269 kJ/mol
# Density = 2.286138 g / cm^3
# Si number density = 22.913530 Si / 1000 Ang^3
#
#
#
# Elastic Constant Matrix: (Units=GPa)
#
#
# Indices 1 2 3 4 5 6 
#
# 1 58.7914 10.7857 13.4666 0.0000 0.0000 0.0000
# 2 10.7857 119.4762 30.9694 0.0000 0.0000 0.0000
# 3 13.4666 30.9694 108.8499 0.0000 0.0000 0.0000
# 4 0.0000 0.0000 0.0000 33.9287 0.0000 0.0000
# 5 0.0000 0.0000 0.0000 0.0000 26.7011 0.0000
# 6 0.0000 0.0000 0.0000 0.0000 0.0000 25.0793
#
#
#
# Elastic Compliance Matrix: (Units=1/GPa)
#
#
# Indices 1 2 3 4 5 6 
#
# 1 0.017640 -0.001109 -0.001867 0.000000 0.000000 0.000000
# 2 -0.001109 0.009106 -0.002454 0.000000 0.000000 0.000000
# 3 -0.001867 -0.002454 0.010116 0.000000 0.000000 0.000000
# 4 0.000000 0.000000 0.000000 0.029474 0.000000 0.000000
# 5 0.000000 0.000000 0.000000 0.000000 0.037452 0.000000
# 6 0.000000 0.000000 0.000000 0.000000 0.000000 0.039873
#
#
# Mechanical properties :
#
#
# Convention : Reuss Voigt Hill
#
# Bulk Modulus (GPa) = 38.45570 44.17344 41.31457
# Shear Modulus (GPa) = 30.63963 32.60154 31.62058
#
# Velocity S-wave (km/s) = 3.66072 3.77610 3.71886
# Velocity P-wave (km/s) = 5.88959 6.19129 6.04232
#
# Compressibility (1/GPa) = 0.02600395
#
# Stress axis : x y z
#
# Youngs Moduli (GPa) = 56.68831 109.81838 98.85287
#
# Poissons Ratio (x) = 0.12174 0.18456
# Poissons Ratio (y) = 0.06284 0.24255
# Poissons Ratio (z) = 0.10584 0.26945
#
# Static dielectric constant tensor:
#      x y z
#    x 4.113370 0.000000 0.000000 
#    y 0.000000 4.141470 0.000000 
#    z 0.000000 0.000000 4.249620 
# 
# 
# High freq. dielectric constant tensor:
#      x y z
#    x 1.884730 0.000000 0.000000 
#    y 0.000000 1.895860 0.000000 
#    z 0.000000 0.000000 1.924720 
# 
# From -- ./inp_files/1126.got.cif
#   From: 2010.03.12/outbox.cif.g09.slc.cpg/sg36_1_cif.got.tgz:1126.got - 2010.04.14 02:13:53.
