data_PCOD8175932
_publ_section_title
;
Structure prediction by ZEFSAII (Michael W. Deem and Ramdas Pophale) SiO2 
 PCOD8175932
Probable space group: C M C 21
;
_chemical_formula_sum "Si O2"
_cell_formula_units_Z 48
_cell_length_a 16.202647
_cell_length_b 13.642924
_cell_length_c 9.690818
_cell_angle_alpha 90.000000
_cell_angle_beta 90.000000
_cell_angle_gamma 90.000000
_cell_volume 2142.169677
_symmetry_space_group_name_H-M "C M C 21"
_symmetry_group_IT_number 36
_symmetry_cell_setting 'orthorhombic'
loop_
_space_group_symop_operation_xyz
x,y,z
-x,-y,1/2+z
x,-y,1/2+z
-x,y,z
1/2+x,1/2+y,z
1/2-x,1/2-y,1/2+z
1/2+x,1/2-y,1/2+z
1/2-x,1/2+y,z
loop_
_atom_site_type_symbol
_atom_site_label
_atom_site_fract_x
_atom_site_fract_y
_atom_site_fract_z
Si Si1 0.168775 0.632597 0.171710
Si Si2 0.904093 0.059715 0.363824
Si Si3 0.904801 0.275234 0.412937
Si Si4 0.595519 0.076304 0.689174
Si Si5 0.150494 0.098432 0.068254
Si Si6 0.907162 0.293297 0.933718
O O1 0.146481 0.522045 0.209298
O O2 0.259403 0.636727 0.108713
O O3 0.159013 0.698306 0.309846
O O4 0.105803 0.677019 0.061539
O O5 0.867083 0.165935 0.406678
O O6 0.893387 0.047591 0.199306
O O7 0.000000 0.044933 0.403766
O O8 0.848682 0.980349 0.444407
O O9 0.865505 0.344901 0.295684
O O10 0.000000 0.262826 0.376036
O O11 0.500000 0.055216 0.724258
O O12 0.606948 0.114958 0.534622
O O13 0.100597 0.192956 0.018190
O O14 0.000000 0.297795 0.873044
#
# Coordination Sequence:
#
# PCOD8175932 Si02
#       6
#     8   8   8   8   8   8
#     4  12  27  40  69 105 147 176 232 294 366 421
#     4  11  25  50  73  98 137 187 241 292 350 426
#     4  10  22  43  71 100 137 186 238 290 351 430
#     4  10  21  42  71  99 139 183 233 288 351 433
#     4  12  29  44  74 104 143 184 241 300 355 415
#     4  11  24  47  74 102 141 190 237 286 353 437
#
# _framework density 22.407188999999999
#
# number of rings (size 3 to 8) (size 9 to 14) (size 15 to 20)
#    0.000    1.000    1.667    4.000    9.333    2.667 
#    0.000    0.000    0.000    0.000    0.000    0.000 
#    0.000    0.000    0.000    0.000    0.000    0.000 
#
# Total GULP energy -297717.239518 kJ/mol
# GULP energy per Si atom -12404.884980 kJ/mol
# Density = 2.235619 g / cm^3
# Si number density = 22.407189 Si / 1000 Ang^3
#
#
#
# Elastic Constant Matrix: (Units=GPa)
#
#
# Indices 1 2 3 4 5 6 
#
# 1 59.0360 19.3723 33.2919 0.0000 0.0000 0.0000
# 2 19.3723 102.2304 41.4714 0.0000 0.0000 0.0000
# 3 33.2919 41.4714 137.1214 0.0000 0.0000 0.0000
# 4 0.0000 0.0000 0.0000 50.5395 0.0000 0.0000
# 5 0.0000 0.0000 0.0000 0.0000 34.6090 0.0000
# 6 0.0000 0.0000 0.0000 0.0000 0.0000 20.5593
#
#
#
# Elastic Compliance Matrix: (Units=1/GPa)
#
#
# Indices 1 2 3 4 5 6 
#
# 1 0.020005 -0.002075 -0.004229 0.000000 0.000000 0.000000
# 2 -0.002075 0.011365 -0.002933 0.000000 0.000000 0.000000
# 3 -0.004229 -0.002933 0.009207 0.000000 0.000000 0.000000
# 4 0.000000 0.000000 0.000000 0.019787 0.000000 0.000000
# 5 0.000000 0.000000 0.000000 0.000000 0.028894 0.000000
# 6 0.000000 0.000000 0.000000 0.000000 0.000000 0.048640
#
#
# Mechanical properties :
#
#
# Convention : Reuss Voigt Hill
#
# Bulk Modulus (GPa) = 45.24722 54.07322 49.66022
# Shear Modulus (GPa) = 30.53620 34.75838 32.64729
#
# Velocity S-wave (km/s) = 3.69560 3.94282 3.82121
# Velocity P-wave (km/s) = 6.20056 6.70166 6.45597
#
# Compressibility (1/GPa) = 0.02210080
#
# Stress axis : x y z
#
# Youngs Moduli (GPa) = 49.98796 87.98903 108.61459
#
# Poissons Ratio (x) = 0.18259 0.45937
# Poissons Ratio (y) = 0.10373 0.31862
# Poissons Ratio (z) = 0.21142 0.25811
#
# Static dielectric constant tensor:
#      x y z
#    x 3.776740 0.000000 0.000000 
#    y 0.000000 4.081540 0.000000 
#    z 0.000000 0.000000 4.079750 
# 
# 
# High freq. dielectric constant tensor:
#      x y z
#    x 1.867050 0.000000 0.000000 
#    y 0.000000 1.891180 0.000000 
#    z 0.000000 0.000000 1.893240 
# 
# From -- ./inp_files/4653.got.cif
#   From: 2010.03.12/outbox.cif.g09.slc.cpg/sg36_3_cif.got.tgz:4653.got - 2010.04.14 02:13:53.
