data_PCOD8175116
_publ_section_title
;
Structure prediction by ZEFSAII (Michael W. Deem and Ramdas Pophale) SiO2 
 PCOD8175116
Probable space group: C M C 21
;
_chemical_formula_sum "Si O2"
_cell_formula_units_Z 48
_cell_length_a 20.254766
_cell_length_b 13.637861
_cell_length_c 9.227151
_cell_angle_alpha 90.000000
_cell_angle_beta 90.000000
_cell_angle_gamma 90.000000
_cell_volume 2548.831453
_symmetry_space_group_name_H-M "C M C 21"
_symmetry_group_IT_number 36
_symmetry_cell_setting 'orthorhombic'
loop_
_space_group_symop_operation_xyz
x,y,z
-x,-y,1/2+z
x,-y,1/2+z
-x,y,z
1/2+x,1/2+y,z
1/2-x,1/2-y,1/2+z
1/2+x,1/2-y,1/2+z
1/2-x,1/2+y,z
loop_
_atom_site_type_symbol
_atom_site_label
_atom_site_fract_x
_atom_site_fract_y
_atom_site_fract_z
Si Si1 0.290616 0.201713 0.194460
Si Si2 0.802613 0.154595 0.447061
Si Si3 0.925872 0.731188 0.878156
Si Si4 0.927608 0.633620 0.182674
Si Si5 0.866861 0.567143 0.712895
Si Si6 0.718312 0.018768 0.985436
O O1 0.241626 0.210422 0.328109
O O2 0.365812 0.189715 0.256253
O O3 0.271264 0.108342 0.095166
O O4 0.284961 0.300835 0.103554
O O5 0.879204 0.174721 0.407221
O O6 0.787368 0.038233 0.452478
O O7 0.903078 0.671458 0.734972
O O8 0.000000 0.771338 0.858014
O O9 0.920565 0.653224 0.009921
O O10 0.922065 0.518329 0.215800
O O11 0.000000 0.670288 0.237386
O O12 0.830756 0.562134 0.557273
O O13 0.810863 0.554300 0.834682
#
# Coordination Sequence:
#
# PCOD8175116 Si02
#       6
#     8   8   8   8   8   8
#     4  10  21  34  52  80 107 142 182 223 266 321
#     4  11  20  35  56  76 111 142 179 230 263 318
#     4  10  20  34  52  78 108 143 181 219 273 324
#     4   9  17  30  48  73 108 141 167 208 265 325
#     4  11  17  34  50  78 110 139 175 212 265 325
#     4  11  20  33  54  81 109 141 182 218 269 317
#
# _framework density 18.832159999999998
#
# number of rings (size 3 to 8) (size 9 to 14) (size 15 to 20)
#    0.000    1.667    8.333    1.500    0.000    0.000 
#    0.000    0.000    0.000    1.000    0.000    0.000 
#    0.000    0.000    0.000    0.000    0.000    0.000 
#
# Total GULP energy -297443.507738 kJ/mol
# GULP energy per Si atom -12393.479489 kJ/mol
# Density = 1.878930 g / cm^3
# Si number density = 18.832160 Si / 1000 Ang^3
#
#
#
# Elastic Constant Matrix: (Units=GPa)
#
#
# Indices 1 2 3 4 5 6 
#
# 1 118.6731 36.9287 12.4770 0.0000 0.0000 0.0000
# 2 36.9287 40.9506 -5.4682 0.0000 0.0000 0.0000
# 3 12.4770 -5.4682 33.8560 0.0000 0.0000 0.0000
# 4 0.0000 0.0000 0.0000 22.6450 0.0000 0.0000
# 5 0.0000 0.0000 0.0000 0.0000 19.1850 0.0000
# 6 0.0000 0.0000 0.0000 0.0000 0.0000 28.7309
#
#
#
# Elastic Compliance Matrix: (Units=1/GPa)
#
#
# Indices 1 2 3 4 5 6 
#
# 1 0.013119 -0.012752 -0.006894 0.000000 0.000000 0.000000
# 2 -0.012752 0.037352 0.010732 0.000000 0.000000 0.000000
# 3 -0.006894 0.010732 0.033811 0.000000 0.000000 0.000000
# 4 0.000000 0.000000 0.000000 0.044160 0.000000 0.000000
# 5 0.000000 0.000000 0.000000 0.000000 0.052124 0.000000
# 6 0.000000 0.000000 0.000000 0.000000 0.000000 0.034806
#
#
# Mechanical properties :
#
#
# Convention : Reuss Voigt Hill
#
# Bulk Modulus (GPa) = 15.04778 31.26161 23.15470
# Shear Modulus (GPa) = 19.58086 24.08167 21.83126
#
# Velocity S-wave (km/s) = 3.22802 3.57984 3.40848
# Velocity P-wave (km/s) = 4.67989 5.80717 5.27373
#
# Compressibility (1/GPa) = 0.06645497
#
# Stress axis : x y z
#
# Youngs Moduli (GPa) = 76.22286 26.77231 29.57605
#
# Poissons Ratio (x) = 0.34139 0.20391
# Poissons Ratio (y) = 0.97196 -0.31742
# Poissons Ratio (z) = 0.52552 -0.28733
#
# Static dielectric constant tensor:
#      x y z
#    x 3.589280 0.000000 0.000000 
#    y 0.000000 3.181910 0.000000 
#    z 0.000000 0.000000 3.495280 
# 
# 
# High freq. dielectric constant tensor:
#      x y z
#    x 1.724640 0.000000 0.000000 
#    y 0.000000 1.695200 0.000000 
#    z 0.000000 0.000000 1.724100 
# 
# From -- ./inp_files/5122.got.cif
#   From: 2010.03.12/outbox.cif.g09.slc.cpg/sg36_3_cif.got.tgz:5122.got - 2010.04.14 02:13:53.
