data_PCOD8175984
_publ_section_title
;
Structure prediction by ZEFSAII (Michael W. Deem and Ramdas Pophale) SiO2 
 PCOD8175984
Probable space group: C M C 21
;
_chemical_formula_sum "Si O2"
_cell_formula_units_Z 64
_cell_length_a 14.067485
_cell_length_b 11.857961
_cell_length_c 19.310280
_cell_angle_alpha 90.000000
_cell_angle_beta 90.000000
_cell_angle_gamma 90.000000
_cell_volume 3221.180412
_symmetry_space_group_name_H-M "C M C 21"
_symmetry_group_IT_number 36
_symmetry_cell_setting 'orthorhombic'
loop_
_space_group_symop_operation_xyz
x,y,z
-x,-y,1/2+z
x,-y,1/2+z
-x,y,z
1/2+x,1/2+y,z
1/2-x,1/2-y,1/2+z
1/2+x,1/2-y,1/2+z
1/2-x,1/2+y,z
loop_
_atom_site_type_symbol
_atom_site_label
_atom_site_fract_x
_atom_site_fract_y
_atom_site_fract_z
Si Si1 0.290333 0.195425 0.533210
Si Si2 0.607479 0.258072 0.808135
Si Si3 0.611265 0.666675 0.153999
Si Si4 0.106037 0.239682 0.597123
Si Si5 0.390429 0.432775 0.207450
Si Si6 0.392391 0.489289 0.354441
Si Si7 0.391572 0.961020 0.528444
Si Si8 0.738561 0.150586 0.917512
O O1 0.328480 0.281321 0.591480
O O2 0.178083 0.176867 0.545767
O O3 0.295680 0.246691 0.455584
O O4 0.343790 0.079238 0.543908
O O5 0.500000 0.208614 0.816818
O O6 0.631065 0.267838 0.726387
O O7 0.611465 0.377484 0.846516
O O8 0.688281 0.183018 0.845068
O O9 0.500000 0.673821 0.134565
O O10 0.649420 0.537484 0.161766
O O11 0.125995 0.190210 0.673798
O O12 0.116760 0.376293 0.594952
O O13 0.000000 0.204674 0.573000
O O14 0.500000 0.465728 0.217000
O O15 0.350819 0.429503 0.284975
O O16 0.500000 0.450317 0.373203
O O17 0.317740 0.447150 0.411341
O O18 0.500000 0.985772 0.509364
O O19 0.345185 0.896805 0.464698
#
# Coordination Sequence:
#
# PCOD8175984 Si02
#       8
#     8   8   8   8   8   8   8   8
#     4  11  23  35  58  85 120 150 192 234 291 346
#     4   9  19  39  62  81 108 149 196 239 280 338
#     4   9  19  36  60  89 114 145 189 244 294 334
#     4   9  20  36  56  81 111 147 185 227 279 338
#     4   8  16  34  59  83 111 141 181 236 287 330
#     4   9  19  36  58  84 113 144 182 236 292 337
#     4  10  22  40  56  77 117 156 187 232 286 338
#     4  11  22  36  56  86 112 152 197 232 282 349
#
# _framework density 19.868493000000001
#
# number of rings (size 3 to 8) (size 9 to 14) (size 15 to 20)
#    0.000    2.500    0.000    3.000    5.250    1.500 
#    0.000    0.625    2.750    0.000    0.000    0.000 
#    0.000    0.000    0.000    0.000    0.000    0.000 
#
# Total GULP energy -396501.847375 kJ/mol
# GULP energy per Si atom -12390.682730 kJ/mol
# Density = 1.982327 g / cm^3
# Si number density = 19.868493 Si / 1000 Ang^3
#
#
#
# Elastic Constant Matrix: (Units=GPa)
#
#
# Indices 1 2 3 4 5 6 
#
# 1 97.4240 35.4770 19.4731 0.0000 0.0000 0.0000
# 2 35.4770 69.6687 9.8808 0.0000 0.0000 0.0000
# 3 19.4731 9.8808 45.3574 0.0000 0.0000 0.0000
# 4 0.0000 0.0000 0.0000 32.2230 0.0000 0.0000
# 5 0.0000 0.0000 0.0000 0.0000 23.2848 0.0000
# 6 0.0000 0.0000 0.0000 0.0000 0.0000 31.2771
#
#
#
# Elastic Compliance Matrix: (Units=1/GPa)
#
#
# Indices 1 2 3 4 5 6 
#
# 1 0.013402 -0.006200 -0.004403 0.000000 0.000000 0.000000
# 2 -0.006200 0.017680 -0.001189 0.000000 0.000000 0.000000
# 3 -0.004403 -0.001189 0.024197 0.000000 0.000000 0.000000
# 4 0.000000 0.000000 0.000000 0.031034 0.000000 0.000000
# 5 0.000000 0.000000 0.000000 0.000000 0.042946 0.000000
# 6 0.000000 0.000000 0.000000 0.000000 0.000000 0.031972
#
#
# Mechanical properties :
#
#
# Convention : Reuss Voigt Hill
#
# Bulk Modulus (GPa) = 31.55305 38.01242 34.78273
# Shear Modulus (GPa) = 25.59095 27.19827 26.39461
#
# Velocity S-wave (km/s) = 3.59279 3.70390 3.64877
# Velocity P-wave (km/s) = 5.75554 6.12090 5.94103
#
# Compressibility (1/GPa) = 0.03169266
#
# Stress axis : x y z
#
# Youngs Moduli (GPa) = 74.61351 56.56203 41.32795
#
# Poissons Ratio (x) = 0.35070 0.18198
# Poissons Ratio (y) = 0.46263 0.04916
# Poissons Ratio (z) = 0.32855 0.06728
#
# Static dielectric constant tensor:
#      x y z
#    x 3.685920 0.000000 0.000000 
#    y 0.000000 3.503540 0.000000 
#    z 0.000000 0.000000 3.548720 
# 
# 
# High freq. dielectric constant tensor:
#      x y z
#    x 1.781240 0.000000 0.000000 
#    y 0.000000 1.762160 0.000000 
#    z 0.000000 0.000000 1.761850 
# 
# From -- ./inp_files/14733.got.cif
#   From: 2010.03.12/outbox.cif.g09.slc.cpg/sg36_8_cif.got.tgz:14733.got - 2010.04.14 02:13:53.
