data_PCOD8175918
_publ_section_title
;
Structure prediction by ZEFSAII (Michael W. Deem and Ramdas Pophale) SiO2 
 PCOD8175918
Probable space group: C M C 21
;
_chemical_formula_sum "Si O2"
_cell_formula_units_Z 64
_cell_length_a 8.749001
_cell_length_b 23.783488
_cell_length_c 15.124628
_cell_angle_alpha 90.000000
_cell_angle_beta 90.000000
_cell_angle_gamma 90.000000
_cell_volume 3147.159218
_symmetry_space_group_name_H-M "C M C 21"
_symmetry_group_IT_number 36
_symmetry_cell_setting 'orthorhombic'
loop_
_space_group_symop_operation_xyz
x,y,z
-x,-y,1/2+z
x,-y,1/2+z
-x,y,z
1/2+x,1/2+y,z
1/2-x,1/2-y,1/2+z
1/2+x,1/2-y,1/2+z
1/2-x,1/2+y,z
loop_
_atom_site_type_symbol
_atom_site_label
_atom_site_fract_x
_atom_site_fract_y
_atom_site_fract_z
Si Si1 0.822021 0.499240 0.609140
Si Si2 0.829573 0.114253 0.863567
Si Si3 0.168894 0.887563 0.565250
Si Si4 0.178336 0.234988 0.113212
Si Si5 0.821535 0.496491 0.309433
Si Si6 0.179881 0.202904 0.448696
Si Si7 0.179484 0.927351 0.956147
Si Si8 0.679169 0.267742 0.291695
O O1 0.793922 0.435301 0.580086
O O2 0.759359 0.504771 0.709027
O O3 0.739077 0.542870 0.544801
O O4 0.000000 0.512761 0.603453
O O5 0.771366 0.168397 0.811061
O O6 0.000000 0.095725 0.832663
O O7 0.711730 0.063827 0.851323
O O8 0.831806 0.132352 0.964733
O O9 0.209481 0.831747 0.619547
O O10 0.000000 0.910492 0.591599
O O11 0.280572 0.261023 0.189664
O O12 0.000000 0.248413 0.127120
O O13 0.230011 0.260928 0.020509
O O14 0.743325 0.545188 0.366596
O O15 0.000000 0.508935 0.311437
O O16 0.227076 0.137734 0.458199
O O17 0.226765 0.224009 0.351426
O O18 0.000000 0.211082 0.462157
O O19 0.000000 0.935719 0.953919
O O20 0.500000 0.258480 0.308924
#
# Coordination Sequence:
#
# PCOD8175918 Si02
#       8
#     8   8   8   8   8   8   8   8
#     4  11  25  42  63  95 127 161 207 260 316 368
#     4  10  21  41  66  91 122 164 208 253 311 373
#     4  10  21  41  66  91 122 164 208 253 311 373
#     4  11  24  43  66  95 129 168 211 260 316 375
#     4  11  25  42  63  95 127 161 207 260 316 368
#     4  11  25  44  65  94 127 168 216 259 314 379
#     4  11  25  44  65  90 125 170 212 255 312 379
#     4  11  24  43  66  95 129 168 211 260 316 375
#
# _framework density 20.335799999999999
#
# number of rings (size 3 to 8) (size 9 to 14) (size 15 to 20)
#    0.000    1.250    2.500    2.250    3.500    6.000 
#    0.000    0.000    0.000    0.000    0.000    0.000 
#    0.000    0.000    0.000    0.000    0.000    0.000 
#
# Total GULP energy -396924.296696 kJ/mol
# GULP energy per Si atom -12403.884272 kJ/mol
# Density = 2.028951 g / cm^3
# Si number density = 20.335800 Si / 1000 Ang^3
#
#
#
# Elastic Constant Matrix: (Units=GPa)
#
#
# Indices 1 2 3 4 5 6 
#
# 1 62.1192 36.5894 23.2208 0.0000 0.0000 0.0000
# 2 36.5894 98.2191 16.5914 0.0000 0.0000 0.0000
# 3 23.2208 16.5914 83.2771 0.0000 0.0000 0.0000
# 4 0.0000 0.0000 0.0000 34.3361 0.0000 0.0000
# 5 0.0000 0.0000 0.0000 0.0000 34.5102 0.0000
# 6 0.0000 0.0000 0.0000 0.0000 0.0000 27.0687
#
#
#
# Elastic Compliance Matrix: (Units=1/GPa)
#
#
# Indices 1 2 3 4 5 6 
#
# 1 0.022281 -0.007503 -0.004718 0.000000 0.000000 0.000000
# 2 -0.007503 0.013063 -0.000510 0.000000 0.000000 0.000000
# 3 -0.004718 -0.000510 0.013425 0.000000 0.000000 0.000000
# 4 0.000000 0.000000 0.000000 0.029124 0.000000 0.000000
# 5 0.000000 0.000000 0.000000 0.000000 0.028977 0.000000
# 6 0.000000 0.000000 0.000000 0.000000 0.000000 0.036943
#
#
# Mechanical properties :
#
#
# Convention : Reuss Voigt Hill
#
# Bulk Modulus (GPa) = 42.90726 44.04649 43.47687
# Shear Modulus (GPa) = 28.24134 30.33059 29.28597
#
# Velocity S-wave (km/s) = 3.73064 3.86617 3.79901
# Velocity P-wave (km/s) = 6.30096 6.45262 6.37724
#
# Compressibility (1/GPa) = 0.02330608
#
# Stress axis : x y z
#
# Youngs Moduli (GPa) = 44.88050 76.55339 74.48619
#
# Poissons Ratio (x) = 0.57442 0.35142
# Poissons Ratio (y) = 0.33676 0.03801
# Poissons Ratio (z) = 0.21174 0.03906
#
# Static dielectric constant tensor:
#      x y z
#    x 3.660110 0.000000 0.000000 
#    y 0.000000 3.679970 0.000000 
#    z 0.000000 0.000000 3.829820 
# 
# 
# High freq. dielectric constant tensor:
#      x y z
#    x 1.798370 0.000000 0.000000 
#    y 0.000000 1.802690 0.000000 
#    z 0.000000 0.000000 1.804220 
# 
# From -- ./inp_files/11062.got.cif
#   From: 2010.03.12/outbox.cif.g09.slc.cpg/sg36_6_cif.got.tgz:11062.got - 2010.04.14 02:13:53.
