data_PCOD8175069
_publ_section_title
;
Structure prediction by ZEFSAII (Michael W. Deem and Ramdas Pophale) SiO2 
 PCOD8175069
Probable space group: C M C 21
;
_chemical_formula_sum "Si O2"
_cell_formula_units_Z 48
_cell_length_a 9.121615
_cell_length_b 18.928445
_cell_length_c 15.227326
_cell_angle_alpha 90.000000
_cell_angle_beta 90.000000
_cell_angle_gamma 90.000000
_cell_volume 2629.119467
_symmetry_space_group_name_H-M "C M C 21"
_symmetry_group_IT_number 36
_symmetry_cell_setting 'orthorhombic'
loop_
_space_group_symop_operation_xyz
x,y,z
-x,-y,1/2+z
x,-y,1/2+z
-x,y,z
1/2+x,1/2+y,z
1/2-x,1/2-y,1/2+z
1/2+x,1/2-y,1/2+z
1/2-x,1/2+y,z
loop_
_atom_site_type_symbol
_atom_site_label
_atom_site_fract_x
_atom_site_fract_y
_atom_site_fract_z
Si Si1 0.170412 0.073187 0.555140
Si Si2 0.832901 0.079814 0.755261
Si Si3 0.826097 0.825451 0.902821
Si Si4 0.673599 0.927522 0.562277
Si Si5 0.827699 0.081673 0.240590
Si Si6 0.173121 0.332833 0.399410
O O1 0.194052 0.100574 0.653947
O O2 0.228241 0.133792 0.489783
O O3 0.000000 0.054428 0.538710
O O4 0.263142 0.003392 0.536122
O O5 0.730491 0.128620 0.813164
O O6 0.000000 0.093582 0.782911
O O7 0.791288 0.998029 0.770378
O O8 0.770697 0.866163 0.816243
O O9 0.761239 0.746421 0.903345
O O10 0.000000 0.823399 0.902942
O O11 0.500000 0.933075 0.571914
O O12 0.740898 0.898535 0.652649
O O13 0.722327 0.873173 0.486956
O O14 0.000000 0.089338 0.221170
O O15 0.000000 0.330498 0.391362
#
# Coordination Sequence:
#
# PCOD8175069 Si02
#       6
#     8   8   8   8   8   8
#     4   9  18  35  57  75  95 129 172 210 241 286
#     4   9  18  32  53  78  97 123 167 211 247 285
#     4   9  18  34  54  74  99 133 170 204 241 292
#     4  10  20  33  51  76 104 131 161 203 254 299
#     4   9  18  34  56  76  94 127 173 210 241 285
#     4  10  21  34  49  73 105 137 163 196 250 303
#
# _framework density 18.257062000000001
#
# number of rings (size 3 to 8) (size 9 to 14) (size 15 to 20)
#    0.000    2.667    0.000    2.500    0.000    6.667 
#    0.000    4.167    0.000    0.000    0.000    0.000 
#    0.000    0.000    0.000    0.000    0.000    0.000 
#
# Total GULP energy -297627.984001 kJ/mol
# GULP energy per Si atom -12401.166000 kJ/mol
# Density = 1.821551 g / cm^3
# Si number density = 18.257062 Si / 1000 Ang^3
#
#
#
# Elastic Constant Matrix: (Units=GPa)
#
#
# Indices 1 2 3 4 5 6 
#
# 1 32.3296 30.5033 39.4444 0.0000 0.0000 0.0000
# 2 30.5033 134.2454 98.7257 0.0000 0.0000 0.0000
# 3 39.4444 98.7257 146.0681 0.0000 0.0000 0.0000
# 4 0.0000 0.0000 0.0000 15.6877 0.0000 0.0000
# 5 0.0000 0.0000 0.0000 0.0000 27.6017 0.0000
# 6 0.0000 0.0000 0.0000 0.0000 0.0000 21.1751
#
#
#
# Elastic Compliance Matrix: (Units=1/GPa)
#
#
# Indices 1 2 3 4 5 6 
#
# 1 0.046600 -0.002653 -0.010791 0.000000 0.000000 0.000000
# 2 -0.002653 0.014962 -0.009396 0.000000 0.000000 0.000000
# 3 -0.010791 -0.009396 0.016111 0.000000 0.000000 0.000000
# 4 0.000000 0.000000 0.000000 0.063744 0.000000 0.000000
# 5 0.000000 0.000000 0.000000 0.000000 0.036230 0.000000
# 6 0.000000 0.000000 0.000000 0.000000 0.000000 0.047225
#
#
# Mechanical properties :
#
#
# Convention : Reuss Voigt Hill
#
# Bulk Modulus (GPa) = 31.25676 72.22110 51.73893
# Shear Modulus (GPa) = 17.77988 22.49085 20.13537
#
# Velocity S-wave (km/s) = 3.12406 3.51365 3.32457
# Velocity P-wave (km/s) = 5.49277 7.49031 6.56793
#
# Compressibility (1/GPa) = 0.03199308
#
# Stress axis : x y z
#
# Youngs Moduli (GPa) = 21.45917 66.83651 62.06945
#
# Poissons Ratio (x) = 0.17729 0.66980
# Poissons Ratio (y) = 0.05692 0.58322
# Poissons Ratio (z) = 0.23157 0.62801
#
# Static dielectric constant tensor:
#      x y z
#    x 3.117580 0.000000 0.000000 
#    y 0.000000 3.513050 0.000000 
#    z 0.000000 0.000000 3.505770 
# 
# 
# High freq. dielectric constant tensor:
#      x y z
#    x 1.684380 0.000000 0.000000 
#    y 0.000000 1.705250 0.000000 
#    z 0.000000 0.000000 1.720800 
# 
# From -- ./inp_files/10381.got.cif
#   From: 2010.03.12/outbox.cif.g09.slc.cpg/sg36_6_cif.got.tgz:10381.got - 2010.04.14 02:13:53.
