data_PCOD8175651
_publ_section_title
;
Structure prediction by ZEFSAII (Michael W. Deem and Ramdas Pophale) SiO2 
 PCOD8175651
Probable space group: C M C 21
;
_chemical_formula_sum "Si O2"
_cell_formula_units_Z 64
_cell_length_a 9.160270
_cell_length_b 25.088463
_cell_length_c 14.213179
_cell_angle_alpha 90.000000
_cell_angle_beta 90.000000
_cell_angle_gamma 90.000000
_cell_volume 3266.431508
_symmetry_space_group_name_H-M "C M C 21"
_symmetry_group_IT_number 36
_symmetry_cell_setting 'orthorhombic'
loop_
_space_group_symop_operation_xyz
x,y,z
-x,-y,1/2+z
x,-y,1/2+z
-x,y,z
1/2+x,1/2+y,z
1/2-x,1/2-y,1/2+z
1/2+x,1/2-y,1/2+z
1/2-x,1/2+y,z
loop_
_atom_site_type_symbol
_atom_site_label
_atom_site_fract_x
_atom_site_fract_y
_atom_site_fract_z
Si Si1 0.171689 0.353603 0.701790
Si Si2 0.169470 0.889161 0.135443
Si Si3 0.673206 0.144393 0.813350
Si Si4 0.339273 0.827061 0.991797
Si Si5 0.169184 0.989025 0.002875
Si Si6 0.172591 0.255813 0.821711
Si Si7 0.838242 0.427878 0.857675
Si Si8 0.329029 0.903658 0.511803
O O1 0.231008 0.297796 0.742944
O O2 0.230656 0.405199 0.760274
O O3 0.211432 0.360187 0.592181
O O4 0.000000 0.353579 0.721026
O O5 0.258812 0.892829 0.232384
O O6 0.224495 0.837883 0.075362
O O7 0.000000 0.880242 0.156854
O O8 0.199245 0.943854 0.080452
O O9 0.500000 0.146185 0.803424
O O10 0.737199 0.203059 0.803219
O O11 0.722706 0.119942 0.912788
O O12 0.500000 0.815907 0.035512
O O13 0.290010 0.777505 0.926523
O O14 0.349692 0.878503 0.927296
O O15 0.245638 0.042494 0.037675
O O16 0.000000 0.999928 0.988604
O O17 0.233455 0.972707 0.901100
O O18 0.000000 0.244781 0.811472
O O19 0.000000 0.453130 0.843375
O O20 0.500000 0.916371 0.512519
#
# Coordination Sequence:
#
# PCOD8175651 Si02
#       8
#     8   8   8   8   8   8   8   8
#     4   8  16  34  59  83 105 137 183 224 262 319
#     4  10  21  37  57  80 108 145 186 229 278 326
#     4  11  24  38  53  79 113 148 188 227 265 321
#     4   8  15  30  54  83 111 138 175 221 266 322
#     4  10  21  36  55  81 110 139 176 224 277 326
#     4   9  18  35  59  84 112 145 177 220 279 327
#     4   8  14  29  55  82 106 135 173 215 261 317
#     4  10  22  39  56  76 107 145 182 220 264 320
#
# _framework density 19.593247000000002
#
# number of rings (size 3 to 8) (size 9 to 14) (size 15 to 20)
#    0.000    2.750    0.000    2.625    0.000    5.000 
#    0.000    8.125    0.000    0.000    0.000    0.000 
#    0.000    0.000    0.000    0.000    0.000    0.000 
#
# Total GULP energy -396710.684347 kJ/mol
# GULP energy per Si atom -12397.208886 kJ/mol
# Density = 1.954865 g / cm^3
# Si number density = 19.593247 Si / 1000 Ang^3
#
#
#
# Elastic Constant Matrix: (Units=GPa)
#
#
# Indices 1 2 3 4 5 6 
#
# 1 78.6059 42.5862 52.6064 0.0000 0.0000 0.0000
# 2 42.5862 87.7985 41.8913 0.0000 0.0000 0.0000
# 3 52.6064 41.8913 130.8176 0.0000 0.0000 0.0000
# 4 0.0000 0.0000 0.0000 24.1378 0.0000 0.0000
# 5 0.0000 0.0000 0.0000 0.0000 19.2998 0.0000
# 6 0.0000 0.0000 0.0000 0.0000 0.0000 30.8962
#
#
#
# Elastic Compliance Matrix: (Units=1/GPa)
#
#
# Indices 1 2 3 4 5 6 
#
# 1 0.020600 -0.007129 -0.006001 0.000000 0.000000 0.000000
# 2 -0.007129 0.015911 -0.002228 0.000000 0.000000 0.000000
# 3 -0.006001 -0.002228 0.010771 0.000000 0.000000 0.000000
# 4 0.000000 0.000000 0.000000 0.041429 0.000000 0.000000
# 5 0.000000 0.000000 0.000000 0.000000 0.051814 0.000000
# 6 0.000000 0.000000 0.000000 0.000000 0.000000 0.032366
#
#
# Mechanical properties :
#
#
# Convention : Reuss Voigt Hill
#
# Bulk Modulus (GPa) = 60.36670 63.48776 61.92723
# Shear Modulus (GPa) = 23.90867 25.54262 24.72565
#
# Velocity S-wave (km/s) = 3.49700 3.61452 3.55624
# Velocity P-wave (km/s) = 6.86893 7.06349 6.96689
#
# Compressibility (1/GPa) = 0.01656543
#
# Stress axis : x y z
#
# Youngs Moduli (GPa) = 48.54367 62.85119 92.84087
#
# Poissons Ratio (x) = 0.44804 0.55716
# Poissons Ratio (y) = 0.34605 0.20688
# Poissons Ratio (z) = 0.29132 0.14005
#
# Static dielectric constant tensor:
#      x y z
#    x 3.479220 0.000000 0.000000 
#    y 0.000000 3.407540 0.000000 
#    z 0.000000 0.000000 3.792870 
# 
# 
# High freq. dielectric constant tensor:
#      x y z
#    x 1.746040 0.000000 0.000000 
#    y 0.000000 1.750760 0.000000 
#    z 0.000000 0.000000 1.766160 
# 
# From -- ./inp_files/10948.got.cif
#   From: 2010.03.12/outbox.cif.g09.slc.cpg/sg36_6_cif.got.tgz:10948.got - 2010.04.14 02:13:53.
