data_PCOD8175639
_publ_section_title
;
Structure prediction by ZEFSAII (Michael W. Deem and Ramdas Pophale) SiO2 
 PCOD8175639
Probable space group: C M C 21
;
_chemical_formula_sum "Si O2"
_cell_formula_units_Z 48
_cell_length_a 24.893951
_cell_length_b 10.407377
_cell_length_c 9.029582
_cell_angle_alpha 90.000000
_cell_angle_beta 90.000000
_cell_angle_gamma 90.000000
_cell_volume 2339.390724
_symmetry_space_group_name_H-M "C M C 21"
_symmetry_group_IT_number 36
_symmetry_cell_setting 'orthorhombic'
loop_
_space_group_symop_operation_xyz
x,y,z
-x,-y,1/2+z
x,-y,1/2+z
-x,y,z
1/2+x,1/2+y,z
1/2-x,1/2-y,1/2+z
1/2+x,1/2-y,1/2+z
1/2-x,1/2+y,z
loop_
_atom_site_type_symbol
_atom_site_label
_atom_site_fract_x
_atom_site_fract_y
_atom_site_fract_z
Si Si1 0.385892 0.092506 0.436070
Si Si2 0.276566 0.323439 0.063298
Si Si3 0.381067 0.168586 0.105870
Si Si4 0.500000 0.166229 0.072958
Si Si5 0.500000 0.951264 0.871518
Si Si6 0.172053 0.174334 0.058109
Si Si7 0.196238 0.004527 0.309866
O O1 0.365835 0.113952 0.268129
O O2 0.449150 0.121220 0.440712
O O3 0.359668 0.192663 0.550549
O O4 0.374724 0.947597 0.489040
O O5 0.338413 0.277311 0.063118
O O6 0.236015 0.204388 0.065200
O O7 0.266459 0.415712 0.204912
O O8 0.266271 0.406475 0.914132
O O9 0.441612 0.235169 0.097405
O O10 0.500000 0.050337 0.193637
O O11 0.500000 0.102453 0.911246
O O12 0.157932 0.094185 0.206546
O O13 0.159492 0.086735 0.914107
#
# Coordination Sequence:
#
# PCOD8175639 Si02
#       7
#     8   8   8   4   4   8   8
#     4  10  21  35  59  87 114 146 188 234 287 332
#     4  11  23  38  59  80 114 151 188 230 279 333
#     4  10  21  35  59  87 114 146 188 234 287 332
#     4   8  16  34  54  81 113 142 180 237 284 326
#     4   8  16  34  54  81 113 142 180 237 284 326
#     4  11  23  38  59  80 114 151 188 230 279 333
#     4  10  24  40  54  79 116 149 188 232 272 332
#
# _framework density 20.518162
#
# number of rings (size 3 to 8) (size 9 to 14) (size 15 to 20)
#    0.000    2.000    1.667    1.000    7.000    0.000 
#    0.000    0.000    0.000    6.000    0.000    0.000 
#    0.000    0.000    0.000    0.000    0.000    0.000 
#
# Total GULP energy -297386.786109 kJ/mol
# GULP energy per Si atom -12391.116088 kJ/mol
# Density = 2.047146 g / cm^3
# Si number density = 20.518162 Si / 1000 Ang^3
#
#
#
# Elastic Constant Matrix: (Units=GPa)
#
#
# Indices 1 2 3 4 5 6 
#
# 1 91.1559 34.1618 19.7490 0.0000 0.0000 0.0000
# 2 34.1618 83.0782 34.5931 0.0000 0.0000 0.0000
# 3 19.7490 34.5931 110.1663 0.0000 0.0000 0.0000
# 4 0.0000 0.0000 0.0000 32.1704 0.0000 0.0000
# 5 0.0000 0.0000 0.0000 0.0000 18.4140 0.0000
# 6 0.0000 0.0000 0.0000 0.0000 0.0000 23.9080
#
#
#
# Elastic Compliance Matrix: (Units=1/GPa)
#
#
# Indices 1 2 3 4 5 6 
#
# 1 0.013023 -0.005042 -0.000751 0.000000 0.000000 0.000000
# 2 -0.005042 0.015800 -0.004057 0.000000 0.000000 0.000000
# 3 -0.000751 -0.004057 0.010486 0.000000 0.000000 0.000000
# 4 0.000000 0.000000 0.000000 0.031084 0.000000 0.000000
# 5 0.000000 0.000000 0.000000 0.000000 0.054306 0.000000
# 6 0.000000 0.000000 0.000000 0.000000 0.000000 0.041827
#
#
# Mechanical properties :
#
#
# Convention : Reuss Voigt Hill
#
# Bulk Modulus (GPa) = 51.00281 51.26755 51.13518
# Shear Modulus (GPa) = 25.93863 27.95826 26.94844
#
# Velocity S-wave (km/s) = 3.55939 3.69536 3.62801
# Velocity P-wave (km/s) = 6.46558 6.57634 6.52119
#
# Compressibility (1/GPa) = 0.01960676
#
# Stress axis : x y z
#
# Youngs Moduli (GPa) = 76.78987 63.29276 95.36622
#
# Poissons Ratio (x) = 0.31913 0.07164
# Poissons Ratio (y) = 0.38718 0.38693
# Poissons Ratio (z) = 0.05769 0.25680
#
# Static dielectric constant tensor:
#      x y z
#    x 3.611360 0.000000 0.000000 
#    y 0.000000 3.529310 0.000000 
#    z 0.000000 0.000000 4.005290 
# 
# 
# High freq. dielectric constant tensor:
#      x y z
#    x 1.775800 0.000000 0.000000 
#    y 0.000000 1.780160 0.000000 
#    z 0.000000 0.000000 1.821800 
# 
# From -- ./inp_files/5562.got.cif
#   From: 2010.03.12/outbox.cif.g09.slc.cpg/sg36_3_cif.got.tgz:5562.got - 2010.04.14 02:13:53.
