data_PCOD8175203
_publ_section_title
;
Structure prediction by ZEFSAII (Michael W. Deem and Ramdas Pophale) SiO2 
 PCOD8175203
Probable space group: C M C 21
;
_chemical_formula_sum "Si O2"
_cell_formula_units_Z 64
_cell_length_a 8.964579
_cell_length_b 15.168701
_cell_length_c 24.551242
_cell_angle_alpha 90.000000
_cell_angle_beta 90.000000
_cell_angle_gamma 90.000000
_cell_volume 3338.502891
_symmetry_space_group_name_H-M "C M C 21"
_symmetry_group_IT_number 36
_symmetry_cell_setting 'orthorhombic'
loop_
_space_group_symop_operation_xyz
x,y,z
-x,-y,1/2+z
x,-y,1/2+z
-x,y,z
1/2+x,1/2+y,z
1/2-x,1/2-y,1/2+z
1/2+x,1/2-y,1/2+z
1/2-x,1/2+y,z
loop_
_atom_site_type_symbol
_atom_site_label
_atom_site_fract_x
_atom_site_fract_y
_atom_site_fract_z
Si Si1 0.175840 0.642753 0.818730
Si Si2 0.670690 0.858392 0.043841
Si Si3 0.168071 0.325534 0.927739
Si Si4 0.670658 0.171514 0.308190
Si Si5 0.822801 0.490397 0.741203
Si Si6 0.172159 0.649896 0.938928
Si Si7 0.322356 0.014017 0.117189
Si Si8 0.323490 0.657242 0.047112
O O1 0.244903 0.736714 0.804097
O O2 0.240817 0.572317 0.775850
O O3 0.215299 0.608129 0.880039
O O4 0.000000 0.654284 0.813227
O O5 0.500000 0.855484 0.061621
O O6 0.745891 0.931503 0.082781
O O7 0.733908 0.758928 0.051501
O O8 0.689729 0.889390 0.980272
O O9 0.182555 0.372333 0.869071
O O10 0.296362 0.253147 0.931429
O O11 0.000000 0.283094 0.933023
O O12 0.500000 0.191210 0.293452
O O13 0.740368 0.101014 0.266204
O O14 0.770749 0.500087 0.679168
O O15 0.000000 0.489456 0.746652
O O16 0.000000 0.633398 0.953287
O O17 0.269833 0.614316 0.989556
O O18 0.500000 0.021996 0.111726
O O19 0.250167 0.104458 0.096508
O O20 0.500000 0.650122 0.050785
#
# Coordination Sequence:
#
# PCOD8175203 Si02
#       8
#     8   8   8   8   8   8   8   8
#     4   9  18  33  53  76 102 133 169 208 248 295
#     4   8  16  31  51  72  95 128 166 203 246 297
#     4   8  14  27  48  72  99 130 164 201 246 302
#     4   9  17  31  51  73  99 131 163 201 253 304
#     4   9  19  34  51  73 101 134 172 210 247 293
#     4   9  16  28  50  78 103 128 163 205 251 303
#     4  10  20  35  53  73  98 132 177 216 244 287
#     4  10  20  35  53  75 103 132 164 206 259 309
#
# _framework density 19.170269999999999
#
# number of rings (size 3 to 8) (size 9 to 14) (size 15 to 20)
#    0.000    3.000    0.000    1.500    0.000    2.500 
#    0.000   10.000    0.000    4.500    0.000    0.000 
#    0.000    0.000    0.000    0.000    0.000    0.000 
#
# Total GULP energy -396473.377376 kJ/mol
# GULP energy per Si atom -12389.793043 kJ/mol
# Density = 1.912664 g / cm^3
# Si number density = 19.170270 Si / 1000 Ang^3
#
#
#
# Elastic Constant Matrix: (Units=GPa)
#
#
# Indices 1 2 3 4 5 6 
#
# 1 32.5018 18.1693 27.8916 0.0000 0.0000 0.0000
# 2 18.1693 81.2105 51.8158 0.0000 0.0000 0.0000
# 3 27.8916 51.8158 136.5137 0.0000 0.0000 0.0000
# 4 0.0000 0.0000 0.0000 37.2966 0.0000 0.0000
# 5 0.0000 0.0000 0.0000 0.0000 20.9262 0.0000
# 6 0.0000 0.0000 0.0000 0.0000 0.0000 20.2733
#
#
#
# Elastic Compliance Matrix: (Units=1/GPa)
#
#
# Indices 1 2 3 4 5 6 
#
# 1 0.038656 -0.004763 -0.006090 0.000000 0.000000 0.000000
# 2 -0.004763 0.016836 -0.005417 0.000000 0.000000 0.000000
# 3 -0.006090 -0.005417 0.010626 0.000000 0.000000 0.000000
# 4 0.000000 0.000000 0.000000 0.026812 0.000000 0.000000
# 5 0.000000 0.000000 0.000000 0.000000 0.047787 0.000000
# 6 0.000000 0.000000 0.000000 0.000000 0.000000 0.049326
#
#
# Mechanical properties :
#
#
# Convention : Reuss Voigt Hill
#
# Bulk Modulus (GPa) = 29.78184 49.55326 39.66755
# Shear Modulus (GPa) = 21.38802 25.85584 23.62193
#
# Velocity S-wave (km/s) = 3.34381 3.67651 3.51410
# Velocity P-wave (km/s) = 5.52062 6.62778 6.09937
#
# Compressibility (1/GPa) = 0.03357751
#
# Stress axis : x y z
#
# Youngs Moduli (GPa) = 25.86890 59.39796 94.11122
#
# Poissons Ratio (x) = 0.28290 0.57316
# Poissons Ratio (y) = 0.12321 0.50981
# Poissons Ratio (z) = 0.15755 0.32176
#
# Static dielectric constant tensor:
#      x y z
#    x 3.183120 0.000000 0.000000 
#    y 0.000000 3.390690 0.000000 
#    z 0.000000 0.000000 3.850620 
# 
# 
# High freq. dielectric constant tensor:
#      x y z
#    x 1.711460 0.000000 0.000000 
#    y 0.000000 1.725860 0.000000 
#    z 0.000000 0.000000 1.757100 
# 
# From -- ./inp_files/16613.got.cif
#   From: 2010.03.12/outbox.cif.g09.slc.cpg/sg36_9_cif.got.tgz:16613.got - 2010.04.14 02:13:53.
