data_PCOD8175956
_publ_section_title
;
Structure prediction by ZEFSAII (Michael W. Deem and Ramdas Pophale) SiO2 
 PCOD8175956
Probable space group: C M C 21
;
_chemical_formula_sum "Si O2"
_cell_formula_units_Z 48
_cell_length_a 14.452395
_cell_length_b 9.429147
_cell_length_c 16.144097
_cell_angle_alpha 90.000000
_cell_angle_beta 90.000000
_cell_angle_gamma 90.000000
_cell_volume 2200.016751
_symmetry_space_group_name_H-M "C M C 21"
_symmetry_group_IT_number 36
_symmetry_cell_setting 'orthorhombic'
loop_
_space_group_symop_operation_xyz
x,y,z
-x,-y,1/2+z
x,-y,1/2+z
-x,y,z
1/2+x,1/2+y,z
1/2-x,1/2-y,1/2+z
1/2+x,1/2-y,1/2+z
1/2-x,1/2+y,z
loop_
_atom_site_type_symbol
_atom_site_label
_atom_site_fract_x
_atom_site_fract_y
_atom_site_fract_z
Si Si1 0.500000 0.612148 0.768311
Si Si2 0.000000 0.822804 0.086342
Si Si3 0.703787 0.669221 0.560153
Si Si4 0.500000 0.721262 0.257802
Si Si5 0.804710 0.551270 0.965035
Si Si6 0.500000 0.120492 0.932546
Si Si7 0.697641 0.287791 0.718016
Si Si8 0.694591 0.573212 0.812005
O O1 0.500000 0.709480 0.684995
O O2 0.500000 0.446421 0.749735
O O3 0.592370 0.641785 0.821072
O O4 0.900112 0.900296 0.070712
O O5 0.000000 0.688553 0.025198
O O6 0.778981 0.546932 0.543342
O O7 0.701611 0.782580 0.486134
O O8 0.737141 0.754901 0.640697
O O9 0.500000 0.769709 0.354935
O O10 0.407915 0.770828 0.208941
O O11 0.908225 0.521786 0.929719
O O12 0.726669 0.506656 0.898527
O O13 0.698936 0.455817 0.738551
O O14 0.736654 0.202532 0.795983
#
# Coordination Sequence:
#
# PCOD8175956 Si02
#       8
#     4   4   8   4   8   4   8   8
#     4  10  22  38  63  94 124 165 216 261 309 384
#     4  10  22  40  63  90 127 169 209 254 320 389
#     4  11  24  42  65  93 129 167 212 267 323 380
#     4  10  22  39  64  91 127 172 207 256 326 388
#     4  11  24  42  66  92 126 171 211 264 322 388
#     4  10  22  43  64  91 130 174 208 257 335 387
#     4  11  22  41  63  93 125 168 211 262 315 379
#     4  11  22  40  65  92 127 163 219 260 319 377
#
# _framework density 21.818016
#
# number of rings (size 3 to 8) (size 9 to 14) (size 15 to 20)
#    0.000    1.333    3.333    2.000    9.333    0.667 
#    0.000    9.167    0.000    0.000    0.000    0.000 
#    0.000    0.000    0.000    0.000    0.000    0.000 
#
# Total GULP energy -297341.716408 kJ/mol
# GULP energy per Si atom -12389.238184 kJ/mol
# Density = 2.176836 g / cm^3
# Si number density = 21.818016 Si / 1000 Ang^3
#
#
#
# Elastic Constant Matrix: (Units=GPa)
#
#
# Indices 1 2 3 4 5 6 
#
# 1 194.1389 33.6341 40.1051 0.0000 0.0000 0.0000
# 2 33.6341 44.2583 4.0566 0.0000 0.0000 0.0000
# 3 40.1051 4.0566 83.1317 0.0000 0.0000 0.0000
# 4 0.0000 0.0000 0.0000 27.8567 0.0000 0.0000
# 5 0.0000 0.0000 0.0000 0.0000 37.7460 0.0000
# 6 0.0000 0.0000 0.0000 0.0000 0.0000 27.6119
#
#
#
# Elastic Compliance Matrix: (Units=1/GPa)
#
#
# Indices 1 2 3 4 5 6 
#
# 1 0.006578 -0.004729 -0.002943 0.000000 0.000000 0.000000
# 2 -0.004729 0.026096 0.001008 0.000000 0.000000 0.000000
# 3 -0.002943 0.001008 0.013400 0.000000 0.000000 0.000000
# 4 0.000000 0.000000 0.000000 0.035898 0.000000 0.000000
# 5 0.000000 0.000000 0.000000 0.000000 0.026493 0.000000
# 6 0.000000 0.000000 0.000000 0.000000 0.000000 0.036216
#
#
# Mechanical properties :
#
#
# Convention : Reuss Voigt Hill
#
# Bulk Modulus (GPa) = 30.53792 53.01339 41.77566
# Shear Modulus (GPa) = 29.59900 34.89178 32.24539
#
# Velocity S-wave (km/s) = 3.68724 4.00336 3.84855
# Velocity P-wave (km/s) = 5.67051 6.76165 6.23998
#
# Compressibility (1/GPa) = 0.03274617
#
# Stress axis : x y z
#
# Youngs Moduli (GPa) = 152.01686 38.31959 74.62928
#
# Poissons Ratio (x) = 0.18123 0.21961
# Poissons Ratio (y) = 0.71895 -0.07524
# Poissons Ratio (z) = 0.44735 -0.03863
#
# Static dielectric constant tensor:
#      x y z
#    x 4.783430 0.000000 0.000000 
#    y 0.000000 3.503890 0.000000 
#    z 0.000000 0.000000 3.829930 
# 
# 
# High freq. dielectric constant tensor:
#      x y z
#    x 1.886950 0.000000 0.000000 
#    y 0.000000 1.819910 0.000000 
#    z 0.000000 0.000000 1.850800 
# 
# From -- ./inp_files/14603.got.cif
#   From: 2010.03.12/outbox.cif.g09.slc.cpg/sg36_8_cif.got.tgz:14603.got - 2010.04.14 02:13:53.
