data_PCOD8175705
_publ_section_title
;
Structure prediction by ZEFSAII (Michael W. Deem and Ramdas Pophale) SiO2 
 PCOD8175705
Probable space group: C M C 21
;
_chemical_formula_sum "Si O2"
_cell_formula_units_Z 48
_cell_length_a 9.127981
_cell_length_b 10.073873
_cell_length_c 26.281174
_cell_angle_alpha 90.000000
_cell_angle_beta 90.000000
_cell_angle_gamma 90.000000
_cell_volume 2416.662263
_symmetry_space_group_name_H-M "C M C 21"
_symmetry_group_IT_number 36
_symmetry_cell_setting 'orthorhombic'
loop_
_space_group_symop_operation_xyz
x,y,z
-x,-y,1/2+z
x,-y,1/2+z
-x,y,z
1/2+x,1/2+y,z
1/2-x,1/2-y,1/2+z
1/2+x,1/2-y,1/2+z
1/2-x,1/2+y,z
loop_
_atom_site_type_symbol
_atom_site_label
_atom_site_fract_x
_atom_site_fract_y
_atom_site_fract_z
Si Si1 0.831803 0.663020 0.159650
Si Si2 0.172729 0.604177 0.490159
Si Si3 0.831175 0.662279 0.042664
Si Si4 0.170603 0.911913 0.319082
Si Si5 0.170191 0.356375 0.875532
Si Si6 0.328074 0.108688 0.714482
O O1 0.804254 0.624842 0.101205
O O2 0.726771 0.783720 0.174043
O O3 0.790426 0.536668 0.193648
O O4 0.000000 0.705280 0.168831
O O5 0.224206 0.459267 0.508029
O O6 0.240356 0.708908 0.528625
O O7 0.228866 0.627500 0.432867
O O8 0.000000 0.620158 0.493817
O O9 0.000000 0.693135 0.031670
O O10 0.197357 0.795474 0.359829
O O11 0.245117 0.867146 0.267011
O O12 0.000000 0.935970 0.309110
O O13 0.239993 0.047730 0.338822
O O14 0.000000 0.395552 0.870900
O O15 0.500000 0.127432 0.723029
#
# Coordination Sequence:
#
# PCOD8175705 Si02
#       6
#     8   8   8   8   8   8
#     4  10  22  39  57  82 115 146 183 232 280 331
#     4  10  21  38  59  84 115 150 189 232 279 333
#     4  10  21  37  58  84 113 146 185 230 279 332
#     4  11  23  38  58  85 115 148 189 235 283 336
#     4  10  22  39  58  83 116 151 188 233 281 332
#     4  11  23  39  60  84 112 149 190 232 282 338
#
# _framework density 19.862106000000001
#
# number of rings (size 3 to 8) (size 9 to 14) (size 15 to 20)
#    0.000    1.667    0.000    4.000    0.000   10.000 
#    0.000    0.000    0.000    0.000    0.000    0.000 
#    0.000    0.000    0.000    0.000    0.000    0.000 
#
# Total GULP energy -297767.690511 kJ/mol
# GULP energy per Si atom -12406.987105 kJ/mol
# Density = 1.981690 g / cm^3
# Si number density = 19.862106 Si / 1000 Ang^3
#
#
#
# Elastic Constant Matrix: (Units=GPa)
#
#
# Indices 1 2 3 4 5 6 
#
# 1 68.2745 41.0109 27.5125 0.0000 0.0000 0.0000
# 2 41.0109 85.7299 14.0781 0.0000 0.0000 0.0000
# 3 27.5125 14.0781 83.1589 0.0000 0.0000 0.0000
# 4 0.0000 0.0000 0.0000 41.7801 0.0000 0.0000
# 5 0.0000 0.0000 0.0000 0.0000 33.4385 0.0000
# 6 0.0000 0.0000 0.0000 0.0000 0.0000 32.9306
#
#
#
# Elastic Compliance Matrix: (Units=1/GPa)
#
#
# Indices 1 2 3 4 5 6 
#
# 1 0.023086 -0.010070 -0.005933 0.000000 0.000000 0.000000
# 2 -0.010070 0.016390 0.000557 0.000000 0.000000 0.000000
# 3 -0.005933 0.000557 0.013894 0.000000 0.000000 0.000000
# 4 0.000000 0.000000 0.000000 0.023935 0.000000 0.000000
# 5 0.000000 0.000000 0.000000 0.000000 0.029906 0.000000
# 6 0.000000 0.000000 0.000000 0.000000 0.000000 0.030367
#
#
# Mechanical properties :
#
#
# Convention : Reuss Voigt Hill
#
# Bulk Modulus (GPa) = 44.48761 44.70738 44.59749
# Shear Modulus (GPa) = 28.41519 31.93398 30.17459
#
# Velocity S-wave (km/s) = 3.78646 4.01407 3.90192
# Velocity P-wave (km/s) = 6.44696 6.63637 6.54235
#
# Compressibility (1/GPa) = 0.02247817
#
# Stress axis : x y z
#
# Youngs Moduli (GPa) = 43.31593 61.01242 71.97410
#
# Poissons Ratio (x) = 0.61437 0.42704
# Poissons Ratio (y) = 0.43617 -0.04007
# Poissons Ratio (z) = 0.25700 -0.03397
#
# Static dielectric constant tensor:
#      x y z
#    x 3.565110 0.000000 0.000000 
#    y 0.000000 3.578180 0.000000 
#    z 0.000000 0.000000 3.774530 
# 
# 
# High freq. dielectric constant tensor:
#      x y z
#    x 1.771590 0.000000 0.000000 
#    y 0.000000 1.783510 0.000000 
#    z 0.000000 0.000000 1.789750 
# 
# From -- ./inp_files/16445.got.cif
#   From: 2010.03.12/outbox.cif.g09.slc.cpg/sg36_9_cif.got.tgz:16445.got - 2010.04.14 02:13:53.
