data_PCOD8175330
_publ_section_title
;
Structure prediction by ZEFSAII (Michael W. Deem and Ramdas Pophale) SiO2 
 PCOD8175330
Probable space group: C M C 21
;
_chemical_formula_sum "Si O2"
_cell_formula_units_Z 40
_cell_length_a 13.663033
_cell_length_b 14.044713
_cell_length_c 11.775254
_cell_angle_alpha 90.000000
_cell_angle_beta 90.000000
_cell_angle_gamma 90.000000
_cell_volume 2259.593257
_symmetry_space_group_name_H-M "C M C 21"
_symmetry_group_IT_number 36
_symmetry_cell_setting 'orthorhombic'
loop_
_space_group_symop_operation_xyz
x,y,z
-x,-y,1/2+z
x,-y,1/2+z
-x,y,z
1/2+x,1/2+y,z
1/2-x,1/2-y,1/2+z
1/2+x,1/2-y,1/2+z
1/2-x,1/2+y,z
loop_
_atom_site_type_symbol
_atom_site_label
_atom_site_fract_x
_atom_site_fract_y
_atom_site_fract_z
Si Si1 0.706791 0.258522 0.757150
Si Si2 0.305836 0.607868 0.880961
Si Si3 0.218511 0.102836 0.449980
Si Si4 0.110270 0.731481 0.531680
Si Si5 0.111455 0.828195 0.164627
O O1 0.708944 0.168669 0.844792
O O2 0.688083 0.354298 0.827968
O O3 0.620780 0.245346 0.666856
O O4 0.813290 0.259773 0.690973
O O5 0.271785 0.509840 0.935771
O O6 0.373267 0.594881 0.767316
O O7 0.365626 0.668236 0.973348
O O8 0.322568 0.145354 0.487569
O O9 0.136005 0.124102 0.543898
O O10 0.000000 0.701810 0.503422
O O11 0.000000 0.790967 0.162296
#
# Coordination Sequence:
#
# PCOD8175330 Si02
#       5
#     8   8   8   8   8
#     4   8  20  35  55  78 110 150 179 227 275 330
#     4   9  20  34  55  80 111 142 183 227 274 326
#     4  10  20  36  55  81 116 148 177 231 282 324
#     4  10  20  37  59  82 109 147 186 225 274 334
#     4   9  19  34  53  83 112 139 182 228 272 326
#
# _framework density 17.702300999999999
#
# number of rings (size 3 to 8) (size 9 to 14) (size 15 to 20)
#    1.200    1.600    0.000    0.600    2.800    2.400 
#    0.000    1.000    0.000   12.000    0.000    0.000 
#    0.000    0.000    0.000    0.000    0.000    0.000 
#
# Total GULP energy -247786.009661 kJ/mol
# GULP energy per Si atom -12389.300483 kJ/mol
# Density = 1.766201 g / cm^3
# Si number density = 17.702301 Si / 1000 Ang^3
#
#
#
# Elastic Constant Matrix: (Units=GPa)
#
#
# Indices 1 2 3 4 5 6 
#
# 1 78.6018 44.4949 31.3184 0.0000 0.0000 0.0000
# 2 44.4949 70.4257 18.9159 0.0000 0.0000 0.0000
# 3 31.3184 18.9159 88.2833 0.0000 0.0000 0.0000
# 4 0.0000 0.0000 0.0000 16.1892 0.0000 0.0000
# 5 0.0000 0.0000 0.0000 0.0000 13.0387 0.0000
# 6 0.0000 0.0000 0.0000 0.0000 0.0000 12.9094
#
#
#
# Elastic Compliance Matrix: (Units=1/GPa)
#
#
# Indices 1 2 3 4 5 6 
#
# 1 0.021748 -0.012380 -0.005062 0.000000 0.000000 0.000000
# 2 -0.012380 0.022114 -0.000346 0.000000 0.000000 0.000000
# 3 -0.005062 -0.000346 0.013197 0.000000 0.000000 0.000000
# 4 0.000000 0.000000 0.000000 0.061770 0.000000 0.000000
# 5 0.000000 0.000000 0.000000 0.000000 0.076695 0.000000
# 6 0.000000 0.000000 0.000000 0.000000 0.000000 0.077463
#
#
# Mechanical properties :
#
#
# Convention : Reuss Voigt Hill
#
# Bulk Modulus (GPa) = 46.55260 47.41878 46.98569
# Shear Modulus (GPa) = 15.83654 17.93289 16.88472
#
# Velocity S-wave (km/s) = 2.99424 3.18626 3.09174
# Velocity P-wave (km/s) = 6.18939 6.35463 6.27255
#
# Compressibility (1/GPa) = 0.02148108
#
# Stress axis : x y z
#
# Youngs Moduli (GPa) = 45.98179 45.21948 75.77355
#
# Poissons Ratio (x) = 0.55984 0.38359
# Poissons Ratio (y) = 0.56928 0.02624
# Poissons Ratio (z) = 0.23277 0.01566
#
# Static dielectric constant tensor:
#      x y z
#    x 2.987520 0.000000 0.000000 
#    y 0.000000 2.892000 0.000000 
#    z 0.000000 0.000000 3.520050 
# 
# 
# High freq. dielectric constant tensor:
#      x y z
#    x 1.659520 0.000000 0.000000 
#    y 0.000000 1.650590 0.000000 
#    z 0.000000 0.000000 1.706620 
# 
# From -- ./inp_files/7536.got.cif
#   From: 2010.03.12/outbox.cif.g09.slc.cpg/sg36_4_cif.got.tgz:7536.got - 2010.04.14 02:13:53.
