data_PCOD8175271
_publ_section_title
;
Structure prediction by ZEFSAII (Michael W. Deem and Ramdas Pophale) SiO2 
 PCOD8175271
Probable space group: C M C 21
;
_chemical_formula_sum "Si O2"
_cell_formula_units_Z 64
_cell_length_a 8.649318
_cell_length_b 19.876697
_cell_length_c 19.691025
_cell_angle_alpha 90.000000
_cell_angle_beta 90.000000
_cell_angle_gamma 90.000000
_cell_volume 3385.278520
_symmetry_space_group_name_H-M "C M C 21"
_symmetry_group_IT_number 36
_symmetry_cell_setting 'orthorhombic'
loop_
_space_group_symop_operation_xyz
x,y,z
-x,-y,1/2+z
x,-y,1/2+z
-x,y,z
1/2+x,1/2+y,z
1/2-x,1/2-y,1/2+z
1/2+x,1/2-y,1/2+z
1/2-x,1/2+y,z
loop_
_atom_site_type_symbol
_atom_site_label
_atom_site_fract_x
_atom_site_fract_y
_atom_site_fract_z
Si Si1 0.822026 0.804797 0.308090
Si Si2 0.820328 0.197840 0.129145
Si Si3 0.679529 0.520705 0.281977
Si Si4 0.319425 0.026341 0.642480
Si Si5 0.678494 0.665747 0.653223
Si Si6 0.178658 0.579848 0.885095
Si Si7 0.819807 0.409198 0.540680
Si Si8 0.319374 0.157941 0.269310
O O1 0.789920 0.834823 0.233673
O O2 0.715062 0.844166 0.361098
O O3 0.777513 0.725962 0.310067
O O4 0.000000 0.815187 0.328238
O O5 0.777077 0.275694 0.117240
O O6 0.778238 0.156300 0.061723
O O7 0.721426 0.166549 0.190377
O O8 0.000000 0.191166 0.146485
O O9 0.500000 0.514638 0.263739
O O10 0.778120 0.499882 0.216893
O O11 0.716233 0.472923 0.345045
O O12 0.723011 0.597089 0.302278
O O13 0.500000 0.041824 0.639730
O O14 0.229409 0.094344 0.623351
O O15 0.269004 0.971825 0.586957
O O16 0.500000 0.679493 0.637355
O O17 0.000000 0.563635 0.871446
O O18 0.221426 0.572636 0.963709
O O19 0.000000 0.392483 0.549399
O O20 0.500000 0.141559 0.274305
#
# Coordination Sequence:
#
# PCOD8175271 Si02
#       8
#     8   8   8   8   8   8   8   8
#     4   9  19  35  56  83 115 148 186 238 290 342
#     4  11  21  34  57  87 116 149 192 237 288 349
#     4  12  23  36  57  88 120 151 195 245 294 351
#     4  11  21  36  60  86 116 153 196 244 293 348
#     4  10  20  35  57  85 119 149 186 239 291 340
#     4  11  23  39  60  84 116 159 199 240 295 357
#     4  10  23  41  59  83 118 158 198 241 296 356
#     4  10  20  36  58  84 116 149 188 240 293 341
#
# _framework density 18.905387999999999
#
# number of rings (size 3 to 8) (size 9 to 14) (size 15 to 20)
#    0.000    1.500    2.500    4.500    0.000    4.000 
#    0.000    1.250    0.000    1.500    0.000    0.000 
#    0.000    0.000    0.000    0.000    0.000    0.000 
#
# Total GULP energy -396971.865911 kJ/mol
# GULP energy per Si atom -12405.370810 kJ/mol
# Density = 1.886236 g / cm^3
# Si number density = 18.905388 Si / 1000 Ang^3
#
#
#
# Elastic Constant Matrix: (Units=GPa)
#
#
# Indices 1 2 3 4 5 6 
#
# 1 54.0677 26.4264 24.1566 0.0000 0.0000 0.0000
# 2 26.4264 127.4510 47.1622 0.0000 0.0000 0.0000
# 3 24.1566 47.1622 86.0848 0.0000 0.0000 0.0000
# 4 0.0000 0.0000 0.0000 23.7145 0.0000 0.0000
# 5 0.0000 0.0000 0.0000 0.0000 22.1278 0.0000
# 6 0.0000 0.0000 0.0000 0.0000 0.0000 37.9567
#
#
#
# Elastic Compliance Matrix: (Units=1/GPa)
#
#
# Indices 1 2 3 4 5 6 
#
# 1 0.021941 -0.002849 -0.004596 0.000000 0.000000 0.000000
# 2 -0.002849 0.010211 -0.004795 0.000000 0.000000 0.000000
# 3 -0.004596 -0.004795 0.015533 0.000000 0.000000 0.000000
# 4 0.000000 0.000000 0.000000 0.042168 0.000000 0.000000
# 5 0.000000 0.000000 0.000000 0.000000 0.045192 0.000000
# 6 0.000000 0.000000 0.000000 0.000000 0.000000 0.026346
#
#
# Mechanical properties :
#
#
# Convention : Reuss Voigt Hill
#
# Bulk Modulus (GPa) = 43.09266 51.45487 47.27377
# Shear Modulus (GPa) = 25.82555 28.08367 26.95461
#
# Velocity S-wave (km/s) = 3.70001 3.85838 3.78002
# Velocity P-wave (km/s) = 6.41068 6.86481 6.64162
#
# Compressibility (1/GPa) = 0.02320581
#
# Stress axis : x y z
#
# Youngs Moduli (GPa) = 45.57632 97.93266 64.37821
#
# Poissons Ratio (x) = 0.27896 0.29591
# Poissons Ratio (y) = 0.12983 0.30869
# Poissons Ratio (z) = 0.20949 0.46958
#
# Static dielectric constant tensor:
#      x y z
#    x 3.436960 0.000000 0.000000 
#    y 0.000000 3.723120 0.000000 
#    z 0.000000 0.000000 3.188190 
# 
# 
# High freq. dielectric constant tensor:
#      x y z
#    x 1.742380 0.000000 0.000000 
#    y 0.000000 1.751080 0.000000 
#    z 0.000000 0.000000 1.699050 
# 
# From -- ./inp_files/13758.got.cif
#   From: 2010.03.12/outbox.cif.g09.slc.cpg/sg36_7_cif.got.tgz:13758.got - 2010.04.14 02:13:53.
