data_PCOD8176243
_publ_section_title
;
Structure prediction by ZEFSAII (Michael W. Deem and Ramdas Pophale) SiO2 
 PCOD8176243
Probable space group: C M C 21
;
_chemical_formula_sum "Si O2"
_cell_formula_units_Z 64
_cell_length_a 8.428951
_cell_length_b 15.277659
_cell_length_c 23.528668
_cell_angle_alpha 90.000000
_cell_angle_beta 90.000000
_cell_angle_gamma 90.000000
_cell_volume 3029.895730
_symmetry_space_group_name_H-M "C M C 21"
_symmetry_group_IT_number 36
_symmetry_cell_setting 'orthorhombic'
loop_
_space_group_symop_operation_xyz
x,y,z
-x,-y,1/2+z
x,-y,1/2+z
-x,y,z
1/2+x,1/2+y,z
1/2-x,1/2-y,1/2+z
1/2+x,1/2-y,1/2+z
1/2-x,1/2+y,z
loop_
_atom_site_type_symbol
_atom_site_label
_atom_site_fract_x
_atom_site_fract_y
_atom_site_fract_z
Si Si1 0.315038 0.086904 0.566020
Si Si2 0.811534 0.347822 0.185614
Si Si3 0.686974 0.909307 0.307577
Si Si4 0.812197 0.093194 0.295994
Si Si5 0.814428 0.094288 0.053386
Si Si6 0.814381 0.252451 0.871262
Si Si7 0.816617 0.757987 0.994050
Si Si8 0.812524 0.846708 0.675118
O O1 0.500000 0.065863 0.564649
O O2 0.252668 0.097736 0.630864
O O3 0.284965 0.175951 0.532130
O O4 0.223237 0.005966 0.536981
O O5 0.750286 0.392125 0.243533
O O6 0.739385 0.250262 0.181654
O O7 0.000000 0.342854 0.185719
O O8 0.500000 0.894055 0.313250
O O9 0.775335 0.845375 0.350886
O O10 0.733274 0.008087 0.324412
O O11 0.742794 0.180009 0.323885
O O12 0.763050 0.095285 0.229429
O O13 0.000000 0.091227 0.304540
O O14 0.726081 0.158429 0.010004
O O15 0.747850 0.110162 0.117251
O O16 0.000000 0.112848 0.048200
O O17 0.000000 0.261643 0.882656
O O18 0.721180 0.274179 0.928508
O O19 0.000000 0.776442 0.005370
O O20 0.000000 0.838924 0.671697
#
# Coordination Sequence:
#
# PCOD8176243 Si02
#       8
#     8   8   8   8   8   8   8   8
#     4  11  22  40  65  95 130 167 207 254 308 368
#     4   9  17  34  62  93 128 168 204 247 306 367
#     4  11  22  40  65  95 130 167 207 254 308 368
#     4  11  22  40  65  95 130 167 207 254 308 368
#     4  11  22  40  65  95 130 167 207 254 308 368
#     4  12  26  45  66  91 121 162 212 262 315 370
#     4  12  26  45  66  91 121 162 212 262 315 370
#     4   9  17  34  62  93 128 168 204 247 306 367
#
# _framework density 21.12284
#
# number of rings (size 3 to 8) (size 9 to 14) (size 15 to 20)
#    0.000    1.250    2.500    4.500    0.000    1.000 
#    0.000   10.000    0.000    0.000    0.000    0.000 
#    0.000    0.000    0.000    0.000    0.000    0.000 
#
# Total GULP energy -396951.527471 kJ/mol
# GULP energy per Si atom -12404.735233 kJ/mol
# Density = 2.107476 g / cm^3
# Si number density = 21.122840 Si / 1000 Ang^3
#
#
#
# Elastic Constant Matrix: (Units=GPa)
#
#
# Indices 1 2 3 4 5 6 
#
# 1 57.2970 16.1000 23.6737 0.0000 0.0000 0.0000
# 2 16.1000 85.1212 5.2312 0.0000 0.0000 0.0000
# 3 23.6737 5.2312 73.8653 0.0000 0.0000 0.0000
# 4 0.0000 0.0000 0.0000 18.1427 0.0000 0.0000
# 5 0.0000 0.0000 0.0000 0.0000 26.5761 0.0000
# 6 0.0000 0.0000 0.0000 0.0000 0.0000 34.8470
#
#
#
# Elastic Compliance Matrix: (Units=1/GPa)
#
#
# Indices 1 2 3 4 5 6 
#
# 1 0.021162 -0.003601 -0.006527 0.000000 0.000000 0.000000
# 2 -0.003601 0.012412 0.000275 0.000000 0.000000 0.000000
# 3 -0.006527 0.000275 0.015611 0.000000 0.000000 0.000000
# 4 0.000000 0.000000 0.000000 0.055119 0.000000 0.000000
# 5 0.000000 0.000000 0.000000 0.000000 0.037628 0.000000
# 6 0.000000 0.000000 0.000000 0.000000 0.000000 0.028697
#
#
# Mechanical properties :
#
#
# Convention : Reuss Voigt Hill
#
# Bulk Modulus (GPa) = 33.92397 34.03259 33.97828
# Shear Modulus (GPa) = 24.97991 27.33174 26.15583
#
# Velocity S-wave (km/s) = 3.44263 3.60104 3.52273
# Velocity P-wave (km/s) = 5.64778 5.78245 5.71551
#
# Compressibility (1/GPa) = 0.02947768
#
# Stress axis : x y z
#
# Youngs Moduli (GPa) = 47.25494 80.56573 64.05894
#
# Poissons Ratio (x) = 0.29015 0.41813
# Poissons Ratio (y) = 0.17019 -0.01763
# Poissons Ratio (z) = 0.30844 -0.02217
#
# Static dielectric constant tensor:
#      x y z
#    x 3.526580 0.000000 0.000000 
#    y 0.000000 3.830470 0.000000 
#    z 0.000000 0.000000 3.908090 
# 
# 
# High freq. dielectric constant tensor:
#      x y z
#    x 1.812080 0.000000 0.000000 
#    y 0.000000 1.839980 0.000000 
#    z 0.000000 0.000000 1.825410 
# 
# From -- ./inp_files/16700.got.cif
#   From: 2010.03.12/outbox.cif.g09.slc.cpg/sg36_9_cif.got.tgz:16700.got - 2010.04.14 02:13:53.
