data_PCOD8176344
_publ_section_title
;
Structure prediction by ZEFSAII (Michael W. Deem and Ramdas Pophale) SiO2 
 PCOD8176344
Probable space group: C M C 21
;
_chemical_formula_sum "Si O2"
_cell_formula_units_Z 64
_cell_length_a 9.270189
_cell_length_b 28.562897
_cell_length_c 14.265924
_cell_angle_alpha 90.000000
_cell_angle_beta 90.000000
_cell_angle_gamma 90.000000
_cell_volume 3777.380625
_symmetry_space_group_name_H-M "C M C 21"
_symmetry_group_IT_number 36
_symmetry_cell_setting 'orthorhombic'
loop_
_space_group_symop_operation_xyz
x,y,z
-x,-y,1/2+z
x,-y,1/2+z
-x,y,z
1/2+x,1/2+y,z
1/2-x,1/2-y,1/2+z
1/2+x,1/2-y,1/2+z
1/2-x,1/2+y,z
loop_
_atom_site_type_symbol
_atom_site_label
_atom_site_fract_x
_atom_site_fract_y
_atom_site_fract_z
Si Si1 0.831943 0.746508 0.171860
Si Si2 0.830440 0.179398 0.517074
Si Si3 0.671308 0.574587 0.528994
Si Si4 0.171856 0.000369 0.883073
Si Si5 0.331956 0.753501 0.886550
Si Si6 0.330454 0.320600 0.541349
Si Si7 0.671307 0.425411 0.529389
Si Si8 0.171854 0.000366 0.675313
O O1 0.793414 0.792920 0.112585
O O2 0.785765 0.755391 0.279207
O O3 0.744915 0.702630 0.131022
O O4 0.000000 0.734572 0.163774
O O5 0.766513 0.127119 0.528426
O O6 0.755137 0.202634 0.427383
O O7 0.000000 0.178979 0.496926
O O8 0.500000 0.576604 0.531902
O O9 0.723317 0.546624 0.436496
O O10 0.727281 0.546574 0.620565
O O11 0.000000 0.001078 0.879009
O O12 0.239399 0.000401 0.779192
O O13 0.227293 0.046576 0.937819
O O14 0.500000 0.765466 0.894615
O O15 0.293513 0.707084 0.945828
O O16 0.500000 0.321021 0.561561
O O17 0.266527 0.372878 0.529965
O O18 0.500000 0.423398 0.526467
O O19 0.723312 0.453373 0.621890
O O20 0.000000 0.001073 0.679383
#
# Coordination Sequence:
#
# PCOD8176344 Si02
#       8
#     8   8   8   8   8   8   8   8
#     4   9  18  31  44  60  85 114 142 174 212 251
#     4   9  17  29  45  64  85 110 142 177 209 245
#     4   8  14  23  35  55  81 106 133 164 200 243
#     4   8  13  21  33  52  81 110 131 159 202 245
#     4   9  18  31  44  60  85 114 142 174 212 251
#     4   9  17  29  45  64  85 110 142 177 209 245
#     4   8  14  23  35  55  81 106 133 164 200 243
#     4   8  13  21  33  52  81 110 131 159 202 245
#
# _framework density 16.942958000000001
#
# number of rings (size 3 to 8) (size 9 to 14) (size 15 to 20)
#    0.000    3.500    0.000    1.500    0.000    2.500 
#    0.000    7.500    0.000    0.000    0.000    3.500 
#    0.000    2.000    0.000    0.000    0.000    0.000 
#
# Total GULP energy -396622.785198 kJ/mol
# GULP energy per Si atom -12394.462037 kJ/mol
# Density = 1.690440 g / cm^3
# Si number density = 16.942958 Si / 1000 Ang^3
#
#
#
# Elastic Constant Matrix: (Units=GPa)
#
#
# Indices 1 2 3 4 5 6 
#
# 1 14.0416 22.8850 22.2100 0.0000 0.0000 0.0000
# 2 22.8850 171.0696 80.0229 0.0000 0.0000 0.0000
# 3 22.2100 80.0229 162.5573 0.0000 0.0000 0.0000
# 4 0.0000 0.0000 0.0000 14.8950 0.0000 0.0000
# 5 0.0000 0.0000 0.0000 0.0000 15.2970 0.0000
# 6 0.0000 0.0000 0.0000 0.0000 0.0000 16.5247
#
#
#
# Elastic Compliance Matrix: (Units=1/GPa)
#
#
# Indices 1 2 3 4 5 6 
#
# 1 0.100783 -0.009148 -0.009267 0.000000 0.000000 0.000000
# 2 -0.009148 0.008425 -0.002897 0.000000 0.000000 0.000000
# 3 -0.009267 -0.002897 0.008844 0.000000 0.000000 0.000000
# 4 0.000000 0.000000 0.000000 0.067136 0.000000 0.000000
# 5 0.000000 0.000000 0.000000 0.000000 0.065372 0.000000
# 6 0.000000 0.000000 0.000000 0.000000 0.000000 0.060516
#
#
# Mechanical properties :
#
#
# Convention : Reuss Voigt Hill
#
# Bulk Modulus (GPa) = 13.25762 66.43382 39.84572
# Shear Modulus (GPa) = 13.19810 24.18005 18.68907
#
# Velocity S-wave (km/s) = 2.79404 3.78185 3.32484
# Velocity P-wave (km/s) = 4.27208 7.63972 6.18935
#
# Compressibility (1/GPa) = 0.07542831
#
# Stress axis : x y z
#
# Youngs Moduli (GPa) = 9.92231 118.69916 113.06963
#
# Poissons Ratio (x) = 1.08581 1.04779
# Poissons Ratio (y) = 0.09077 0.32761
# Poissons Ratio (z) = 0.09195 0.34392
#
# Static dielectric constant tensor:
#      x y z
#    x 2.636310 0.000000 0.000000 
#    y 0.000000 3.450440 0.000000 
#    z 0.000000 0.000000 3.421110 
# 
# 
# High freq. dielectric constant tensor:
#      x y z
#    x 1.592530 0.000000 0.000000 
#    y 0.000000 1.659430 0.000000 
#    z 0.000000 0.000000 1.659630 
# 
# From -- ./inp_files/11188.got.cif
#   From: 2010.03.12/outbox.cif.g09.slc.cpg/sg36_6_cif.got.tgz:11188.got - 2010.04.14 02:13:53.
