data_PCOD8176024
_publ_section_title
;
Structure prediction by ZEFSAII (Michael W. Deem and Ramdas Pophale) SiO2 
 PCOD8176024
Probable space group: C M C 21
;
_chemical_formula_sum "Si O2"
_cell_formula_units_Z 64
_cell_length_a 22.267282
_cell_length_b 11.692116
_cell_length_c 11.945513
_cell_angle_alpha 90.000000
_cell_angle_beta 90.000000
_cell_angle_gamma 90.000000
_cell_volume 3110.033950
_symmetry_space_group_name_H-M "C M C 21"
_symmetry_group_IT_number 36
_symmetry_cell_setting 'orthorhombic'
loop_
_space_group_symop_operation_xyz
x,y,z
-x,-y,1/2+z
x,-y,1/2+z
-x,y,z
1/2+x,1/2+y,z
1/2-x,1/2-y,1/2+z
1/2+x,1/2-y,1/2+z
1/2-x,1/2+y,z
loop_
_atom_site_type_symbol
_atom_site_label
_atom_site_fract_x
_atom_site_fract_y
_atom_site_fract_z
Si Si1 0.652667 0.695887 0.835890
Si Si2 0.665744 0.042285 0.870938
Si Si3 0.933000 0.484913 0.190944
Si Si4 0.706656 0.539593 0.326631
Si Si5 0.432396 0.240390 0.145209
Si Si6 0.742031 0.271947 0.678845
Si Si7 0.851125 0.353603 0.045672
Si Si8 0.829640 0.232058 0.487057
O O1 0.655567 0.557789 0.833489
O O2 0.593964 0.732600 0.767699
O O3 0.714856 0.744278 0.784340
O O4 0.645365 0.745439 0.961551
O O5 0.611460 0.997923 0.795081
O O6 0.657003 0.177624 0.889186
O O7 0.729627 0.022094 0.814363
O O8 0.666873 0.970341 0.984972
O O9 0.932227 0.604331 0.123354
O O10 0.913728 0.381095 0.108854
O O11 0.000000 0.458415 0.235498
O O12 0.702097 0.617552 0.214232
O O13 0.699257 0.617430 0.437335
O O14 0.500000 0.289479 0.137465
O O15 0.391200 0.300554 0.051040
O O16 0.696549 0.170321 0.645432
O O17 0.783502 0.295096 0.571010
#
# Coordination Sequence:
#
# PCOD8176024 Si02
#       8
#     8   8   8   8   8   8   8   8
#     4  11  24  40  61  92 128 169 213 263 326 398
#     4  12  22  39  61  94 133 161 207 270 332 390
#     4  11  24  40  64  94 128 166 212 270 331 390
#     4  12  23  39  61  91 132 173 207 260 328 402
#     4  10  22  41  62  86 117 161 214 267 317 383
#     4  11  22  38  59  95 129 165 208 261 320 392
#     4  12  22  39  63  95 129 168 210 269 336 390
#     4  11  23  38  61  93 122 165 211 260 326 389
#
# _framework density 20.578552999999999
#
# number of rings (size 3 to 8) (size 9 to 14) (size 15 to 20)
#    0.000    0.750    5.000    3.750    1.750    3.500 
#    0.000    0.625    0.000    3.750    0.000    0.000 
#    0.000    0.000    0.000    0.000    0.000    0.000 
#
# Total GULP energy -396774.556877 kJ/mol
# GULP energy per Si atom -12399.204902 kJ/mol
# Density = 2.053172 g / cm^3
# Si number density = 20.578553 Si / 1000 Ang^3
#
#
#
# Elastic Constant Matrix: (Units=GPa)
#
#
# Indices 1 2 3 4 5 6 
#
# 1 133.4265 32.8295 40.3968 0.0000 0.0000 0.0000
# 2 32.8295 96.7293 36.0539 0.0000 0.0000 0.0000
# 3 40.3968 36.0539 85.6861 0.0000 0.0000 0.0000
# 4 0.0000 0.0000 0.0000 35.2250 0.0000 0.0000
# 5 0.0000 0.0000 0.0000 0.0000 21.2748 0.0000
# 6 0.0000 0.0000 0.0000 0.0000 0.0000 25.3752
#
#
#
# Elastic Compliance Matrix: (Units=1/GPa)
#
#
# Indices 1 2 3 4 5 6 
#
# 1 0.008984 -0.001744 -0.003502 0.000000 0.000000 0.000000
# 2 -0.001744 0.012600 -0.004479 0.000000 0.000000 0.000000
# 3 -0.003502 -0.004479 0.015206 0.000000 0.000000 0.000000
# 4 0.000000 0.000000 0.000000 0.028389 0.000000 0.000000
# 5 0.000000 0.000000 0.000000 0.000000 0.047004 0.000000
# 6 0.000000 0.000000 0.000000 0.000000 0.000000 0.039409
#
#
# Mechanical properties :
#
#
# Convention : Reuss Voigt Hill
#
# Bulk Modulus (GPa) = 57.67082 59.37805 58.52443
# Shear Modulus (GPa) = 28.27713 30.14576 29.21144
#
# Velocity S-wave (km/s) = 3.71092 3.83157 3.77172
# Velocity P-wave (km/s) = 6.81519 6.96359 6.88979
#
# Compressibility (1/GPa) = 0.01733979
#
# Stress axis : x y z
#
# Youngs Moduli (GPa) = 111.30815 79.36764 65.76279
#
# Poissons Ratio (x) = 0.13841 0.23029
# Poissons Ratio (y) = 0.19411 0.29457
# Poissons Ratio (z) = 0.38977 0.35551
#
# Static dielectric constant tensor:
#      x y z
#    x 3.696420 0.000000 0.000000 
#    y 0.000000 3.718040 0.000000 
#    z 0.000000 0.000000 3.700000 
# 
# 
# High freq. dielectric constant tensor:
#      x y z
#    x 1.784230 0.000000 0.000000 
#    y 0.000000 1.796140 0.000000 
#    z 0.000000 0.000000 1.809970 
# 
# From -- ./inp_files/9510.got.cif
#   From: 2010.03.12/outbox.cif.g09.slc.cpg/sg36_5_cif.got.tgz:9510.got - 2010.04.14 02:13:53.
