data_PCOD8176456
_publ_section_title
;
Structure prediction by ZEFSAII (Michael W. Deem and Ramdas Pophale) SiO2 
 PCOD8176456
Probable space group: C C C 2
;
_chemical_formula_sum "Si O2"
_cell_formula_units_Z 64
_cell_length_a 9.076582
_cell_length_b 16.249224
_cell_length_c 21.174801
_cell_angle_alpha 90.000000
_cell_angle_beta 90.000000
_cell_angle_gamma 90.000000
_cell_volume 3123.016643
_symmetry_space_group_name_H-M "C C C 2"
_symmetry_group_IT_number 37
_symmetry_cell_setting 'orthorhombic'
loop_
_space_group_symop_operation_xyz
x,y,z
-x,-y,z
-x,y,1/2+z
x,-y,1/2+z
1/2+x,1/2+y,z
1/2-x,1/2-y,z
1/2-x,1/2+y,1/2+z
1/2+x,1/2-y,1/2+z
loop_
_atom_site_type_symbol
_atom_site_label
_atom_site_fract_x
_atom_site_fract_y
_atom_site_fract_z
Si Si1 0.560956 0.211361 0.923970
Si Si2 0.079029 0.913680 0.294518
Si Si3 0.249505 0.417963 0.485492
Si Si4 0.445258 0.615585 0.441967
Si Si5 0.589924 0.747190 0.282739
Si Si6 0.131339 0.584794 0.477906
Si Si7 0.430578 0.083181 0.596663
Si Si8 0.336003 0.834970 0.222232
O O1 0.493899 0.291348 0.957888
O O2 0.614082 0.238621 0.856184
O O3 0.704369 0.172071 0.958679
O O4 0.431892 0.141831 0.921850
O O5 0.101879 0.901639 0.369533
O O6 0.235353 0.904703 0.256930
O O7 0.973967 0.842627 0.267935
O O8 0.000000 0.000000 0.279236
O O9 0.413600 0.441184 0.461885
O O10 0.126825 0.486019 0.461486
O O11 0.229604 0.423944 0.561599
O O12 0.306342 0.599697 0.486998
O O13 0.750000 0.750000 0.249260
O O14 0.484347 0.820910 0.261546
O O15 0.046899 0.612944 0.542455
O O16 0.397455 0.143666 0.653414
O O17 0.500000 0.000000 0.625431
O O18 0.250000 0.750000 0.217536
#
# Coordination Sequence:
#
# PCOD8176456 Si02
#       8
#     8   8   8   8   8   8   8   8
#     4  10  19  34  54  81 117 149 179 225 286 346
#     4  10  21  38  60  88 118 148 186 233 288 349
#     4  10  20  36  57  81 114 149 182 227 283 341
#     4  11  20  33  57  89 117 141 177 229 287 340
#     4  10  21  37  57  84 115 149 191 237 286 341
#     4  10  20  35  56  82 112 146 186 230 276 331
#     4   9  21  40  57  78 111 150 192 231 274 332
#     4  10  22  41  61  79 110 154 194 238 286 332
#
# _framework density 20.493006000000001
#
# number of rings (size 3 to 8) (size 9 to 14) (size 15 to 20)
#    0.000    2.000    0.000    5.250    0.000    5.000 
#    0.000   10.000    0.000    1.500    0.000    0.000 
#    0.000    0.000    0.000    0.000    0.000    0.000 
#
# Total GULP energy -396448.748952 kJ/mol
# GULP energy per Si atom -12389.023405 kJ/mol
# Density = 2.044636 g / cm^3
# Si number density = 20.493006 Si / 1000 Ang^3
#
#
#
# Elastic Constant Matrix: (Units=GPa)
#
#
# Indices 1 2 3 4 5 6 
#
# 1 128.0061 24.4097 41.2120 0.0000 0.0000 0.0000
# 2 24.4097 71.5798 22.4487 0.0000 0.0000 0.0000
# 3 41.2120 22.4487 62.5914 0.0000 0.0000 0.0000
# 4 0.0000 0.0000 0.0000 23.7143 0.0000 0.0000
# 5 0.0000 0.0000 0.0000 0.0000 20.8175 0.0000
# 6 0.0000 0.0000 0.0000 0.0000 0.0000 25.0726
#
#
#
# Elastic Compliance Matrix: (Units=1/GPa)
#
#
# Indices 1 2 3 4 5 6 
#
# 1 0.010059 -0.001525 -0.006076 0.000000 0.000000 0.000000
# 2 -0.001525 0.015972 -0.004725 0.000000 0.000000 0.000000
# 3 -0.006076 -0.004725 0.021672 0.000000 0.000000 0.000000
# 4 0.000000 0.000000 0.000000 0.042169 0.000000 0.000000
# 5 0.000000 0.000000 0.000000 0.000000 0.048037 0.000000
# 6 0.000000 0.000000 0.000000 0.000000 0.000000 0.039884
#
#
# Mechanical properties :
#
#
# Convention : Reuss Voigt Hill
#
# Bulk Modulus (GPa) = 43.38030 48.70201 46.04116
# Shear Modulus (GPa) = 23.79502 25.52800 24.66151
#
# Velocity S-wave (km/s) = 3.41123 3.53327 3.47279
# Velocity P-wave (km/s) = 6.06050 6.36098 6.21256
#
# Compressibility (1/GPa) = 0.02305194
#
# Stress axis : x y z
#
# Youngs Moduli (GPa) = 99.41152 62.60928 46.14243
#
# Poissons Ratio (x) = 0.09546 0.28038
# Poissons Ratio (y) = 0.15157 0.21800
# Poissons Ratio (z) = 0.60407 0.29580
#
# Static dielectric constant tensor:
#      x y z
#    x 4.023570 0.000000 0.000000 
#    y 0.000000 3.924610 0.000000 
#    z 0.000000 0.000000 3.331810 
# 
# 
# High freq. dielectric constant tensor:
#      x y z
#    x 1.822890 0.000000 0.000000 
#    y 0.000000 1.811910 0.000000 
#    z 0.000000 0.000000 1.757560 
# 
# From -- ./inp_files/18448.got.cif
#   From: 2010.03.12/outbox.cif.g09.slc.cpg/sg37_10_cif.got.tgz:18448.got - 2010.04.14 02:25:27.
