data_PCOD8176143
_publ_section_title
;
Structure prediction by ZEFSAII (Michael W. Deem and Ramdas Pophale) SiO2 
 PCOD8176143
Probable space group: C M C 21
;
_chemical_formula_sum "Si O2"
_cell_formula_units_Z 40
_cell_length_a 9.621938
_cell_length_b 9.033447
_cell_length_c 20.110119
_cell_angle_alpha 90.000000
_cell_angle_beta 90.000000
_cell_angle_gamma 90.000000
_cell_volume 1747.956802
_symmetry_space_group_name_H-M "C M C 21"
_symmetry_group_IT_number 36
_symmetry_cell_setting 'orthorhombic'
loop_
_space_group_symop_operation_xyz
x,y,z
-x,-y,1/2+z
x,-y,1/2+z
-x,y,z
1/2+x,1/2+y,z
1/2-x,1/2-y,1/2+z
1/2+x,1/2-y,1/2+z
1/2-x,1/2+y,z
loop_
_atom_site_type_symbol
_atom_site_label
_atom_site_fract_x
_atom_site_fract_y
_atom_site_fract_z
Si Si1 0.150668 0.624871 0.868680
Si Si2 0.252597 0.378440 0.959117
Si Si3 0.849124 0.868250 0.549597
Si Si4 0.841891 0.450320 0.666639
Si Si5 0.341915 0.335910 0.245015
O O1 0.158099 0.469451 0.907422
O O2 0.152915 0.761333 0.919784
O O3 0.275420 0.637020 0.816590
O O4 0.000000 0.628767 0.832285
O O5 0.158539 0.287785 0.011087
O O6 0.347418 0.495534 0.998144
O O7 0.722443 0.875813 0.601180
O O8 0.000000 0.872871 0.585561
O O9 0.747158 0.588392 0.686734
O O10 0.841247 0.337737 0.728674
O O11 0.000000 0.499979 0.650750
O O12 0.500000 0.397582 0.245717
#
# Coordination Sequence:
#
# PCOD8176143 Si02
#       5
#     8   8   8   8   8
#     4  11  23  41  65  92 125 164 206 253 306 365
#     4  10  24  40  62  94 128 162 204 252 306 366
#     4  11  23  41  65  92 125 164 206 253 306 365
#     4  11  25  43  64  92 125 162 207 257 309 367
#     4  11  25  43  64  92 125 162 207 257 309 367
#
# _framework density 22.883861
#
# number of rings (size 3 to 8) (size 9 to 14) (size 15 to 20)
#    0.000    1.200    0.000    4.800    0.000   19.200 
#    0.000    0.000    0.000    0.000    0.000    0.000 
#    0.000    0.000    0.000    0.000    0.000    0.000 
#
# Total GULP energy -248041.417070 kJ/mol
# GULP energy per Si atom -12402.070854 kJ/mol
# Density = 2.283178 g / cm^3
# Si number density = 22.883861 Si / 1000 Ang^3
#
#
#
# Elastic Constant Matrix: (Units=GPa)
#
#
# Indices 1 2 3 4 5 6 
#
# 1 186.6799 18.3505 31.1836 0.0000 0.0000 0.0000
# 2 18.3505 92.5258 2.3029 0.0000 0.0000 0.0000
# 3 31.1836 2.3029 74.9933 0.0000 0.0000 0.0000
# 4 0.0000 0.0000 0.0000 27.6220 0.0000 0.0000
# 5 0.0000 0.0000 0.0000 0.0000 34.6826 0.0000
# 6 0.0000 0.0000 0.0000 0.0000 0.0000 16.3742
#
#
#
# Elastic Compliance Matrix: (Units=1/GPa)
#
#
# Indices 1 2 3 4 5 6 
#
# 1 0.005867 -0.001104 -0.002406 0.000000 0.000000 0.000000
# 2 -0.001104 0.011024 0.000120 0.000000 0.000000 0.000000
# 3 -0.002406 0.000120 0.014331 0.000000 0.000000 0.000000
# 4 0.000000 0.000000 0.000000 0.036203 0.000000 0.000000
# 5 0.000000 0.000000 0.000000 0.000000 0.028833 0.000000
# 6 0.000000 0.000000 0.000000 0.000000 0.000000 0.061072
#
#
# Mechanical properties :
#
#
# Convention : Reuss Voigt Hill
#
# Bulk Modulus (GPa) = 40.91004 50.87479 45.89242
# Shear Modulus (GPa) = 29.02662 35.89324 32.45993
#
# Velocity S-wave (km/s) = 3.56537 3.96472 3.77034
# Velocity P-wave (km/s) = 5.90468 6.57561 6.24915
#
# Compressibility (1/GPa) = 0.02444388
#
# Stress axis : x y z
#
# Youngs Moduli (GPa) = 170.44125 90.71363 69.77791
#
# Poissons Ratio (x) = 0.10012 0.16787
# Poissons Ratio (y) = 0.18812 -0.00840
# Poissons Ratio (z) = 0.41004 -0.01093
#
# Static dielectric constant tensor:
#      x y z
#    x 3.993990 0.000000 0.000000 
#    y 0.000000 4.260320 0.000000 
#    z 0.000000 0.000000 3.953850 
# 
# 
# High freq. dielectric constant tensor:
#      x y z
#    x 1.905880 0.000000 0.000000 
#    y 0.000000 1.914940 0.000000 
#    z 0.000000 0.000000 1.899330 
# 
# From -- ./inp_files/16408.got.cif
#   From: 2010.03.12/outbox.cif.g09.slc.cpg/sg36_9_cif.got.tgz:16408.got - 2010.04.14 02:13:53.
