data_PCOD8176490
_publ_section_title
;
Structure prediction by ZEFSAII (Michael W. Deem and Ramdas Pophale) SiO2 
 PCOD8176490
Probable space group: C C C 2
;
_chemical_formula_sum "Si O2"
_cell_formula_units_Z 60
_cell_length_a 15.835394
_cell_length_b 12.430453
_cell_length_c 14.838711
_cell_angle_alpha 90.000000
_cell_angle_beta 90.000000
_cell_angle_gamma 90.000000
_cell_volume 2920.868505
_symmetry_space_group_name_H-M "C C C 2"
_symmetry_group_IT_number 37
_symmetry_cell_setting 'orthorhombic'
loop_
_space_group_symop_operation_xyz
x,y,z
-x,-y,z
-x,y,1/2+z
x,-y,1/2+z
1/2+x,1/2+y,z
1/2-x,1/2-y,z
1/2-x,1/2+y,1/2+z
1/2+x,1/2-y,1/2+z
loop_
_atom_site_type_symbol
_atom_site_label
_atom_site_fract_x
_atom_site_fract_y
_atom_site_fract_z
Si Si1 0.091802 0.356864 0.104300
Si Si2 0.099323 0.230326 0.932702
Si Si3 0.500000 0.000000 0.229236
Si Si4 0.449686 0.599570 0.854514
Si Si5 0.237673 0.488836 0.639602
Si Si6 0.335118 0.908216 0.310162
Si Si7 0.672888 0.686267 0.221837
Si Si8 0.800906 0.979755 0.951448
O O1 0.150676 0.460398 0.106211
O O2 0.144526 0.254479 0.136618
O O3 0.012176 0.392783 0.165873
O O4 0.071258 0.324228 0.002033
O O5 0.139807 0.289356 0.845289
O O6 0.167755 0.143295 0.968534
O O7 0.012912 0.169256 0.913473
O O8 0.418831 0.980238 0.292792
O O9 0.500000 0.500000 0.808623
O O10 0.410310 0.679288 0.782099
O O11 0.374344 0.553151 0.913461
O O12 0.215853 0.396404 0.714037
O O13 0.299176 0.568600 0.692926
O O14 0.280837 0.457100 0.545105
O O15 0.278568 0.973231 0.383320
O O16 0.750000 0.750000 0.270982
#
# Coordination Sequence:
#
# PCOD8176490 Si02
#       8
#     8   8   4   8   8   8   8   8
#     4  10  20  37  62  89 125 165 211 261 320 394
#     4  11  22  39  64  93 130 171 215 266 323 394
#     4  10  24  40  56 102 128 164 210 266 338 382
#     4  10  23  41  59  95 132 169 211 266 327 386
#     4  10  20  37  62  94 120 163 219 266 313 384
#     4  11  22  39  66  94 128 165 215 271 322 382
#     4  10  19  37  63  86 118 163 215 256 314 383
#     4  11  21  41  66  94 125 173 225 258 323 394
#
# _framework density 20.541836
#
# number of rings (size 3 to 8) (size 9 to 14) (size 15 to 20)
#    0.000    1.600    4.000    1.200    0.000    0.533 
#    2.400    2.667    0.000    0.000    0.000    0.000 
#    0.000    0.000    0.000    0.000    0.000    0.000 
#
# Total GULP energy -371723.375281 kJ/mol
# GULP energy per Si atom -12390.779176 kJ/mol
# Density = 2.049508 g / cm^3
# Si number density = 20.541836 Si / 1000 Ang^3
#
#
#
# Elastic Constant Matrix: (Units=GPa)
#
#
# Indices 1 2 3 4 5 6 
#
# 1 114.2026 31.0901 53.6155 0.0000 0.0000 0.0000
# 2 31.0901 66.3325 33.8542 0.0000 0.0000 0.0000
# 3 53.6155 33.8542 102.1283 0.0000 0.0000 0.0000
# 4 0.0000 0.0000 0.0000 9.4775 0.0000 0.0000
# 5 0.0000 0.0000 0.0000 0.0000 9.3348 0.0000
# 6 0.0000 0.0000 0.0000 0.0000 0.0000 31.9346
#
#
#
# Elastic Compliance Matrix: (Units=1/GPa)
#
#
# Indices 1 2 3 4 5 6 
#
# 1 0.012072 -0.002917 -0.005371 0.000000 0.000000 0.000000
# 2 -0.002917 0.018850 -0.004717 0.000000 0.000000 0.000000
# 3 -0.005371 -0.004717 0.014175 0.000000 0.000000 0.000000
# 4 0.000000 0.000000 0.000000 0.105513 0.000000 0.000000
# 5 0.000000 0.000000 0.000000 0.000000 0.107126 0.000000
# 6 0.000000 0.000000 0.000000 0.000000 0.000000 0.031314
#
#
# Mechanical properties :
#
#
# Convention : Reuss Voigt Hill
#
# Bulk Modulus (GPa) = 52.39105 57.75367 55.07236
# Shear Modulus (GPa) = 15.55591 21.08964 18.32278
#
# Velocity S-wave (km/s) = 2.75486 3.20764 2.98983
# Velocity P-wave (km/s) = 5.97318 6.47262 6.22791
#
# Compressibility (1/GPa) = 0.01908723
#
# Stress axis : x y z
#
# Youngs Moduli (GPa) = 82.83737 53.04936 70.54813
#
# Poissons Ratio (x) = 0.15475 0.37888
# Poissons Ratio (y) = 0.24165 0.33279
# Poissons Ratio (z) = 0.44488 0.25025
#
# Static dielectric constant tensor:
#      x y z
#    x 3.963410 0.000000 0.000000 
#    y 0.000000 3.641520 0.000000 
#    z 0.000000 0.000000 3.773570 
# 
# 
# High freq. dielectric constant tensor:
#      x y z
#    x 1.814280 0.000000 0.000000 
#    y 0.000000 1.779720 0.000000 
#    z 0.000000 0.000000 1.797540 
# 
# From -- ./inp_files/12255.got.cif
#   From: 2010.03.12/outbox.cif.g09.slc.cpg/sg37_7_cif.got.tgz:12255.got - 2010.04.14 02:25:27.
