data_PCOD8176853
_publ_section_title
;
Structure prediction by ZEFSAII (Michael W. Deem and Ramdas Pophale) SiO2 
 PCOD8176853
Probable space group: C C C 2
;
_chemical_formula_sum "Si O2"
_cell_formula_units_Z 56
_cell_length_a 20.421402
_cell_length_b 13.081305
_cell_length_c 9.662697
_cell_angle_alpha 90.000000
_cell_angle_beta 90.000000
_cell_angle_gamma 90.000000
_cell_volume 2581.279234
_symmetry_space_group_name_H-M "C C C 2"
_symmetry_group_IT_number 37
_symmetry_cell_setting 'orthorhombic'
loop_
_space_group_symop_operation_xyz
x,y,z
-x,-y,z
-x,y,1/2+z
x,-y,1/2+z
1/2+x,1/2+y,z
1/2-x,1/2-y,z
1/2-x,1/2+y,1/2+z
1/2+x,1/2-y,1/2+z
loop_
_atom_site_type_symbol
_atom_site_label
_atom_site_fract_x
_atom_site_fract_y
_atom_site_fract_z
Si Si1 0.420095 0.125565 0.752170
Si Si2 0.180671 0.211632 0.797691
Si Si3 0.561386 0.786568 0.305299
Si Si4 0.180193 0.792115 0.621392
Si Si5 0.925266 0.475938 0.976424
Si Si6 0.441134 0.567312 0.911514
Si Si7 0.862147 0.011016 0.169591
O O1 0.375875 0.223943 0.721328
O O2 0.495606 0.163762 0.739767
O O3 0.408517 0.034883 0.638535
O O4 0.393861 0.073489 0.896070
O O5 0.250000 0.250000 0.744593
O O6 0.178412 0.094339 0.753873
O O7 0.171101 0.226598 0.960081
O O8 0.616801 0.759667 0.192493
O O9 0.594082 0.867561 0.408863
O O10 0.540125 0.686212 0.392680
O O11 0.250000 0.750000 0.675986
O O12 0.183651 0.912669 0.651312
O O13 0.000000 0.500000 0.949512
O O14 0.500000 0.500000 0.973217
O O15 0.424385 0.520032 0.762150
O O16 0.382429 0.556661 0.021097
#
# Coordination Sequence:
#
# PCOD8176853 Si02
#       7
#     8   8   8   8   8   8   8
#     4  11  24  42  69  98 140 175 233 278 346 400
#     4  11  25  46  68 100 137 181 225 281 340 406
#     4  10  23  38  69  96 136 175 229 277 338 403
#     4  10  24  45  71  98 136 181 225 277 345 406
#     4  10  22  40  62 102 135 177 222 284 333 404
#     4  11  22  38  65  99 134 176 219 281 344 401
#     4  11  22  43  65  99 134 173 229 276 332 410
#
# _framework density 21.694669999999999
#
# number of rings (size 3 to 8) (size 9 to 14) (size 15 to 20)
#    0.000    1.429    1.429    3.429    6.000    3.429 
#    2.571    6.429    0.000    0.000    0.000    0.000 
#    0.000    0.000    0.000    0.000    0.000    0.000 
#
# Total GULP energy -347109.936475 kJ/mol
# GULP energy per Si atom -12396.783446 kJ/mol
# Density = 2.164529 g / cm^3
# Si number density = 21.694670 Si / 1000 Ang^3
#
#
#
# Elastic Constant Matrix: (Units=GPa)
#
#
# Indices 1 2 3 4 5 6 
#
# 1 101.2055 44.7764 30.7675 0.0000 0.0000 0.0000
# 2 44.7764 136.3498 32.2264 0.0000 0.0000 0.0000
# 3 30.7675 32.2264 81.9512 0.0000 0.0000 0.0000
# 4 0.0000 0.0000 0.0000 40.1934 0.0000 0.0000
# 5 0.0000 0.0000 0.0000 0.0000 22.4640 0.0000
# 6 0.0000 0.0000 0.0000 0.0000 0.0000 28.4118
#
#
#
# Elastic Compliance Matrix: (Units=1/GPa)
#
#
# Indices 1 2 3 4 5 6 
#
# 1 0.012343 -0.003261 -0.003351 0.000000 0.000000 0.000000
# 2 -0.003261 0.008947 -0.002294 0.000000 0.000000 0.000000
# 3 -0.003351 -0.002294 0.014363 0.000000 0.000000 0.000000
# 4 0.000000 0.000000 0.000000 0.024880 0.000000 0.000000
# 5 0.000000 0.000000 0.000000 0.000000 0.044516 0.000000
# 6 0.000000 0.000000 0.000000 0.000000 0.000000 0.035197
#
#
# Mechanical properties :
#
#
# Convention : Reuss Voigt Hill
#
# Bulk Modulus (GPa) = 56.05599 59.44967 57.75283
# Shear Modulus (GPa) = 30.48703 32.32959 31.40831
#
# Velocity S-wave (km/s) = 3.75277 3.86451 3.80905
# Velocity P-wave (km/s) = 6.68374 6.88295 6.78408
#
# Compressibility (1/GPa) = 0.01783931
#
# Stress axis : x y z
#
# Youngs Moduli (GPa) = 81.02040 111.76679 69.62448
#
# Poissons Ratio (x) = 0.36448 0.23334
# Poissons Ratio (y) = 0.26422 0.15972
# Poissons Ratio (z) = 0.27154 0.25640
#
# Static dielectric constant tensor:
#      x y z
#    x 3.563860 0.000000 0.000000 
#    y 0.000000 4.244760 0.000000 
#    z 0.000000 0.000000 3.877850 
# 
# 
# High freq. dielectric constant tensor:
#      x y z
#    x 1.819480 0.000000 0.000000 
#    y 0.000000 1.875140 0.000000 
#    z 0.000000 0.000000 1.855850 
# 
# From -- ./inp_files/4382.got.cif
#   From: 2010.03.12/outbox.cif.g09.slc.cpg/sg37_3_cif.got.tgz:4382.got - 2010.04.14 02:25:27.
