data_PCOD8176591
_publ_section_title
;
Structure prediction by ZEFSAII (Michael W. Deem and Ramdas Pophale) SiO2 
 PCOD8176591
Probable space group: C C C 2
;
_chemical_formula_sum "Si O2"
_cell_formula_units_Z 56
_cell_length_a 15.508877
_cell_length_b 34.078179
_cell_length_c 5.123567
_cell_angle_alpha 90.000000
_cell_angle_beta 90.000000
_cell_angle_gamma 90.000000
_cell_volume 2707.878357
_symmetry_space_group_name_H-M "C C C 2"
_symmetry_group_IT_number 37
_symmetry_cell_setting 'orthorhombic'
loop_
_space_group_symop_operation_xyz
x,y,z
-x,-y,z
-x,y,1/2+z
x,-y,1/2+z
1/2+x,1/2+y,z
1/2-x,1/2-y,z
1/2-x,1/2+y,1/2+z
1/2+x,1/2-y,1/2+z
loop_
_atom_site_type_symbol
_atom_site_label
_atom_site_fract_x
_atom_site_fract_y
_atom_site_fract_z
Si Si1 0.097064 0.017473 0.224850
Si Si2 0.153302 0.894925 0.746971
Si Si3 0.810047 0.783957 0.593351
Si Si4 0.746566 0.868362 0.738260
Si Si5 0.446893 0.680329 0.748166
Si Si6 0.445210 0.853370 0.340657
Si Si7 0.054021 0.261774 0.887062
O O1 0.103773 0.063928 0.250631
O O2 0.146031 0.996776 0.465046
O O3 0.000000 0.000000 0.200510
O O4 0.200193 0.886555 0.475284
O O5 0.074046 0.865304 0.785263
O O6 0.223882 0.891033 0.977164
O O7 0.750000 0.750000 0.477647
O O8 0.762282 0.821749 0.713051
O O9 0.863389 0.795907 0.337983
O O10 0.862305 0.763736 0.828326
O O11 0.644954 0.875587 0.790520
O O12 0.472639 0.689659 0.445442
O O13 0.487260 0.865464 0.615551
O O14 0.425159 0.807168 0.345127
O O15 0.976627 0.251036 0.682244
#
# Coordination Sequence:
#
# PCOD8176591 Si02
#       7
#     8   8   8   8   8   8   8
#     4  10  22  38  64  95 127 167 212 239 295 365
#     4  11  24  40  64  92 131 165 206 264 301 382
#     4  11  22  40  56  82 113 163 219 271 326 384
#     4  11  23  41  59  91 124 168 205 273 333 366
#     4  11  24  40  59  81 118 161 214 258 321 368
#     4  10  20  37  59  85 113 157 206 264 319 381
#     4  10  21  37  56  75 107 146 207 270 312 361
#
# _framework density 20.680396999999999
#
# number of rings (size 3 to 8) (size 9 to 14) (size 15 to 20)
#    0.000    1.429    1.429    4.286    4.000    2.286 
#    0.000    7.143    0.000    0.000    0.000    0.000 
#    0.000   40.000    0.000    0.000    0.000    0.000 
#
# Total GULP energy -347149.511911 kJ/mol
# GULP energy per Si atom -12398.196854 kJ/mol
# Density = 2.063333 g / cm^3
# Si number density = 20.680397 Si / 1000 Ang^3
#
#
#
# Elastic Constant Matrix: (Units=GPa)
#
#
# Indices 1 2 3 4 5 6 
#
# 1 93.1811 32.3854 22.4028 0.0000 0.0000 0.0000
# 2 32.3854 96.5031 18.3633 0.0000 0.0000 0.0000
# 3 22.4028 18.3633 131.5941 0.0000 0.0000 0.0000
# 4 0.0000 0.0000 0.0000 24.2357 0.0000 0.0000
# 5 0.0000 0.0000 0.0000 0.0000 22.8508 0.0000
# 6 0.0000 0.0000 0.0000 0.0000 0.0000 27.6104
#
#
#
# Elastic Compliance Matrix: (Units=1/GPa)
#
#
# Indices 1 2 3 4 5 6 
#
# 1 0.012460 -0.003881 -0.001580 0.000000 0.000000 0.000000
# 2 -0.003881 0.011854 -0.000993 0.000000 0.000000 0.000000
# 3 -0.001580 -0.000993 0.008007 0.000000 0.000000 0.000000
# 4 0.000000 0.000000 0.000000 0.041261 0.000000 0.000000
# 5 0.000000 0.000000 0.000000 0.000000 0.043762 0.000000
# 6 0.000000 0.000000 0.000000 0.000000 0.000000 0.036218
#
#
# Mechanical properties :
#
#
# Convention : Reuss Voigt Hill
#
# Bulk Modulus (GPa) = 51.51276 51.95348 51.73312
# Shear Modulus (GPa) = 28.91144 31.48117 30.19631
#
# Velocity S-wave (km/s) = 3.74306 3.90586 3.82533
# Velocity P-wave (km/s) = 6.60634 6.74668 6.67687
#
# Compressibility (1/GPa) = 0.01941267
#
# Stress axis : x y z
#
# Youngs Moduli (GPa) = 80.25399 84.36104 124.89558
#
# Poissons Ratio (x) = 0.32740 0.19730
# Poissons Ratio (y) = 0.31146 0.12408
# Poissons Ratio (z) = 0.12678 0.08381
#
# Static dielectric constant tensor:
#      x y z
#    x 3.694620 0.000000 0.000000 
#    y 0.000000 3.603830 0.000000 
#    z 0.000000 0.000000 4.636770 
# 
# 
# High freq. dielectric constant tensor:
#      x y z
#    x 1.790020 0.000000 0.000000 
#    y 0.000000 1.784770 0.000000 
#    z 0.000000 0.000000 1.838090 
# 
# From -- ./inp_files/628.got.cif
#   From: 2010.03.12/outbox.cif.g09.slc.cpg/sg37_1_cif.got.tgz:628.got - 2010.04.14 02:25:27.
