data_PCOD8176245
_publ_section_title
;
Structure prediction by ZEFSAII (Michael W. Deem and Ramdas Pophale) SiO2 
 PCOD8176245
Probable space group: C M C 21
;
_chemical_formula_sum "Si O2"
_cell_formula_units_Z 48
_cell_length_a 14.915717
_cell_length_b 8.656807
_cell_length_c 16.797415
_cell_angle_alpha 90.000000
_cell_angle_beta 90.000000
_cell_angle_gamma 90.000000
_cell_volume 2168.923938
_symmetry_space_group_name_H-M "C M C 21"
_symmetry_group_IT_number 36
_symmetry_cell_setting 'orthorhombic'
loop_
_space_group_symop_operation_xyz
x,y,z
-x,-y,1/2+z
x,-y,1/2+z
-x,y,z
1/2+x,1/2+y,z
1/2-x,1/2-y,1/2+z
1/2+x,1/2-y,1/2+z
1/2-x,1/2+y,z
loop_
_atom_site_type_symbol
_atom_site_label
_atom_site_fract_x
_atom_site_fract_y
_atom_site_fract_z
Si Si1 0.304947 0.011442 0.677420
Si Si2 0.313528 0.550288 0.021615
Si Si3 0.500000 0.006889 0.657189
Si Si4 0.179521 0.791007 0.270563
Si Si5 0.000000 0.815765 0.212036
Si Si6 0.000000 0.552600 0.975670
Si Si7 0.324916 0.862884 0.940236
Si Si8 0.500000 0.616119 0.526913
O O1 0.403258 0.095407 0.664358
O O2 0.261623 0.095265 0.753229
O O3 0.239349 0.004714 0.600996
O O4 0.320694 0.834874 0.700269
O O5 0.412730 0.485955 0.012455
O O6 0.320885 0.736022 0.011841
O O7 0.257192 0.480959 0.948243
O O8 0.500000 0.871184 0.723257
O O9 0.500000 0.942420 0.569462
O O10 0.086432 0.884852 0.257840
O O11 0.186334 0.724608 0.357857
O O12 0.000000 0.847360 0.119459
O O13 0.000000 0.739609 0.963550
O O14 0.914570 0.465250 0.940166
#
# Coordination Sequence:
#
# PCOD8176245 Si02
#       8
#     8   8   4   8   4   4   8   4
#     4  11  22  41  66  92 127 170 221 267 323 396
#     4  12  24  42  66  99 131 174 222 276 326 392
#     4   9  20  37  64  93 118 159 223 265 311 381
#     4  11  23  42  64  95 131 172 212 267 334 393
#     4   9  19  38  64  88 124 167 207 263 321 380
#     4  11  22  41  68  95 133 171 221 277 330 389
#     4  12  25  41  66 100 137 173 218 273 335 394
#     4  11  23  42  68 100 127 173 227 281 322 386
#
# _framework density 22.130790000000001
#
# number of rings (size 3 to 8) (size 9 to 14) (size 15 to 20)
#    0.000    1.000    3.333    4.000    2.333    0.000 
#    0.000    1.667    0.000    0.000    0.000    0.000 
#    0.000    0.000    0.000    0.000    0.000    0.000 
#
# Total GULP energy -297373.858967 kJ/mol
# GULP energy per Si atom -12390.577457 kJ/mol
# Density = 2.208042 g / cm^3
# Si number density = 22.130790 Si / 1000 Ang^3
#
#
#
# Elastic Constant Matrix: (Units=GPa)
#
#
# Indices 1 2 3 4 5 6 
#
# 1 198.6166 36.0363 16.8588 0.0000 0.0000 0.0000
# 2 36.0363 70.0571 -4.4630 0.0000 0.0000 0.0000
# 3 16.8588 -4.4630 54.8817 0.0000 0.0000 0.0000
# 4 0.0000 0.0000 0.0000 25.8659 0.0000 0.0000
# 5 0.0000 0.0000 0.0000 0.0000 25.3521 0.0000
# 6 0.0000 0.0000 0.0000 0.0000 0.0000 32.8714
#
#
#
# Elastic Compliance Matrix: (Units=1/GPa)
#
#
# Indices 1 2 3 4 5 6 
#
# 1 0.005768 -0.003096 -0.002024 0.000000 0.000000 0.000000
# 2 -0.003096 0.016010 0.002253 0.000000 0.000000 0.000000
# 3 -0.002024 0.002253 0.019026 0.000000 0.000000 0.000000
# 4 0.000000 0.000000 0.000000 0.038661 0.000000 0.000000
# 5 0.000000 0.000000 0.000000 0.000000 0.039444 0.000000
# 6 0.000000 0.000000 0.000000 0.000000 0.000000 0.030422
#
#
# Mechanical properties :
#
#
# Convention : Reuss Voigt Hill
#
# Bulk Modulus (GPa) = 28.51372 46.71329 37.61350
# Shear Modulus (GPa) = 29.98409 35.15944 32.57176
#
# Velocity S-wave (km/s) = 3.68483 3.99019 3.84055
# Velocity P-wave (km/s) = 5.56921 6.51018 6.05800
#
# Compressibility (1/GPa) = 0.03507084
#
# Stress axis : x y z
#
# Youngs Moduli (GPa) = 173.36006 62.46027 52.56003
#
# Poissons Ratio (x) = 0.19338 0.10637
# Poissons Ratio (y) = 0.53673 -0.11842
# Poissons Ratio (z) = 0.35083 -0.14072
#
# Static dielectric constant tensor:
#      x y z
#    x 4.461840 0.000000 0.000000 
#    y 0.000000 3.940370 0.000000 
#    z 0.000000 0.000000 3.698670 
# 
# 
# High freq. dielectric constant tensor:
#      x y z
#    x 1.897620 0.000000 0.000000 
#    y 0.000000 1.851100 0.000000 
#    z 0.000000 0.000000 1.859580 
# 
# From -- ./inp_files/14607.got.cif
#   From: 2010.03.12/outbox.cif.g09.slc.cpg/sg36_8_cif.got.tgz:14607.got - 2010.04.14 02:13:53.
