data_PCOD8176077
_publ_section_title
;
Structure prediction by ZEFSAII (Michael W. Deem and Ramdas Pophale) SiO2 
 PCOD8176077
Probable space group: C M C 21
;
_chemical_formula_sum "Si O2"
_cell_formula_units_Z 32
_cell_length_a 17.979709
_cell_length_b 13.923191
_cell_length_c 5.145148
_cell_angle_alpha 90.000000
_cell_angle_beta 90.000000
_cell_angle_gamma 90.000000
_cell_volume 1288.010226
_symmetry_space_group_name_H-M "C M C 21"
_symmetry_group_IT_number 36
_symmetry_cell_setting 'orthorhombic'
loop_
_space_group_symop_operation_xyz
x,y,z
-x,-y,1/2+z
x,-y,1/2+z
-x,y,z
1/2+x,1/2+y,z
1/2-x,1/2-y,1/2+z
1/2+x,1/2-y,1/2+z
1/2-x,1/2+y,z
loop_
_atom_site_type_symbol
_atom_site_label
_atom_site_fract_x
_atom_site_fract_y
_atom_site_fract_z
Si Si1 0.086359 0.241707 0.455830
Si Si2 0.718003 0.298373 0.288492
Si Si3 0.662738 0.061716 0.829701
Si Si4 0.087283 0.949355 0.692396
O O1 0.130830 0.208816 0.715979
O O2 0.108763 0.346320 0.357723
O O3 0.106121 0.163340 0.231531
O O4 0.000000 0.237623 0.532491
O O5 0.734351 0.231088 0.532991
O O6 0.750890 0.404494 0.352178
O O7 0.644497 0.013104 0.556229
O O8 0.000000 0.968008 0.692377
O O9 0.123001 0.987057 0.425550
#
# Coordination Sequence:
#
# PCOD8176077 Si02
#       4
#     8   8   8   8
#     4  10  23  43  70 104 142 183 237 308 370 427
#     4  10  22  43  66  92 132 183 239 293 350 422
#     4  11  24  43  68  99 139 190 237 281 348 438
#     4   9  19  35  56  87 126 166 211 270 345 413
#
# _framework density 24.844524
#
# number of rings (size 3 to 8) (size 9 to 14) (size 15 to 20)
#    0.000    2.000    0.000    3.000    0.000    9.000 
#    0.000   17.500    0.000    0.000    0.000    0.000 
#    0.000    0.000    0.000    0.000    0.000    0.000 
#
# Total GULP energy -198335.732256 kJ/mol
# GULP energy per Si atom -12395.983266 kJ/mol
# Density = 2.478798 g / cm^3
# Si number density = 24.844524 Si / 1000 Ang^3
#
#
#
# Elastic Constant Matrix: (Units=GPa)
#
#
# Indices 1 2 3 4 5 6 
#
# 1 113.2997 43.9334 -1.6675 0.0000 0.0000 0.0000
# 2 43.9334 131.5590 26.6974 0.0000 0.0000 0.0000
# 3 -1.6675 26.6974 88.9062 0.0000 0.0000 0.0000
# 4 0.0000 0.0000 0.0000 41.5606 0.0000 0.0000
# 5 0.0000 0.0000 0.0000 0.0000 23.3269 0.0000
# 6 0.0000 0.0000 0.0000 0.0000 0.0000 40.2211
#
#
#
# Elastic Compliance Matrix: (Units=1/GPa)
#
#
# Indices 1 2 3 4 5 6 
#
# 1 0.010279 -0.003697 0.001303 0.000000 0.000000 0.000000
# 2 -0.003697 0.009424 -0.002899 0.000000 0.000000 0.000000
# 3 0.001303 -0.002899 0.012143 0.000000 0.000000 0.000000
# 4 0.000000 0.000000 0.000000 0.024061 0.000000 0.000000
# 5 0.000000 0.000000 0.000000 0.000000 0.042869 0.000000
# 6 0.000000 0.000000 0.000000 0.000000 0.000000 0.024863
#
#
# Mechanical properties :
#
#
# Convention : Reuss Voigt Hill
#
# Bulk Modulus (GPa) = 47.03844 52.41017 49.72430
# Shear Modulus (GPa) = 35.38278 38.67516 37.02897
#
# Velocity S-wave (km/s) = 3.77791 3.94977 3.86479
# Velocity P-wave (km/s) = 6.16477 6.47626 6.32243
#
# Compressibility (1/GPa) = 0.02125921
#
# Stress axis : x y z
#
# Youngs Moduli (GPa) = 97.28692 106.11105 82.35289
#
# Poissons Ratio (x) = 0.39229 -0.10730
# Poissons Ratio (y) = 0.35967 0.23876
# Poissons Ratio (z) = -0.12676 0.30765
#
# Static dielectric constant tensor:
#      x y z
#    x 4.414870 0.000000 0.000000 
#    y 0.000000 4.575440 0.000000 
#    z 0.000000 0.000000 4.819190 
# 
# 
# High freq. dielectric constant tensor:
#      x y z
#    x 1.977350 0.000000 0.000000 
#    y 0.000000 1.999170 0.000000 
#    z 0.000000 0.000000 2.002710 
# 
# From -- ./inp_files/1008.got.cif
#   From: 2010.03.12/outbox.cif.g09.slc.cpg/sg36_1_cif.got.tgz:1008.got - 2010.04.14 02:13:53.
