data_PCOD8176872
_publ_section_title
;
Structure prediction by ZEFSAII (Michael W. Deem and Ramdas Pophale) SiO2 
 PCOD8176872
Probable space group: C C C 2
;
_chemical_formula_sum "Si O2"
_cell_formula_units_Z 56
_cell_length_a 5.659649
_cell_length_b 14.456088
_cell_length_c 28.482917
_cell_angle_alpha 90.000000
_cell_angle_beta 90.000000
_cell_angle_gamma 90.000000
_cell_volume 2330.369275
_symmetry_space_group_name_H-M "C C C 2"
_symmetry_group_IT_number 37
_symmetry_cell_setting 'orthorhombic'
loop_
_space_group_symop_operation_xyz
x,y,z
-x,-y,z
-x,y,1/2+z
x,-y,1/2+z
1/2+x,1/2+y,z
1/2-x,1/2-y,z
1/2-x,1/2+y,1/2+z
1/2+x,1/2-y,1/2+z
loop_
_atom_site_type_symbol
_atom_site_label
_atom_site_fract_x
_atom_site_fract_y
_atom_site_fract_z
Si Si1 0.578070 0.604322 0.577370
Si Si2 0.750000 0.250000 0.610174
Si Si3 0.538519 0.602856 0.302288
Si Si4 0.374097 0.344397 0.404271
Si Si5 0.250000 0.250000 0.963160
Si Si6 0.094688 0.600993 0.991875
Si Si7 0.041023 0.604521 0.267168
Si Si8 0.425594 0.103177 0.657499
O O1 0.500000 0.500000 0.570400
O O2 0.372517 0.679101 0.574458
O O3 0.738551 0.631616 0.533908
O O4 0.685318 0.620809 0.629214
O O5 0.600318 0.185083 0.644391
O O6 0.500000 0.500000 0.281369
O O7 0.576305 0.596395 0.358054
O O8 0.278474 0.650770 0.291468
O O9 0.779298 0.650049 0.279262
O O10 0.250000 0.250000 0.388331
O O11 0.615401 0.321862 0.430054
O O12 0.215013 0.402688 0.440623
O O13 0.407408 0.183444 0.994948
O O14 0.000000 0.500000 0.003749
O O15 0.108843 0.608429 0.212808
O O16 0.000000 0.500000 0.285348
O O17 0.500000 0.000000 0.641610
#
# Coordination Sequence:
#
# PCOD8176872 Si02
#       8
#     8   4   8   8   4   8   8   8
#     4  12  28  50  75 112 148 196 250 311 380 460
#     4  12  28  49  76 106 148 196 248 310 383 458
#     4  10  22  41  72 107 144 197 251 306 378 451
#     4  10  25  45  68 104 142 191 241 308 374 442
#     4  10  26  49  70 102 148 188 240 314 369 452
#     4  11  28  48  75 106 142 194 248 303 381 452
#     4   9  22  41  71 108 147 196 253 310 376 447
#     4  11  24  48  77 106 149 200 250 316 375 453
#
# _framework density 24.030525999999998
#
# number of rings (size 3 to 8) (size 9 to 14) (size 15 to 20)
#    0.000    1.429    1.429    0.857   10.000    5.714 
#    1.286    0.000    0.000    0.000    0.000    0.000 
#    0.000    0.000    0.000    0.000    0.000    0.000 
#
# Total GULP energy -346948.154290 kJ/mol
# GULP energy per Si atom -12391.005510 kJ/mol
# Density = 2.397583 g / cm^3
# Si number density = 24.030526 Si / 1000 Ang^3
#
#
#
# Elastic Constant Matrix: (Units=GPa)
#
#
# Indices 1 2 3 4 5 6 
#
# 1 168.2510 30.5926 55.9341 0.0000 0.0000 0.0000
# 2 30.5926 99.0826 28.0545 0.0000 0.0000 0.0000
# 3 55.9341 28.0545 126.0504 0.0000 0.0000 0.0000
# 4 0.0000 0.0000 0.0000 190.6408 0.0000 0.0000
# 5 0.0000 0.0000 0.0000 0.0000 -18.3986 0.0000
# 6 0.0000 0.0000 0.0000 0.0000 0.0000 20.7977
#
#
#
# Elastic Compliance Matrix: (Units=1/GPa)
#
#
# Indices 1 2 3 4 5 6 
#
# 1 0.007149 -0.001397 -0.002861 0.000000 0.000000 0.000000
# 2 -0.001397 0.011044 -0.001838 0.000000 0.000000 0.000000
# 3 -0.002861 -0.001838 0.009612 0.000000 0.000000 0.000000
# 4 0.000000 0.000000 0.000000 0.005245 0.000000 0.000000
# 5 0.000000 0.000000 0.000000 0.000000 -0.054352 0.000000
# 6 0.000000 0.000000 0.000000 0.000000 0.000000 0.048082
#
#
# Mechanical properties :
#
#
# Convention : Reuss Voigt Hill
#
# Bulk Modulus (GPa) = 64.05228 69.17182 66.61205
# Shear Modulus (GPa) = 113.17825 57.19484 85.18655
#
# Velocity S-wave (km/s) = 6.87022 4.88391 5.96039
# Velocity P-wave (km/s) = 9.46814 7.78787 8.66881
#
# Compressibility (1/GPa) = 0.01561225
#
# Stress axis : x y z
#
# Youngs Moduli (GPa) = 139.88475 90.54349 104.03536
#
# Poissons Ratio (x) = 0.12650 0.29767
# Poissons Ratio (y) = 0.19543 0.19123
# Poissons Ratio (z) = 0.40025 0.16643
#
# Static dielectric constant tensor:
#      x y z
#    x 4.818240 0.000000 0.000000 
#    y 0.000000 4.121840 0.000000 
#    z 0.000000 0.000000 4.072920 
# 
# 
# High freq. dielectric constant tensor:
#      x y z
#    x 1.966960 0.000000 0.000000 
#    y 0.000000 1.949900 0.000000 
#    z 0.000000 0.000000 1.956690 
# 
# From -- ./inp_files/20175.got.cif
#   From: 2010.03.12/outbox.cif.g09.slc.cpg/sg37_11_cif.got.tgz:20175.got - 2010.04.14 02:25:27.
