data_PCOD8176152
_publ_section_title
;
Structure prediction by ZEFSAII (Michael W. Deem and Ramdas Pophale) SiO2 
 PCOD8176152
Probable space group: C M C 21
;
_chemical_formula_sum "Si O2"
_cell_formula_units_Z 40
_cell_length_a 9.655070
_cell_length_b 21.147219
_cell_length_c 8.859352
_cell_angle_alpha 90.000000
_cell_angle_beta 90.000000
_cell_angle_gamma 90.000000
_cell_volume 1808.883707
_symmetry_space_group_name_H-M "C M C 21"
_symmetry_group_IT_number 36
_symmetry_cell_setting 'orthorhombic'
loop_
_space_group_symop_operation_xyz
x,y,z
-x,-y,1/2+z
x,-y,1/2+z
-x,y,z
1/2+x,1/2+y,z
1/2-x,1/2-y,1/2+z
1/2+x,1/2-y,1/2+z
1/2-x,1/2+y,z
loop_
_atom_site_type_symbol
_atom_site_label
_atom_site_fract_x
_atom_site_fract_y
_atom_site_fract_z
Si Si1 0.766960 0.935431 0.338450
Si Si2 0.000000 0.124676 0.001468
Si Si3 0.500000 0.537890 0.282379
Si Si4 0.000000 0.589405 0.375518
Si Si5 0.500000 0.036340 0.032249
Si Si6 0.289692 0.851961 0.073772
Si Si7 0.500000 0.667773 0.457863
Si Si8 0.500000 0.752793 0.181029
O O1 0.640074 0.939806 0.454246
O O2 0.707607 0.915037 0.176419
O O3 0.863636 0.879372 0.399410
O O4 0.858751 0.999060 0.316247
O O5 0.000000 0.192426 0.074640
O O6 0.000000 0.062815 0.110935
O O7 0.500000 0.598728 0.386105
O O8 0.000000 0.558170 0.209181
O O9 0.862827 0.631688 0.411453
O O10 0.000000 0.538426 0.510341
O O11 0.365361 0.794798 0.156803
O O12 0.135397 0.826619 0.058265
O O13 0.500000 0.727849 0.349998
#
# Coordination Sequence:
#
# PCOD8176152 Si02
#       8
#     8   4   4   4   4   8   4   4
#     4  11  25  42  73 106 143 180 231 291 360 425
#     4  10  25  44  70 101 136 184 237 290 350 417
#     4  10  24  42  70 108 141 177 232 288 352 431
#     4  11  26  42  65 102 147 189 225 286 361 418
#     4  12  25  40  69 106 148 186 225 285 358 435
#     4  11  25  48  69 101 142 185 240 293 350 420
#     4  11  24  43  77  99 135 192 235 294 353 415
#     4  10  26  47  67 100 141 184 242 293 344 424
#
# _framework density 22.113087
#
# number of rings (size 3 to 8) (size 9 to 14) (size 15 to 20)
#    0.000    1.200    0.000    4.800   19.600    0.000 
#    0.000    0.000    0.000    0.000    0.000    0.000 
#    0.000    0.000    0.000    0.000    0.000    0.000 
#
# Total GULP energy -247918.921252 kJ/mol
# GULP energy per Si atom -12395.946063 kJ/mol
# Density = 2.206276 g / cm^3
# Si number density = 22.113087 Si / 1000 Ang^3
#
#
#
# Elastic Constant Matrix: (Units=GPa)
#
#
# Indices 1 2 3 4 5 6 
#
# 1 184.6381 54.2477 61.1869 0.0000 0.0000 0.0000
# 2 54.2477 102.7846 43.3216 0.0000 0.0000 0.0000
# 3 61.1869 43.3216 118.9758 0.0000 0.0000 0.0000
# 4 0.0000 0.0000 0.0000 27.6146 0.0000 0.0000
# 5 0.0000 0.0000 0.0000 0.0000 28.1293 0.0000
# 6 0.0000 0.0000 0.0000 0.0000 0.0000 23.4142
#
#
#
# Elastic Compliance Matrix: (Units=1/GPa)
#
#
# Indices 1 2 3 4 5 6 
#
# 1 0.007071 -0.002598 -0.002690 0.000000 0.000000 0.000000
# 2 -0.002598 0.012447 -0.003196 0.000000 0.000000 0.000000
# 3 -0.002690 -0.003196 0.010953 0.000000 0.000000 0.000000
# 4 0.000000 0.000000 0.000000 0.036213 0.000000 0.000000
# 5 0.000000 0.000000 0.000000 0.000000 0.035550 0.000000
# 6 0.000000 0.000000 0.000000 0.000000 0.000000 0.042709
#
#
# Mechanical properties :
#
#
# Convention : Reuss Voigt Hill
#
# Bulk Modulus (GPa) = 74.06590 80.43454 77.25022
# Shear Modulus (GPa) = 30.04583 32.34112 31.19347
#
# Velocity S-wave (km/s) = 3.69010 3.82846 3.75992
# Velocity P-wave (km/s) = 7.19185 7.48304 7.33889
#
# Compressibility (1/GPa) = 0.01350149
#
# Stress axis : x y z
#
# Youngs Moduli (GPa) = 141.42545 80.33824 91.30284
#
# Poissons Ratio (x) = 0.20871 0.24565
# Poissons Ratio (y) = 0.36741 0.29183
# Poissons Ratio (z) = 0.38050 0.25679
#
# Static dielectric constant tensor:
#      x y z
#    x 4.394700 0.000000 0.000000 
#    y 0.000000 3.905780 0.000000 
#    z 0.000000 0.000000 3.978370 
# 
# 
# High freq. dielectric constant tensor:
#      x y z
#    x 1.895670 0.000000 0.000000 
#    y 0.000000 1.862300 0.000000 
#    z 0.000000 0.000000 1.869520 
# 
# From -- ./inp_files/2484.got.cif
#   From: 2010.03.12/outbox.cif.g09.slc.cpg/sg36_2_cif.got.tgz:2484.got - 2010.04.14 02:13:53.
