data_PCOD8176711
_publ_section_title
;
Structure prediction by ZEFSAII (Michael W. Deem and Ramdas Pophale) SiO2 
 PCOD8176711
Probable space group: C C C 2
;
_chemical_formula_sum "Si O2"
_cell_formula_units_Z 48
_cell_length_a 8.756031
_cell_length_b 15.308990
_cell_length_c 18.550940
_cell_angle_alpha 90.000000
_cell_angle_beta 90.000000
_cell_angle_gamma 90.000000
_cell_volume 2486.679137
_symmetry_space_group_name_H-M "C C C 2"
_symmetry_group_IT_number 37
_symmetry_cell_setting 'orthorhombic'
loop_
_space_group_symop_operation_xyz
x,y,z
-x,-y,z
-x,y,1/2+z
x,-y,1/2+z
1/2+x,1/2+y,z
1/2-x,1/2-y,z
1/2-x,1/2+y,1/2+z
1/2+x,1/2-y,1/2+z
loop_
_atom_site_type_symbol
_atom_site_label
_atom_site_fract_x
_atom_site_fract_y
_atom_site_fract_z
Si Si1 0.678500 0.989970 0.167650
Si Si2 0.707111 0.655918 0.425498
Si Si3 0.405033 0.411859 0.879999
Si Si4 0.801918 0.344457 0.251755
Si Si5 0.174561 0.996117 0.519542
Si Si6 0.337791 0.841080 0.775252
O O1 0.726403 0.964965 0.086911
O O2 0.733700 0.913374 0.221454
O O3 0.500000 0.000000 0.171531
O O4 0.745503 0.083908 0.191792
O O5 0.750000 0.750000 0.456295
O O6 0.532146 0.661070 0.397156
O O7 0.731575 0.590267 0.491625
O O8 0.811156 0.628236 0.357294
O O9 0.500000 0.500000 0.857575
O O10 0.286610 0.374211 0.823315
O O11 0.308139 0.429487 0.952796
O O12 0.750000 0.250000 0.224143
O O13 0.981632 0.336183 0.264715
O O14 0.000000 0.000000 0.545481
O O15 0.250000 0.750000 0.760165
#
# Coordination Sequence:
#
# PCOD8176711 Si02
#       6
#     8   8   8   8   8   8
#     4  10  22  38  54  78 113 146 181 223 271 325
#     4   9  17  33  56  80 107 137 175 226 272 317
#     4   9  19  37  56  80 108 141 184 225 271 327
#     4  11  22  35  57  86 110 142 185 225 272 330
#     4   9  20  35  54  78 107 145 181 216 269 325
#     4  10  21  38  58  82 110 143 183 229 276 322
#
# _framework density 19.302852999999999
#
# number of rings (size 3 to 8) (size 9 to 14) (size 15 to 20)
#    0.000    2.667    0.000    4.000    0.000    5.333 
#    0.000    5.833    0.000    0.000    0.000    0.000 
#    0.000    0.000    0.000    0.000    0.000    0.000 
#
# Total GULP energy -297454.791349 kJ/mol
# GULP energy per Si atom -12393.949640 kJ/mol
# Density = 1.925892 g / cm^3
# Si number density = 19.302853 Si / 1000 Ang^3
#
#
#
# Elastic Constant Matrix: (Units=GPa)
#
#
# Indices 1 2 3 4 5 6 
#
# 1 54.9086 41.2868 15.8763 0.0000 0.0000 0.0000
# 2 41.2868 124.7515 39.1103 0.0000 0.0000 0.0000
# 3 15.8763 39.1103 71.6496 0.0000 0.0000 0.0000
# 4 0.0000 0.0000 0.0000 21.2959 0.0000 0.0000
# 5 0.0000 0.0000 0.0000 0.0000 34.3072 0.0000
# 6 0.0000 0.0000 0.0000 0.0000 0.0000 34.5096
#
#
#
# Elastic Compliance Matrix: (Units=1/GPa)
#
#
# Indices 1 2 3 4 5 6 
#
# 1 0.024331 -0.007676 -0.001201 0.000000 0.000000 0.000000
# 2 -0.007676 0.012092 -0.004900 0.000000 0.000000 0.000000
# 3 -0.001201 -0.004900 0.016898 0.000000 0.000000 0.000000
# 4 0.000000 0.000000 0.000000 0.046957 0.000000 0.000000
# 5 0.000000 0.000000 0.000000 0.000000 0.029148 0.000000
# 6 0.000000 0.000000 0.000000 0.000000 0.000000 0.028977
#
#
# Mechanical properties :
#
#
# Convention : Reuss Voigt Hill
#
# Bulk Modulus (GPa) = 38.80953 49.31736 44.06345
# Shear Modulus (GPa) = 25.70069 28.35830 27.02950
#
# Velocity S-wave (km/s) = 3.65286 3.83707 3.74610
# Velocity P-wave (km/s) = 6.15958 6.72574 6.44887
#
# Compressibility (1/GPa) = 0.02576687
#
# Stress axis : x y z
#
# Youngs Moduli (GPa) = 41.09983 82.69680 59.17980
#
# Poissons Ratio (x) = 0.63476 0.07110
# Poissons Ratio (y) = 0.31547 0.28997
# Poissons Ratio (z) = 0.04938 0.40520
#
# Static dielectric constant tensor:
#      x y z
#    x 3.470110 0.000000 0.000000 
#    y 0.000000 3.789870 0.000000 
#    z 0.000000 0.000000 3.403460 
# 
# 
# High freq. dielectric constant tensor:
#      x y z
#    x 1.749550 0.000000 0.000000 
#    y 0.000000 1.753880 0.000000 
#    z 0.000000 0.000000 1.740370 
# 
# From -- ./inp_files/14498.got.cif
#   From: 2010.03.12/outbox.cif.g09.slc.cpg/sg37_8_cif.got.tgz:14498.got - 2010.04.14 02:25:27.
