data_PCOD8176756
_publ_section_title
;
Structure prediction by ZEFSAII (Michael W. Deem and Ramdas Pophale) SiO2 
 PCOD8176756
Probable space group: C C C 2
;
_chemical_formula_sum "Si O2"
_cell_formula_units_Z 36
_cell_length_a 22.538910
_cell_length_b 12.341222
_cell_length_c 5.169792
_cell_angle_alpha 90.000000
_cell_angle_beta 90.000000
_cell_angle_gamma 90.000000
_cell_volume 1438.017411
_symmetry_space_group_name_H-M "C C C 2"
_symmetry_group_IT_number 37
_symmetry_cell_setting 'orthorhombic'
loop_
_space_group_symop_operation_xyz
x,y,z
-x,-y,z
-x,y,1/2+z
x,-y,1/2+z
1/2+x,1/2+y,z
1/2-x,1/2-y,z
1/2-x,1/2+y,1/2+z
1/2+x,1/2-y,1/2+z
loop_
_atom_site_type_symbol
_atom_site_label
_atom_site_fract_x
_atom_site_fract_y
_atom_site_fract_z
Si Si1 0.569826 0.552429 0.781270
Si Si2 0.797370 0.950540 0.909607
Si Si3 0.750000 0.250000 0.233431
Si Si4 0.658750 0.073178 0.110761
Si Si5 0.539508 0.204880 0.170310
O O1 0.541248 0.468140 0.568098
O O2 0.636228 0.511609 0.848516
O O3 0.565613 0.673080 0.671970
O O4 0.791448 0.821470 0.924063
O O5 0.764131 0.993551 0.649582
O O6 0.705414 0.173453 0.070930
O O7 0.592338 0.122130 0.111377
O O8 0.667482 0.015750 0.387960
O O9 0.509487 0.185906 0.448645
#
# Coordination Sequence:
#
# PCOD8176756 Si02
#       5
#     8   8   4   8   8
#     4  10  21  40  65  98 139 178 226 285 347 414
#     4  10  22  39  64  97 132 175 218 273 348 419
#     4  12  24  48  74 104 142 180 230 300 356 430
#     4  12  29  50  75 109 144 188 243 297 358 431
#     4  12  26  46  73 105 144 194 244 296 356 423
#
# _framework density 25.034469999999999
#
# number of rings (size 3 to 8) (size 9 to 14) (size 15 to 20)
#    0.000    0.889    2.222    4.000    0.000    8.889 
#    0.000    0.000    0.000    0.000    0.000    0.000 
#    0.000    0.000    0.000    0.000    0.000    0.000 
#
# Total GULP energy -222998.881414 kJ/mol
# GULP energy per Si atom -12388.826745 kJ/mol
# Density = 2.497749 g / cm^3
# Si number density = 25.034470 Si / 1000 Ang^3
#
#
#
# Elastic Constant Matrix: (Units=GPa)
#
#
# Indices 1 2 3 4 5 6 
#
# 1 89.4602 34.1646 29.2345 0.0000 0.0000 0.0000
# 2 34.1646 126.7251 38.5800 0.0000 0.0000 0.0000
# 3 29.2345 38.5800 157.1053 0.0000 0.0000 0.0000
# 4 0.0000 0.0000 0.0000 33.9057 0.0000 0.0000
# 5 0.0000 0.0000 0.0000 0.0000 33.6390 0.0000
# 6 0.0000 0.0000 0.0000 0.0000 0.0000 55.3383
#
#
#
# Elastic Compliance Matrix: (Units=1/GPa)
#
#
# Indices 1 2 3 4 5 6 
#
# 1 0.012852 -0.002958 -0.001665 0.000000 0.000000 0.000000
# 2 -0.002958 0.009209 -0.001711 0.000000 0.000000 0.000000
# 3 -0.001665 -0.001711 0.007095 0.000000 0.000000 0.000000
# 4 0.000000 0.000000 0.000000 0.029494 0.000000 0.000000
# 5 0.000000 0.000000 0.000000 0.000000 0.029727 0.000000
# 6 0.000000 0.000000 0.000000 0.000000 0.000000 0.018071
#
#
# Mechanical properties :
#
#
# Convention : Reuss Voigt Hill
#
# Bulk Modulus (GPa) = 60.64928 64.13874 62.39401
# Shear Modulus (GPa) = 40.12433 42.66403 41.39418
#
# Velocity S-wave (km/s) = 4.00780 4.13269 4.07072
# Velocity P-wave (km/s) = 6.75984 6.96046 6.86088
#
# Compressibility (1/GPa) = 0.01648824
#
# Stress axis : x y z
#
# Youngs Moduli (GPa) = 77.80943 108.58391 140.94012
#
# Poissons Ratio (x) = 0.32118 0.23469
# Poissons Ratio (y) = 0.23015 0.24117
# Poissons Ratio (z) = 0.12956 0.18580
#
# Static dielectric constant tensor:
#      x y z
#    x 5.036710 0.000000 0.000000 
#    y 0.000000 4.495750 0.000000 
#    z 0.000000 0.000000 5.124400 
# 
# 
# High freq. dielectric constant tensor:
#      x y z
#    x 2.047340 0.000000 0.000000 
#    y 0.000000 1.991150 0.000000 
#    z 0.000000 0.000000 2.002870 
# 
# From -- ./inp_files/1450.got.cif
#   From: 2010.03.12/outbox.cif.g09.slc.cpg/sg37_1_cif.got.tgz:1450.got - 2010.04.14 02:25:27.
