data_PCOD8176703
_publ_section_title
;
Structure prediction by ZEFSAII (Michael W. Deem and Ramdas Pophale) SiO2 
 PCOD8176703
Probable space group: C C C 2
;
_chemical_formula_sum "Si O2"
_cell_formula_units_Z 64
_cell_length_a 11.403769
_cell_length_b 28.383491
_cell_length_c 9.680809
_cell_angle_alpha 90.000000
_cell_angle_beta 90.000000
_cell_angle_gamma 90.000000
_cell_volume 3133.472396
_symmetry_space_group_name_H-M "C C C 2"
_symmetry_group_IT_number 37
_symmetry_cell_setting 'orthorhombic'
loop_
_space_group_symop_operation_xyz
x,y,z
-x,-y,z
-x,y,1/2+z
x,-y,1/2+z
1/2+x,1/2+y,z
1/2-x,1/2-y,z
1/2-x,1/2+y,1/2+z
1/2+x,1/2-y,1/2+z
loop_
_atom_site_type_symbol
_atom_site_label
_atom_site_fract_x
_atom_site_fract_y
_atom_site_fract_z
Si Si1 0.055219 0.256333 0.551810
Si Si2 0.916761 0.621525 0.301259
Si Si3 0.619438 0.344135 0.121549
Si Si4 0.618488 0.141395 0.109123
Si Si5 0.875174 0.977920 0.969971
Si Si6 0.002225 0.110175 0.864966
Si Si7 0.128004 0.725779 0.757775
Si Si8 0.789612 0.947524 0.258317
O O1 0.134319 0.210953 0.586924
O O2 0.111310 0.302122 0.624049
O O3 0.042976 0.263015 0.387568
O O4 0.925466 0.251362 0.618748
O O5 0.935711 0.623748 0.465151
O O6 0.855023 0.669416 0.244845
O O7 0.836862 0.576994 0.264206
O O8 0.044704 0.616104 0.230444
O O9 0.744106 0.371162 0.117819
O O10 0.561551 0.349526 0.271826
O O11 0.534955 0.368028 0.009936
O O12 0.899796 0.929712 0.888430
O O13 0.798612 0.011897 0.873377
O O14 0.801068 0.970245 0.107825
O O15 0.000000 0.000000 0.012680
O O16 0.890716 0.090692 0.782384
O O17 0.250000 0.750000 0.790439
#
# Coordination Sequence:
#
# PCOD8176703 Si02
#       8
#     8   8   8   8   8   8   8   8
#     4  10  21  37  59  89 125 174 217 255 315 366
#     4  10  22  40  64  86 119 169 219 250 313 374
#     4  12  22  37  62  94 133 164 215 261 313 378
#     4  10  22  41  60  87 127 174 215 266 305 363
#     4  10  22  39  63  96 127 154 195 256 338 389
#     4  11  23  36  62  98 124 159 198 261 323 385
#     4  10  21  38  59  85 126 167 207 266 312 364
#     4  11  22  40  64  92 122 157 203 260 319 392
#
# _framework density 20.424627000000001
#
# number of rings (size 3 to 8) (size 9 to 14) (size 15 to 20)
#    0.000    1.500    2.500    3.750    3.500    1.000 
#    0.000    8.125    0.000    6.000    0.000    0.000 
#    0.000    0.000    0.000    0.000    0.000    0.000 
#
# Total GULP energy -396891.225631 kJ/mol
# GULP energy per Si atom -12402.850801 kJ/mol
# Density = 2.037814 g / cm^3
# Si number density = 20.424627 Si / 1000 Ang^3
#
#
#
# Elastic Constant Matrix: (Units=GPa)
#
#
# Indices 1 2 3 4 5 6 
#
# 1 96.6640 40.7998 67.4105 0.0000 0.0000 0.0000
# 2 40.7998 87.6444 41.4250 0.0000 0.0000 0.0000
# 3 67.4105 41.4250 114.0700 0.0000 0.0000 0.0000
# 4 0.0000 0.0000 0.0000 29.0228 0.0000 0.0000
# 5 0.0000 0.0000 0.0000 0.0000 24.4852 0.0000
# 6 0.0000 0.0000 0.0000 0.0000 0.0000 30.1256
#
#
#
# Elastic Compliance Matrix: (Units=1/GPa)
#
#
# Indices 1 2 3 4 5 6 
#
# 1 0.018811 -0.004229 -0.009581 0.000000 0.000000 0.000000
# 2 -0.004229 0.014724 -0.002848 0.000000 0.000000 0.000000
# 3 -0.009581 -0.002848 0.015463 0.000000 0.000000 0.000000
# 4 0.000000 0.000000 0.000000 0.034456 0.000000 0.000000
# 5 0.000000 0.000000 0.000000 0.000000 0.040841 0.000000
# 6 0.000000 0.000000 0.000000 0.000000 0.000000 0.033194
#
#
# Mechanical properties :
#
#
# Convention : Reuss Voigt Hill
#
# Bulk Modulus (GPa) = 63.76405 66.40546 65.08476
# Shear Modulus (GPa) = 25.50580 26.64291 26.07436
#
# Velocity S-wave (km/s) = 3.53764 3.61564 3.57685
# Velocity P-wave (km/s) = 6.92629 7.07202 6.99953
#
# Compressibility (1/GPa) = 0.01568282
#
# Stress axis : x y z
#
# Youngs Moduli (GPa) = 53.15902 67.91420 64.67041
#
# Poissons Ratio (x) = 0.28718 0.61962
# Poissons Ratio (y) = 0.22478 0.18421
# Poissons Ratio (z) = 0.50933 0.19345
#
# Static dielectric constant tensor:
#      x y z
#    x 3.497750 0.000000 0.000000 
#    y 0.000000 3.722320 0.000000 
#    z 0.000000 0.000000 3.715870 
# 
# 
# High freq. dielectric constant tensor:
#      x y z
#    x 1.775640 0.000000 0.000000 
#    y 0.000000 1.793530 0.000000 
#    z 0.000000 0.000000 1.805980 
# 
# From -- ./inp_files/3118.got.cif
#   From: 2010.03.12/outbox.cif.g09.slc.cpg/sg37_2_cif.got.tgz:3118.got - 2010.04.14 02:25:27.
