data_PCOD8176545
_publ_section_title
;
Structure prediction by ZEFSAII (Michael W. Deem and Ramdas Pophale) SiO2 
 PCOD8176545
Probable space group: C C C 2
;
_chemical_formula_sum "Si O2"
_cell_formula_units_Z 48
_cell_length_a 28.517640
_cell_length_b 8.416228
_cell_length_c 9.183134
_cell_angle_alpha 90.000000
_cell_angle_beta 90.000000
_cell_angle_gamma 90.000000
_cell_volume 2204.052810
_symmetry_space_group_name_H-M "C C C 2"
_symmetry_group_IT_number 37
_symmetry_cell_setting 'orthorhombic'
loop_
_space_group_symop_operation_xyz
x,y,z
-x,-y,z
-x,y,1/2+z
x,-y,1/2+z
1/2+x,1/2+y,z
1/2-x,1/2-y,z
1/2-x,1/2+y,1/2+z
1/2+x,1/2-y,1/2+z
loop_
_atom_site_type_symbol
_atom_site_label
_atom_site_fract_x
_atom_site_fract_y
_atom_site_fract_z
Si Si1 0.354098 0.815457 0.974010
Si Si2 0.954108 0.671448 0.379271
Si Si3 0.697976 0.684068 0.728268
Si Si4 0.355033 0.814147 0.484324
Si Si5 0.543041 0.171289 0.528920
Si Si6 0.199888 0.816355 0.729541
O O1 0.404933 0.746222 0.924586
O O2 0.312114 0.717087 0.897555
O O3 0.342598 0.780722 0.142125
O O4 0.351309 0.002047 0.939131
O O5 0.954543 0.502785 0.459485
O O6 0.960796 0.661210 0.204891
O O7 0.998668 0.763159 0.454657
O O8 0.750000 0.750000 0.702570
O O9 0.697334 0.500004 0.687613
O O10 0.681442 0.707795 0.893673
O O11 0.408336 0.746927 0.478486
O O12 0.339216 0.789726 0.649781
O O13 0.250000 0.750000 0.686535
#
# Coordination Sequence:
#
# PCOD8176545 Si02
#       6
#     8   8   8   8   8   8
#     4  11  23  40  65  96 129 166 216 265 319 378
#     4  10  20  34  61  96 132 167 213 268 320 375
#     4  12  26  42  65  94 125 175 214 263 327 380
#     4  11  23  40  65  96 129 166 216 265 319 378
#     4  10  20  34  61  96 132 167 213 268 320 375
#     4  12  24  44  65  90 131 165 214 267 319 392
#
# _framework density 21.778061999999998
#
# number of rings (size 3 to 8) (size 9 to 14) (size 15 to 20)
#    0.000    1.000    1.667    7.000    9.333    0.000 
#    0.000    0.000    0.000    6.000    0.000    0.000 
#    0.000    0.000    0.000    0.000    0.000    0.000 
#
# Total GULP energy -297461.095941 kJ/mol
# GULP energy per Si atom -12394.212331 kJ/mol
# Density = 2.172849 g / cm^3
# Si number density = 21.778062 Si / 1000 Ang^3
#
#
#
# Elastic Constant Matrix: (Units=GPa)
#
#
# Indices 1 2 3 4 5 6 
#
# 1 172.6039 50.1736 46.1566 0.0000 0.0000 0.0000
# 2 50.1736 69.6214 22.7830 0.0000 0.0000 0.0000
# 3 46.1566 22.7830 106.1906 0.0000 0.0000 0.0000
# 4 0.0000 0.0000 0.0000 32.7553 0.0000 0.0000
# 5 0.0000 0.0000 0.0000 0.0000 46.3527 0.0000
# 6 0.0000 0.0000 0.0000 0.0000 0.0000 19.9971
#
#
#
# Elastic Compliance Matrix: (Units=1/GPa)
#
#
# Indices 1 2 3 4 5 6 
#
# 1 0.007844 -0.004880 -0.002362 0.000000 0.000000 0.000000
# 2 -0.004880 0.018484 -0.001845 0.000000 0.000000 0.000000
# 3 -0.002362 -0.001845 0.010840 0.000000 0.000000 0.000000
# 4 0.000000 0.000000 0.000000 0.030529 0.000000 0.000000
# 5 0.000000 0.000000 0.000000 0.000000 0.021574 0.000000
# 6 0.000000 0.000000 0.000000 0.000000 0.000000 0.050007
#
#
# Mechanical properties :
#
#
# Convention : Reuss Voigt Hill
#
# Bulk Modulus (GPa) = 52.64936 65.18250 58.91593
# Shear Modulus (GPa) = 30.52836 35.10787 32.81811
#
# Velocity S-wave (km/s) = 3.74812 4.01942 3.88614
# Velocity P-wave (km/s) = 6.55432 7.17888 6.87370
#
# Compressibility (1/GPa) = 0.01899358
#
# Stress axis : x y z
#
# Youngs Moduli (GPa) = 127.48893 54.10185 92.25383
#
# Poissons Ratio (x) = 0.26400 0.21795
# Poissons Ratio (y) = 0.62210 0.17018
# Poissons Ratio (z) = 0.30119 0.09980
#
# Static dielectric constant tensor:
#      x y z
#    x 5.096570 0.000000 0.000000 
#    y 0.000000 3.344230 0.000000 
#    z 0.000000 0.000000 3.877970 
# 
# 
# High freq. dielectric constant tensor:
#      x y z
#    x 1.883860 0.000000 0.000000 
#    y 0.000000 1.806970 0.000000 
#    z 0.000000 0.000000 1.872820 
# 
# From -- ./inp_files/2424.got.cif
#   From: 2010.03.12/outbox.cif.g09.slc.cpg/sg37_2_cif.got.tgz:2424.got - 2010.04.14 02:25:27.
