data_PCOD8176864
_publ_section_title
;
Structure prediction by ZEFSAII (Michael W. Deem and Ramdas Pophale) SiO2 
 PCOD8176864
Probable space group: C C C 2
;
_chemical_formula_sum "Si O2"
_cell_formula_units_Z 64
_cell_length_a 13.941124
_cell_length_b 8.159274
_cell_length_c 27.363906
_cell_angle_alpha 90.000000
_cell_angle_beta 90.000000
_cell_angle_gamma 90.000000
_cell_volume 3112.629273
_symmetry_space_group_name_H-M "C C C 2"
_symmetry_group_IT_number 37
_symmetry_cell_setting 'orthorhombic'
loop_
_space_group_symop_operation_xyz
x,y,z
-x,-y,z
-x,y,1/2+z
x,-y,1/2+z
1/2+x,1/2+y,z
1/2-x,1/2-y,z
1/2-x,1/2+y,1/2+z
1/2+x,1/2-y,1/2+z
loop_
_atom_site_type_symbol
_atom_site_label
_atom_site_fract_x
_atom_site_fract_y
_atom_site_fract_z
Si Si1 0.917230 0.869633 0.416310
Si Si2 0.239840 0.942623 0.747810
Si Si3 0.067112 0.361642 0.741123
Si Si4 0.433500 0.357410 0.310614
Si Si5 0.769001 0.063065 0.478310
Si Si6 0.580392 0.875963 0.499190
Si Si7 0.834990 0.136367 0.162887
Si Si8 0.397739 0.433087 0.558821
O O1 0.894878 0.787463 0.362743
O O2 0.954090 0.727956 0.452531
O O3 0.823085 0.961629 0.436317
O O4 0.000000 0.000000 0.414849
O O5 0.250000 0.750000 0.750153
O O6 0.149112 0.964114 0.783155
O O7 0.334736 0.051251 0.763205
O O8 0.212469 0.989331 0.692957
O O9 0.093039 0.233256 0.698904
O O10 0.000000 0.500000 0.716601
O O11 0.996044 0.277482 0.780996
O O12 0.500000 0.500000 0.328795
O O13 0.750000 0.250000 0.463361
O O14 0.667371 0.982654 0.482078
O O15 0.821801 0.048154 0.530895
O O16 0.611678 0.756539 0.543282
O O17 0.500000 0.000000 0.518584
O O18 0.750000 0.250000 0.142667
O O19 0.888440 0.056108 0.117277
O O20 0.500000 0.500000 0.542620
#
# Coordination Sequence:
#
# PCOD8176864 Si02
#       8
#     8   8   8   8   8   8   8   8
#     4  10  22  41  62  93 122 162 206 259 313 382
#     4  11  23  40  64  89 126 165 215 266 319 385
#     4  11  23  41  63  90 125 170 211 271 323 378
#     4  11  23  42  65  89 129 166 217 265 324 385
#     4  11  22  42  65  91 130 165 207 261 316 376
#     4  11  22  41  65  89 129 165 206 258 314 373
#     4  10  23  41  62  91 128 166 216 258 319 384
#     4  11  23  38  65  95 126 166 205 260 315 383
#
# _framework density 20.561395000000001
#
# number of rings (size 3 to 8) (size 9 to 14) (size 15 to 20)
#    0.000    1.250    2.500    5.250    1.750    2.500 
#    6.750    2.500    0.000    0.000    0.000    0.000 
#    0.000    0.000    0.000    0.000    0.000    0.000 
#
# Total GULP energy -396483.166204 kJ/mol
# GULP energy per Si atom -12390.098944 kJ/mol
# Density = 2.051460 g / cm^3
# Si number density = 20.561395 Si / 1000 Ang^3
#
#
#
# Elastic Constant Matrix: (Units=GPa)
#
#
# Indices 1 2 3 4 5 6 
#
# 1 106.2847 19.0039 28.0518 0.0000 0.0000 0.0000
# 2 19.0039 55.7717 10.7477 0.0000 0.0000 0.0000
# 3 28.0518 10.7477 115.5248 0.0000 0.0000 0.0000
# 4 0.0000 0.0000 0.0000 -87.8345 0.0000 0.0000
# 5 0.0000 0.0000 0.0000 0.0000 31.8726 0.0000
# 6 0.0000 0.0000 0.0000 0.0000 0.0000 41.2287
#
#
#
# Elastic Compliance Matrix: (Units=1/GPa)
#
#
# Indices 1 2 3 4 5 6 
#
# 1 0.010575 -0.003165 -0.002273 0.000000 0.000000 0.000000
# 2 -0.003165 0.019205 -0.001018 0.000000 0.000000 0.000000
# 3 -0.002273 -0.001018 0.009303 0.000000 0.000000 0.000000
# 4 0.000000 0.000000 0.000000 -0.011385 0.000000 0.000000
# 5 0.000000 0.000000 0.000000 0.000000 0.031375 0.000000
# 6 0.000000 0.000000 0.000000 0.000000 0.000000 0.024255
#
#
# Mechanical properties :
#
#
# Convention : Reuss Voigt Hill
#
# Bulk Modulus (GPa) = 38.21272 43.68755 40.95014
# Shear Modulus (GPa) = 47.63561 11.70520 29.67040
#
# Velocity S-wave (km/s) = 4.81848 2.38855 3.80282
# Velocity P-wave (km/s) = 7.04146 5.37591 6.26428
#
# Compressibility (1/GPa) = 0.02616929
#
# Stress axis : x y z
#
# Youngs Moduli (GPa) = 94.56611 52.06991 107.49373
#
# Poissons Ratio (x) = 0.16481 0.24436
# Poissons Ratio (y) = 0.29932 0.10944
# Poissons Ratio (z) = 0.21497 0.05301
#
# Static dielectric constant tensor:
#      x y z
#    x 3.623090 0.000000 0.000000 
#    y 0.000000 5.523900 0.000000 
#    z 0.000000 0.000000 3.697850 
# 
# 
# High freq. dielectric constant tensor:
#      x y z
#    x 1.820190 0.000000 0.000000 
#    y 0.000000 1.808650 0.000000 
#    z 0.000000 0.000000 1.793670 
# 
# From -- ./inp_files/20477.got.cif
#   From: 2010.03.12/outbox.cif.g09.slc.cpg/sg37_11_cif.got.tgz:20477.got - 2010.04.14 02:25:27.
