data_PCOD8176498
_publ_section_title
;
Structure prediction by ZEFSAII (Michael W. Deem and Ramdas Pophale) SiO2 
 PCOD8176498
Probable space group: C C C 2
;
_chemical_formula_sum "Si O2"
_cell_formula_units_Z 40
_cell_length_a 18.641514
_cell_length_b 8.477828
_cell_length_c 11.757717
_cell_angle_alpha 90.000000
_cell_angle_beta 90.000000
_cell_angle_gamma 90.000000
_cell_volume 1858.184296
_symmetry_space_group_name_H-M "C C C 2"
_symmetry_group_IT_number 37
_symmetry_cell_setting 'orthorhombic'
loop_
_space_group_symop_operation_xyz
x,y,z
-x,-y,z
-x,y,1/2+z
x,-y,1/2+z
1/2+x,1/2+y,z
1/2-x,1/2-y,z
1/2-x,1/2+y,1/2+z
1/2+x,1/2-y,1/2+z
loop_
_atom_site_type_symbol
_atom_site_label
_atom_site_fract_x
_atom_site_fract_y
_atom_site_fract_z
Si Si1 0.579371 0.932329 0.752000
Si Si2 0.384879 0.287673 0.542017
Si Si3 0.527499 0.824456 0.980300
Si Si4 0.670063 0.229576 0.814800
Si Si5 0.576442 0.415054 0.656733
O O1 0.608767 0.831831 0.647328
O O2 0.573539 0.821621 0.864396
O O3 0.500000 0.000000 0.727064
O O4 0.638553 0.062862 0.776855
O O5 0.457152 0.282869 0.464728
O O6 0.323380 0.239861 0.452779
O O7 0.373607 0.464449 0.586659
O O8 0.500000 0.000000 0.010928
O O9 0.570936 0.749270 0.085954
O O10 0.750000 0.250000 0.764753
O O11 0.618872 0.371140 0.770791
O O12 0.500000 0.500000 0.683873
#
# Coordination Sequence:
#
# PCOD8176498 Si02
#       5
#     8   8   8   8   8
#     4  11  22  41  73  99 132 179 239 278 334 408
#     4  11  23  40  68  98 134 174 228 286 343 393
#     4  10  19  38  69 102 126 175 230 286 323 399
#     4  12  27  44  66 101 144 176 223 282 350 415
#     4  10  24  41  70  98 138 174 233 286 339 395
#
# _framework density 21.526389000000002
#
# number of rings (size 3 to 8) (size 9 to 14) (size 15 to 20)
#    0.000    1.200    4.000    4.200    2.800    2.400 
#    0.000    0.000    0.000    0.000    0.000    0.000 
#    0.000    0.000    0.000    0.000    0.000    0.000 
#
# Total GULP energy -247864.431615 kJ/mol
# GULP energy per Si atom -12393.221581 kJ/mol
# Density = 2.147739 g / cm^3
# Si number density = 21.526389 Si / 1000 Ang^3
#
#
#
# Elastic Constant Matrix: (Units=GPa)
#
#
# Indices 1 2 3 4 5 6 
#
# 1 90.8556 38.4812 59.6385 0.0000 0.0000 0.0000
# 2 38.4812 122.7602 72.0060 0.0000 0.0000 0.0000
# 3 59.6385 72.0060 143.3358 0.0000 0.0000 0.0000
# 4 0.0000 0.0000 0.0000 28.2830 0.0000 0.0000
# 5 0.0000 0.0000 0.0000 0.0000 17.4967 0.0000
# 6 0.0000 0.0000 0.0000 0.0000 0.0000 21.3497
#
#
#
# Elastic Compliance Matrix: (Units=1/GPa)
#
#
# Indices 1 2 3 4 5 6 
#
# 1 0.015337 -0.001509 -0.005623 0.000000 0.000000 0.000000
# 2 -0.001509 0.011698 -0.005248 0.000000 0.000000 0.000000
# 3 -0.005623 -0.005248 0.011953 0.000000 0.000000 0.000000
# 4 0.000000 0.000000 0.000000 0.035357 0.000000 0.000000
# 5 0.000000 0.000000 0.000000 0.000000 0.057154 0.000000
# 6 0.000000 0.000000 0.000000 0.000000 0.000000 0.046839
#
#
# Mechanical properties :
#
#
# Convention : Reuss Voigt Hill
#
# Bulk Modulus (GPa) = 70.29558 77.46703 73.88130
# Shear Modulus (GPa) = 24.05697 25.88095 24.96896
#
# Velocity S-wave (km/s) = 3.34662 3.47117 3.40946
# Velocity P-wave (km/s) = 6.90359 7.22014 7.06364
#
# Compressibility (1/GPa) = 0.01422565
#
# Stress axis : x y z
#
# Youngs Moduli (GPa) = 65.20290 85.48785 83.66247
#
# Poissons Ratio (x) = 0.12903 0.47044
# Poissons Ratio (y) = 0.09841 0.43909
# Poissons Ratio (z) = 0.36664 0.44867
#
# Static dielectric constant tensor:
#      x y z
#    x 3.516210 0.000000 0.000000 
#    y 0.000000 4.026850 0.000000 
#    z 0.000000 0.000000 4.156690 
# 
# 
# High freq. dielectric constant tensor:
#      x y z
#    x 1.796270 0.000000 0.000000 
#    y 0.000000 1.849510 0.000000 
#    z 0.000000 0.000000 1.865630 
# 
# From -- ./inp_files/6111.got.cif
#   From: 2010.03.12/outbox.cif.g09.slc.cpg/sg37_4_cif.got.tgz:6111.got - 2010.04.14 02:25:27.
