data_PCOD8176562
_publ_section_title
;
Structure prediction by ZEFSAII (Michael W. Deem and Ramdas Pophale) SiO2 
 PCOD8176562
Probable space group: C C C 2
;
_chemical_formula_sum "Si O2"
_cell_formula_units_Z 44
_cell_length_a 15.974221
_cell_length_b 18.577896
_cell_length_c 8.439973
_cell_angle_alpha 90.000000
_cell_angle_beta 90.000000
_cell_angle_gamma 90.000000
_cell_volume 2504.708982
_symmetry_space_group_name_H-M "C C C 2"
_symmetry_group_IT_number 37
_symmetry_cell_setting 'orthorhombic'
loop_
_space_group_symop_operation_xyz
x,y,z
-x,-y,z
-x,y,1/2+z
x,-y,1/2+z
1/2+x,1/2+y,z
1/2-x,1/2-y,z
1/2-x,1/2+y,1/2+z
1/2+x,1/2-y,1/2+z
loop_
_atom_site_type_symbol
_atom_site_label
_atom_site_fract_x
_atom_site_fract_y
_atom_site_fract_z
Si Si1 0.750000 0.250000 0.327191
Si Si2 0.335274 0.591935 0.940568
Si Si3 0.568185 0.272791 0.868861
Si Si4 0.805046 0.686077 0.520365
Si Si5 0.902246 0.813177 0.009134
Si Si6 0.910828 0.033649 0.627479
O O1 0.802018 0.305273 0.212932
O O2 0.810977 0.203527 0.438886
O O3 0.391405 0.662698 0.974579
O O4 0.355496 0.564406 0.767503
O O5 0.236771 0.610951 0.964178
O O6 0.355408 0.530030 0.062423
O O7 0.590232 0.280032 0.684358
O O8 0.602704 0.197267 0.943588
O O9 0.468720 0.275310 0.892685
O O10 0.750000 0.750000 0.440316
O O11 0.921116 0.899478 0.005804
O O12 0.000000 0.000000 0.680720
#
# Coordination Sequence:
#
# PCOD8176562 Si02
#       6
#     4   8   8   8   8   8
#     4  10  22  34  56  76 110 148 198 238 282 328
#     4  10  21  32  51  74 110 149 179 220 270 333
#     4  10  20  36  53  75 113 146 186 230 280 326
#     4   8  19  36  52  68 108 143 190 230 276 313
#     4  11  23  33  56  82 113 148 189 229 283 346
#     4  11  22  32  50  79 118 152 183 215 281 349
#
# _framework density 17.56691
#
# number of rings (size 3 to 8) (size 9 to 14) (size 15 to 20)
#    0.545    1.455    1.818    1.636   11.455    0.000 
#    0.000    0.000    0.000    0.000    0.000    1.273 
#    0.000    0.000    0.000    0.000    0.000    0.000 
#
# Total GULP energy -272614.496825 kJ/mol
# GULP energy per Si atom -12391.568038 kJ/mol
# Density = 1.752693 g / cm^3
# Si number density = 17.566910 Si / 1000 Ang^3
#
#
#
# Elastic Constant Matrix: (Units=GPa)
#
#
# Indices 1 2 3 4 5 6 
#
# 1 73.6532 52.2408 37.6895 0.0000 0.0000 0.0000
# 2 52.2408 69.7952 40.0216 0.0000 0.0000 0.0000
# 3 37.6895 40.0216 85.0614 0.0000 0.0000 0.0000
# 4 0.0000 0.0000 0.0000 23.0533 0.0000 0.0000
# 5 0.0000 0.0000 0.0000 0.0000 29.9793 0.0000
# 6 0.0000 0.0000 0.0000 0.0000 0.0000 36.0574
#
#
#
# Elastic Compliance Matrix: (Units=1/GPa)
#
#
# Indices 1 2 3 4 5 6 
#
# 1 0.029772 -0.020158 -0.003707 0.000000 0.000000 0.000000
# 2 -0.020158 0.033270 -0.006722 0.000000 0.000000 0.000000
# 3 -0.003707 -0.006722 0.016561 0.000000 0.000000 0.000000
# 4 0.000000 0.000000 0.000000 0.043378 0.000000 0.000000
# 5 0.000000 0.000000 0.000000 0.000000 0.033356 0.000000
# 6 0.000000 0.000000 0.000000 0.000000 0.000000 0.027734
#
#
# Mechanical properties :
#
#
# Convention : Reuss Voigt Hill
#
# Bulk Modulus (GPa) = 54.26153 54.26820 54.26487
# Shear Modulus (GPa) = 19.88952 24.38853 22.13902
#
# Velocity S-wave (km/s) = 3.36849 3.73006 3.55388
# Velocity P-wave (km/s) = 6.78856 7.03637 6.91357
#
# Compressibility (1/GPa) = 0.01842926
#
# Stress axis : x y z
#
# Youngs Moduli (GPa) = 33.58865 30.05685 60.38135
#
# Poissons Ratio (x) = 0.60589 0.22384
# Poissons Ratio (y) = 0.67709 0.40588
# Poissons Ratio (z) = 0.12451 0.20204
#
# Static dielectric constant tensor:
#      x y z
#    x 3.235510 0.000000 0.000000 
#    y 0.000000 3.436470 0.000000 
#    z 0.000000 0.000000 3.201810 
# 
# 
# High freq. dielectric constant tensor:
#      x y z
#    x 1.659100 0.000000 0.000000 
#    y 0.000000 1.646650 0.000000 
#    z 0.000000 0.000000 1.684580 
# 
# From -- ./inp_files/3445.got.cif
#   From: 2010.03.12/outbox.cif.g09.slc.cpg/sg37_2_cif.got.tgz:3445.got - 2010.04.14 02:25:27.
