data_PCOD8176557
_publ_section_title
;
Structure prediction by ZEFSAII (Michael W. Deem and Ramdas Pophale) SiO2 
 PCOD8176557
Probable space group: C C C 2
;
_chemical_formula_sum "Si O2"
_cell_formula_units_Z 44
_cell_length_a 15.552168
_cell_length_b 16.582087
_cell_length_c 8.225454
_cell_angle_alpha 90.000000
_cell_angle_beta 90.000000
_cell_angle_gamma 90.000000
_cell_volume 2121.240969
_symmetry_space_group_name_H-M "C C C 2"
_symmetry_group_IT_number 37
_symmetry_cell_setting 'orthorhombic'
loop_
_space_group_symop_operation_xyz
x,y,z
-x,-y,z
-x,y,1/2+z
x,-y,1/2+z
1/2+x,1/2+y,z
1/2-x,1/2-y,z
1/2-x,1/2+y,1/2+z
1/2+x,1/2-y,1/2+z
loop_
_atom_site_type_symbol
_atom_site_label
_atom_site_fract_x
_atom_site_fract_y
_atom_site_fract_z
Si Si1 0.000000 0.000000 0.109921
Si Si2 0.386644 0.585872 0.363992
Si Si3 0.467260 0.857938 0.038899
Si Si4 0.601342 0.052439 0.742238
Si Si5 0.389598 0.774226 0.329454
Si Si6 0.302459 0.919157 0.426298
O O1 0.925096 0.044908 0.205445
O O2 0.046837 0.069211 0.007938
O O3 0.374577 0.680388 0.344941
O O4 0.293026 0.546377 0.397101
O O5 0.509907 0.931692 0.147002
O O6 0.415127 0.794437 0.145591
O O7 0.400967 0.893699 0.906163
O O8 0.539891 0.804509 0.956789
O O9 0.677710 0.074422 0.618753
O O10 0.624015 0.963312 0.813832
O O11 0.303847 0.825043 0.373949
#
# Coordination Sequence:
#
# PCOD8176557 Si02
#       6
#     4   8   8   8   8   8
#     4  10  24  40  64  80 104 150 198 250 288 338
#     4  11  22  42  60  84 110 146 198 243 294 345
#     4   9  20  36  57  88 119 153 194 230 278 343
#     4  10  21  35  55  88 123 157 192 228 278 343
#     4  10  20  35  59  84 116 152 186 237 288 338
#     4  11  22  35  57  85 120 155 186 236 290 341
#
# _framework density 20.742574000000001
#
# number of rings (size 3 to 8) (size 9 to 14) (size 15 to 20)
#    0.000    1.818    0.000    3.818    0.000   12.364 
#    0.000    0.000    0.000   10.909    0.000    0.000 
#    0.000    0.000    0.000    0.000    0.000    0.000 
#
# Total GULP energy -272620.460787 kJ/mol
# GULP energy per Si atom -12391.839127 kJ/mol
# Density = 2.069536 g / cm^3
# Si number density = 20.742574 Si / 1000 Ang^3
#
#
#
# Elastic Constant Matrix: (Units=GPa)
#
#
# Indices 1 2 3 4 5 6 
#
# 1 113.1240 26.5606 55.1489 0.0000 0.0000 0.0000
# 2 26.5606 105.0411 46.1164 0.0000 0.0000 0.0000
# 3 55.1489 46.1164 142.2398 0.0000 0.0000 0.0000
# 4 0.0000 0.0000 0.0000 12.3049 0.0000 0.0000
# 5 0.0000 0.0000 0.0000 0.0000 -84.1939 0.0000
# 6 0.0000 0.0000 0.0000 0.0000 0.0000 19.5851
#
#
#
# Elastic Compliance Matrix: (Units=1/GPa)
#
#
# Indices 1 2 3 4 5 6 
#
# 1 0.011000 -0.001060 -0.003921 0.000000 0.000000 0.000000
# 2 -0.001060 0.011202 -0.003221 0.000000 0.000000 0.000000
# 3 -0.003921 -0.003221 0.009595 0.000000 0.000000 0.000000
# 4 0.000000 0.000000 0.000000 0.081269 0.000000 0.000000
# 5 0.000000 0.000000 0.000000 0.000000 -0.011877 0.000000
# 6 0.000000 0.000000 0.000000 0.000000 0.000000 0.051059
#
#
# Mechanical properties :
#
#
# Convention : Reuss Voigt Hill
#
# Bulk Modulus (GPa) = 64.96433 68.45076 66.70755
# Shear Modulus (GPa) = 28.77132 5.04447 16.90790
#
# Velocity S-wave (km/s) = 3.72837 1.56116 2.85815
# Velocity P-wave (km/s) = 7.06553 6.02672 6.56670
#
# Compressibility (1/GPa) = 0.01539306
#
# Stress axis : x y z
#
# Youngs Moduli (GPa) = 90.90535 89.26815 104.22012
#
# Poissons Ratio (x) = 0.09462 0.40869
# Poissons Ratio (y) = 0.09635 0.33569
# Poissons Ratio (z) = 0.35648 0.28753
#
# Static dielectric constant tensor:
#      x y z
#    x 3.955450 0.000000 0.000000 
#    y 0.000000 3.678850 0.000000 
#    z 0.000000 0.000000 4.026270 
# 
# 
# High freq. dielectric constant tensor:
#      x y z
#    x 1.804730 0.000000 0.000000 
#    y 0.000000 1.804120 0.000000 
#    z 0.000000 0.000000 1.827150 
# 
# From -- ./inp_files/3428.got.cif
#   From: 2010.03.12/outbox.cif.g09.slc.cpg/sg37_2_cif.got.tgz:3428.got - 2010.04.14 02:25:27.
