data_PCOD8176741
_publ_section_title
;
Structure prediction by ZEFSAII (Michael W. Deem and Ramdas Pophale) SiO2 
 PCOD8176741
Probable space group: C C C 2
;
_chemical_formula_sum "Si O2"
_cell_formula_units_Z 56
_cell_length_a 18.659795
_cell_length_b 11.777864
_cell_length_c 12.464690
_cell_angle_alpha 90.000000
_cell_angle_beta 90.000000
_cell_angle_gamma 90.000000
_cell_volume 2739.396429
_symmetry_space_group_name_H-M "C C C 2"
_symmetry_group_IT_number 37
_symmetry_cell_setting 'orthorhombic'
loop_
_space_group_symop_operation_xyz
x,y,z
-x,-y,z
-x,y,1/2+z
x,-y,1/2+z
1/2+x,1/2+y,z
1/2-x,1/2-y,z
1/2-x,1/2+y,1/2+z
1/2+x,1/2-y,1/2+z
loop_
_atom_site_type_symbol
_atom_site_label
_atom_site_fract_x
_atom_site_fract_y
_atom_site_fract_z
Si Si1 0.000000 0.500000 0.611670
Si Si2 0.098059 0.356915 0.744173
Si Si3 0.727626 0.125614 0.078169
Si Si4 0.500000 0.500000 0.008492
Si Si5 0.369576 0.046498 0.969245
Si Si6 0.671463 0.284516 0.544663
Si Si7 0.130448 0.999487 0.154341
Si Si8 0.597439 0.624188 0.855727
O O1 0.023318 0.397058 0.690138
O O2 0.064124 0.495746 0.529258
O O3 0.167536 0.356820 0.668623
O O4 0.118785 0.439532 0.842822
O O5 0.080252 0.230548 0.781144
O O6 0.750000 0.250000 0.031251
O O7 0.797727 0.068292 0.128042
O O8 0.698196 0.038391 0.987283
O O9 0.529580 0.601376 0.933211
O O10 0.564851 0.452068 0.081566
O O11 0.368765 0.166799 0.030748
O O12 0.750000 0.250000 0.577778
O O13 0.638770 0.364851 0.637220
O O14 0.667186 0.352666 0.430867
O O15 0.112589 0.983576 0.279898
#
# Coordination Sequence:
#
# PCOD8176741 Si02
#       8
#     4   8   8   4   8   8   8   8
#     4  10  22  40  58  92 126 160 206 260 306 372
#     4  10  22  38  64  90 120 169 212 250 314 381
#     4  11  22  40  65  93 121 163 212 263 311 372
#     4  10  24  40  56  96 126 166 202 260 320 366
#     4  10  22  40  65  91 125 164 210 256 314 373
#     4  10  21  39  64  91 122 163 206 258 313 377
#     4  11  22  39  64  91 126 158 214 261 310 375
#     4  10  22  37  63  89 123 167 210 252 310 388
#
# _framework density 20.442460000000001
#
# number of rings (size 3 to 8) (size 9 to 14) (size 15 to 20)
#    0.000    1.714    2.857    0.857    4.000    4.571 
#    2.571    0.000    9.429    0.000    0.000    0.000 
#    0.000    0.000    0.000    0.000    0.000    0.000 
#
# Total GULP energy -346896.159570 kJ/mol
# GULP energy per Si atom -12389.148556 kJ/mol
# Density = 2.039593 g / cm^3
# Si number density = 20.442460 Si / 1000 Ang^3
#
#
#
# Elastic Constant Matrix: (Units=GPa)
#
#
# Indices 1 2 3 4 5 6 
#
# 1 90.2993 17.2573 22.4190 0.0000 0.0000 0.0000
# 2 17.2573 102.0889 40.3545 0.0000 0.0000 0.0000
# 3 22.4190 40.3545 86.3734 0.0000 0.0000 0.0000
# 4 0.0000 0.0000 0.0000 113.2568 0.0000 0.0000
# 5 0.0000 0.0000 0.0000 0.0000 10.4648 0.0000
# 6 0.0000 0.0000 0.0000 0.0000 0.0000 26.6506
#
#
#
# Elastic Compliance Matrix: (Units=1/GPa)
#
#
# Indices 1 2 3 4 5 6 
#
# 1 0.011915 -0.000971 -0.002639 0.000000 0.000000 0.000000
# 2 -0.000971 0.012093 -0.005398 0.000000 0.000000 0.000000
# 3 -0.002639 -0.005398 0.014785 0.000000 0.000000 0.000000
# 4 0.000000 0.000000 0.000000 0.008829 0.000000 0.000000
# 5 0.000000 0.000000 0.000000 0.000000 0.095559 0.000000
# 6 0.000000 0.000000 0.000000 0.000000 0.000000 0.037523
#
#
# Mechanical properties :
#
#
# Convention : Reuss Voigt Hill
#
# Bulk Modulus (GPa) = 48.13044 48.75813 48.44428
# Shear Modulus (GPa) = 24.31368 43.32315 33.81841
#
# Velocity S-wave (km/s) = 3.45247 4.60855 4.07175
# Velocity P-wave (km/s) = 6.28396 7.22644 6.77162
#
# Compressibility (1/GPa) = 0.02077687
#
# Stress axis : x y z
#
# Youngs Moduli (GPa) = 83.92750 82.69024 67.63768
#
# Poissons Ratio (x) = 0.08029 0.17850
# Poissons Ratio (y) = 0.08149 0.36511
# Poissons Ratio (z) = 0.22149 0.44637
#
# Static dielectric constant tensor:
#      x y z
#    x 4.203820 0.000000 0.000000 
#    y 0.000000 -2.665600 0.000000 
#    z 0.000000 0.000000 3.803130 
# 
# 
# High freq. dielectric constant tensor:
#      x y z
#    x 1.804440 0.000000 0.000000 
#    y 0.000000 1.797560 0.000000 
#    z 0.000000 0.000000 1.793770 
# 
# From -- ./inp_files/8629.got.cif
#   From: 2010.03.12/outbox.cif.g09.slc.cpg/sg37_5_cif.got.tgz:8629.got - 2010.04.14 02:25:27.
