data_PCOD8176685
_publ_section_title
;
Structure prediction by ZEFSAII (Michael W. Deem and Ramdas Pophale) SiO2 
 PCOD8176685
Probable space group: C C C 2
;
_chemical_formula_sum "Si O2"
_cell_formula_units_Z 64
_cell_length_a 10.441569
_cell_length_b 9.287883
_cell_length_c 31.817031
_cell_angle_alpha 90.000000
_cell_angle_beta 90.000000
_cell_angle_gamma 90.000000
_cell_volume 3085.617932
_symmetry_space_group_name_H-M "C C C 2"
_symmetry_group_IT_number 37
_symmetry_cell_setting 'orthorhombic'
loop_
_space_group_symop_operation_xyz
x,y,z
-x,-y,z
-x,y,1/2+z
x,-y,1/2+z
1/2+x,1/2+y,z
1/2-x,1/2-y,z
1/2-x,1/2+y,1/2+z
1/2+x,1/2-y,1/2+z
loop_
_atom_site_type_symbol
_atom_site_label
_atom_site_fract_x
_atom_site_fract_y
_atom_site_fract_z
Si Si1 0.378001 0.427539 0.641970
Si Si2 0.623477 0.417717 0.394833
Si Si3 0.106213 0.387862 0.023874
Si Si4 0.378001 0.427539 0.050982
Si Si5 0.891029 0.391900 0.265833
Si Si6 0.893787 0.387862 0.169078
Si Si7 0.623477 0.582283 0.798119
Si Si8 0.108971 0.391900 0.927119
O O1 0.500000 0.500000 0.665716
O O2 0.369253 0.500000 0.596476
O O3 0.245724 0.462179 0.665626
O O4 0.400494 0.254883 0.640274
O O5 0.500000 0.500000 0.413420
O O6 0.645288 0.460368 0.346476
O O7 0.750232 0.462630 0.421106
O O8 0.598550 0.247836 0.398185
O O9 0.245724 0.462179 0.027326
O O10 0.099506 0.245117 0.052678
O O11 0.000000 0.500000 0.040030
O O12 0.085225 0.346460 0.975364
O O13 0.500000 0.500000 0.027237
O O14 0.914775 0.346460 0.217588
O O15 0.750232 0.462630 0.271846
O O16 0.901450 0.252164 0.294767
O O17 0.000000 0.500000 0.281433
O O18 0.000000 0.500000 0.152922
O O19 0.500000 0.500000 0.779533
O O20 0.000000 0.500000 0.911520
#
# Coordination Sequence:
#
# PCOD8176685 Si02
#       8
#     8   8   8   8   8   8   8   8
#     4  10  22  38  58  84 110 143 184 229 283 338
#     4  10  21  36  57  86 118 151 187 230 278 328
#     4  10  23  40  59  84 113 147 189 233 280 335
#     4  10  22  38  58  84 110 143 184 229 283 338
#     4  10  21  38  59  83 113 151 190 231 278 330
#     4  10  23  40  59  84 113 147 189 233 280 335
#     4  10  21  36  57  86 118 151 187 230 278 328
#     4  10  21  38  59  83 113 151 190 231 278 330
#
# _framework density 20.741389000000002
#
# number of rings (size 3 to 8) (size 9 to 14) (size 15 to 20)
#    0.000    2.000    0.000    4.500    0.000   16.500 
#    0.000    7.500    0.000    0.000    0.000    0.000 
#    0.000    0.000    0.000    0.000    0.000    0.000 
#
# Total GULP energy -396735.304829 kJ/mol
# GULP energy per Si atom -12397.978276 kJ/mol
# Density = 2.069418 g / cm^3
# Si number density = 20.741389 Si / 1000 Ang^3
#
#
#
# Elastic Constant Matrix: (Units=GPa)
#
#
# Indices 1 2 3 4 5 6 
#
# 1 202.8669 92.0024 10.1098 0.0000 0.0000 0.0000
# 2 92.0024 92.4818 27.2951 0.0000 0.0000 0.0000
# 3 10.1098 27.2951 55.3142 0.0000 0.0000 0.0000
# 4 0.0000 0.0000 0.0000 18.5981 0.0000 0.0000
# 5 0.0000 0.0000 0.0000 0.0000 33.0809 0.0000
# 6 0.0000 0.0000 0.0000 0.0000 0.0000 49.5537
#
#
#
# Elastic Compliance Matrix: (Units=1/GPa)
#
#
# Indices 1 2 3 4 5 6 
#
# 1 0.009506 -0.010469 0.003428 0.000000 0.000000 0.000000
# 2 -0.010469 0.024185 -0.010021 0.000000 0.000000 0.000000
# 3 0.003428 -0.010021 0.022397 0.000000 0.000000 0.000000
# 4 0.000000 0.000000 0.000000 0.053769 0.000000 0.000000
# 5 0.000000 0.000000 0.000000 0.000000 0.030229 0.000000
# 6 0.000000 0.000000 0.000000 0.000000 0.000000 0.020180
#
#
# Mechanical properties :
#
#
# Convention : Reuss Voigt Hill
#
# Bulk Modulus (GPa) = 45.52577 67.71973 56.62275
# Shear Modulus (GPa) = 24.78802 34.99692 29.89247
#
# Velocity S-wave (km/s) = 3.46077 4.11213 3.80043
# Velocity P-wave (km/s) = 6.16167 7.43415 6.82762
#
# Compressibility (1/GPa) = 0.02196558
#
# Stress axis : x y z
#
# Youngs Moduli (GPa) = 105.19448 41.34786 44.64922
#
# Poissons Ratio (x) = 0.43286 -0.15308
# Poissons Ratio (y) = 1.10126 0.44742
# Poissons Ratio (z) = -0.36065 0.41434
#
# Static dielectric constant tensor:
#      x y z
#    x 4.450780 0.000000 0.000000 
#    y 0.000000 3.603640 0.000000 
#    z 0.000000 0.000000 3.487070 
# 
# 
# High freq. dielectric constant tensor:
#      x y z
#    x 1.835330 0.000000 0.000000 
#    y 0.000000 1.794600 0.000000 
#    z 0.000000 0.000000 1.799890 
# 
# From -- ./inp_files/20474.got.cif
#   From: 2010.03.12/outbox.cif.g09.slc.cpg/sg37_11_cif.got.tgz:20474.got - 2010.04.14 02:25:27.
