data_PCOD8176625
_publ_section_title
;
Structure prediction by ZEFSAII (Michael W. Deem and Ramdas Pophale) SiO2 
 PCOD8176625
Probable space group: C C C 2
;
_chemical_formula_sum "Si O2"
_cell_formula_units_Z 64
_cell_length_a 8.705045
_cell_length_b 17.690030
_cell_length_c 19.896593
_cell_angle_alpha 90.000000
_cell_angle_beta 90.000000
_cell_angle_gamma 90.000000
_cell_volume 3063.926241
_symmetry_space_group_name_H-M "C C C 2"
_symmetry_group_IT_number 37
_symmetry_cell_setting 'orthorhombic'
loop_
_space_group_symop_operation_xyz
x,y,z
-x,-y,z
-x,y,1/2+z
x,-y,1/2+z
1/2+x,1/2+y,z
1/2-x,1/2-y,z
1/2-x,1/2+y,1/2+z
1/2+x,1/2-y,1/2+z
loop_
_atom_site_type_symbol
_atom_site_label
_atom_site_fract_x
_atom_site_fract_y
_atom_site_fract_z
Si Si1 0.167276 0.832420 0.236250
Si Si2 0.553168 0.325339 0.614084
Si Si3 0.425918 0.418824 0.496127
Si Si4 0.394686 0.849018 0.636766
Si Si5 0.928925 0.165365 0.380342
Si Si6 0.468349 0.911931 0.264066
Si Si7 0.072120 0.336285 0.901098
Si Si8 0.933358 0.421341 0.019626
O O1 0.250000 0.750000 0.238434
O O2 0.055451 0.844028 0.300036
O O3 0.294670 0.897248 0.240480
O O4 0.070448 0.848642 0.169961
O O5 0.497940 0.353301 0.541881
O O6 0.566486 0.235536 0.614397
O O7 0.715666 0.366131 0.625918
O O8 0.500000 0.500000 0.510793
O O9 0.458966 0.393213 0.419077
O O10 0.248515 0.423746 0.514194
O O11 0.422706 0.862775 0.715477
O O12 0.505990 0.904627 0.594833
O O13 0.978645 0.250255 0.394793
O O14 0.754459 0.151195 0.403734
O O15 0.499579 0.884353 0.339894
O O16 0.500000 0.000000 0.257755
O O17 0.000402 0.358050 0.971529
O O18 0.000000 0.500000 0.993988
#
# Coordination Sequence:
#
# PCOD8176625 Si02
#       8
#     8   8   8   8   8   8   8   8
#     4  11  20  43  70  97 130 180 224 275 332 405
#     4  11  24  41  67  94 132 172 223 278 328 401
#     4  12  27  43  63  96 133 171 223 284 341 403
#     4  11  23  41  63  96 128 173 220 270 333 400
#     4  10  20  41  68  95 130 172 219 272 327 402
#     4  11  22  38  65  98 132 172 219 275 335 394
#     4  10  20  39  65  92 126 171 215 261 331 395
#     4  12  25  41  62  87 128 173 216 272 337 403
#
# _framework density 20.888231000000001
#
# number of rings (size 3 to 8) (size 9 to 14) (size 15 to 20)
#    0.000    1.000    3.750    4.500    0.000    6.500 
#    0.000    0.625    0.000    0.000    0.000    0.000 
#    0.000    0.000    0.000    0.000    0.000    0.000 
#
# Total GULP energy -396880.307534 kJ/mol
# GULP energy per Si atom -12402.509610 kJ/mol
# Density = 2.084069 g / cm^3
# Si number density = 20.888231 Si / 1000 Ang^3
#
#
#
# Elastic Constant Matrix: (Units=GPa)
#
#
# Indices 1 2 3 4 5 6 
#
# 1 79.8591 30.7464 20.2116 0.0000 0.0000 0.0000
# 2 30.7464 111.3498 25.6855 0.0000 0.0000 0.0000
# 3 20.2116 25.6855 95.8897 0.0000 0.0000 0.0000
# 4 0.0000 0.0000 0.0000 29.8916 0.0000 0.0000
# 5 0.0000 0.0000 0.0000 0.0000 37.5754 0.0000
# 6 0.0000 0.0000 0.0000 0.0000 0.0000 30.4767
#
#
#
# Elastic Compliance Matrix: (Units=1/GPa)
#
#
# Indices 1 2 3 4 5 6 
#
# 1 0.014398 -0.003491 -0.002100 0.000000 0.000000 0.000000
# 2 -0.003491 0.010419 -0.002055 0.000000 0.000000 0.000000
# 3 -0.002100 -0.002055 0.011422 0.000000 0.000000 0.000000
# 4 0.000000 0.000000 0.000000 0.033454 0.000000 0.000000
# 5 0.000000 0.000000 0.000000 0.000000 0.026613 0.000000
# 6 0.000000 0.000000 0.000000 0.000000 0.000000 0.032812
#
#
# Mechanical properties :
#
#
# Convention : Reuss Voigt Hill
#
# Bulk Modulus (GPa) = 47.74054 48.93174 48.33614
# Shear Modulus (GPa) = 33.02709 33.61908 33.32309
#
# Velocity S-wave (km/s) = 3.98066 4.01618 3.99846
# Velocity P-wave (km/s) = 6.63569 6.70691 6.67139
#
# Compressibility (1/GPa) = 0.02094656
#
# Stress axis : x y z
#
# Youngs Moduli (GPa) = 69.45612 95.98095 87.55312
#
# Poissons Ratio (x) = 0.33509 0.18382
# Poissons Ratio (y) = 0.24249 0.17992
# Poissons Ratio (z) = 0.14583 0.19724
#
# Static dielectric constant tensor:
#      x y z
#    x 3.805470 0.000000 0.000000 
#    y 0.000000 3.652070 0.000000 
#    z 0.000000 0.000000 3.920760 
# 
# 
# High freq. dielectric constant tensor:
#      x y z
#    x 1.813670 0.000000 0.000000 
#    y 0.000000 1.817970 0.000000 
#    z 0.000000 0.000000 1.831780 
# 
# From -- ./inp_files/16549.got.cif
#   From: 2010.03.12/outbox.cif.g09.slc.cpg/sg37_9_cif.got.tgz:16549.got - 2010.04.14 02:25:27.
