data_PCOD8176606
_publ_section_title
;
Structure prediction by ZEFSAII (Michael W. Deem and Ramdas Pophale) SiO2 
 PCOD8176606
Probable space group: C C C 2
;
_chemical_formula_sum "Si O2"
_cell_formula_units_Z 64
_cell_length_a 9.017345
_cell_length_b 15.446810
_cell_length_c 21.886122
_cell_angle_alpha 90.000000
_cell_angle_beta 90.000000
_cell_angle_gamma 90.000000
_cell_volume 3048.500751
_symmetry_space_group_name_H-M "C C C 2"
_symmetry_group_IT_number 37
_symmetry_cell_setting 'orthorhombic'
loop_
_space_group_symop_operation_xyz
x,y,z
-x,-y,z
-x,y,1/2+z
x,-y,1/2+z
1/2+x,1/2+y,z
1/2-x,1/2-y,z
1/2-x,1/2+y,1/2+z
1/2+x,1/2-y,1/2+z
loop_
_atom_site_type_symbol
_atom_site_label
_atom_site_fract_x
_atom_site_fract_y
_atom_site_fract_z
Si Si1 0.707239 0.916774 0.094350
Si Si2 0.040521 0.709640 0.112426
Si Si3 0.873290 0.822656 0.196754
Si Si4 0.749605 0.901235 0.548022
Si Si5 0.075949 0.093802 0.323252
Si Si6 0.940894 0.842318 0.020182
Si Si7 0.077671 0.234327 0.891903
Si Si8 0.317719 0.155372 0.415905
O O1 0.550543 0.880196 0.116643
O O2 0.831393 0.888483 0.143062
O O3 0.777840 0.883220 0.029871
O O4 0.687922 0.018410 0.085986
O O5 0.206981 0.681868 0.091576
O O6 0.022130 0.769304 0.173692
O O7 0.953267 0.753127 0.056480
O O8 0.750000 0.750000 0.210769
O O9 0.888701 0.887885 0.252875
O O10 0.674582 0.894572 0.480695
O O11 0.926537 0.906139 0.541701
O O12 0.223629 0.100971 0.365764
O O13 0.963104 0.172290 0.335947
O O14 0.000000 0.000000 0.331929
O O15 0.967247 0.823477 0.949752
O O16 0.250000 0.250000 0.889544
O O17 0.985222 0.325317 0.890933
O O18 0.250000 0.250000 0.427196
#
# Coordination Sequence:
#
# PCOD8176606 Si02
#       8
#     8   8   8   8   8   8   8   8
#     4  10  23  35  58  92 125 161 204 259 323 367
#     4  10  20  38  59  90 121 165 204 254 311 388
#     4   9  20  43  66  84 122 174 219 258 320 398
#     4  12  20  34  58  95 129 159 201 259 323 379
#     4  11  24  42  67  94 123 165 227 277 329 386
#     4  11  20  35  56  84 125 166 203 244 313 390
#     4  11  22  40  64  89 125 169 219 261 316 400
#     4  10  20  39  61  90 128 171 210 257 326 396
#
# _framework density 20.993925999999998
#
# number of rings (size 3 to 8) (size 9 to 14) (size 15 to 20)
#    0.000    1.500    3.750    4.125    1.750    2.000 
#    0.000    4.375    0.000    3.000    0.000    0.000 
#    0.000    0.000    0.000    0.000    0.000    0.000 
#
# Total GULP energy -396459.464514 kJ/mol
# GULP energy per Si atom -12389.358266 kJ/mol
# Density = 2.094614 g / cm^3
# Si number density = 20.993926 Si / 1000 Ang^3
#
#
#
# Elastic Constant Matrix: (Units=GPa)
#
#
# Indices 1 2 3 4 5 6 
#
# 1 63.0028 18.8839 -0.9583 0.0000 0.0000 0.0000
# 2 18.8839 100.8919 30.5566 0.0000 0.0000 0.0000
# 3 -0.9583 30.5566 76.4335 0.0000 0.0000 0.0000
# 4 0.0000 0.0000 0.0000 29.8933 0.0000 0.0000
# 5 0.0000 0.0000 0.0000 0.0000 19.6524 0.0000
# 6 0.0000 0.0000 0.0000 0.0000 0.0000 34.0423
#
#
#
# Elastic Compliance Matrix: (Units=1/GPa)
#
#
# Indices 1 2 3 4 5 6 
#
# 1 0.017005 -0.003695 0.001690 0.000000 0.000000 0.000000
# 2 -0.003695 0.012080 -0.004876 0.000000 0.000000 0.000000
# 3 0.001690 -0.004876 0.015054 0.000000 0.000000 0.000000
# 4 0.000000 0.000000 0.000000 0.033452 0.000000 0.000000
# 5 0.000000 0.000000 0.000000 0.000000 0.050884 0.000000
# 6 0.000000 0.000000 0.000000 0.000000 0.000000 0.029375
#
#
# Mechanical properties :
#
#
# Convention : Reuss Voigt Hill
#
# Bulk Modulus (GPa) = 32.91780 37.47695 35.19737
# Shear Modulus (GPa) = 27.51224 29.50734 28.50979
#
# Velocity S-wave (km/s) = 3.62399 3.75309 3.68911
# Velocity P-wave (km/s) = 5.76410 6.05566 5.91167
#
# Compressibility (1/GPa) = 0.03037870
#
# Stress axis : x y z
#
# Youngs Moduli (GPa) = 58.80459 82.78286 66.42921
#
# Poissons Ratio (x) = 0.30587 -0.11229
# Poissons Ratio (y) = 0.21727 0.32388
# Poissons Ratio (z) = -0.09940 0.40361
#
# Static dielectric constant tensor:
#      x y z
#    x 3.968910 0.000000 0.000000 
#    y 0.000000 3.718120 0.000000 
#    z 0.000000 0.000000 3.778330 
# 
# 
# High freq. dielectric constant tensor:
#      x y z
#    x 1.822910 0.000000 0.000000 
#    y 0.000000 1.815160 0.000000 
#    z 0.000000 0.000000 1.803240 
# 
# From -- ./inp_files/18508.got.cif
#   From: 2010.03.12/outbox.cif.g09.slc.cpg/sg37_10_cif.got.tgz:18508.got - 2010.04.14 02:25:27.
