data_PCOD8176180
_publ_section_title
;
Structure prediction by ZEFSAII (Michael W. Deem and Ramdas Pophale) SiO2 
 PCOD8176180
Probable space group: C M C 21
;
_chemical_formula_sum "Si O2"
_cell_formula_units_Z 56
_cell_length_a 19.874404
_cell_length_b 9.244600
_cell_length_c 13.580665
_cell_angle_alpha 90.000000
_cell_angle_beta 90.000000
_cell_angle_gamma 90.000000
_cell_volume 2495.188010
_symmetry_space_group_name_H-M "C M C 21"
_symmetry_group_IT_number 36
_symmetry_cell_setting 'orthorhombic'
loop_
_space_group_symop_operation_xyz
x,y,z
-x,-y,1/2+z
x,-y,1/2+z
-x,y,z
1/2+x,1/2+y,z
1/2-x,1/2-y,1/2+z
1/2+x,1/2-y,1/2+z
1/2-x,1/2+y,z
loop_
_atom_site_type_symbol
_atom_site_label
_atom_site_fract_x
_atom_site_fract_y
_atom_site_fract_z
Si Si1 0.574294 0.284513 0.237060
Si Si2 0.777819 0.896272 0.675054
Si Si3 0.075147 0.446682 0.273523
Si Si4 0.150625 0.134300 0.547296
Si Si5 0.668655 0.521070 0.859795
Si Si6 0.684481 0.916243 0.438764
Si Si7 0.674221 0.906089 0.121801
O O1 0.500000 0.350438 0.255334
O O2 0.572318 0.116052 0.255063
O O3 0.592342 0.324923 0.123859
O O4 0.627153 0.346680 0.315259
O O5 0.778302 0.735050 0.633143
O O6 0.799249 0.016702 0.594334
O O7 0.821339 0.900100 0.774616
O O8 0.701342 0.955221 0.688160
O O9 0.123539 0.401023 0.362689
O O10 0.101828 0.373052 0.171499
O O11 0.000000 0.387220 0.295311
O O12 0.188104 0.278857 0.511448
O O13 0.125827 0.051299 0.448008
O O14 0.743054 0.576093 0.887488
O O15 0.668923 0.057351 0.506158
#
# Coordination Sequence:
#
# PCOD8176180 Si02
#       7
#     8   8   8   8   8   8   8
#     4  10  25  48  69 100 147 188 227 289 352 426
#     4  11  25  41  66 107 141 176 222 285 359 406
#     4  11  26  45  70  99 139 190 236 286 353 420
#     4  11  24  44  68 107 136 181 233 280 356 408
#     4  11  25  39  72 103 137 177 239 280 357 403
#     4  12  25  40  73 103 139 179 233 299 340 418
#     4  12  24  43  70 101 143 179 226 291 351 419
#
# _framework density 22.443199
#
# number of rings (size 3 to 8) (size 9 to 14) (size 15 to 20)
#    0.000    0.857    4.286    1.714    6.000    1.714 
#    0.000    5.714    0.000    0.000    0.000    0.000 
#    0.000    0.000    0.000    0.000    0.000    0.000 
#
# Total GULP energy -347034.134968 kJ/mol
# GULP energy per Si atom -12394.076249 kJ/mol
# Density = 2.239212 g / cm^3
# Si number density = 22.443199 Si / 1000 Ang^3
#
#
#
# Elastic Constant Matrix: (Units=GPa)
#
#
# Indices 1 2 3 4 5 6 
#
# 1 134.3264 34.8746 55.2825 0.0000 0.0000 0.0000
# 2 34.8746 101.5162 34.7279 0.0000 0.0000 0.0000
# 3 55.2825 34.7279 134.3134 0.0000 0.0000 0.0000
# 4 0.0000 0.0000 0.0000 33.3883 0.0000 0.0000
# 5 0.0000 0.0000 0.0000 0.0000 31.5105 0.0000
# 6 0.0000 0.0000 0.0000 0.0000 0.0000 24.8091
#
#
#
# Elastic Compliance Matrix: (Units=1/GPa)
#
#
# Indices 1 2 3 4 5 6 
#
# 1 0.009346 -0.002079 -0.003309 0.000000 0.000000 0.000000
# 2 -0.002079 0.011269 -0.002058 0.000000 0.000000 0.000000
# 3 -0.003309 -0.002058 0.009340 0.000000 0.000000 0.000000
# 4 0.000000 0.000000 0.000000 0.029951 0.000000 0.000000
# 5 0.000000 0.000000 0.000000 0.000000 0.031735 0.000000
# 6 0.000000 0.000000 0.000000 0.000000 0.000000 0.040308
#
#
# Mechanical properties :
#
#
# Convention : Reuss Voigt Hill
#
# Bulk Modulus (GPa) = 66.39097 68.88066 67.63581
# Shear Modulus (GPa) = 32.92475 34.29297 33.60886
#
# Velocity S-wave (km/s) = 3.83433 3.91319 3.87396
# Velocity P-wave (km/s) = 7.01775 7.15368 7.08604
#
# Compressibility (1/GPa) = 0.01506229
#
# Stress axis : x y z
#
# Youngs Moduli (GPa) = 106.99515 88.74062 107.07172
#
# Poissons Ratio (x) = 0.18446 0.35434
# Poissons Ratio (y) = 0.22241 0.22036
# Poissons Ratio (z) = 0.35409 0.18264
#
# Static dielectric constant tensor:
#      x y z
#    x 4.172210 0.000000 0.000000 
#    y 0.000000 3.966120 0.000000 
#    z 0.000000 0.000000 4.388140 
# 
# 
# High freq. dielectric constant tensor:
#      x y z
#    x 1.863350 0.000000 0.000000 
#    y 0.000000 1.886500 0.000000 
#    z 0.000000 0.000000 1.902560 
# 
# From -- ./inp_files/12819.got.cif
#   From: 2010.03.12/outbox.cif.g09.slc.cpg/sg36_7_cif.got.tgz:12819.got - 2010.04.14 02:13:53.
