data_PCOD8176445
_publ_section_title
;
Structure prediction by ZEFSAII (Michael W. Deem and Ramdas Pophale) SiO2 
 PCOD8176445
Probable space group: C C C 2
;
_chemical_formula_sum "Si O2"
_cell_formula_units_Z 48
_cell_length_a 17.499794
_cell_length_b 23.833279
_cell_length_c 5.240759
_cell_angle_alpha 90.000000
_cell_angle_beta 90.000000
_cell_angle_gamma 90.000000
_cell_volume 2185.802520
_symmetry_space_group_name_H-M "C C C 2"
_symmetry_group_IT_number 37
_symmetry_cell_setting 'orthorhombic'
loop_
_space_group_symop_operation_xyz
x,y,z
-x,-y,z
-x,y,1/2+z
x,-y,1/2+z
1/2+x,1/2+y,z
1/2-x,1/2-y,z
1/2-x,1/2+y,1/2+z
1/2+x,1/2-y,1/2+z
loop_
_atom_site_type_symbol
_atom_site_label
_atom_site_fract_x
_atom_site_fract_y
_atom_site_fract_z
Si Si1 0.284854 0.097091 0.829860
Si Si2 0.294919 0.304631 0.049106
Si Si3 0.704160 0.586554 0.322121
Si Si4 0.546074 0.874093 0.888878
Si Si5 0.032826 0.938116 0.886603
Si Si6 0.453363 0.257548 0.885564
O O1 0.257830 0.162324 0.844055
O O2 0.257698 0.071774 0.561505
O O3 0.375689 0.091929 0.853016
O O4 0.245217 0.063006 0.064926
O O5 0.250000 0.250000 0.148200
O O6 0.374474 0.290354 0.914932
O O7 0.308362 0.345917 0.291774
O O8 0.623195 0.556971 0.358802
O O9 0.490336 0.891530 0.658624
O O10 0.564145 0.808368 0.889506
O O11 0.007022 0.906171 0.147118
O O12 0.000000 0.000000 0.930757
O O13 0.490318 0.274513 0.616062
#
# Coordination Sequence:
#
# PCOD8176445 Si02
#       6
#     8   8   8   8   8   8
#     4  10  21  36  51  76 107 145 194 246 296 359
#     4  10  22  36  51  73 106 154 196 245 304 345
#     4  10  22  35  55  79 108 149 197 244 298 355
#     4  10  19  33  51  70  97 140 189 240 290 331
#     4  10  21  39  63  88 119 159 196 248 311 378
#     4  10  21  32  45  65  93 130 187 243 280 340
#
# _framework density 21.959897999999999
#
# number of rings (size 3 to 8) (size 9 to 14) (size 15 to 20)
#    1.000    1.000    1.667    2.000    2.333    3.333 
#    0.000    0.000    0.000    0.000    0.000    0.000 
#    0.000    0.000    0.000  210.000    0.000   13.333 
#
# Total GULP energy -297487.536078 kJ/mol
# GULP energy per Si atom -12395.314003 kJ/mol
# Density = 2.190992 g / cm^3
# Si number density = 21.959898 Si / 1000 Ang^3
#
#
#
# Elastic Constant Matrix: (Units=GPa)
#
#
# Indices 1 2 3 4 5 6 
#
# 1 147.0134 4.8066 33.0314 0.0000 0.0000 0.0000
# 2 4.8066 19.3375 -11.6794 0.0000 0.0000 0.0000
# 3 33.0314 -11.6794 154.8335 0.0000 0.0000 0.0000
# 4 0.0000 0.0000 0.0000 -5.5963 0.0000 0.0000
# 5 0.0000 0.0000 0.0000 0.0000 39.7567 0.0000
# 6 0.0000 0.0000 0.0000 0.0000 0.0000 31.3098
#
#
#
# Elastic Compliance Matrix: (Units=1/GPa)
#
#
# Indices 1 2 3 4 5 6 
#
# 1 0.007295 -0.002885 -0.001774 0.000000 0.000000 0.000000
# 2 -0.002885 0.055322 0.004788 0.000000 0.000000 0.000000
# 3 -0.001774 0.004788 0.007198 0.000000 0.000000 0.000000
# 4 0.000000 0.000000 0.000000 -0.178689 0.000000 0.000000
# 5 0.000000 0.000000 0.000000 0.000000 0.025153 0.000000
# 6 0.000000 0.000000 0.000000 0.000000 0.000000 0.031939
#
#
# Mechanical properties :
#
#
# Convention : Reuss Voigt Hill
#
# Bulk Modulus (GPa) = 14.27036 41.50018 27.88527
# Shear Modulus (GPa) = -174.31576 32.76241 -70.77667
#
# Velocity S-wave (km/s) = -8.91916 3.86673 -5.68330
# Velocity P-wave (km/s) = 9.97778 6.23495 5.50824
#
# Compressibility (1/GPa) = 0.07007533
#
# Stress axis : x y z
#
# Youngs Moduli (GPa) = 137.08076 18.07591 138.92400
#
# Poissons Ratio (x) = 0.05214 0.24643
# Poissons Ratio (y) = 0.39543 -0.66523
# Poissons Ratio (z) = 0.24316 -0.08656
#
# Static dielectric constant tensor:
#      x y z
#    x 3.814900 0.000000 0.000000 
#    y 0.000000 3.479200 0.000000 
#    z 0.000000 0.000000 4.516200 
# 
# 
# High freq. dielectric constant tensor:
#      x y z
#    x 1.869540 0.000000 0.000000 
#    y 0.000000 1.818760 0.000000 
#    z 0.000000 0.000000 1.873540 
# 
# From -- ./inp_files/580.got.cif
#   From: 2010.03.12/outbox.cif.g09.slc.cpg/sg37_1_cif.got.tgz:580.got - 2010.04.14 02:25:27.
