data_PCOD8176169
_publ_section_title
;
Structure prediction by ZEFSAII (Michael W. Deem and Ramdas Pophale) SiO2 
 PCOD8176169
Probable space group: C M C 21
;
_chemical_formula_sum "Si O2"
_cell_formula_units_Z 40
_cell_length_a 20.226034
_cell_length_b 7.629323
_cell_length_c 11.834282
_cell_angle_alpha 90.000000
_cell_angle_beta 90.000000
_cell_angle_gamma 90.000000
_cell_volume 1826.159255
_symmetry_space_group_name_H-M "C M C 21"
_symmetry_group_IT_number 36
_symmetry_cell_setting 'orthorhombic'
loop_
_space_group_symop_operation_xyz
x,y,z
-x,-y,1/2+z
x,-y,1/2+z
-x,y,z
1/2+x,1/2+y,z
1/2-x,1/2-y,1/2+z
1/2+x,1/2-y,1/2+z
1/2-x,1/2+y,z
loop_
_atom_site_type_symbol
_atom_site_label
_atom_site_fract_x
_atom_site_fract_y
_atom_site_fract_z
Si Si1 0.074977 0.356483 0.728760
Si Si2 0.821982 0.412398 0.921822
Si Si3 0.073567 0.068840 0.545558
Si Si4 0.618146 0.778629 0.140892
Si Si5 0.824389 0.195220 0.376496
O O1 0.124282 0.337121 0.834029
O O2 0.096401 0.211144 0.637971
O O3 0.076647 0.549468 0.673234
O O4 0.000000 0.322820 0.771318
O O5 0.831762 0.618775 0.937413
O O6 0.748586 0.381407 0.878363
O O7 0.829755 0.322248 0.042630
O O8 0.124321 0.067422 0.440557
O O9 0.000000 0.116103 0.501136
O O10 0.070113 0.876099 0.600286
O O11 0.659954 0.707229 0.245045
#
# Coordination Sequence:
#
# PCOD8176169 Si02
#       5
#     8   8   8   8   8
#     4  10  24  45  67  99 136 179 231 283 342 405
#     4  11  25  44  70 100 139 186 225 290 338 405
#     4  11  25  44  69 100 137 179 229 286 341 405
#     4  11  25  45  70 100 137 186 228 283 345 403
#     4  11  26  44  70 103 140 180 235 284 337 416
#
# _framework density 21.903893
#
# number of rings (size 3 to 8) (size 9 to 14) (size 15 to 20)
#    0.000    1.200    2.000    1.800    8.400    7.200 
#    0.000    0.000    0.000    0.000    0.000    0.000 
#    0.000    0.000    0.000    0.000    0.000    0.000 
#
# Total GULP energy -248091.276992 kJ/mol
# GULP energy per Si atom -12404.563850 kJ/mol
# Density = 2.185404 g / cm^3
# Si number density = 21.903893 Si / 1000 Ang^3
#
#
#
# Elastic Constant Matrix: (Units=GPa)
#
#
# Indices 1 2 3 4 5 6 
#
# 1 138.6474 16.9347 64.4408 0.0000 0.0000 0.0000
# 2 16.9347 82.3387 47.9067 0.0000 0.0000 0.0000
# 3 64.4408 47.9067 138.2584 0.0000 0.0000 0.0000
# 4 0.0000 0.0000 0.0000 25.0156 0.0000 0.0000
# 5 0.0000 0.0000 0.0000 0.0000 20.4464 0.0000
# 6 0.0000 0.0000 0.0000 0.0000 0.0000 26.0568
#
#
#
# Elastic Compliance Matrix: (Units=1/GPa)
#
#
# Indices 1 2 3 4 5 6 
#
# 1 0.009245 0.000759 -0.004572 0.000000 0.000000 0.000000
# 2 0.000759 0.015274 -0.005646 0.000000 0.000000 0.000000
# 3 -0.004572 -0.005646 0.011320 0.000000 0.000000 0.000000
# 4 0.000000 0.000000 0.000000 0.039975 0.000000 0.000000
# 5 0.000000 0.000000 0.000000 0.000000 0.048908 0.000000
# 6 0.000000 0.000000 0.000000 0.000000 0.000000 0.038378
#
#
# Mechanical properties :
#
#
# Convention : Reuss Voigt Hill
#
# Bulk Modulus (GPa) = 59.10037 68.64544 63.87290
# Shear Modulus (GPa) = 26.64416 29.63456 28.13936
#
# Velocity S-wave (km/s) = 3.49149 3.68222 3.58812
# Velocity P-wave (km/s) = 6.57984 7.03461 6.81102
#
# Compressibility (1/GPa) = 0.01692037
#
# Stress axis : x y z
#
# Youngs Moduli (GPa) = 108.16963 65.47114 88.33925
#
# Poissons Ratio (x) = -0.04966 0.40386
# Poissons Ratio (y) = -0.08205 0.49876
# Poissons Ratio (z) = 0.49452 0.36965
#
# Static dielectric constant tensor:
#      x y z
#    x 3.735630 0.000000 0.000000 
#    y 0.000000 4.164600 0.000000 
#    z 0.000000 0.000000 3.870290 
# 
# 
# High freq. dielectric constant tensor:
#      x y z
#    x 1.860400 0.000000 0.000000 
#    y 0.000000 1.878440 0.000000 
#    z 0.000000 0.000000 1.862300 
# 
# From -- ./inp_files/8768.got.cif
#   From: 2010.03.12/outbox.cif.g09.slc.cpg/sg36_5_cif.got.tgz:8768.got - 2010.04.14 02:13:53.
