data_PCOD8176105
_publ_section_title
;
Structure prediction by ZEFSAII (Michael W. Deem and Ramdas Pophale) SiO2 
 PCOD8176105
Probable space group: C M C 21
;
_chemical_formula_sum "Si O2"
_cell_formula_units_Z 40
_cell_length_a 18.035907
_cell_length_b 19.667743
_cell_length_c 4.977920
_cell_angle_alpha 90.000000
_cell_angle_beta 90.000000
_cell_angle_gamma 90.000000
_cell_volume 1765.795577
_symmetry_space_group_name_H-M "C M C 21"
_symmetry_group_IT_number 36
_symmetry_cell_setting 'orthorhombic'
loop_
_space_group_symop_operation_xyz
x,y,z
-x,-y,1/2+z
x,-y,1/2+z
-x,y,z
1/2+x,1/2+y,z
1/2-x,1/2-y,1/2+z
1/2+x,1/2-y,1/2+z
1/2-x,1/2+y,z
loop_
_atom_site_type_symbol
_atom_site_label
_atom_site_fract_x
_atom_site_fract_y
_atom_site_fract_z
Si Si1 0.085048 0.045469 0.978860
Si Si2 0.701148 0.352481 0.266711
Si Si3 0.413364 0.834665 0.980809
Si Si4 0.837227 0.722116 0.974295
Si Si5 0.819215 0.454784 0.122628
O O1 0.137152 0.110420 0.935087
O O2 0.000000 0.070004 0.950628
O O3 0.102013 0.984663 0.771212
O O4 0.754726 0.310573 0.469509
O O5 0.664038 0.300593 0.057716
O O6 0.748026 0.406104 0.088793
O O7 0.500000 0.823955 0.998125
O O8 0.373655 0.781125 0.179437
O O9 0.393491 0.911509 0.069892
O O10 0.386332 0.821982 0.678878
O O11 0.816826 0.481097 0.427302
#
# Coordination Sequence:
#
# PCOD8176105 Si02
#       5
#     8   8   8   8   8
#     4  10  23  41  63  93 127 166 209 257 318 381
#     4  11  23  43  65  94 131 165 212 272 312 379
#     4  11  25  45  65  94 134 169 215 269 316 384
#     4  11  25  41  67  97 126 174 218 260 327 380
#     4  11  23  38  63  94 122 166 214 258 322 378
#
# _framework density 22.652677000000001
#
# number of rings (size 3 to 8) (size 9 to 14) (size 15 to 20)
#    0.000    1.200    0.000    6.600    0.000   10.400 
#    0.000    2.000    0.000    0.000    0.000    0.000 
#    0.000    0.000    0.000    0.000    0.000    0.000 
#
# Total GULP energy -248136.369628 kJ/mol
# GULP energy per Si atom -12406.818481 kJ/mol
# Density = 2.260112 g / cm^3
# Si number density = 22.652677 Si / 1000 Ang^3
#
#
#
# Elastic Constant Matrix: (Units=GPa)
#
#
# Indices 1 2 3 4 5 6 
#
# 1 108.5347 30.3401 2.0708 0.0000 0.0000 0.0000
# 2 30.3401 77.1332 -6.6017 0.0000 0.0000 0.0000
# 3 2.0708 -6.6017 56.3821 0.0000 0.0000 0.0000
# 4 0.0000 0.0000 0.0000 21.9168 0.0000 0.0000
# 5 0.0000 0.0000 0.0000 0.0000 31.9871 0.0000
# 6 0.0000 0.0000 0.0000 0.0000 0.0000 32.3900
#
#
#
# Elastic Compliance Matrix: (Units=1/GPa)
#
#
# Indices 1 2 3 4 5 6 
#
# 1 0.010394 -0.004163 -0.000869 0.000000 0.000000 0.000000
# 2 -0.004163 0.014763 0.001881 0.000000 0.000000 0.000000
# 3 -0.000869 0.001881 0.017988 0.000000 0.000000 0.000000
# 4 0.000000 0.000000 0.000000 0.045627 0.000000 0.000000
# 5 0.000000 0.000000 0.000000 0.000000 0.031263 0.000000
# 6 0.000000 0.000000 0.000000 0.000000 0.000000 0.030874
#
#
# Mechanical properties :
#
#
# Convention : Reuss Voigt Hill
#
# Bulk Modulus (GPa) = 27.14123 32.62984 29.88554
# Shear Modulus (GPa) = 29.50007 31.67483 30.58745
#
# Velocity S-wave (km/s) = 3.61262 3.74342 3.67860
# Velocity P-wave (km/s) = 5.42299 5.75499 5.59146
#
# Compressibility (1/GPa) = 0.03684431
#
# Stress axis : x y z
#
# Youngs Moduli (GPa) = 96.21018 67.73667 55.59151
#
# Poissons Ratio (x) = 0.28197 0.04832
# Poissons Ratio (y) = 0.40050 -0.10459
# Poissons Ratio (z) = 0.08362 -0.12744
#
# Static dielectric constant tensor:
#      x y z
#    x 4.063990 0.000000 0.000000 
#    y 0.000000 4.045370 0.000000 
#    z 0.000000 0.000000 4.050310 
# 
# 
# High freq. dielectric constant tensor:
#      x y z
#    x 1.888850 0.000000 0.000000 
#    y 0.000000 1.896710 0.000000 
#    z 0.000000 0.000000 1.901410 
# 
# From -- ./inp_files/1043.got.cif
#   From: 2010.03.12/outbox.cif.g09.slc.cpg/sg36_1_cif.got.tgz:1043.got - 2010.04.14 02:13:53.
