data_PCOD8176213
_publ_section_title
;
Structure prediction by ZEFSAII (Michael W. Deem and Ramdas Pophale) SiO2 
 PCOD8176213
Probable space group: C M C 21
;
_chemical_formula_sum "Si O2"
_cell_formula_units_Z 48
_cell_length_a 8.347376
_cell_length_b 15.128617
_cell_length_c 18.793668
_cell_angle_alpha 90.000000
_cell_angle_beta 90.000000
_cell_angle_gamma 90.000000
_cell_volume 2373.344352
_symmetry_space_group_name_H-M "C M C 21"
_symmetry_group_IT_number 36
_symmetry_cell_setting 'orthorhombic'
loop_
_space_group_symop_operation_xyz
x,y,z
-x,-y,1/2+z
x,-y,1/2+z
-x,y,z
1/2+x,1/2+y,z
1/2-x,1/2-y,1/2+z
1/2+x,1/2-y,1/2+z
1/2-x,1/2+y,z
loop_
_atom_site_type_symbol
_atom_site_label
_atom_site_fract_x
_atom_site_fract_y
_atom_site_fract_z
Si Si1 0.814239 0.990069 0.639220
Si Si2 0.689375 0.291698 0.643203
Si Si3 0.810209 0.264070 0.990656
Si Si4 0.813495 0.462531 0.989331
Si Si5 0.314678 0.135149 0.739812
Si Si6 0.813994 0.892175 0.392549
O O1 0.787339 0.999988 0.555184
O O2 0.704797 0.057340 0.682603
O O3 0.000000 0.006688 0.656841
O O4 0.760616 0.891453 0.662142
O O5 0.500000 0.282799 0.636762
O O6 0.763876 0.262562 0.567289
O O7 0.750732 0.226101 0.704941
O O8 0.755138 0.363181 0.971035
O O9 0.745867 0.195871 0.931170
O O10 0.000000 0.258268 0.993051
O O11 0.781212 0.522503 0.920583
O O12 0.000000 0.463281 0.009703
O O13 0.500000 0.142527 0.761342
O O14 0.209933 0.115785 0.808680
O O15 0.000000 0.906147 0.409352
#
# Coordination Sequence:
#
# PCOD8176213 Si02
#       6
#     8   8   8   8   8   8
#     4  11  21  37  62  91 120 156 199 244 294 351
#     4   9  18  36  61  86 116 155 195 240 292 348
#     4   9  18  36  61  86 116 155 195 240 292 348
#     4  11  21  37  62  91 120 156 199 244 294 351
#     4  11  23  41  61  86 121 157 196 245 301 355
#     4  11  23  41  61  86 121 157 196 245 301 355
#
# _framework density 20.224623999999999
#
# number of rings (size 3 to 8) (size 9 to 14) (size 15 to 20)
#    0.000    1.667    3.333    2.000    0.000    1.333 
#    0.000   11.667    0.000    0.000    0.000    0.000 
#    0.000    0.000    0.000    0.000    0.000    0.000 
#
# Total GULP energy -297676.649508 kJ/mol
# GULP energy per Si atom -12403.193729 kJ/mol
# Density = 2.017859 g / cm^3
# Si number density = 20.224624 Si / 1000 Ang^3
#
#
#
# Elastic Constant Matrix: (Units=GPa)
#
#
# Indices 1 2 3 4 5 6 
#
# 1 36.2137 21.4282 3.7223 0.0000 0.0000 0.0000
# 2 21.4282 137.8003 23.2261 0.0000 0.0000 0.0000
# 3 3.7223 23.2261 81.0808 0.0000 0.0000 0.0000
# 4 0.0000 0.0000 0.0000 33.6731 0.0000 0.0000
# 5 0.0000 0.0000 0.0000 0.0000 28.8089 0.0000
# 6 0.0000 0.0000 0.0000 0.0000 0.0000 23.5260
#
#
#
# Elastic Compliance Matrix: (Units=1/GPa)
#
#
# Indices 1 2 3 4 5 6 
#
# 1 0.030412 -0.004722 -0.000044 0.000000 0.000000 0.000000
# 2 -0.004722 0.008358 -0.002177 0.000000 0.000000 0.000000
# 3 -0.000044 -0.002177 0.012959 0.000000 0.000000 0.000000
# 4 0.000000 0.000000 0.000000 0.029697 0.000000 0.000000
# 5 0.000000 0.000000 0.000000 0.000000 0.034712 0.000000
# 6 0.000000 0.000000 0.000000 0.000000 0.000000 0.042506
#
#
# Mechanical properties :
#
#
# Convention : Reuss Voigt Hill
#
# Bulk Modulus (GPa) = 26.42440 39.09423 32.75931
# Shear Modulus (GPa) = 27.00588 30.98282 28.99435
#
# Velocity S-wave (km/s) = 3.65814 3.91824 3.79042
# Velocity P-wave (km/s) = 5.56205 6.31206 5.94889
#
# Compressibility (1/GPa) = 0.03784382
#
# Stress axis : x y z
#
# Youngs Moduli (GPa) = 32.88143 119.64386 77.16564
#
# Poissons Ratio (x) = 0.56494 0.00336
# Poissons Ratio (y) = 0.15526 0.16803
# Poissons Ratio (z) = 0.00143 0.26052
#
# Static dielectric constant tensor:
#      x y z
#    x 3.278650 0.000000 0.000000 
#    y 0.000000 4.000370 0.000000 
#    z 0.000000 0.000000 3.527990 
# 
# 
# High freq. dielectric constant tensor:
#      x y z
#    x 1.764190 0.000000 0.000000 
#    y 0.000000 1.807640 0.000000 
#    z 0.000000 0.000000 1.782230 
# 
# From -- ./inp_files/13478.got.cif
#   From: 2010.03.12/outbox.cif.g09.slc.cpg/sg36_7_cif.got.tgz:13478.got - 2010.04.14 02:13:53.
