data_PCOD8176668
_publ_section_title
;
Structure prediction by ZEFSAII (Michael W. Deem and Ramdas Pophale) SiO2 
 PCOD8176668
Probable space group: C C C 2
;
_chemical_formula_sum "Si O2"
_cell_formula_units_Z 56
_cell_length_a 8.648495
_cell_length_b 21.831260
_cell_length_c 13.738694
_cell_angle_alpha 90.000000
_cell_angle_beta 90.000000
_cell_angle_gamma 90.000000
_cell_volume 2593.969058
_symmetry_space_group_name_H-M "C C C 2"
_symmetry_group_IT_number 37
_symmetry_cell_setting 'orthorhombic'
loop_
_space_group_symop_operation_xyz
x,y,z
-x,-y,z
-x,y,1/2+z
x,-y,1/2+z
1/2+x,1/2+y,z
1/2-x,1/2-y,z
1/2-x,1/2+y,1/2+z
1/2+x,1/2-y,1/2+z
loop_
_atom_site_type_symbol
_atom_site_label
_atom_site_fract_x
_atom_site_fract_y
_atom_site_fract_z
Si Si1 0.612128 0.947864 0.066480
Si Si2 0.711647 0.931833 0.864921
Si Si3 0.579520 0.757676 0.734327
Si Si4 0.088904 0.875981 0.213343
Si Si5 0.091923 0.359923 0.350988
Si Si6 0.360629 0.851765 0.076096
Si Si7 0.702080 0.550489 0.250201
O O1 0.507685 0.892672 0.105545
O O2 0.708224 0.974059 0.156130
O O3 0.500000 0.000000 0.022821
O O4 0.732213 0.928136 0.981715
O O5 0.808216 0.879139 0.811602
O O6 0.531174 0.916021 0.846061
O O7 0.774655 0.997870 0.830150
O O8 0.750000 0.750000 0.782347
O O9 0.504869 0.690352 0.716363
O O10 0.470813 0.797131 0.804708
O O11 0.604616 0.787364 0.627751
O O12 0.201781 0.881210 0.119040
O O13 0.973188 0.934069 0.216334
O O14 0.148328 0.344628 0.460093
O O15 0.238070 0.384629 0.291350
#
# Coordination Sequence:
#
# PCOD8176668 Si02
#       7
#     8   8   8   8   8   8   8
#     4  11  22  39  68  97 125 174 228 280 328 411
#     4  11  22  41  67  94 129 176 228 275 342 410
#     4  10  20  44  66  92 134 179 225 284 335 395
#     4  11  24  43  63  95 140 181 211 285 353 392
#     4  11  21  41  71 101 124 180 237 274 336 409
#     4  10  21  41  68  94 128 178 235 277 330 403
#     4  12  24  40  65  99 142 171 220 285 341 419
#
# _framework density 21.588536999999999
#
# number of rings (size 3 to 8) (size 9 to 14) (size 15 to 20)
#    0.000    1.143    4.286    4.286    0.000    1.714 
#   10.286    2.857    0.000    0.000    0.000    0.000 
#    0.000    0.000    0.000    0.000    0.000    0.000 
#
# Total GULP energy -347074.420753 kJ/mol
# GULP energy per Si atom -12395.515027 kJ/mol
# Density = 2.153940 g / cm^3
# Si number density = 21.588537 Si / 1000 Ang^3
#
#
#
# Elastic Constant Matrix: (Units=GPa)
#
#
# Indices 1 2 3 4 5 6 
#
# 1 78.6400 39.1448 50.1987 0.0000 0.0000 0.0000
# 2 39.1448 114.9461 40.2023 0.0000 0.0000 0.0000
# 3 50.1987 40.2023 131.9268 0.0000 0.0000 0.0000
# 4 0.0000 0.0000 0.0000 31.3042 0.0000 0.0000
# 5 0.0000 0.0000 0.0000 0.0000 24.0750 0.0000
# 6 0.0000 0.0000 0.0000 0.0000 0.0000 38.9201
#
#
#
# Elastic Compliance Matrix: (Units=1/GPa)
#
#
# Indices 1 2 3 4 5 6 
#
# 1 0.018518 -0.004300 -0.005736 0.000000 0.000000 0.000000
# 2 -0.004300 0.010736 -0.001635 0.000000 0.000000 0.000000
# 3 -0.005736 -0.001635 0.010261 0.000000 0.000000 0.000000
# 4 0.000000 0.000000 0.000000 0.031945 0.000000 0.000000
# 5 0.000000 0.000000 0.000000 0.000000 0.041537 0.000000
# 6 0.000000 0.000000 0.000000 0.000000 0.000000 0.025694
#
#
# Mechanical properties :
#
#
# Convention : Reuss Voigt Hill
#
# Bulk Modulus (GPa) = 61.83446 64.95606 63.39526
# Shear Modulus (GPa) = 29.86434 31.92432 30.89433
#
# Velocity S-wave (km/s) = 3.72337 3.84964 3.78703
# Velocity P-wave (km/s) = 6.86943 7.06493 6.96786
#
# Compressibility (1/GPa) = 0.01617221
#
# Stress axis : x y z
#
# Youngs Moduli (GPa) = 54.00127 93.14322 97.45821
#
# Poissons Ratio (x) = 0.40054 0.55900
# Poissons Ratio (y) = 0.23222 0.15938
# Poissons Ratio (z) = 0.30974 0.15233
#
# Static dielectric constant tensor:
#      x y z
#    x 3.848250 0.000000 0.000000 
#    y 0.000000 3.951140 0.000000 
#    z 0.000000 0.000000 3.800290 
# 
# 
# High freq. dielectric constant tensor:
#      x y z
#    x 1.832750 0.000000 0.000000 
#    y 0.000000 1.854540 0.000000 
#    z 0.000000 0.000000 1.844160 
# 
# From -- ./inp_files/10828.got.cif
#   From: 2010.03.12/outbox.cif.g09.slc.cpg/sg37_6_cif.got.tgz:10828.got - 2010.04.14 02:25:27.
