data_PCOD8176334
_publ_section_title
;
Structure prediction by ZEFSAII (Michael W. Deem and Ramdas Pophale) SiO2 
 PCOD8176334
Probable space group: C M C 21
;
_chemical_formula_sum "Si O2"
_cell_formula_units_Z 40
_cell_length_a 21.651369
_cell_length_b 9.832020
_cell_length_c 8.518944
_cell_angle_alpha 90.000000
_cell_angle_beta 90.000000
_cell_angle_gamma 90.000000
_cell_volume 1813.484627
_symmetry_space_group_name_H-M "C M C 21"
_symmetry_group_IT_number 36
_symmetry_cell_setting 'orthorhombic'
loop_
_space_group_symop_operation_xyz
x,y,z
-x,-y,1/2+z
x,-y,1/2+z
-x,y,z
1/2+x,1/2+y,z
1/2-x,1/2-y,1/2+z
1/2+x,1/2-y,1/2+z
1/2-x,1/2+y,z
loop_
_atom_site_type_symbol
_atom_site_label
_atom_site_fract_x
_atom_site_fract_y
_atom_site_fract_z
Si Si1 0.370903 0.179379 0.370090
Si Si2 0.500000 0.312949 0.357597
Si Si3 0.000000 0.100151 0.498000
Si Si4 0.813890 0.926432 0.200474
Si Si5 0.170807 0.573072 0.702401
Si Si6 0.868344 0.835314 0.877535
O O1 0.441704 0.219027 0.392506
O O2 0.330899 0.309818 0.323798
O O3 0.343314 0.121213 0.528821
O O4 0.366795 0.064902 0.235550
O O5 0.500000 0.437853 0.478652
O O6 0.500000 0.370215 0.182088
O O7 0.059436 0.167423 0.417738
O O8 0.742602 0.962687 0.219678
O O9 0.855060 0.059797 0.235909
O O10 0.827544 0.880294 0.024763
O O11 0.151489 0.685189 0.829126
#
# Coordination Sequence:
#
# PCOD8176334 Si02
#       6
#     8   4   4   8   8   8
#     4  12  27  47  71 103 144 192 236 295 360 423
#     4  12  28  49  77 100 144 182 248 292 360 429
#     4  12  24  49  73 104 138 178 242 298 338 431
#     4  12  23  46  71 107 142 188 239 291 354 432
#     4  12  27  45  70 105 148 184 236 295 360 429
#     4  12  25  43  77 103 139 191 235 297 358 416
#
# _framework density 22.056982000000001
#
# number of rings (size 3 to 8) (size 9 to 14) (size 15 to 20)
#    0.000    0.000    4.000    6.000    2.800    1.600 
#    0.000    0.000    0.000    0.000    0.000    0.000 
#    0.000    0.000    0.000    0.000    0.000    0.000 
#
# Total GULP energy -248212.307317 kJ/mol
# GULP energy per Si atom -12410.615366 kJ/mol
# Density = 2.200678 g / cm^3
# Si number density = 22.056982 Si / 1000 Ang^3
#
#
#
# Elastic Constant Matrix: (Units=GPa)
#
#
# Indices 1 2 3 4 5 6 
#
# 1 114.0865 37.6264 17.1098 0.0000 0.0000 0.0000
# 2 37.6264 70.4460 -10.2448 0.0000 0.0000 0.0000
# 3 17.1098 -10.2448 49.2383 0.0000 0.0000 0.0000
# 4 0.0000 0.0000 0.0000 37.7843 0.0000 0.0000
# 5 0.0000 0.0000 0.0000 0.0000 28.1710 0.0000
# 6 0.0000 0.0000 0.0000 0.0000 0.0000 -29.5191
#
#
#
# Elastic Compliance Matrix: (Units=1/GPa)
#
#
# Indices 1 2 3 4 5 6 
#
# 1 0.012003 -0.007237 -0.005677 0.000000 0.000000 0.000000
# 2 -0.007237 0.019001 0.006468 0.000000 0.000000 0.000000
# 3 -0.005677 0.006468 0.023628 0.000000 0.000000 0.000000
# 4 0.000000 0.000000 0.000000 0.026466 0.000000 0.000000
# 5 0.000000 0.000000 0.000000 0.000000 0.035498 0.000000
# 6 0.000000 0.000000 0.000000 0.000000 0.000000 -0.033876
#
#
# Mechanical properties :
#
#
# Convention : Reuss Voigt Hill
#
# Bulk Modulus (GPa) = 23.95684 35.86149 29.90917
# Shear Modulus (GPa) = 45.65206 19.90586 32.77896
#
# Velocity S-wave (km/s) = 4.55437 3.00738 3.85918
# Velocity P-wave (km/s) = 6.20816 5.32475 5.78335
#
# Compressibility (1/GPa) = 0.04174173
#
# Stress axis : x y z
#
# Youngs Moduli (GPa) = 83.31012 52.62829 42.32302
#
# Poissons Ratio (x) = 0.38086 0.24026
# Poissons Ratio (y) = 0.60289 -0.27375
# Poissons Ratio (z) = 0.47293 -0.34041
#
# Static dielectric constant tensor:
#      x y z
#    x 4.358430 0.000000 0.000000 
#    y 0.000000 4.244690 0.000000 
#    z 0.000000 0.000000 4.048560 
# 
# 
# High freq. dielectric constant tensor:
#      x y z
#    x 1.880560 0.000000 0.000000 
#    y 0.000000 1.877230 0.000000 
#    z 0.000000 0.000000 1.882520 
# 
# From -- ./inp_files/5489.got.cif
#   From: 2010.03.12/outbox.cif.g09.slc.cpg/sg36_3_cif.got.tgz:5489.got - 2010.04.14 02:13:53.
