data_PCOD8176222
_publ_section_title
;
Structure prediction by ZEFSAII (Michael W. Deem and Ramdas Pophale) SiO2 
 PCOD8176222
Probable space group: C M C 21
;
_chemical_formula_sum "Si O2"
_cell_formula_units_Z 64
_cell_length_a 19.648975
_cell_length_b 17.643622
_cell_length_c 9.302871
_cell_angle_alpha 90.000000
_cell_angle_beta 90.000000
_cell_angle_gamma 90.000000
_cell_volume 3225.110830
_symmetry_space_group_name_H-M "C M C 21"
_symmetry_group_IT_number 36
_symmetry_cell_setting 'orthorhombic'
loop_
_space_group_symop_operation_xyz
x,y,z
-x,-y,1/2+z
x,-y,1/2+z
-x,y,z
1/2+x,1/2+y,z
1/2-x,1/2-y,1/2+z
1/2+x,1/2-y,1/2+z
1/2-x,1/2+y,z
loop_
_atom_site_type_symbol
_atom_site_label
_atom_site_fract_x
_atom_site_fract_y
_atom_site_fract_z
Si Si1 0.317538 0.437002 0.921480
Si Si2 0.078684 0.347097 0.815994
Si Si3 0.846345 0.083339 0.744524
Si Si4 0.922688 0.815006 0.443022
Si Si5 0.170076 0.378464 0.562705
Si Si6 0.188396 0.171844 0.177113
Si Si7 0.163503 0.449755 0.011552
Si Si8 0.298036 0.157936 0.755270
O O1 0.349054 0.504605 0.829256
O O2 0.330658 0.359091 0.834995
O O3 0.354866 0.431800 0.074909
O O4 0.237121 0.448122 0.938337
O O5 0.090149 0.273298 0.913015
O O6 0.119124 0.334211 0.667655
O O7 0.000000 0.361199 0.781042
O O8 0.108189 0.420029 0.898368
O O9 0.907700 0.136031 0.799815
O O10 0.777238 0.127182 0.780249
O O11 0.874665 0.842435 0.571813
O O12 0.000000 0.829170 0.490551
O O13 0.247528 0.375570 0.618651
O O14 0.145490 0.465153 0.555117
O O15 0.163831 0.338426 0.407799
O O16 0.207148 0.259882 0.184341
O O17 0.160054 0.397937 0.152868
#
# Coordination Sequence:
#
# PCOD8176222 Si02
#       8
#     8   8   8   8   8   8   8   8
#     4  11  23  38  66 101 132 157 216 277 324 373
#     4  11  25  43  65  94 132 176 215 262 329 395
#     4  11  22  40  64  99 128 170 208 271 326 384
#     4  11  24  46  67  91 133 177 215 267 332 391
#     4  12  23  39  66  95 130 168 221 275 320 379
#     4  12  23  40  63 100 130 168 223 273 320 385
#     4  11  21  42  61  94 129 171 212 265 330 379
#     4  11  23  34  64  96 126 167 216 272 323 378
#
# _framework density 19.844280000000001
#
# number of rings (size 3 to 8) (size 9 to 14) (size 15 to 20)
#    0.000    0.750    5.000    3.750    5.250    0.500 
#    0.000    4.375    0.000    0.000    0.000    0.000 
#    0.000    0.000    0.000    0.000    0.000    0.000 
#
# Total GULP energy -396994.746653 kJ/mol
# GULP energy per Si atom -12406.085833 kJ/mol
# Density = 1.979911 g / cm^3
# Si number density = 19.844280 Si / 1000 Ang^3
#
#
#
# Elastic Constant Matrix: (Units=GPa)
#
#
# Indices 1 2 3 4 5 6 
#
# 1 78.9403 20.3400 39.3633 0.0000 0.0000 0.0000
# 2 20.3400 75.8926 21.8634 0.0000 0.0000 0.0000
# 3 39.3633 21.8634 128.2037 0.0000 0.0000 0.0000
# 4 0.0000 0.0000 0.0000 35.7724 0.0000 0.0000
# 5 0.0000 0.0000 0.0000 0.0000 28.9733 0.0000
# 6 0.0000 0.0000 0.0000 0.0000 0.0000 18.5896
#
#
#
# Elastic Compliance Matrix: (Units=1/GPa)
#
#
# Indices 1 2 3 4 5 6 
#
# 1 0.015557 -0.002938 -0.004275 0.000000 0.000000 0.000000
# 2 -0.002938 0.014412 -0.001556 0.000000 0.000000 0.000000
# 3 -0.004275 -0.001556 0.009378 0.000000 0.000000 0.000000
# 4 0.000000 0.000000 0.000000 0.027954 0.000000 0.000000
# 5 0.000000 0.000000 0.000000 0.000000 0.034515 0.000000
# 6 0.000000 0.000000 0.000000 0.000000 0.000000 0.053793
#
#
# Mechanical properties :
#
#
# Convention : Reuss Voigt Hill
#
# Bulk Modulus (GPa) = 45.85274 49.57443 47.71359
# Shear Modulus (GPa) = 27.71359 30.09840 28.90599
#
# Velocity S-wave (km/s) = 3.74110 3.89875 3.82074
# Velocity P-wave (km/s) = 6.46665 6.73074 6.60002
#
# Compressibility (1/GPa) = 0.02180895
#
# Stress axis : x y z
#
# Youngs Moduli (GPa) = 64.28104 69.38644 106.63091
#
# Poissons Ratio (x) = 0.20383 0.45590
# Poissons Ratio (y) = 0.18884 0.16590
# Poissons Ratio (z) = 0.27483 0.10795
#
# Static dielectric constant tensor:
#      x y z
#    x 3.302830 0.000000 0.000000 
#    y 0.000000 3.665350 0.000000 
#    z 0.000000 0.000000 3.833300 
# 
# 
# High freq. dielectric constant tensor:
#      x y z
#    x 1.737050 0.000000 0.000000 
#    y 0.000000 1.786230 0.000000 
#    z 0.000000 0.000000 1.790140 
# 
# From -- ./inp_files/5319.got.cif
#   From: 2010.03.12/outbox.cif.g09.slc.cpg/sg36_3_cif.got.tgz:5319.got - 2010.04.14 02:13:53.
