data_PCOD8176809
_publ_section_title
;
Structure prediction by ZEFSAII (Michael W. Deem and Ramdas Pophale) SiO2 
 PCOD8176809
Probable space group: C C C 2
;
_chemical_formula_sum "Si O2"
_cell_formula_units_Z 40
_cell_length_a 12.508637
_cell_length_b 8.610990
_cell_length_c 15.333369
_cell_angle_alpha 90.000000
_cell_angle_beta 90.000000
_cell_angle_gamma 90.000000
_cell_volume 1651.583980
_symmetry_space_group_name_H-M "C C C 2"
_symmetry_group_IT_number 37
_symmetry_cell_setting 'orthorhombic'
loop_
_space_group_symop_operation_xyz
x,y,z
-x,-y,z
-x,y,1/2+z
x,-y,1/2+z
1/2+x,1/2+y,z
1/2-x,1/2-y,z
1/2-x,1/2+y,1/2+z
1/2+x,1/2-y,1/2+z
loop_
_atom_site_type_symbol
_atom_site_label
_atom_site_fract_x
_atom_site_fract_y
_atom_site_fract_z
Si Si1 0.955435 0.155195 0.090640
Si Si2 0.160184 0.451891 0.810373
Si Si3 0.099799 0.888416 0.281153
Si Si4 0.345320 0.139436 0.141127
Si Si5 0.613723 0.931871 0.494949
O O1 0.888130 0.108886 0.176388
O O2 0.053936 0.255039 0.123210
O O3 0.881214 0.250001 0.022711
O O4 0.000000 0.000000 0.043275
O O5 0.094895 0.288737 0.817635
O O6 0.288033 0.448629 0.817023
O O7 0.122057 0.529027 0.721081
O O8 0.130402 0.557652 0.892499
O O9 0.000000 0.000000 0.311112
O O10 0.250000 0.250000 0.170536
O O11 0.308103 0.036379 0.056454
O O12 0.500000 0.000000 0.522473
#
# Coordination Sequence:
#
# PCOD8176809 Si02
#       5
#     8   8   8   8   8
#     4  10  21  45  74 101 140 192 241 307 370 436
#     4  11  24  44  74 106 151 196 242 307 381 447
#     4  10  22  43  78 108 144 194 252 307 370 448
#     4  11  23  43  70 102 144 191 240 301 368 445
#     4  10  24  43  72 106 142 193 237 303 377 445
#
# _framework density 24.219175
#
# number of rings (size 3 to 8) (size 9 to 14) (size 15 to 20)
#    0.000    1.600    2.000    2.400    5.600    0.000 
#    0.000    9.000   13.200    0.000    0.000    0.000 
#    0.000    0.000    0.000    0.000    0.000    0.000 
#
# Total GULP energy -247903.514159 kJ/mol
# GULP energy per Si atom -12395.175708 kJ/mol
# Density = 2.416405 g / cm^3
# Si number density = 24.219175 Si / 1000 Ang^3
#
#
#
# Elastic Constant Matrix: (Units=GPa)
#
#
# Indices 1 2 3 4 5 6 
#
# 1 79.6666 51.6717 11.7410 0.0000 0.0000 0.0000
# 2 51.6717 155.7881 49.2678 0.0000 0.0000 0.0000
# 3 11.7410 49.2678 115.3181 0.0000 0.0000 0.0000
# 4 0.0000 0.0000 0.0000 34.0800 0.0000 0.0000
# 5 0.0000 0.0000 0.0000 0.0000 11.1588 0.0000
# 6 0.0000 0.0000 0.0000 0.0000 0.0000 33.8029
#
#
#
# Elastic Compliance Matrix: (Units=1/GPa)
#
#
# Indices 1 2 3 4 5 6 
#
# 1 0.016047 -0.005557 0.000740 0.000000 0.000000 0.000000
# 2 -0.005557 0.009346 -0.003427 0.000000 0.000000 0.000000
# 3 0.000740 -0.003427 0.010060 0.000000 0.000000 0.000000
# 4 0.000000 0.000000 0.000000 0.029343 0.000000 0.000000
# 5 0.000000 0.000000 0.000000 0.000000 0.089615 0.000000
# 6 0.000000 0.000000 0.000000 0.000000 0.000000 0.029583
#
#
# Mechanical properties :
#
#
# Convention : Reuss Voigt Hill
#
# Bulk Modulus (GPa) = 52.72487 64.01487 58.36987
# Shear Modulus (GPa) = 24.17745 31.68114 27.92930
#
# Velocity S-wave (km/s) = 3.16298 3.62069 3.39955
# Velocity P-wave (km/s) = 5.92928 6.63084 6.28985
#
# Compressibility (1/GPa) = 0.01896638
#
# Stress axis : x y z
#
# Youngs Moduli (GPa) = 62.31599 106.99983 99.39875
#
# Poissons Ratio (x) = 0.59456 -0.07357
# Poissons Ratio (y) = 0.34627 0.34065
# Poissons Ratio (z) = -0.04612 0.36670
#
# Static dielectric constant tensor:
#      x y z
#    x 4.521470 0.000000 0.000000 
#    y 0.000000 5.171420 0.000000 
#    z 0.000000 0.000000 4.091440 
# 
# 
# High freq. dielectric constant tensor:
#      x y z
#    x 1.957140 0.000000 0.000000 
#    y 0.000000 1.976950 0.000000 
#    z 0.000000 0.000000 1.943990 
# 
# From -- ./inp_files/11991.got.cif
#   From: 2010.03.12/outbox.cif.g09.slc.cpg/sg37_6_cif.got.tgz:11991.got - 2010.04.14 02:25:27.
