data_PCOD8176338
_publ_section_title
;
Structure prediction by ZEFSAII (Michael W. Deem and Ramdas Pophale) SiO2 
 PCOD8176338
Probable space group: C M C 21
;
_chemical_formula_sum "Si O2"
_cell_formula_units_Z 40
_cell_length_a 10.942190
_cell_length_b 19.597431
_cell_length_c 8.555993
_cell_angle_alpha 90.000000
_cell_angle_beta 90.000000
_cell_angle_gamma 90.000000
_cell_volume 1834.736987
_symmetry_space_group_name_H-M "C M C 21"
_symmetry_group_IT_number 36
_symmetry_cell_setting 'orthorhombic'
loop_
_space_group_symop_operation_xyz
x,y,z
-x,-y,1/2+z
x,-y,1/2+z
-x,y,z
1/2+x,1/2+y,z
1/2-x,1/2-y,1/2+z
1/2+x,1/2-y,1/2+z
1/2-x,1/2+y,z
loop_
_atom_site_type_symbol
_atom_site_label
_atom_site_fract_x
_atom_site_fract_y
_atom_site_fract_z
Si Si1 0.500000 0.454448 0.042220
Si Si2 0.500000 0.593753 0.888438
Si Si3 0.644164 0.786439 0.176709
Si Si4 0.263110 0.082045 0.503842
Si Si5 0.641515 0.044516 0.171264
Si Si6 0.259845 0.334567 0.484917
O O1 0.500000 0.445338 0.226450
O O2 0.500000 0.536218 0.021965
O O3 0.381527 0.418662 0.964976
O O4 0.617830 0.641425 0.898603
O O5 0.500000 0.780985 0.153921
O O6 0.674600 0.797970 0.357788
O O7 0.696005 0.845239 0.065982
O O8 0.708058 0.716291 0.125502
O O9 0.338721 0.064935 0.349688
O O10 0.287803 0.025754 0.637561
O O11 0.500000 0.031810 0.139824
O O12 0.686889 0.102179 0.053965
#
# Coordination Sequence:
#
# PCOD8176338 Si02
#       6
#     4   4   8   8   8   8
#     4  12  24  46  74 106 142 177 237 300 354 422
#     4  12  24  48  74 106 146 179 237 304 354 432
#     4  12  26  48  71 101 142 189 234 294 354 428
#     4  12  25  44  72 101 140 183 231 288 356 415
#     4  12  25  45  70 102 138 180 232 290 348 427
#     4  12  26  48  71 102 140 186 238 293 359 421
#
# _framework density 21.801490999999999
#
# number of rings (size 3 to 8) (size 9 to 14) (size 15 to 20)
#    0.000    0.000    5.000    6.000    0.000    0.000 
#   10.800    0.000    0.000    0.000    0.000    0.000 
#    0.000    0.000    0.000    0.000    0.000    0.000 
#
# Total GULP energy -248206.018786 kJ/mol
# GULP energy per Si atom -12410.300939 kJ/mol
# Density = 2.175187 g / cm^3
# Si number density = 21.801491 Si / 1000 Ang^3
#
#
#
# Elastic Constant Matrix: (Units=GPa)
#
#
# Indices 1 2 3 4 5 6 
#
# 1 123.7984 14.6577 4.8829 0.0000 0.0000 0.0000
# 2 14.6577 65.6644 4.8066 0.0000 0.0000 0.0000
# 3 4.8829 4.8066 59.3645 0.0000 0.0000 0.0000
# 4 0.0000 0.0000 0.0000 40.8703 0.0000 0.0000
# 5 0.0000 0.0000 0.0000 0.0000 33.1160 0.0000
# 6 0.0000 0.0000 0.0000 0.0000 0.0000 25.9352
#
#
#
# Elastic Compliance Matrix: (Units=1/GPa)
#
#
# Indices 1 2 3 4 5 6 
#
# 1 0.008314 -0.001817 -0.000537 0.000000 0.000000 0.000000
# 2 -0.001817 0.015717 -0.001123 0.000000 0.000000 0.000000
# 3 -0.000537 -0.001123 0.016980 0.000000 0.000000 0.000000
# 4 0.000000 0.000000 0.000000 0.024468 0.000000 0.000000
# 5 0.000000 0.000000 0.000000 0.000000 0.030197 0.000000
# 6 0.000000 0.000000 0.000000 0.000000 0.000000 0.038558
#
#
# Mechanical properties :
#
#
# Convention : Reuss Voigt Hill
#
# Bulk Modulus (GPa) = 29.36181 33.05797 31.20989
# Shear Modulus (GPa) = 32.77862 34.94963 33.86413
#
# Velocity S-wave (km/s) = 3.88171 4.00820 3.94546
# Velocity P-wave (km/s) = 5.79545 6.05119 5.92470
#
# Compressibility (1/GPa) = 0.03405785
#
# Stress axis : x y z
#
# Youngs Moduli (GPa) = 120.28050 63.62676 58.89227
#
# Poissons Ratio (x) = 0.11558 0.03161
# Poissons Ratio (y) = 0.21850 0.06614
# Poissons Ratio (z) = 0.06456 0.07146
#
# Static dielectric constant tensor:
#      x y z
#    x 4.149430 0.000000 0.000000 
#    y 0.000000 4.028230 0.000000 
#    z 0.000000 0.000000 3.877730 
# 
# 
# High freq. dielectric constant tensor:
#      x y z
#    x 1.875730 0.000000 0.000000 
#    y 0.000000 1.863550 0.000000 
#    z 0.000000 0.000000 1.864430 
# 
# From -- ./inp_files/3092.got.cif
#   From: 2010.03.12/outbox.cif.g09.slc.cpg/sg36_2_cif.got.tgz:3092.got - 2010.04.14 02:13:53.
