data_PCOD8176965
_publ_section_title
;
Structure prediction by ZEFSAII (Michael W. Deem and Ramdas Pophale) SiO2 
 PCOD8176965
Probable space group: C C C 2
;
_chemical_formula_sum "Si O2"
_cell_formula_units_Z 52
_cell_length_a 5.830181
_cell_length_b 20.064945
_cell_length_c 19.718037
_cell_angle_alpha 90.000000
_cell_angle_beta 90.000000
_cell_angle_gamma 90.000000
_cell_volume 2306.660553
_symmetry_space_group_name_H-M "C C C 2"
_symmetry_group_IT_number 37
_symmetry_cell_setting 'orthorhombic'
loop_
_space_group_symop_operation_xyz
x,y,z
-x,-y,z
-x,y,1/2+z
x,-y,1/2+z
1/2+x,1/2+y,z
1/2-x,1/2-y,z
1/2-x,1/2+y,1/2+z
1/2+x,1/2-y,1/2+z
loop_
_atom_site_type_symbol
_atom_site_label
_atom_site_fract_x
_atom_site_fract_y
_atom_site_fract_z
Si Si1 0.202059 0.886609 0.225520
Si Si2 0.156749 0.095992 0.113041
Si Si3 0.750000 0.250000 0.161191
Si Si4 0.112845 0.070574 0.871957
Si Si5 0.000000 0.500000 0.163107
Si Si6 0.550780 0.207441 0.551398
Si Si7 0.500000 0.000000 0.946150
Si Si8 0.806948 0.110974 0.992187
O O1 0.296555 0.813565 0.207656
O O2 0.141641 0.886480 0.304639
O O3 0.398634 0.940948 0.210158
O O4 0.964578 0.896200 0.185551
O O5 0.357129 0.147774 0.097052
O O6 0.290492 0.025542 0.116383
O O7 0.970727 0.100016 0.054918
O O8 0.540997 0.260724 0.107415
O O9 0.957182 0.114789 0.923314
O O10 0.362420 0.054850 0.902510
O O11 0.000000 0.000000 0.853870
O O12 0.750000 0.250000 0.511349
O O13 0.353259 0.177400 0.501253
O O14 0.336502 0.956875 0.993440
#
# Coordination Sequence:
#
# PCOD8176965 Si02
#       8
#     8   8   4   8   4   8   4   8
#     4  12  25  44  73 103 142 190 237 299 358 439
#     4  12  24  41  70 105 141 176 236 297 361 424
#     4  12  24  48  72 100 140 186 236 288 364 428
#     4  10  23  43  68 104 144 186 240 306 368 432
#     4  12  25  39  68 114 139 177 238 304 361 429
#     4  12  23  44  71 100 138 189 234 300 359 431
#     4  10  23  43  70 100 143 193 234 304 367 437
#     4  11  24  43  69 103 142 186 240 297 363 429
#
# _framework density 22.543410999999999
#
# number of rings (size 3 to 8) (size 9 to 14) (size 15 to 20)
#    0.000    0.615    4.615    2.769    0.000   12.923 
#    0.000    0.000   16.923    0.000    0.000    0.000 
#    0.000    0.000    0.000    0.000    0.000    0.000 
#
# Total GULP energy -322287.834625 kJ/mol
# GULP energy per Si atom -12395.685947 kJ/mol
# Density = 2.249210 g / cm^3
# Si number density = 22.543411 Si / 1000 Ang^3
#
#
#
# Elastic Constant Matrix: (Units=GPa)
#
#
# Indices 1 2 3 4 5 6 
#
# 1 121.4491 50.9427 62.7351 0.0000 0.0000 0.0000
# 2 50.9427 116.9481 66.0043 0.0000 0.0000 0.0000
# 3 62.7351 66.0043 128.9274 0.0000 0.0000 0.0000
# 4 0.0000 0.0000 0.0000 28.6272 0.0000 0.0000
# 5 0.0000 0.0000 0.0000 0.0000 21.5082 0.0000
# 6 0.0000 0.0000 0.0000 0.0000 0.0000 52.1397
#
#
#
# Elastic Compliance Matrix: (Units=1/GPa)
#
#
# Indices 1 2 3 4 5 6 
#
# 1 0.011539 -0.002612 -0.004278 0.000000 0.000000 0.000000
# 2 -0.002612 0.012617 -0.005188 0.000000 0.000000 0.000000
# 3 -0.004278 -0.005188 0.012494 0.000000 0.000000 0.000000
# 4 0.000000 0.000000 0.000000 0.034932 0.000000 0.000000
# 5 0.000000 0.000000 0.000000 0.000000 0.046494 0.000000
# 6 0.000000 0.000000 0.000000 0.000000 0.000000 0.019179
#
#
# Mechanical properties :
#
#
# Convention : Reuss Voigt Hill
#
# Bulk Modulus (GPa) = 80.03837 80.74323 80.39080
# Shear Modulus (GPa) = 30.19776 32.96451 31.58114
#
# Velocity S-wave (km/s) = 3.66394 3.82811 3.74692
# Velocity P-wave (km/s) = 7.31303 7.44539 7.37951
#
# Compressibility (1/GPa) = 0.01249401
#
# Stress axis : x y z
#
# Youngs Moduli (GPa) = 86.66086 79.25943 80.04009
#
# Poissons Ratio (x) = 0.20705 0.34237
# Poissons Ratio (y) = 0.22638 0.41525
# Poissons Ratio (z) = 0.37070 0.41120
#
# Static dielectric constant tensor:
#      x y z
#    x 4.817980 0.000000 0.000000 
#    y 0.000000 4.204970 0.000000 
#    z 0.000000 0.000000 3.863120 
# 
# 
# High freq. dielectric constant tensor:
#      x y z
#    x 1.913530 0.000000 0.000000 
#    y 0.000000 1.890700 0.000000 
#    z 0.000000 0.000000 1.862410 
# 
# From -- ./inp_files/15859.got.cif
#   From: 2010.03.12/outbox.cif.g09.slc.cpg/sg37_8_cif.got.tgz:15859.got - 2010.04.14 02:25:27.
