data_PCOD8176016
_publ_section_title
;
Structure prediction by ZEFSAII (Michael W. Deem and Ramdas Pophale) SiO2 
 PCOD8176016
Probable space group: C M C 21
;
_chemical_formula_sum "Si O2"
_cell_formula_units_Z 56
_cell_length_a 16.500998
_cell_length_b 14.135809
_cell_length_c 10.649495
_cell_angle_alpha 90.000000
_cell_angle_beta 90.000000
_cell_angle_gamma 90.000000
_cell_volume 2484.047488
_symmetry_space_group_name_H-M "C M C 21"
_symmetry_group_IT_number 36
_symmetry_cell_setting 'orthorhombic'
loop_
_space_group_symop_operation_xyz
x,y,z
-x,-y,1/2+z
x,-y,1/2+z
-x,y,z
1/2+x,1/2+y,z
1/2-x,1/2-y,1/2+z
1/2+x,1/2-y,1/2+z
1/2-x,1/2+y,z
loop_
_atom_site_type_symbol
_atom_site_label
_atom_site_fract_x
_atom_site_fract_y
_atom_site_fract_z
Si Si1 0.685803 0.017817 0.504550
Si Si2 0.198823 0.858119 0.539133
Si Si3 0.204937 0.810706 0.080523
Si Si4 0.912205 0.068589 0.233247
Si Si5 0.410253 0.235827 0.876149
Si Si6 0.406227 0.632652 0.812342
Si Si7 0.905497 0.464865 0.265759
O O1 0.752120 0.100909 0.513449
O O2 0.634825 0.009224 0.632878
O O3 0.728327 0.917197 0.478170
O O4 0.630053 0.029800 0.379891
O O5 0.226417 0.766046 0.620015
O O6 0.156225 0.934721 0.628472
O O7 0.135623 0.820785 0.433545
O O8 0.144833 0.838545 0.190796
O O9 0.155088 0.747462 0.983314
O O10 0.910150 0.168450 0.298878
O O11 0.000000 0.054532 0.167384
O O12 0.898934 0.981242 0.328543
O O13 0.500000 0.219572 0.934589
O O14 0.388750 0.146278 0.788895
O O15 0.500000 0.665960 0.800617
O O16 0.000000 0.488695 0.255621
#
# Coordination Sequence:
#
# PCOD8176016 Si02
#       7
#     8   8   8   8   8   8   8
#     4  12  25  44  71 105 141 180 236 293 355 408
#     4  12  25  41  67  98 140 170 224 283 350 403
#     4  12  25  41  69  99 137 174 230 286 349 403
#     4  10  22  40  67  96 132 177 219 275 345 414
#     4  10  22  42  68  96 134 183 230 277 343 417
#     4  11  25  46  68 100 139 180 228 284 353 428
#     4  11  25  48  71 100 141 192 241 286 346 423
#
# _framework density 22.543851
#
# number of rings (size 3 to 8) (size 9 to 14) (size 15 to 20)
#    0.000    0.857    2.857    3.857    4.000    0.000 
#    0.000    3.571    0.000    0.000    0.000    0.000 
#    0.000    0.000    0.000    0.000    0.000    0.000 
#
# Total GULP energy -347096.123329 kJ/mol
# GULP energy per Si atom -12396.290119 kJ/mol
# Density = 2.249254 g / cm^3
# Si number density = 22.543851 Si / 1000 Ang^3
#
#
#
# Elastic Constant Matrix: (Units=GPa)
#
#
# Indices 1 2 3 4 5 6 
#
# 1 125.1653 44.2093 50.4944 0.0000 0.0000 0.0000
# 2 44.2093 86.4376 11.4892 0.0000 0.0000 0.0000
# 3 50.4944 11.4892 93.5842 0.0000 0.0000 0.0000
# 4 0.0000 0.0000 0.0000 28.1129 0.0000 0.0000
# 5 0.0000 0.0000 0.0000 0.0000 44.3799 0.0000
# 6 0.0000 0.0000 0.0000 0.0000 0.0000 -465.2068
#
#
#
# Elastic Compliance Matrix: (Units=1/GPa)
#
#
# Indices 1 2 3 4 5 6 
#
# 1 0.012357 -0.005524 -0.005989 0.000000 0.000000 0.000000
# 2 -0.005524 0.014230 0.001233 0.000000 0.000000 0.000000
# 3 -0.005989 0.001233 0.013766 0.000000 0.000000 0.000000
# 4 0.000000 0.000000 0.000000 0.035571 0.000000 0.000000
# 5 0.000000 0.000000 0.000000 0.000000 0.022533 0.000000
# 6 0.000000 0.000000 0.000000 0.000000 0.000000 -0.002150
#
#
# Mechanical properties :
#
#
# Convention : Reuss Voigt Hill
#
# Bulk Modulus (GPa) = 50.52127 57.50811 54.01469
# Shear Modulus (GPa) = 40.49792 -65.27652 -12.38930
#
# Velocity S-wave (km/s) = 4.24300 -5.38686 -2.34682
# Velocity P-wave (km/s) = 6.81637 3.62300 4.08270
#
# Compressibility (1/GPa) = 0.01979364
#
# Stress axis : x y z
#
# Youngs Moduli (GPa) = 80.92858 70.27254 72.64504
#
# Poissons Ratio (x) = 0.38817 0.43507
# Poissons Ratio (y) = 0.44704 -0.08960
# Poissons Ratio (z) = 0.48468 -0.08667
#
# Static dielectric constant tensor:
#      x y z
#    x 4.551870 0.000000 0.000000 
#    y 0.000000 4.011820 0.000000 
#    z 0.000000 0.000000 3.848040 
# 
# 
# High freq. dielectric constant tensor:
#      x y z
#    x 1.913770 0.000000 0.000000 
#    y 0.000000 1.891150 0.000000 
#    z 0.000000 0.000000 1.871890 
# 
# From -- ./inp_files/8491.got.cif
#   From: 2010.03.12/outbox.cif.g09.slc.cpg/sg36_5_cif.got.tgz:8491.got - 2010.04.14 02:13:53.
