data_PCOD8176811
_publ_section_title
;
Structure prediction by ZEFSAII (Michael W. Deem and Ramdas Pophale) SiO2 
 PCOD8176811
Probable space group: C C C 2
;
_chemical_formula_sum "Si O2"
_cell_formula_units_Z 36
_cell_length_a 9.057615
_cell_length_b 11.627477
_cell_length_c 14.516678
_cell_angle_alpha 90.000000
_cell_angle_beta 90.000000
_cell_angle_gamma 90.000000
_cell_volume 1528.856027
_symmetry_space_group_name_H-M "C C C 2"
_symmetry_group_IT_number 37
_symmetry_cell_setting 'orthorhombic'
loop_
_space_group_symop_operation_xyz
x,y,z
-x,-y,z
-x,y,1/2+z
x,-y,1/2+z
1/2+x,1/2+y,z
1/2-x,1/2-y,z
1/2-x,1/2+y,1/2+z
1/2+x,1/2-y,1/2+z
loop_
_atom_site_type_symbol
_atom_site_label
_atom_site_fract_x
_atom_site_fract_y
_atom_site_fract_z
Si Si1 0.736465 0.481277 0.479220
Si Si2 0.019009 0.178023 0.526605
Si Si3 0.874222 0.666445 0.370810
Si Si4 0.000000 0.500000 0.595676
Si Si5 0.587453 0.205133 0.205460
O O1 0.649762 0.585157 0.527716
O O2 0.624762 0.373258 0.472930
O O3 0.805408 0.536610 0.383867
O O4 0.877280 0.433436 0.535043
O O5 0.072054 0.291349 0.471824
O O6 0.997282 0.210318 0.634784
O O7 0.750000 0.750000 0.330259
O O8 0.007808 0.679554 0.301087
O O9 0.099126 0.416913 0.656766
O O10 0.750000 0.250000 0.228326
#
# Coordination Sequence:
#
# PCOD8176811 Si02
#       5
#     8   8   8   4   8
#     4  10  22  43  72 100 136 188 236 290 355 428
#     4  10  21  47  72  95 143 194 232 290 366 427
#     4  10  23  44  68 102 145 184 237 302 358 427
#     4  12  24  40  70 100 136 180 242 292 350 428
#     4  12  25  45  69 105 145 188 244 304 358 434
#
# _framework density 23.547018999999999
#
# number of rings (size 3 to 8) (size 9 to 14) (size 15 to 20)
#    0.000    1.333    4.444    0.667    3.111    4.444 
#    0.000    2.222    0.000    0.000    0.000    0.000 
#    0.000    0.000    0.000    0.000    0.000    0.000 
#
# Total GULP energy -222986.819790 kJ/mol
# GULP energy per Si atom -12388.156655 kJ/mol
# Density = 2.349342 g / cm^3
# Si number density = 23.547019 Si / 1000 Ang^3
#
#
#
# Elastic Constant Matrix: (Units=GPa)
#
#
# Indices 1 2 3 4 5 6 
#
# 1 169.4858 38.9414 49.1496 0.0000 0.0000 0.0000
# 2 38.9414 60.0783 14.4862 0.0000 0.0000 0.0000
# 3 49.1496 14.4862 91.2298 0.0000 0.0000 0.0000
# 4 0.0000 0.0000 0.0000 7.3494 0.0000 0.0000
# 5 0.0000 0.0000 0.0000 0.0000 28.1988 0.0000
# 6 0.0000 0.0000 0.0000 0.0000 0.0000 49.4065
#
#
#
# Elastic Compliance Matrix: (Units=1/GPa)
#
#
# Indices 1 2 3 4 5 6 
#
# 1 0.007922 -0.004269 -0.003590 0.000000 0.000000 0.000000
# 2 -0.004269 0.019608 -0.000813 0.000000 0.000000 0.000000
# 3 -0.003590 -0.000813 0.013025 0.000000 0.000000 0.000000
# 4 0.000000 0.000000 0.000000 0.136065 0.000000 0.000000
# 5 0.000000 0.000000 0.000000 0.000000 0.035463 0.000000
# 6 0.000000 0.000000 0.000000 0.000000 0.000000 0.020240
#
#
# Mechanical properties :
#
#
# Convention : Reuss Voigt Hill
#
# Bulk Modulus (GPa) = 43.08614 58.43871 50.76242
# Shear Modulus (GPa) = 19.42457 31.53872 25.48164
#
# Velocity S-wave (km/s) = 2.87527 3.66374 3.29319
# Velocity P-wave (km/s) = 5.41854 6.53981 6.00540
#
# Compressibility (1/GPa) = 0.02320932
#
# Stress axis : x y z
#
# Youngs Moduli (GPa) = 126.22678 50.99860 76.77734
#
# Poissons Ratio (x) = 0.21773 0.27564
# Poissons Ratio (y) = 0.53891 0.06246
# Poissons Ratio (z) = 0.45317 0.04149
#
# Static dielectric constant tensor:
#      x y z
#    x 4.493460 0.000000 0.000000 
#    y 0.000000 4.358220 0.000000 
#    z 0.000000 0.000000 3.967790 
# 
# 
# High freq. dielectric constant tensor:
#      x y z
#    x 1.949270 0.000000 0.000000 
#    y 0.000000 1.933250 0.000000 
#    z 0.000000 0.000000 1.906240 
# 
# From -- ./inp_files/10278.got.cif
#   From: 2010.03.12/outbox.cif.g09.slc.cpg/sg37_6_cif.got.tgz:10278.got - 2010.04.14 02:25:27.
