data_PCOD8176788
_publ_section_title
;
Structure prediction by ZEFSAII (Michael W. Deem and Ramdas Pophale) SiO2 
 PCOD8176788
Probable space group: C C C 2
;
_chemical_formula_sum "Si O2"
_cell_formula_units_Z 36
_cell_length_a 4.945767
_cell_length_b 23.284833
_cell_length_c 12.359850
_cell_angle_alpha 90.000000
_cell_angle_beta 90.000000
_cell_angle_gamma 90.000000
_cell_volume 1423.377119
_symmetry_space_group_name_H-M "C C C 2"
_symmetry_group_IT_number 37
_symmetry_cell_setting 'orthorhombic'
loop_
_space_group_symop_operation_xyz
x,y,z
-x,-y,z
-x,y,1/2+z
x,-y,1/2+z
1/2+x,1/2+y,z
1/2-x,1/2-y,z
1/2-x,1/2+y,1/2+z
1/2+x,1/2-y,1/2+z
loop_
_atom_site_type_symbol
_atom_site_label
_atom_site_fract_x
_atom_site_fract_y
_atom_site_fract_z
Si Si1 0.543448 0.063164 0.199580
Si Si2 0.523630 0.321435 0.453835
Si Si3 0.250000 0.250000 0.272474
Si Si4 0.956409 0.063212 0.845172
Si Si5 0.477522 0.178968 0.590985
O O1 0.847236 0.071454 0.242416
O O2 0.491693 0.110726 0.108352
O O3 0.347803 0.070760 0.302630
O O4 0.500000 0.000000 0.147231
O O5 0.445348 0.290227 0.343072
O O6 0.509760 0.389867 0.437288
O O7 0.824071 0.303346 0.491877
O O8 0.324214 0.304092 0.552812
O O9 0.449750 0.210953 0.201542
O O10 0.000000 0.000000 0.896989
#
# Coordination Sequence:
#
# PCOD8176788 Si02
#       5
#     8   8   4   8   8
#     4  10  21  42  71 101 140 185 224 282 354 408
#     4  12  27  45  72 106 134 184 240 281 348 415
#     4  12  28  50  72  96 152 186 224 304 336 408
#     4  10  21  42  71 101 140 185 224 282 354 408
#     4  12  27  45  72 106 134 184 240 281 348 415
#
# _framework density 25.291962000000002
#
# number of rings (size 3 to 8) (size 9 to 14) (size 15 to 20)
#    0.000    0.889    2.222    4.000    0.000    3.556 
#    0.000    0.000    0.000    0.000    0.000    0.000 
#    0.000    0.000    0.000    0.000    0.000    0.000 
#
# Total GULP energy -223351.613896 kJ/mol
# GULP energy per Si atom -12408.422994 kJ/mol
# Density = 2.523440 g / cm^3
# Si number density = 25.291962 Si / 1000 Ang^3
#
#
#
# Elastic Constant Matrix: (Units=GPa)
#
#
# Indices 1 2 3 4 5 6 
#
# 1 96.8795 -6.1565 11.5936 0.0000 0.0000 0.0000
# 2 -6.1565 98.8608 24.6617 0.0000 0.0000 0.0000
# 3 11.5936 24.6617 85.3054 0.0000 0.0000 0.0000
# 4 0.0000 0.0000 0.0000 36.8181 0.0000 0.0000
# 5 0.0000 0.0000 0.0000 0.0000 28.1162 0.0000
# 6 0.0000 0.0000 0.0000 0.0000 0.0000 23.6484
#
#
#
# Elastic Compliance Matrix: (Units=1/GPa)
#
#
# Indices 1 2 3 4 5 6 
#
# 1 0.010602 0.001099 -0.001759 0.000000 0.000000 0.000000
# 2 0.001099 0.011015 -0.003334 0.000000 0.000000 0.000000
# 3 -0.001759 -0.003334 0.012925 0.000000 0.000000 0.000000
# 4 0.000000 0.000000 0.000000 0.027161 0.000000 0.000000
# 5 0.000000 0.000000 0.000000 0.000000 0.035567 0.000000
# 6 0.000000 0.000000 0.000000 0.000000 0.000000 0.042286
#
#
# Mechanical properties :
#
#
# Convention : Reuss Voigt Hill
#
# Bulk Modulus (GPa) = 37.65622 37.91592 37.78607
# Shear Modulus (GPa) = 31.97017 34.44632 33.20825
#
# Velocity S-wave (km/s) = 3.55920 3.69446 3.62746
# Velocity P-wave (km/s) = 5.64016 5.76390 5.70237
#
# Compressibility (1/GPa) = 0.02655603
#
# Stress axis : x y z
#
# Youngs Moduli (GPa) = 94.31827 90.78255 77.36691
#
# Poissons Ratio (x) = -0.09977 0.13606
# Poissons Ratio (y) = -0.10365 0.25793
# Poissons Ratio (z) = 0.16587 0.30266
#
# Static dielectric constant tensor:
#      x y z
#    x 4.596730 0.000000 0.000000 
#    y 0.000000 5.079610 0.000000 
#    z 0.000000 0.000000 4.013810 
# 
# 
# High freq. dielectric constant tensor:
#      x y z
#    x 2.020080 0.000000 0.000000 
#    y 0.000000 2.042610 0.000000 
#    z 0.000000 0.000000 1.977700 
# 
# From -- ./inp_files/5467.got.cif
#   From: 2010.03.12/outbox.cif.g09.slc.cpg/sg37_3_cif.got.tgz:5467.got - 2010.04.14 02:25:27.
