data_PCOD8176928
_publ_section_title
;
Structure prediction by ZEFSAII (Michael W. Deem and Ramdas Pophale) SiO2 
 PCOD8176928
Probable space group: C C C 2
;
_chemical_formula_sum "Si O2"
_cell_formula_units_Z 56
_cell_length_a 6.213442
_cell_length_b 31.394992
_cell_length_c 13.007248
_cell_angle_alpha 90.000000
_cell_angle_beta 90.000000
_cell_angle_gamma 90.000000
_cell_volume 2537.336379
_symmetry_space_group_name_H-M "C C C 2"
_symmetry_group_IT_number 37
_symmetry_cell_setting 'orthorhombic'
loop_
_space_group_symop_operation_xyz
x,y,z
-x,-y,z
-x,y,1/2+z
x,-y,1/2+z
1/2+x,1/2+y,z
1/2-x,1/2-y,z
1/2-x,1/2+y,1/2+z
1/2+x,1/2-y,1/2+z
loop_
_atom_site_type_symbol
_atom_site_label
_atom_site_fract_x
_atom_site_fract_y
_atom_site_fract_z
Si Si1 0.899444 0.313103 0.181100
Si Si2 0.379361 0.709203 0.373457
Si Si3 0.500000 0.500000 0.938643
Si Si4 0.714848 0.885412 0.195286
Si Si5 0.879507 0.457983 0.547261
Si Si6 0.256023 0.079724 0.414277
Si Si7 0.445255 0.348157 0.546924
Si Si8 0.250000 0.750000 0.750983
O O1 0.770104 0.310454 0.286246
O O2 0.736442 0.313651 0.083289
O O3 0.002256 0.358977 0.174990
O O4 0.081247 0.275782 0.178001
O O5 0.250000 0.750000 0.417513
O O6 0.403115 0.675368 0.464823
O O7 0.614358 0.718975 0.325285
O O8 0.352210 0.470193 0.007001
O O9 0.360770 0.535456 0.877828
O O10 0.741299 0.889533 0.316958
O O11 0.918992 0.861175 0.147436
O O12 0.664222 0.930945 0.148050
O O13 0.000000 0.500000 0.585399
O O14 0.009170 0.432779 0.458023
O O15 0.140192 0.107249 0.502346
#
# Coordination Sequence:
#
# PCOD8176928 Si02
#       8
#     8   8   4   8   8   8   8   4
#     4  11  24  44  72 101 140 182 232 294 346 429
#     4  10  25  49  72  99 140 181 234 291 354 423
#     4  10  22  46  70  96 148 178 232 292 352 412
#     4  12  26  43  72 103 139 186 233 287 354 418
#     4  10  23  44  68 102 140 182 232 287 344 423
#     4  11  24  43  70 102 141 182 233 288 350 415
#     4  12  24  45  70 109 139 186 231 292 354 423
#     4  10  22  50  66 100 138 186 234 288 350 424
#
# _framework density 22.07039
#
# number of rings (size 3 to 8) (size 9 to 14) (size 15 to 20)
#    0.000    1.143    2.857    2.571    2.000    5.714 
#   16.714    0.000    0.000    0.000    0.000    0.000 
#    0.000    0.000    0.000    0.000    0.000    0.000 
#
# Total GULP energy -347112.179778 kJ/mol
# GULP energy per Si atom -12396.863563 kJ/mol
# Density = 2.202016 g / cm^3
# Si number density = 22.070390 Si / 1000 Ang^3
#
#
#
# Elastic Constant Matrix: (Units=GPa)
#
#
# Indices 1 2 3 4 5 6 
#
# 1 120.9110 43.9815 41.7746 0.0000 0.0000 0.0000
# 2 43.9815 102.8029 36.9901 0.0000 0.0000 0.0000
# 3 41.7746 36.9901 82.5848 0.0000 0.0000 0.0000
# 4 0.0000 0.0000 0.0000 7.0499 0.0000 0.0000
# 5 0.0000 0.0000 0.0000 0.0000 18.2903 0.0000
# 6 0.0000 0.0000 0.0000 0.0000 0.0000 46.9830
#
#
#
# Elastic Compliance Matrix: (Units=1/GPa)
#
#
# Indices 1 2 3 4 5 6 
#
# 1 0.010826 -0.003172 -0.004055 0.000000 0.000000 0.000000
# 2 -0.003172 0.012526 -0.004006 0.000000 0.000000 0.000000
# 3 -0.004055 -0.004006 0.015954 0.000000 0.000000 0.000000
# 4 0.000000 0.000000 0.000000 0.141847 0.000000 0.000000
# 5 0.000000 0.000000 0.000000 0.000000 0.054674 0.000000
# 6 0.000000 0.000000 0.000000 0.000000 0.000000 0.021284
#
#
# Mechanical properties :
#
#
# Convention : Reuss Voigt Hill
#
# Bulk Modulus (GPa) = 59.38482 61.31015 60.34748
# Shear Modulus (GPa) = 17.53220 26.70148 22.11684
#
# Velocity S-wave (km/s) = 2.82153 3.48204 3.16904
# Velocity P-wave (km/s) = 6.13026 6.63369 6.38694
#
# Compressibility (1/GPa) = 0.01683932
#
# Stress axis : x y z
#
# Youngs Moduli (GPa) = 92.37447 79.83482 62.67963
#
# Poissons Ratio (x) = 0.25326 0.25417
# Poissons Ratio (y) = 0.29304 0.25108
# Poissons Ratio (z) = 0.37458 0.31979
#
# Static dielectric constant tensor:
#      x y z
#    x 4.366160 0.000000 0.000000 
#    y 0.000000 4.280590 0.000000 
#    z 0.000000 0.000000 3.645720 
# 
# 
# High freq. dielectric constant tensor:
#      x y z
#    x 1.885380 0.000000 0.000000 
#    y 0.000000 1.885860 0.000000 
#    z 0.000000 0.000000 1.848210 
# 
# From -- ./inp_files/9937.got.cif
#   From: 2010.03.12/outbox.cif.g09.slc.cpg/sg37_5_cif.got.tgz:9937.got - 2010.04.14 02:25:27.
