data_PCOD8176381
_publ_section_title
;
Structure prediction by ZEFSAII (Michael W. Deem and Ramdas Pophale) SiO2 
 PCOD8176381
Probable space group: C C C 2
;
_chemical_formula_sum "Si O2"
_cell_formula_units_Z 60
_cell_length_a 12.676529
_cell_length_b 16.656139
_cell_length_c 14.541471
_cell_angle_alpha 90.000000
_cell_angle_beta 90.000000
_cell_angle_gamma 90.000000
_cell_volume 3070.315692
_symmetry_space_group_name_H-M "C C C 2"
_symmetry_group_IT_number 37
_symmetry_cell_setting 'orthorhombic'
loop_
_space_group_symop_operation_xyz
x,y,z
-x,-y,z
-x,y,1/2+z
x,-y,1/2+z
1/2+x,1/2+y,z
1/2-x,1/2-y,z
1/2-x,1/2+y,1/2+z
1/2+x,1/2-y,1/2+z
loop_
_atom_site_type_symbol
_atom_site_label
_atom_site_fract_x
_atom_site_fract_y
_atom_site_fract_z
Si Si1 0.461691 0.088300 0.555780
Si Si2 0.647359 0.303325 0.155765
Si Si3 0.395632 0.947709 0.347285
Si Si4 0.555135 0.765137 0.830430
Si Si5 0.750000 0.250000 0.459740
Si Si6 0.275636 0.042150 0.674160
Si Si7 0.628008 0.234825 0.961150
Si Si8 0.685195 0.903996 0.042905
O O1 0.384329 0.083998 0.641319
O O2 0.401746 0.140287 0.477133
O O3 0.573087 0.128488 0.584953
O O4 0.500000 0.000000 0.519264
O O5 0.750000 0.250000 0.175410
O O6 0.561638 0.281457 0.233268
O O7 0.677460 0.397455 0.163251
O O8 0.601318 0.283790 0.054744
O O9 0.433762 0.859723 0.316985
O O10 0.302124 0.979356 0.279569
O O11 0.340115 0.949092 0.446730
O O12 0.500000 0.000000 0.340721
O O13 0.648429 0.738570 0.897319
O O14 0.444633 0.737015 0.876634
O O15 0.755296 0.173383 0.526230
O O16 0.253701 0.963400 0.612359
O O17 0.750000 0.250000 0.934633
#
# Coordination Sequence:
#
# PCOD8176381 Si02
#       8
#     8   8   8   8   4   8   8   8
#     4  10  17  31  53  89 129 153 196 263 319 368
#     4  11  19  35  60  88 126 169 215 255 313 397
#     4  11  19  30  53  91 132 157 191 262 326 377
#     4  11  21  36  60  93 129 173 213 256 318 401
#     4  10  18  36  60  88 128 168 210 262 318 382
#     4  11  20  34  57  93 124 163 211 259 317 384
#     4  11  21  34  60  94 130 169 207 260 325 386
#     4  10  21  32  57  92 131 160 206 268 319 377
#
# _framework density 19.541964
#
# number of rings (size 3 to 8) (size 9 to 14) (size 15 to 20)
#    0.000    1.333    7.333    3.200    0.000    0.000 
#    0.000    0.000    1.467    2.400    1.733    1.867 
#    4.000    0.000    0.000    0.000    0.000    0.000 
#
# Total GULP energy -371694.782228 kJ/mol
# GULP energy per Si atom -12389.826074 kJ/mol
# Density = 1.949749 g / cm^3
# Si number density = 19.541964 Si / 1000 Ang^3
#
#
#
# Elastic Constant Matrix: (Units=GPa)
#
#
# Indices 1 2 3 4 5 6 
#
# 1 83.0970 46.7477 37.4653 0.0000 0.0000 0.0000
# 2 46.7477 108.0317 40.2854 0.0000 0.0000 0.0000
# 3 37.4653 40.2854 117.4736 0.0000 0.0000 0.0000
# 4 0.0000 0.0000 0.0000 21.7923 0.0000 0.0000
# 5 0.0000 0.0000 0.0000 0.0000 26.1682 0.0000
# 6 0.0000 0.0000 0.0000 0.0000 0.0000 37.3055
#
#
#
# Elastic Compliance Matrix: (Units=1/GPa)
#
#
# Indices 1 2 3 4 5 6 
#
# 1 0.016963 -0.006103 -0.003317 0.000000 0.000000 0.000000
# 2 -0.006103 0.012810 -0.002446 0.000000 0.000000 0.000000
# 3 -0.003317 -0.002446 0.010409 0.000000 0.000000 0.000000
# 4 0.000000 0.000000 0.000000 0.045888 0.000000 0.000000
# 5 0.000000 0.000000 0.000000 0.000000 0.038214 0.000000
# 6 0.000000 0.000000 0.000000 0.000000 0.000000 0.026806
#
#
# Mechanical properties :
#
#
# Convention : Reuss Voigt Hill
#
# Bulk Modulus (GPa) = 60.79419 61.95545 61.37482
# Shear Modulus (GPa) = 27.73052 29.32680 28.52866
#
# Velocity S-wave (km/s) = 3.77108 3.87810 3.82496
# Velocity P-wave (km/s) = 7.08085 7.19899 7.14017
#
# Compressibility (1/GPa) = 0.01644894
#
# Stress axis : x y z
#
# Youngs Moduli (GPa) = 58.95106 78.06456 96.06759
#
# Poissons Ratio (x) = 0.47646 0.31865
# Poissons Ratio (y) = 0.35981 0.23502
# Poissons Ratio (z) = 0.19554 0.19098
#
# Static dielectric constant tensor:
#      x y z
#    x 3.612590 0.000000 0.000000 
#    y 0.000000 3.685080 0.000000 
#    z 0.000000 0.000000 3.675250 
# 
# 
# High freq. dielectric constant tensor:
#      x y z
#    x 1.728580 0.000000 0.000000 
#    y 0.000000 1.747390 0.000000 
#    z 0.000000 0.000000 1.765380 
# 
# From -- ./inp_files/11751.got.cif
#   From: 2010.03.12/outbox.cif.g09.slc.cpg/sg37_6_cif.got.tgz:11751.got - 2010.04.14 02:25:27.
