data_PCOD8176987
_publ_section_title
;
Structure prediction by ZEFSAII (Michael W. Deem and Ramdas Pophale) SiO2 
 PCOD8176987
Probable space group: C C C 2
;
_chemical_formula_sum "Si O2"
_cell_formula_units_Z 40
_cell_length_a 20.343163
_cell_length_b 7.456988
_cell_length_c 9.600295
_cell_angle_alpha 90.000000
_cell_angle_beta 90.000000
_cell_angle_gamma 90.000000
_cell_volume 1456.352486
_symmetry_space_group_name_H-M "C C C 2"
_symmetry_group_IT_number 37
_symmetry_cell_setting 'orthorhombic'
loop_
_space_group_symop_operation_xyz
x,y,z
-x,-y,z
-x,y,1/2+z
x,-y,1/2+z
1/2+x,1/2+y,z
1/2-x,1/2-y,z
1/2-x,1/2+y,1/2+z
1/2+x,1/2-y,1/2+z
loop_
_atom_site_type_symbol
_atom_site_label
_atom_site_fract_x
_atom_site_fract_y
_atom_site_fract_z
Si Si1 0.860422 0.385917 0.648960
Si Si2 0.780202 0.428772 0.919705
Si Si3 0.947398 0.321890 0.260445
Si Si4 0.354818 0.409667 0.940004
Si Si5 0.960273 0.174790 0.967312
O O1 0.803254 0.387302 0.762970
O O2 0.840471 0.505423 0.514511
O O3 0.926566 0.476335 0.712034
O O4 0.872015 0.183471 0.590859
O O5 0.750000 0.250000 0.987327
O O6 0.723098 0.579930 0.916821
O O7 0.883413 0.220610 0.320853
O O8 0.008610 0.330469 0.369835
O O9 0.972816 0.217774 0.126240
O O10 0.384590 0.614852 0.934971
O O11 0.000000 0.000000 0.923422
#
# Coordination Sequence:
#
# PCOD8176987 Si02
#       5
#     8   8   8   8   8
#     4  12  27  49  76 121 162 213 266 348 409 511
#     4  12  27  45  80 118 161 214 270 339 426 501
#     4  11  25  51  76 112 160 213 278 334 422 492
#     4  11  25  49  81 115 165 207 283 338 426 499
#     4  10  23  49  82 109 152 219 272 340 410 496
#
# _framework density 27.465879999999999
#
# number of rings (size 3 to 8) (size 9 to 14) (size 15 to 20)
#    0.000    0.800    2.000    4.800    8.400    0.000 
#    7.200   10.000    0.000    0.000    0.000    0.000 
#    0.000    0.000    0.000    0.000    0.000    0.000 
#
# Total GULP energy -247990.411275 kJ/mol
# GULP energy per Si atom -12399.520564 kJ/mol
# Density = 2.740337 g / cm^3
# Si number density = 27.465880 Si / 1000 Ang^3
#
#
#
# Elastic Constant Matrix: (Units=GPa)
#
#
# Indices 1 2 3 4 5 6 
#
# 1 82.6224 57.0807 69.4243 0.0000 0.0000 0.0000
# 2 57.0807 97.0304 30.5988 0.0000 0.0000 0.0000
# 3 69.4243 30.5988 170.0388 0.0000 0.0000 0.0000
# 4 0.0000 0.0000 0.0000 41.3268 0.0000 0.0000
# 5 0.0000 0.0000 0.0000 0.0000 57.8834 0.0000
# 6 0.0000 0.0000 0.0000 0.0000 0.0000 50.8759
#
#
#
# Elastic Compliance Matrix: (Units=1/GPa)
#
#
# Indices 1 2 3 4 5 6 
#
# 1 0.030717 -0.014964 -0.009848 0.000000 0.000000 0.000000
# 2 -0.014964 0.018216 0.002832 0.000000 0.000000 0.000000
# 3 -0.009848 0.002832 0.009392 0.000000 0.000000 0.000000
# 4 0.000000 0.000000 0.000000 0.024197 0.000000 0.000000
# 5 0.000000 0.000000 0.000000 0.000000 0.017276 0.000000
# 6 0.000000 0.000000 0.000000 0.000000 0.000000 0.019656
#
#
# Mechanical properties :
#
#
# Convention : Reuss Voigt Hill
#
# Bulk Modulus (GPa) = 69.62129 73.76657 71.69393
# Shear Modulus (GPa) = 29.72588 42.85639 36.29114
#
# Velocity S-wave (km/s) = 3.29338 3.95441 3.63894
# Velocity P-wave (km/s) = 6.31388 6.91127 6.61932
#
# Compressibility (1/GPa) = 0.01436342
#
# Stress axis : x y z
#
# Youngs Moduli (GPa) = 32.55577 54.89636 106.46957
#
# Poissons Ratio (x) = 0.82148 1.04854
# Poissons Ratio (y) = 0.48717 -0.30148
# Poissons Ratio (z) = 0.32062 -0.15544
#
# Static dielectric constant tensor:
#      x y z
#    x 5.366980 0.000000 0.000000 
#    y 0.000000 5.214280 0.000000 
#    z 0.000000 0.000000 4.880370 
# 
# 
# High freq. dielectric constant tensor:
#      x y z
#    x 2.120350 0.000000 0.000000 
#    y 0.000000 2.117680 0.000000 
#    z 0.000000 0.000000 2.107530 
# 
# From -- ./inp_files/4528.got.cif
#   From: 2010.03.12/outbox.cif.g09.slc.cpg/sg37_3_cif.got.tgz:4528.got - 2010.04.14 02:25:27.
