data_PCOD8176223
_publ_section_title
;
Structure prediction by ZEFSAII (Michael W. Deem and Ramdas Pophale) SiO2 
 PCOD8176223
Probable space group: C M C 21
;
_chemical_formula_sum "Si O2"
_cell_formula_units_Z 40
_cell_length_a 15.930706
_cell_length_b 7.666363
_cell_length_c 14.055144
_cell_angle_alpha 90.000000
_cell_angle_beta 90.000000
_cell_angle_gamma 90.000000
_cell_volume 1716.562819
_symmetry_space_group_name_H-M "C M C 21"
_symmetry_group_IT_number 36
_symmetry_cell_setting 'orthorhombic'
loop_
_space_group_symop_operation_xyz
x,y,z
-x,-y,1/2+z
x,-y,1/2+z
-x,y,z
1/2+x,1/2+y,z
1/2-x,1/2-y,1/2+z
1/2+x,1/2-y,1/2+z
1/2-x,1/2+y,z
loop_
_atom_site_type_symbol
_atom_site_label
_atom_site_fract_x
_atom_site_fract_y
_atom_site_fract_z
Si Si1 0.500000 0.791005 0.985370
Si Si2 0.329460 0.768092 0.494274
Si Si3 0.673674 0.115101 0.399248
Si Si4 0.000000 0.989300 0.240870
Si Si5 0.000000 0.929243 0.959320
Si Si6 0.000000 0.596997 0.686499
Si Si7 0.630889 0.807703 0.703651
O O1 0.416624 0.804035 0.922632
O O2 0.500000 0.595827 0.030041
O O3 0.500000 0.927428 0.071659
O O4 0.246925 0.657211 0.473981
O O5 0.417172 0.673495 0.483104
O O6 0.320863 0.830312 0.603801
O O7 0.333982 0.909751 0.411237
O O8 0.696184 0.183047 0.292565
O O9 0.080179 0.876852 0.203795
O O10 0.000000 0.990259 0.354247
O O11 0.000000 0.197436 0.213735
O O12 0.078711 0.485897 0.723795
#
# Coordination Sequence:
#
# PCOD8176223 Si02
#       7
#     4   8   8   4   4   4   8
#     4  12  21  45  73 101 145 187 244 304 369 436
#     4  12  27  47  75 108 149 199 250 311 374 449
#     4  12  26  47  73 107 146 196 247 310 368 444
#     4  11  23  41  77 111 142 194 250 305 376 456
#     4  12  23  46  74 109 146 192 249 307 378 446
#     4  11  21  42  74 113 135 199 249 302 375 448
#     4  11  24  48  73 105 154 195 248 310 377 444
#
# _framework density 23.302382000000001
#
# number of rings (size 3 to 8) (size 9 to 14) (size 15 to 20)
#    0.000    0.400    4.000    6.000    0.000    1.600 
#    3.600    0.000    0.000    0.000    0.000    0.000 
#    0.000    0.000    0.000    0.000    0.000    0.000 
#
# Total GULP energy -247790.884292 kJ/mol
# GULP energy per Si atom -12389.544215 kJ/mol
# Density = 2.324934 g / cm^3
# Si number density = 23.302382 Si / 1000 Ang^3
#
#
#
# Elastic Constant Matrix: (Units=GPa)
#
#
# Indices 1 2 3 4 5 6 
#
# 1 121.0127 20.4727 40.2941 0.0000 0.0000 0.0000
# 2 20.4727 133.3245 18.2203 0.0000 0.0000 0.0000
# 3 40.2941 18.2203 124.9384 0.0000 0.0000 0.0000
# 4 0.0000 0.0000 0.0000 39.7198 0.0000 0.0000
# 5 0.0000 0.0000 0.0000 0.0000 30.6068 0.0000
# 6 0.0000 0.0000 0.0000 0.0000 0.0000 16.2300
#
#
#
# Elastic Compliance Matrix: (Units=1/GPa)
#
#
# Indices 1 2 3 4 5 6 
#
# 1 0.009400 -0.001050 -0.002878 0.000000 0.000000 0.000000
# 2 -0.001050 0.007770 -0.000795 0.000000 0.000000 0.000000
# 3 -0.002878 -0.000795 0.009048 0.000000 0.000000 0.000000
# 4 0.000000 0.000000 0.000000 0.025176 0.000000 0.000000
# 5 0.000000 0.000000 0.000000 0.000000 0.032672 0.000000
# 6 0.000000 0.000000 0.000000 0.000000 0.000000 0.061614
#
#
# Mechanical properties :
#
#
# Convention : Reuss Voigt Hill
#
# Bulk Modulus (GPa) = 59.62227 59.69444 59.65836
# Shear Modulus (GPa) = 31.11045 37.33055 34.22050
#
# Velocity S-wave (km/s) = 3.65783 4.00685 3.83631
# Velocity P-wave (km/s) = 6.59405 6.86144 6.72908
#
# Compressibility (1/GPa) = 0.01677226
#
# Stress axis : x y z
#
# Youngs Moduli (GPa) = 106.38685 128.69494 110.52015
#
# Poissons Ratio (x) = 0.13513 0.31812
# Poissons Ratio (y) = 0.11171 0.08781
# Poissons Ratio (z) = 0.30622 0.10225
#
# Static dielectric constant tensor:
#      x y z
#    x 3.985710 0.000000 0.000000 
#    y 0.000000 4.386020 0.000000 
#    z 0.000000 0.000000 4.528210 
# 
# 
# High freq. dielectric constant tensor:
#      x y z
#    x 1.902050 0.000000 0.000000 
#    y 0.000000 1.937430 0.000000 
#    z 0.000000 0.000000 1.941940 
# 
# From -- ./inp_files/11974.got.cif
#   From: 2010.03.12/outbox.cif.g09.slc.cpg/sg36_6_cif.got.tgz:11974.got - 2010.04.14 02:13:53.
