data_PCOD8176215
_publ_section_title
;
Structure prediction by ZEFSAII (Michael W. Deem and Ramdas Pophale) SiO2 
 PCOD8176215
Probable space group: C M C 21
;
_chemical_formula_sum "Si O2"
_cell_formula_units_Z 48
_cell_length_a 14.495906
_cell_length_b 9.669584
_cell_length_c 17.585868
_cell_angle_alpha 90.000000
_cell_angle_beta 90.000000
_cell_angle_gamma 90.000000
_cell_volume 2465.000227
_symmetry_space_group_name_H-M "C M C 21"
_symmetry_group_IT_number 36
_symmetry_cell_setting 'orthorhombic'
loop_
_space_group_symop_operation_xyz
x,y,z
-x,-y,1/2+z
x,-y,1/2+z
-x,y,z
1/2+x,1/2+y,z
1/2-x,1/2-y,1/2+z
1/2+x,1/2-y,1/2+z
1/2-x,1/2+y,z
loop_
_atom_site_type_symbol
_atom_site_label
_atom_site_fract_x
_atom_site_fract_y
_atom_site_fract_z
Si Si1 0.000000 0.191929 0.346920
Si Si2 0.697252 0.737734 0.388763
Si Si3 0.000000 0.096689 0.932123
Si Si4 0.000000 0.964637 0.701087
Si Si5 0.805402 0.022235 0.647470
Si Si6 0.000000 0.746768 0.285918
Si Si7 0.803184 0.040775 0.978459
Si Si8 0.695416 0.798982 0.736508
O O1 0.909430 0.276462 0.372271
O O2 0.000000 0.169414 0.255841
O O3 0.000000 0.043299 0.385113
O O4 0.733575 0.839396 0.453521
O O5 0.705405 0.580804 0.417108
O O6 0.754717 0.756544 0.311815
O O7 0.907514 0.100413 0.982982
O O8 0.000000 0.231098 0.877032
O O9 0.908993 0.961892 0.649521
O O10 0.000000 0.101532 0.751000
O O11 0.770773 0.011322 0.561070
O O12 0.741162 0.936933 0.704690
O O13 0.800888 0.181571 0.671967
O O14 0.909920 0.663721 0.258398
#
# Coordination Sequence:
#
# PCOD8176215 Si02
#       8
#     4   8   4   4   8   4   8   8
#     4   9  18  34  58  86 109 145 197 231 280 336
#     4  11  21  38  61  84 114 153 193 240 280 344
#     4   9  17  34  59  83 110 144 193 241 273 334
#     4   9  17  34  59  83 110 144 193 241 273 334
#     4  11  22  37  58  87 117 150 190 239 294 338
#     4   9  18  34  58  86 109 145 197 231 280 336
#     4  11  22  37  58  87 117 150 190 239 294 338
#     4  11  21  38  61  84 114 153 193 240 280 344
#
# _framework density 19.472615000000001
#
# number of rings (size 3 to 8) (size 9 to 14) (size 15 to 20)
#    0.000    1.667    3.333    2.500    0.000    0.000 
#    0.000    7.500    0.000    0.000    0.000    0.000 
#    0.000    0.000    0.000    0.000    0.000    0.000 
#
# Total GULP energy -297637.876164 kJ/mol
# GULP energy per Si atom -12401.578173 kJ/mol
# Density = 1.942829 g / cm^3
# Si number density = 19.472615 Si / 1000 Ang^3
#
#
#
# Elastic Constant Matrix: (Units=GPa)
#
#
# Indices 1 2 3 4 5 6 
#
# 1 133.7294 24.0250 13.4338 0.0000 0.0000 0.0000
# 2 24.0250 40.0742 -3.2842 0.0000 0.0000 0.0000
# 3 13.4338 -3.2842 73.1501 0.0000 0.0000 0.0000
# 4 0.0000 0.0000 0.0000 29.7921 0.0000 0.0000
# 5 0.0000 0.0000 0.0000 0.0000 25.7291 0.0000
# 6 0.0000 0.0000 0.0000 0.0000 0.0000 23.6236
#
#
#
# Elastic Compliance Matrix: (Units=1/GPa)
#
#
# Indices 1 2 3 4 5 6 
#
# 1 0.008615 -0.005314 -0.001821 0.000000 0.000000 0.000000
# 2 -0.005314 0.028324 0.002248 0.000000 0.000000 0.000000
# 3 -0.001821 0.002248 0.014106 0.000000 0.000000 0.000000
# 4 0.000000 0.000000 0.000000 0.033566 0.000000 0.000000
# 5 0.000000 0.000000 0.000000 0.000000 0.038867 0.000000
# 6 0.000000 0.000000 0.000000 0.000000 0.000000 0.042330
#
#
# Mechanical properties :
#
#
# Convention : Reuss Voigt Hill
#
# Bulk Modulus (GPa) = 24.23054 35.03366 29.63210
# Shear Modulus (GPa) = 26.40755 30.01424 28.21090
#
# Velocity S-wave (km/s) = 3.68657 3.93027 3.81037
# Velocity P-wave (km/s) = 5.53096 6.21501 5.88293
#
# Compressibility (1/GPa) = 0.04127023
#
# Stress axis : x y z
#
# Youngs Moduli (GPa) = 116.07081 35.30583 70.89270
#
# Poissons Ratio (x) = 0.18763 0.12908
# Poissons Ratio (y) = 0.61683 -0.15934
# Poissons Ratio (z) = 0.21134 -0.07935
#
# Static dielectric constant tensor:
#      x y z
#    x 3.873290 0.000000 0.000000 
#    y 0.000000 3.195590 0.000000 
#    z 0.000000 0.000000 3.437740 
# 
# 
# High freq. dielectric constant tensor:
#      x y z
#    x 1.768610 0.000000 0.000000 
#    y 0.000000 1.728100 0.000000 
#    z 0.000000 0.000000 1.759120 
# 
# From -- ./inp_files/14264.got.cif
#   From: 2010.03.12/outbox.cif.g09.slc.cpg/sg36_8_cif.got.tgz:14264.got - 2010.04.14 02:13:53.
