data_PCOD8176812
_publ_section_title
;
Structure prediction by ZEFSAII (Michael W. Deem and Ramdas Pophale) SiO2 
 PCOD8176812
Probable space group: C C C 2
;
_chemical_formula_sum "Si O2"
_cell_formula_units_Z 44
_cell_length_a 18.920843
_cell_length_b 21.453558
_cell_length_c 5.007520
_cell_angle_alpha 90.000000
_cell_angle_beta 90.000000
_cell_angle_gamma 90.000000
_cell_volume 2032.649527
_symmetry_space_group_name_H-M "C C C 2"
_symmetry_group_IT_number 37
_symmetry_cell_setting 'orthorhombic'
loop_
_space_group_symop_operation_xyz
x,y,z
-x,-y,z
-x,y,1/2+z
x,-y,1/2+z
1/2+x,1/2+y,z
1/2-x,1/2-y,z
1/2-x,1/2+y,1/2+z
1/2+x,1/2-y,1/2+z
loop_
_atom_site_type_symbol
_atom_site_label
_atom_site_fract_x
_atom_site_fract_y
_atom_site_fract_z
Si Si1 0.250000 0.750000 0.313690
Si Si2 0.304993 0.866665 0.610303
Si Si3 0.454907 0.836161 0.777435
Si Si4 0.782897 0.042085 0.346107
Si Si5 0.179168 0.853506 0.005873
Si Si6 0.455545 0.308701 0.240525
O O1 0.295291 0.797466 0.491509
O O2 0.192506 0.785635 0.133286
O O3 0.383495 0.874891 0.725036
O O4 0.291697 0.919548 0.380177
O O5 0.247927 0.876991 0.845194
O O6 0.515551 0.854395 0.566423
O O7 0.435882 0.763551 0.763642
O O8 0.836673 0.096468 0.244443
O O9 0.792627 0.014497 0.641470
O O10 0.113206 0.849697 0.805981
O O11 0.519149 0.325538 0.443638
#
# Coordination Sequence:
#
# PCOD8176812 Si02
#       6
#     4   8   8   8   8   8
#     4  10  22  32  60 102 128 152 218 252 332 368
#     4  11  23  39  66  92 131 166 211 273 315 396
#     4  10  23  37  58  91 134 171 204 248 319 397
#     4  11  24  43  66  95 116 161 222 274 320 369
#     4  11  23  39  66  92 131 166 211 273 315 396
#     4  10  23  37  58  91 134 171 204 248 319 397
#
# _framework density 21.646623999999999
#
# number of rings (size 3 to 8) (size 9 to 14) (size 15 to 20)
#    0.000    1.455    1.818    2.727   17.818    0.000 
#    0.000    0.000    0.000    6.545    0.000    0.000 
#    0.000    0.000    0.000    0.000    0.000    0.000 
#
# Total GULP energy -272630.304769 kJ/mol
# GULP energy per Si atom -12392.286580 kJ/mol
# Density = 2.159736 g / cm^3
# Si number density = 21.646624 Si / 1000 Ang^3
#
#
#
# Elastic Constant Matrix: (Units=GPa)
#
#
# Indices 1 2 3 4 5 6 
#
# 1 68.2875 -19.4315 -0.3359 0.0000 0.0000 0.0000
# 2 -19.4315 36.3902 6.3781 0.0000 0.0000 0.0000
# 3 -0.3359 6.3781 81.5830 0.0000 0.0000 0.0000
# 4 0.0000 0.0000 0.0000 47.0041 0.0000 0.0000
# 5 0.0000 0.0000 0.0000 0.0000 38.5392 0.0000
# 6 0.0000 0.0000 0.0000 0.0000 0.0000 15.2168
#
#
#
# Elastic Compliance Matrix: (Units=1/GPa)
#
#
# Indices 1 2 3 4 5 6 
#
# 1 0.017303 0.009355 -0.000660 0.000000 0.000000 0.000000
# 2 0.009355 0.032920 -0.002535 0.000000 0.000000 0.000000
# 3 -0.000660 -0.002535 0.012453 0.000000 0.000000 0.000000
# 4 0.000000 0.000000 0.000000 0.021275 0.000000 0.000000
# 5 0.000000 0.000000 0.000000 0.000000 0.025948 0.000000
# 6 0.000000 0.000000 0.000000 0.000000 0.000000 0.065717
#
#
# Mechanical properties :
#
#
# Convention : Reuss Voigt Hill
#
# Bulk Modulus (GPa) = 13.33431 17.72026 15.52728
# Shear Modulus (GPa) = 26.55432 33.46202 30.00817
#
# Velocity S-wave (km/s) = 3.50625 3.93597 3.72731
# Velocity P-wave (km/s) = 4.75028 5.37213 5.07074
#
# Compressibility (1/GPa) = 0.07499451
#
# Stress axis : x y z
#
# Youngs Moduli (GPa) = 57.79446 30.37708 80.30236
#
# Poissons Ratio (x) = -0.28418 0.05301
# Poissons Ratio (y) = -0.54066 0.20358
# Poissons Ratio (z) = 0.03815 0.07701
#
# Static dielectric constant tensor:
#      x y z
#    x 3.562920 0.000000 0.000000 
#    y 0.000000 3.892860 0.000000 
#    z 0.000000 0.000000 4.240810 
# 
# 
# High freq. dielectric constant tensor:
#      x y z
#    x 1.820390 0.000000 0.000000 
#    y 0.000000 1.826560 0.000000 
#    z 0.000000 0.000000 1.874500 
# 
# From -- ./inp_files/774.got.cif
#   From: 2010.03.12/outbox.cif.g09.slc.cpg/sg37_1_cif.got.tgz:774.got - 2010.04.14 02:25:27.
