data_PCOD8176912
_publ_section_title
;
Structure prediction by ZEFSAII (Michael W. Deem and Ramdas Pophale) SiO2 
 PCOD8176912
Probable space group: C C C 2
;
_chemical_formula_sum "Si O2"
_cell_formula_units_Z 44
_cell_length_a 23.514699
_cell_length_b 6.029467
_cell_length_c 13.765969
_cell_angle_alpha 90.000000
_cell_angle_beta 90.000000
_cell_angle_gamma 90.000000
_cell_volume 1951.754250
_symmetry_space_group_name_H-M "C C C 2"
_symmetry_group_IT_number 37
_symmetry_cell_setting 'orthorhombic'
loop_
_space_group_symop_operation_xyz
x,y,z
-x,-y,z
-x,y,1/2+z
x,-y,1/2+z
1/2+x,1/2+y,z
1/2-x,1/2-y,z
1/2-x,1/2+y,1/2+z
1/2+x,1/2-y,1/2+z
loop_
_atom_site_type_symbol
_atom_site_label
_atom_site_fract_x
_atom_site_fract_y
_atom_site_fract_z
Si Si1 0.612833 0.868803 0.772070
Si Si2 0.368066 0.907816 0.575314
Si Si3 0.059431 0.111197 0.929326
Si Si4 0.212532 0.061698 0.801609
Si Si5 0.250000 0.250000 0.144905
Si Si6 0.351647 0.236835 0.415063
O O1 0.557818 0.772403 0.832748
O O2 0.653584 0.656437 0.757804
O O3 0.599880 0.000983 0.672296
O O4 0.646442 0.040256 0.838318
O O5 0.413534 0.755158 0.517797
O O6 0.309821 0.766583 0.587363
O O7 0.348872 0.131882 0.521223
O O8 0.094775 0.894648 0.905217
O O9 0.000000 0.000000 0.959125
O O10 0.250000 0.250000 0.853089
O O11 0.248098 0.968705 0.711093
O O12 0.203566 0.881151 0.886693
#
# Coordination Sequence:
#
# PCOD8176912 Si02
#       6
#     8   8   8   8   4   8
#     4  10  22  44  69  96 138 190 238 291 359 436
#     4  11  24  44  69 107 140 192 246 296 366 447
#     4  10  25  48  74 101 145 186 244 317 363 430
#     4  11  20  40  66  94 140 194 226 291 355 428
#     4  12  24  42  68 100 148 188 240 298 356 448
#     4  10  23  45  64 100 141 182 244 290 359 430
#
# _framework density 22.543821999999999
#
# number of rings (size 3 to 8) (size 9 to 14) (size 15 to 20)
#    0.000    1.455    3.636    0.000    2.545    2.909 
#   27.818    5.455    0.000    0.000    0.000    0.000 
#    0.000    0.000    0.000    0.000    0.000    0.000 
#
# Total GULP energy -272544.810356 kJ/mol
# GULP energy per Si atom -12388.400471 kJ/mol
# Density = 2.249251 g / cm^3
# Si number density = 22.543822 Si / 1000 Ang^3
#
#
#
# Elastic Constant Matrix: (Units=GPa)
#
#
# Indices 1 2 3 4 5 6 
#
# 1 112.3578 49.2550 50.4478 0.0000 0.0000 0.0000
# 2 49.2550 112.0966 43.9644 0.0000 0.0000 0.0000
# 3 50.4478 43.9644 123.9622 0.0000 0.0000 0.0000
# 4 0.0000 0.0000 0.0000 35.1290 0.0000 0.0000
# 5 0.0000 0.0000 0.0000 0.0000 27.0462 0.0000
# 6 0.0000 0.0000 0.0000 0.0000 0.0000 44.2382
#
#
#
# Elastic Compliance Matrix: (Units=1/GPa)
#
#
# Indices 1 2 3 4 5 6 
#
# 1 0.012250 -0.003981 -0.003573 0.000000 0.000000 0.000000
# 2 -0.003981 0.011656 -0.002514 0.000000 0.000000 0.000000
# 3 -0.003573 -0.002514 0.010413 0.000000 0.000000 0.000000
# 4 0.000000 0.000000 0.000000 0.028467 0.000000 0.000000
# 5 0.000000 0.000000 0.000000 0.000000 0.036974 0.000000
# 6 0.000000 0.000000 0.000000 0.000000 0.000000 0.022605
#
#
# Mechanical properties :
#
#
# Convention : Reuss Voigt Hill
#
# Bulk Modulus (GPa) = 70.51062 70.63900 70.57481
# Shear Modulus (GPa) = 33.96111 34.93264 34.44688
#
# Velocity S-wave (km/s) = 3.88551 3.94070 3.91320
# Velocity P-wave (km/s) = 7.17458 7.21856 7.19660
#
# Compressibility (1/GPa) = 0.01418226
#
# Stress axis : x y z
#
# Youngs Moduli (GPa) = 81.63471 85.79224 96.03676
#
# Poissons Ratio (x) = 0.34154 0.34316
# Poissons Ratio (y) = 0.32499 0.24142
# Poissons Ratio (z) = 0.29170 0.21566
#
# Static dielectric constant tensor:
#      x y z
#    x 3.854310 0.000000 0.000000 
#    y 0.000000 4.514340 0.000000 
#    z 0.000000 0.000000 4.152810 
# 
# 
# High freq. dielectric constant tensor:
#      x y z
#    x 1.860900 0.000000 0.000000 
#    y 0.000000 1.918590 0.000000 
#    z 0.000000 0.000000 1.879130 
# 
# From -- ./inp_files/13242.got.cif
#   From: 2010.03.12/outbox.cif.g09.slc.cpg/sg37_7_cif.got.tgz:13242.got - 2010.04.14 02:25:27.
