data_PCOD8176291
_publ_section_title
;
Structure prediction by ZEFSAII (Michael W. Deem and Ramdas Pophale) SiO2 
 PCOD8176291
Probable space group: C M C 21
;
_chemical_formula_sum "Si O2"
_cell_formula_units_Z 48
_cell_length_a 8.862828
_cell_length_b 30.847925
_cell_length_c 9.358241
_cell_angle_alpha 90.000000
_cell_angle_beta 90.000000
_cell_angle_gamma 90.000000
_cell_volume 2558.541718
_symmetry_space_group_name_H-M "C M C 21"
_symmetry_group_IT_number 36
_symmetry_cell_setting 'orthorhombic'
loop_
_space_group_symop_operation_xyz
x,y,z
-x,-y,1/2+z
x,-y,1/2+z
-x,y,z
1/2+x,1/2+y,z
1/2-x,1/2-y,1/2+z
1/2+x,1/2-y,1/2+z
1/2-x,1/2+y,z
loop_
_atom_site_type_symbol
_atom_site_label
_atom_site_fract_x
_atom_site_fract_y
_atom_site_fract_z
Si Si1 0.322216 0.709068 0.822170
Si Si2 0.677833 0.712971 0.494801
Si Si3 0.824681 0.362814 0.823701
Si Si4 0.675255 0.133588 0.989196
Si Si5 0.321257 0.959612 0.824494
Si Si6 0.178645 0.463073 0.510663
O O1 0.500000 0.714494 0.829267
O O2 0.265092 0.711932 0.658638
O O3 0.249571 0.746553 0.915598
O O4 0.276392 0.663108 0.888059
O O5 0.500000 0.718246 0.488878
O O6 0.723275 0.669088 0.415523
O O7 0.787611 0.358029 0.655747
O O8 0.783477 0.411193 0.879020
O O9 0.000000 0.352247 0.850488
O O10 0.500000 0.143605 0.960436
O O11 0.715950 0.084145 0.945289
O O12 0.500000 0.964905 0.816482
O O13 0.250809 0.966128 0.668058
O O14 0.249088 0.997298 0.921894
O O15 0.000000 0.468393 0.519478
#
# Coordination Sequence:
#
# PCOD8176291 Si02
#       6
#     8   8   8   8   8   8
#     4  11  24  39  55  77 103 131 167 210 254 304
#     4  11  24  39  55  77 103 131 167 210 254 304
#     4   9  18  33  53  78 107 137 171 211 253 299
#     4   9  18  33  53  78 107 137 171 211 253 299
#     4   8  14  25  43  70 103 135 167 205 247 291
#     4   8  14  25  43  70 103 135 167 205 247 291
#
# _framework density 18.760687000000001
#
# number of rings (size 3 to 8) (size 9 to 14) (size 15 to 20)
#    0.000    2.667    0.000    4.000    0.000    8.667 
#    0.000    3.333    0.000    1.000    0.000    0.000 
#    0.000    0.000    0.000    0.000    0.000    0.000 
#
# Total GULP energy -297512.487852 kJ/mol
# GULP energy per Si atom -12396.353661 kJ/mol
# Density = 1.871799 g / cm^3
# Si number density = 18.760687 Si / 1000 Ang^3
#
#
#
# Elastic Constant Matrix: (Units=GPa)
#
#
# Indices 1 2 3 4 5 6 
#
# 1 30.5295 4.4685 9.1552 0.0000 0.0000 0.0000
# 2 4.4685 68.2609 -3.3645 0.0000 0.0000 0.0000
# 3 9.1552 -3.3645 32.8051 0.0000 0.0000 0.0000
# 4 0.0000 0.0000 0.0000 41.3543 0.0000 0.0000
# 5 0.0000 0.0000 0.0000 0.0000 24.0871 0.0000
# 6 0.0000 0.0000 0.0000 0.0000 0.0000 25.2866
#
#
#
# Elastic Compliance Matrix: (Units=1/GPa)
#
#
# Indices 1 2 3 4 5 6 
#
# 1 0.036306 -0.002891 -0.010429 0.000000 0.000000 0.000000
# 2 -0.002891 0.014954 0.002340 0.000000 0.000000 0.000000
# 3 -0.010429 0.002340 0.033634 0.000000 0.000000 0.000000
# 4 0.000000 0.000000 0.000000 0.024181 0.000000 0.000000
# 5 0.000000 0.000000 0.000000 0.000000 0.041516 0.000000
# 6 0.000000 0.000000 0.000000 0.000000 0.000000 0.039547
#
#
# Mechanical properties :
#
#
# Convention : Reuss Voigt Hill
#
# Bulk Modulus (GPa) = 15.88923 16.90156 16.39540
# Shear Modulus (GPa) = 21.45246 26.23470 23.84358
#
# Velocity S-wave (km/s) = 3.38521 3.74356 3.56888
# Velocity P-wave (km/s) = 4.87517 5.26443 5.07354
#
# Compressibility (1/GPa) = 0.06293570
#
# Stress axis : x y z
#
# Youngs Moduli (GPa) = 27.54395 66.87057 29.73222
#
# Poissons Ratio (x) = 0.19330 0.31007
# Poissons Ratio (y) = 0.07962 -0.06959
# Poissons Ratio (z) = 0.28725 -0.15651
#
# Static dielectric constant tensor:
#      x y z
#    x 3.035860 0.000000 0.000000 
#    y 0.000000 3.713830 0.000000 
#    z 0.000000 0.000000 3.749220 
# 
# 
# High freq. dielectric constant tensor:
#      x y z
#    x 1.687720 0.000000 0.000000 
#    y 0.000000 1.747840 0.000000 
#    z 0.000000 0.000000 1.729040 
# 
# From -- ./inp_files/2689.got.cif
#   From: 2010.03.12/outbox.cif.g09.slc.cpg/sg36_2_cif.got.tgz:2689.got - 2010.04.14 02:13:53.
