data_PCOD8176385
_publ_section_title
;
Structure prediction by ZEFSAII (Michael W. Deem and Ramdas Pophale) SiO2 
 PCOD8176385
Probable space group: C C C 2
;
_chemical_formula_sum "Si O2"
_cell_formula_units_Z 64
_cell_length_a 13.954337
_cell_length_b 13.810694
_cell_length_c 17.797604
_cell_angle_alpha 90.000000
_cell_angle_beta 90.000000
_cell_angle_gamma 90.000000
_cell_volume 3429.937838
_symmetry_space_group_name_H-M "C C C 2"
_symmetry_group_IT_number 37
_symmetry_cell_setting 'orthorhombic'
loop_
_space_group_symop_operation_xyz
x,y,z
-x,-y,z
-x,y,1/2+z
x,-y,1/2+z
1/2+x,1/2+y,z
1/2-x,1/2-y,z
1/2-x,1/2+y,1/2+z
1/2+x,1/2-y,1/2+z
loop_
_atom_site_type_symbol
_atom_site_label
_atom_site_fract_x
_atom_site_fract_y
_atom_site_fract_z
Si Si1 0.231583 0.515564 0.059120
Si Si2 0.925020 0.919982 0.067490
Si Si3 0.673304 0.831696 0.438201
Si Si4 0.966255 0.740792 0.545488
Si Si5 0.645445 0.219685 0.772435
Si Si6 0.176402 0.828601 0.158702
Si Si7 0.488624 0.606528 0.735113
Si Si8 0.064984 0.585978 0.644146
O O1 0.319782 0.445694 0.039296
O O2 0.260821 0.580670 0.130904
O O3 0.143903 0.449989 0.085425
O O4 0.204786 0.571182 0.982075
O O5 0.931820 0.910556 0.157504
O O6 0.948511 0.816385 0.030619
O O7 0.000000 0.000000 0.038320
O O8 0.750000 0.750000 0.457287
O O9 0.568172 0.800623 0.466399
O O10 0.660133 0.841352 0.349053
O O11 0.875570 0.792743 0.583635
O O12 0.994412 0.654732 0.599425
O O13 0.750000 0.250000 0.743135
O O14 0.574385 0.313964 0.781428
O O15 0.606492 0.143449 0.713760
O O16 0.250000 0.750000 0.192918
O O17 0.096638 0.854251 0.221249
O O18 0.500000 0.500000 0.775352
O O19 0.000000 0.500000 0.676874
#
# Coordination Sequence:
#
# PCOD8176385 Si02
#       8
#     8   8   8   8   8   8   8   8
#     4  12  20  34  62  90 114 154 208 252 290 355
#     4  10  17  31  59  90 114 143 198 262 290 329
#     4  11  21  40  62  86 121 159 201 245 306 369
#     4  11  19  37  60  87 118 150 203 248 295 352
#     4  11  25  41  59  88 131 165 190 249 315 372
#     4  11  17  31  60  84 114 147 201 253 283 333
#     4  10  19  36  58  91 121 155 199 254 301 346
#     4  12  24  38  59  93 120 158 205 244 301 359
#
# _framework density 18.659230000000001
#
# number of rings (size 3 to 8) (size 9 to 14) (size 15 to 20)
#    0.000    1.000   10.000    0.750    0.000    0.000 
#    2.250    3.125    0.000    0.000    0.000    0.000 
#    0.000    0.000    0.000    0.000    0.000    0.000 
#
# Total GULP energy -396650.029839 kJ/mol
# GULP energy per Si atom -12395.313432 kJ/mol
# Density = 1.861676 g / cm^3
# Si number density = 18.659230 Si / 1000 Ang^3
#
#
#
# Elastic Constant Matrix: (Units=GPa)
#
#
# Indices 1 2 3 4 5 6 
#
# 1 71.5614 40.2703 40.9399 0.0000 0.0000 0.0000
# 2 40.2703 105.0787 42.6421 0.0000 0.0000 0.0000
# 3 40.9399 42.6421 66.9136 0.0000 0.0000 0.0000
# 4 0.0000 0.0000 0.0000 50.6432 0.0000 0.0000
# 5 0.0000 0.0000 0.0000 0.0000 20.6170 0.0000
# 6 0.0000 0.0000 0.0000 0.0000 0.0000 4.9299
#
#
#
# Elastic Compliance Matrix: (Units=1/GPa)
#
#
# Indices 1 2 3 4 5 6 
#
# 1 0.022763 -0.004143 -0.011286 0.000000 0.000000 0.000000
# 2 -0.004143 0.013590 -0.006126 0.000000 0.000000 0.000000
# 3 -0.011286 -0.006126 0.025754 0.000000 0.000000 0.000000
# 4 0.000000 0.000000 0.000000 0.019746 0.000000 0.000000
# 5 0.000000 0.000000 0.000000 0.000000 0.048504 0.000000
# 6 0.000000 0.000000 0.000000 0.000000 0.000000 0.202845
#
#
# Mechanical properties :
#
#
# Convention : Reuss Voigt Hill
#
# Bulk Modulus (GPa) = 52.64340 54.58426 53.61383
# Shear Modulus (GPa) = 13.06695 23.21812 18.14254
#
# Velocity S-wave (km/s) = 2.64918 3.53132 3.12157
# Velocity P-wave (km/s) = 6.13448 6.77818 6.46435
#
# Compressibility (1/GPa) = 0.01899574
#
# Stress axis : x y z
#
# Youngs Moduli (GPa) = 43.93177 73.58093 38.82918
#
# Poissons Ratio (x) = 0.30487 0.43824
# Poissons Ratio (y) = 0.18202 0.23786
# Poissons Ratio (z) = 0.49583 0.45074
#
# Static dielectric constant tensor:
#      x y z
#    x 3.495790 0.000000 0.000000 
#    y 0.000000 3.707050 0.000000 
#    z 0.000000 0.000000 3.078910 
# 
# 
# High freq. dielectric constant tensor:
#      x y z
#    x 1.738200 0.000000 0.000000 
#    y 0.000000 1.734920 0.000000 
#    z 0.000000 0.000000 1.671730 
# 
# From -- ./inp_files/15299.got.cif
#   From: 2010.03.12/outbox.cif.g09.slc.cpg/sg37_8_cif.got.tgz:15299.got - 2010.04.14 02:25:27.
