data_PCOD8176718
_publ_section_title
;
Structure prediction by ZEFSAII (Michael W. Deem and Ramdas Pophale) SiO2 
 PCOD8176718
Probable space group: C C C 2
;
_chemical_formula_sum "Si O2"
_cell_formula_units_Z 52
_cell_length_a 16.839971
_cell_length_b 8.270405
_cell_length_c 18.393581
_cell_angle_alpha 90.000000
_cell_angle_beta 90.000000
_cell_angle_gamma 90.000000
_cell_volume 2561.736203
_symmetry_space_group_name_H-M "C C C 2"
_symmetry_group_IT_number 37
_symmetry_cell_setting 'orthorhombic'
loop_
_space_group_symop_operation_xyz
x,y,z
-x,-y,z
-x,y,1/2+z
x,-y,1/2+z
1/2+x,1/2+y,z
1/2-x,1/2-y,z
1/2-x,1/2+y,1/2+z
1/2+x,1/2-y,1/2+z
loop_
_atom_site_type_symbol
_atom_site_label
_atom_site_fract_x
_atom_site_fract_y
_atom_site_fract_z
Si Si1 0.627721 0.088670 0.308060
Si Si2 0.000000 0.000000 0.910757
Si Si3 0.250000 0.750000 0.050674
Si Si4 0.542648 0.242428 0.799214
Si Si5 0.250000 0.250000 0.919525
Si Si6 0.355619 0.479366 0.008407
Si Si7 0.133672 0.166677 0.163496
Si Si8 0.708029 0.001893 0.669219
O O1 0.547303 0.184744 0.295148
O O2 0.680813 0.163636 0.372305
O O3 0.605711 0.899082 0.319167
O O4 0.676283 0.109317 0.233923
O O5 0.046656 0.868040 0.864227
O O6 0.931189 0.931896 0.961071
O O7 0.323461 0.666814 0.006313
O O8 0.214441 0.605626 0.098035
O O9 0.563743 0.335151 0.723739
O O10 0.283154 0.380688 0.975138
O O11 0.384355 0.427052 0.088949
O O12 0.209875 0.078347 0.198242
O O13 0.148880 0.354823 0.146108
#
# Coordination Sequence:
#
# PCOD8176718 Si02
#       8
#     8   4   4   8   4   8   8   8
#     4  10  22  40  66  93 121 171 209 263 317 386
#     4  12  26  42  56  96 132 164 214 260 330 380
#     4  10  21  38  62  91 130 160 220 262 312 387
#     4  10  23  43  63  90 128 166 217 260 318 384
#     4  12  23  42  64  89 138 168 214 260 326 389
#     4  11  25  41  62  94 127 173 207 263 325 383
#     4   9  20  41  65  88 126 164 207 265 315 376
#     4   9  18  36  64  97 119 155 218 258 312 371
#
# _framework density 20.298732000000001
#
# number of rings (size 3 to 8) (size 9 to 14) (size 15 to 20)
#    0.000    1.846    1.538    2.308    4.308    4.308 
#    0.000    0.000    0.000    0.000    0.000    0.000 
#    0.000    0.000    0.000    0.000    0.000    0.000 
#
# Total GULP energy -322215.835469 kJ/mol
# GULP energy per Si atom -12392.916749 kJ/mol
# Density = 2.025253 g / cm^3
# Si number density = 20.298732 Si / 1000 Ang^3
#
#
#
# Elastic Constant Matrix: (Units=GPa)
#
#
# Indices 1 2 3 4 5 6 
#
# 1 96.7810 33.4640 54.8123 0.0000 0.0000 0.0000
# 2 33.4640 83.1078 37.7813 0.0000 0.0000 0.0000
# 3 54.8123 37.7813 107.5235 0.0000 0.0000 0.0000
# 4 0.0000 0.0000 0.0000 35.0580 0.0000 0.0000
# 5 0.0000 0.0000 0.0000 0.0000 42.4330 0.0000
# 6 0.0000 0.0000 0.0000 0.0000 0.0000 25.9440
#
#
#
# Elastic Compliance Matrix: (Units=1/GPa)
#
#
# Indices 1 2 3 4 5 6 
#
# 1 0.015163 -0.003084 -0.006646 0.000000 0.000000 0.000000
# 2 -0.003084 0.014947 -0.003680 0.000000 0.000000 0.000000
# 3 -0.006646 -0.003680 0.013981 0.000000 0.000000 0.000000
# 4 0.000000 0.000000 0.000000 0.028524 0.000000 0.000000
# 5 0.000000 0.000000 0.000000 0.000000 0.023567 0.000000
# 6 0.000000 0.000000 0.000000 0.000000 0.000000 0.038545
#
#
# Mechanical properties :
#
#
# Convention : Reuss Voigt Hill
#
# Bulk Modulus (GPa) = 57.89898 59.94750 58.92324
# Shear Modulus (GPa) = 29.88569 31.44398 30.66483
#
# Velocity S-wave (km/s) = 3.84121 3.94008 3.89096
# Velocity P-wave (km/s) = 6.94684 7.09195 7.01977
#
# Compressibility (1/GPa) = 0.01727146
#
# Stress axis : x y z
#
# Youngs Moduli (GPa) = 65.95003 66.90144 71.52444
#
# Poissons Ratio (x) = 0.20634 0.47535
# Poissons Ratio (y) = 0.20340 0.26320
# Poissons Ratio (z) = 0.43830 0.24619
#
# Static dielectric constant tensor:
#      x y z
#    x 3.622580 0.000000 0.000000 
#    y 0.000000 3.906150 0.000000 
#    z 0.000000 0.000000 3.705300 
# 
# 
# High freq. dielectric constant tensor:
#      x y z
#    x 1.790520 0.000000 0.000000 
#    y 0.000000 1.800580 0.000000 
#    z 0.000000 0.000000 1.792590 
# 
# From -- ./inp_files/17161.got.cif
#   From: 2010.03.12/outbox.cif.g09.slc.cpg/sg37_9_cif.got.tgz:17161.got - 2010.04.14 02:25:27.
