data_PCOD8176649
_publ_section_title
;
Structure prediction by ZEFSAII (Michael W. Deem and Ramdas Pophale) SiO2 
 PCOD8176649
Probable space group: C C C 2
;
_chemical_formula_sum "Si O2"
_cell_formula_units_Z 40
_cell_length_a 8.101899
_cell_length_b 16.853364
_cell_length_c 13.059276
_cell_angle_alpha 90.000000
_cell_angle_beta 90.000000
_cell_angle_gamma 90.000000
_cell_volume 1783.169085
_symmetry_space_group_name_H-M "C C C 2"
_symmetry_group_IT_number 37
_symmetry_cell_setting 'orthorhombic'
loop_
_space_group_symop_operation_xyz
x,y,z
-x,-y,z
-x,y,1/2+z
x,-y,1/2+z
1/2+x,1/2+y,z
1/2-x,1/2-y,z
1/2-x,1/2+y,1/2+z
1/2+x,1/2-y,1/2+z
loop_
_atom_site_type_symbol
_atom_site_label
_atom_site_fract_x
_atom_site_fract_y
_atom_site_fract_z
Si Si1 0.403563 0.797023 0.612760
Si Si2 0.224193 0.874489 0.799145
Si Si3 0.889485 0.193527 0.242722
Si Si4 0.909990 0.427235 0.989750
Si Si5 0.676762 0.524587 0.664672
O O1 0.250000 0.750000 0.560864
O O2 0.347070 0.829280 0.723656
O O3 0.553514 0.737030 0.637355
O O4 0.459278 0.866315 0.537784
O O5 0.296490 0.877767 0.912922
O O6 0.050564 0.826932 0.811259
O O7 0.205848 0.963072 0.756257
O O8 0.750000 0.250000 0.297065
O O9 0.805693 0.111515 0.212218
O O10 0.000000 0.500000 0.930397
O O11 0.809497 0.476801 0.074977
O O12 0.500000 0.500000 0.615987
#
# Coordination Sequence:
#
# PCOD8176649 Si02
#       5
#     8   8   8   8   8
#     4  10  22  45  68  98 141 176 224 296 359 407
#     4  10  24  43  66 101 135 182 239 281 344 426
#     4  10  20  41  72  94 136 183 213 291 363 405
#     4  12  24  40  73 102 138 187 241 285 342 427
#     4  10  22  42  67  96 141 181 229 287 343 410
#
# _framework density 22.431974
#
# number of rings (size 3 to 8) (size 9 to 14) (size 15 to 20)
#    0.000    1.600    4.000    0.000    2.800    2.400 
#   10.800    3.000    0.000    0.000    0.000    0.000 
#    0.000    0.000    0.000    0.000    0.000    0.000 
#
# Total GULP energy -247896.150583 kJ/mol
# GULP energy per Si atom -12394.807529 kJ/mol
# Density = 2.238092 g / cm^3
# Si number density = 22.431974 Si / 1000 Ang^3
#
#
#
# Elastic Constant Matrix: (Units=GPa)
#
#
# Indices 1 2 3 4 5 6 
#
# 1 126.2730 62.0441 53.8293 0.0000 0.0000 0.0000
# 2 62.0441 160.1566 39.9309 0.0000 0.0000 0.0000
# 3 53.8293 39.9309 77.3438 0.0000 0.0000 0.0000
# 4 0.0000 0.0000 0.0000 18.3696 0.0000 0.0000
# 5 0.0000 0.0000 0.0000 0.0000 16.2904 0.0000
# 6 0.0000 0.0000 0.0000 0.0000 0.0000 51.2305
#
#
#
# Elastic Compliance Matrix: (Units=1/GPa)
#
#
# Indices 1 2 3 4 5 6 
#
# 1 0.012438 -0.003053 -0.007080 0.000000 0.000000 0.000000
# 2 -0.003053 0.007916 -0.001962 0.000000 0.000000 0.000000
# 3 -0.007080 -0.001962 0.018870 0.000000 0.000000 0.000000
# 4 0.000000 0.000000 0.000000 0.054438 0.000000 0.000000
# 5 0.000000 0.000000 0.000000 0.000000 0.061386 0.000000
# 6 0.000000 0.000000 0.000000 0.000000 0.000000 0.019520
#
#
# Mechanical properties :
#
#
# Convention : Reuss Voigt Hill
#
# Bulk Modulus (GPa) = 66.51985 75.04245 70.78115
# Shear Modulus (GPa) = 24.53777 31.04270 27.79024
#
# Velocity S-wave (km/s) = 3.31097 3.72406 3.52357
# Velocity P-wave (km/s) = 6.65846 7.21231 6.94091
#
# Compressibility (1/GPa) = 0.01503311
#
# Stress axis : x y z
#
# Youngs Moduli (GPa) = 80.40104 126.32992 52.99506
#
# Poissons Ratio (x) = 0.38569 0.37521
# Poissons Ratio (y) = 0.24547 0.10397
# Poissons Ratio (z) = 0.56924 0.24784
#
# Static dielectric constant tensor:
#      x y z
#    x 4.301680 0.000000 0.000000 
#    y 0.000000 4.386670 0.000000 
#    z 0.000000 0.000000 3.421200 
# 
# 
# High freq. dielectric constant tensor:
#      x y z
#    x 1.899490 0.000000 0.000000 
#    y 0.000000 1.915970 0.000000 
#    z 0.000000 0.000000 1.830220 
# 
# From -- ./inp_files/6131.got.cif
#   From: 2010.03.12/outbox.cif.g09.slc.cpg/sg37_4_cif.got.tgz:6131.got - 2010.04.14 02:25:27.
