data_PCOD8176683
_publ_section_title
;
Structure prediction by ZEFSAII (Michael W. Deem and Ramdas Pophale) SiO2 
 PCOD8176683
Probable space group: C C C 2
;
_chemical_formula_sum "Si O2"
_cell_formula_units_Z 40
_cell_length_a 24.134543
_cell_length_b 8.164446
_cell_length_c 9.850976
_cell_angle_alpha 90.000000
_cell_angle_beta 90.000000
_cell_angle_gamma 90.000000
_cell_volume 1941.087271
_symmetry_space_group_name_H-M "C C C 2"
_symmetry_group_IT_number 37
_symmetry_cell_setting 'orthorhombic'
loop_
_space_group_symop_operation_xyz
x,y,z
-x,-y,z
-x,y,1/2+z
x,-y,1/2+z
1/2+x,1/2+y,z
1/2-x,1/2-y,z
1/2-x,1/2+y,1/2+z
1/2+x,1/2-y,1/2+z
loop_
_atom_site_type_symbol
_atom_site_label
_atom_site_fract_x
_atom_site_fract_y
_atom_site_fract_z
Si Si1 0.139252 0.515995 0.449050
Si Si2 0.810161 0.323044 0.713563
Si Si3 0.093988 0.097622 0.192127
Si Si4 0.965822 0.654466 0.362024
Si Si5 0.427466 0.670190 0.404695
O O1 0.168179 0.558826 0.591798
O O2 0.184880 0.432330 0.350365
O O3 0.085369 0.394992 0.462268
O O4 0.115877 0.682609 0.382996
O O5 0.750000 0.250000 0.686867
O O6 0.844090 0.154137 0.727700
O O7 0.056596 0.256071 0.227705
O O8 0.075403 0.936881 0.270074
O O9 0.089356 0.058644 0.032741
O O10 0.000000 0.500000 0.306256
O O11 0.009588 0.773214 0.436143
#
# Coordination Sequence:
#
# PCOD8176683 Si02
#       5
#     8   8   8   8   8
#     4   9  21  40  61  85 114 153 199 241 295 363
#     4  10  22  41  62  85 115 152 199 249 296 348
#     4  10  22  36  54  86 117 149 196 243 290 354
#     4   9  19  35  57  83 116 155 191 237 297 359
#     4  10  21  36  57  85 120 153 190 242 298 356
#
# _framework density 20.607005999999998
#
# number of rings (size 3 to 8) (size 9 to 14) (size 15 to 20)
#    0.000    2.400    0.000    0.600    0.000   16.800 
#    0.000    1.000    0.000    0.000    0.000    0.000 
#    0.000    0.000    0.000    0.000    0.000    0.000 
#
# Total GULP energy -247843.924154 kJ/mol
# GULP energy per Si atom -12392.196208 kJ/mol
# Density = 2.056010 g / cm^3
# Si number density = 20.607006 Si / 1000 Ang^3
#
#
#
# Elastic Constant Matrix: (Units=GPa)
#
#
# Indices 1 2 3 4 5 6 
#
# 1 123.2350 46.6398 34.7309 0.0000 0.0000 0.0000
# 2 46.6398 88.5103 40.1593 0.0000 0.0000 0.0000
# 3 34.7309 40.1593 75.7692 0.0000 0.0000 0.0000
# 4 0.0000 0.0000 0.0000 34.0804 0.0000 0.0000
# 5 0.0000 0.0000 0.0000 0.0000 20.4095 0.0000
# 6 0.0000 0.0000 0.0000 0.0000 0.0000 28.7152
#
#
#
# Elastic Compliance Matrix: (Units=1/GPa)
#
#
# Indices 1 2 3 4 5 6 
#
# 1 0.010476 -0.004399 -0.002470 0.000000 0.000000 0.000000
# 2 -0.004399 0.016723 -0.006847 0.000000 0.000000 0.000000
# 3 -0.002470 -0.006847 0.017959 0.000000 0.000000 0.000000
# 4 0.000000 0.000000 0.000000 0.029342 0.000000 0.000000
# 5 0.000000 0.000000 0.000000 0.000000 0.048997 0.000000
# 6 0.000000 0.000000 0.000000 0.000000 0.000000 0.034825
#
#
# Mechanical properties :
#
#
# Convention : Reuss Voigt Hill
#
# Bulk Modulus (GPa) = 56.41713 58.95273 57.68493
# Shear Modulus (GPa) = 26.08746 27.70667 26.89706
#
# Velocity S-wave (km/s) = 3.56188 3.67076 3.61673
# Velocity P-wave (km/s) = 6.65981 6.82907 6.74497
#
# Compressibility (1/GPa) = 0.01772511
#
# Stress axis : x y z
#
# Youngs Moduli (GPa) = 95.45902 59.79806 55.68165
#
# Poissons Ratio (x) = 0.26307 0.13754
# Poissons Ratio (y) = 0.41996 0.38125
# Poissons Ratio (z) = 0.23579 0.40943
#
# Static dielectric constant tensor:
#      x y z
#    x 3.814310 0.000000 0.000000 
#    y 0.000000 3.761560 0.000000 
#    z 0.000000 0.000000 3.474940 
# 
# 
# High freq. dielectric constant tensor:
#      x y z
#    x 1.800370 0.000000 0.000000 
#    y 0.000000 1.808110 0.000000 
#    z 0.000000 0.000000 1.791030 
# 
# From -- ./inp_files/2194.got.cif
#   From: 2010.03.12/outbox.cif.g09.slc.cpg/sg37_2_cif.got.tgz:2194.got - 2010.04.14 02:25:27.
