data_PCOD8176786
_publ_section_title
;
Structure prediction by ZEFSAII (Michael W. Deem and Ramdas Pophale) SiO2 
 PCOD8176786
Probable space group: C C C 2
;
_chemical_formula_sum "Si O2"
_cell_formula_units_Z 64
_cell_length_a 25.046850
_cell_length_b 11.021618
_cell_length_c 10.829088
_cell_angle_alpha 90.000000
_cell_angle_beta 90.000000
_cell_angle_gamma 90.000000
_cell_volume 2989.443519
_symmetry_space_group_name_H-M "C C C 2"
_symmetry_group_IT_number 37
_symmetry_cell_setting 'orthorhombic'
loop_
_space_group_symop_operation_xyz
x,y,z
-x,-y,z
-x,y,1/2+z
x,-y,1/2+z
1/2+x,1/2+y,z
1/2-x,1/2-y,z
1/2-x,1/2+y,1/2+z
1/2+x,1/2-y,1/2+z
loop_
_atom_site_type_symbol
_atom_site_label
_atom_site_fract_x
_atom_site_fract_y
_atom_site_fract_z
Si Si1 0.835114 0.261871 0.115680
Si Si2 0.249222 0.942159 0.178749
Si Si3 0.488063 0.139181 0.959378
Si Si4 0.054352 0.203154 0.156275
Si Si5 0.443030 0.289020 0.760025
Si Si6 0.905653 0.227050 0.916531
Si Si7 0.772098 0.112163 0.452226
Si Si8 0.106120 0.945952 0.463874
O O1 0.797497 0.145462 0.130435
O O2 0.807092 0.380972 0.167034
O O3 0.891275 0.236342 0.180391
O O4 0.851560 0.287627 0.972274
O O5 0.243335 0.966097 0.327242
O O6 0.248322 0.056740 0.083909
O O7 0.461703 0.163190 0.825765
O O8 0.541852 0.216947 0.979897
O O9 0.500000 0.000000 0.976900
O O10 0.446252 0.182075 0.063716
O O11 0.090523 0.246125 0.270944
O O12 0.994268 0.161349 0.186928
O O13 0.083957 0.087329 0.098851
O O14 0.432605 0.390670 0.861793
O O15 0.897347 0.088263 0.953791
O O16 0.750000 0.250000 0.438591
O O17 0.835750 0.113772 0.450923
#
# Coordination Sequence:
#
# PCOD8176786 Si02
#       8
#     8   8   8   8   8   8   8   8
#     4  11  21  47  69  97 140 189 223 293 369 423
#     4  11  25  47  77  99 143 188 239 303 374 437
#     4  10  23  44  63  95 140 188 231 282 335 422
#     4  10  24  40  63 103 136 179 230 283 343 426
#     4  10  21  42  68  95 137 181 228 272 351 422
#     4  11  24  40  66  99 134 182 229 278 352 421
#     4  12  25  50  75 108 143 189 241 309 377 444
#     4  11  24  40  70  99 141 178 226 292 356 422
#
# _framework density 21.408666
#
# number of rings (size 3 to 8) (size 9 to 14) (size 15 to 20)
#    0.000    1.250    5.000    0.000    3.500    7.500 
#   11.250    0.000    0.000    0.000    0.000    0.000 
#    0.000    0.000    0.000    0.000    0.000    0.000 
#
# Total GULP energy -396562.917915 kJ/mol
# GULP energy per Si atom -12392.591185 kJ/mol
# Density = 2.135994 g / cm^3
# Si number density = 21.408666 Si / 1000 Ang^3
#
#
#
# Elastic Constant Matrix: (Units=GPa)
#
#
# Indices 1 2 3 4 5 6 
#
# 1 110.6894 29.2247 41.6423 0.0000 0.0000 0.0000
# 2 29.2247 84.9885 30.6448 0.0000 0.0000 0.0000
# 3 41.6423 30.6448 128.8250 0.0000 0.0000 0.0000
# 4 0.0000 0.0000 0.0000 23.6729 0.0000 0.0000
# 5 0.0000 0.0000 0.0000 0.0000 35.6028 0.0000
# 6 0.0000 0.0000 0.0000 0.0000 0.0000 32.7910
#
#
#
# Elastic Compliance Matrix: (Units=1/GPa)
#
#
# Indices 1 2 3 4 5 6 
#
# 1 0.010820 -0.002690 -0.002857 0.000000 0.000000 0.000000
# 2 -0.002690 0.013539 -0.002351 0.000000 0.000000 0.000000
# 3 -0.002857 -0.002351 0.009245 0.000000 0.000000 0.000000
# 4 0.000000 0.000000 0.000000 0.042242 0.000000 0.000000
# 5 0.000000 0.000000 0.000000 0.000000 0.028088 0.000000
# 6 0.000000 0.000000 0.000000 0.000000 0.000000 0.030496
#
#
# Mechanical properties :
#
#
# Convention : Reuss Voigt Hill
#
# Bulk Modulus (GPa) = 56.15877 58.61408 57.38643
# Shear Modulus (GPa) = 32.01775 33.27940 32.64858
#
# Velocity S-wave (km/s) = 3.87143 3.94697 3.90938
# Velocity P-wave (km/s) = 6.80240 6.94331 6.87322
#
# Compressibility (1/GPa) = 0.01780666
#
# Stress axis : x y z
#
# Youngs Moduli (GPa) = 92.42524 73.86018 108.16179
#
# Poissons Ratio (x) = 0.19870 0.30907
# Poissons Ratio (y) = 0.24864 0.25430
# Poissons Ratio (z) = 0.26410 0.17365
#
# Static dielectric constant tensor:
#      x y z
#    x 4.230850 0.000000 0.000000 
#    y 0.000000 3.622370 0.000000 
#    z 0.000000 0.000000 4.368630 
# 
# 
# High freq. dielectric constant tensor:
#      x y z
#    x 1.844190 0.000000 0.000000 
#    y 0.000000 1.811150 0.000000 
#    z 0.000000 0.000000 1.863000 
# 
# From -- ./inp_files/8935.got.cif
#   From: 2010.03.12/outbox.cif.g09.slc.cpg/sg37_5_cif.got.tgz:8935.got - 2010.04.14 02:25:27.
