data_PCOD8176068
_publ_section_title
;
Structure prediction by ZEFSAII (Michael W. Deem and Ramdas Pophale) SiO2 
 PCOD8176068
Probable space group: C M C 21
;
_chemical_formula_sum "Si O2"
_cell_formula_units_Z 36
_cell_length_a 11.966770
_cell_length_b 24.940485
_cell_length_c 5.020476
_cell_angle_alpha 90.000000
_cell_angle_beta 90.000000
_cell_angle_gamma 90.000000
_cell_volume 1498.396445
_symmetry_space_group_name_H-M "C M C 21"
_symmetry_group_IT_number 36
_symmetry_cell_setting 'orthorhombic'
loop_
_space_group_symop_operation_xyz
x,y,z
-x,-y,1/2+z
x,-y,1/2+z
-x,y,z
1/2+x,1/2+y,z
1/2-x,1/2-y,1/2+z
1/2+x,1/2-y,1/2+z
1/2-x,1/2+y,z
loop_
_atom_site_type_symbol
_atom_site_label
_atom_site_fract_x
_atom_site_fract_y
_atom_site_fract_z
Si Si1 0.500000 0.161324 0.461661
Si Si2 0.500000 0.915118 0.462227
Si Si3 0.763455 0.534598 0.954056
Si Si4 0.269797 0.784187 0.871203
Si Si5 0.623340 0.384615 0.749634
Si Si6 0.500000 0.536072 0.566409
O O1 0.500000 0.123404 0.713173
O O2 0.607543 0.199090 0.465049
O O3 0.500000 0.122442 0.214421
O O4 0.605462 0.954110 0.465116
O O5 0.729486 0.489776 0.170864
O O6 0.695322 0.589372 0.010277
O O7 0.277840 0.759146 0.577720
O O8 0.187229 0.834431 0.871897
O O9 0.500000 0.367397 0.638627
O O10 0.608350 0.428098 0.989202
O O11 0.500000 0.518322 0.877793
#
# Coordination Sequence:
#
# PCOD8176068 Si02
#       6
#     4   4   8   8   8   4
#     4  12  26  49  77 102 150 186 240 313 376 437
#     4  12  24  47  71 108 147 195 240 297 366 437
#     4  12  25  43  72 107 149 197 242 293 366 455
#     4  12  29  50  78 108 140 197 257 316 382 446
#     4  10  26  47  72 107 152 192 245 313 370 448
#     4  10  22  42  68 104 145 187 232 288 366 444
#
# _framework density 24.025687000000001
#
# number of rings (size 3 to 8) (size 9 to 14) (size 15 to 20)
#    0.667    0.000    2.222    4.667    3.111    1.778 
#    0.000    0.000    0.000    0.000    0.000    0.000 
#    0.000    0.000    0.000    0.000    0.000    0.000 
#
# Total GULP energy -223240.864749 kJ/mol
# GULP energy per Si atom -12402.270264 kJ/mol
# Density = 2.397100 g / cm^3
# Si number density = 24.025687 Si / 1000 Ang^3
#
#
#
# Elastic Constant Matrix: (Units=GPa)
#
#
# Indices 1 2 3 4 5 6 
#
# 1 156.4206 52.0748 17.0966 0.0000 0.0000 0.0000
# 2 52.0748 120.9022 36.9757 0.0000 0.0000 0.0000
# 3 17.0966 36.9757 128.7942 0.0000 0.0000 0.0000
# 4 0.0000 0.0000 0.0000 35.4731 0.0000 0.0000
# 5 0.0000 0.0000 0.0000 0.0000 39.0205 0.0000
# 6 0.0000 0.0000 0.0000 0.0000 0.0000 -164.4930
#
#
#
# Elastic Compliance Matrix: (Units=1/GPa)
#
#
# Indices 1 2 3 4 5 6 
#
# 1 0.007464 -0.003192 -0.000074 0.000000 0.000000 0.000000
# 2 -0.003192 0.010432 -0.002571 0.000000 0.000000 0.000000
# 3 -0.000074 -0.002571 0.008512 0.000000 0.000000 0.000000
# 4 0.000000 0.000000 0.000000 0.028190 0.000000 0.000000
# 5 0.000000 0.000000 0.000000 0.000000 0.025628 0.000000
# 6 0.000000 0.000000 0.000000 0.000000 0.000000 -0.006079
#
#
# Mechanical properties :
#
#
# Convention : Reuss Voigt Hill
#
# Bulk Modulus (GPa) = 67.87419 68.71235 68.29327
# Shear Modulus (GPa) = 55.10624 1.99812 28.55218
#
# Velocity S-wave (km/s) = 4.79439 0.91294 3.45106
# Velocity P-wave (km/s) = 7.67856 5.45646 6.66082
#
# Compressibility (1/GPa) = 0.01473314
#
# Stress axis : x y z
#
# Youngs Moduli (GPa) = 133.97935 95.85499 117.47565
#
# Poissons Ratio (x) = 0.30598 0.00874
# Poissons Ratio (y) = 0.42767 0.30207
# Poissons Ratio (z) = 0.00996 0.24647
#
# Static dielectric constant tensor:
#      x y z
#    x 4.238100 0.000000 0.000000 
#    y 0.000000 4.271190 0.000000 
#    z 0.000000 0.000000 4.182940 
# 
# 
# High freq. dielectric constant tensor:
#      x y z
#    x 1.980750 0.000000 0.000000 
#    y 0.000000 1.953110 0.000000 
#    z 0.000000 0.000000 1.956530 
# 
# From -- ./inp_files/475.got.cif
#   From: 2010.03.12/outbox.cif.g09.slc.cpg/sg36_1_cif.got.tgz:475.got - 2010.04.14 02:13:53.
