data_PCOD8176499
_publ_section_title
;
Structure prediction by ZEFSAII (Michael W. Deem and Ramdas Pophale) SiO2 
 PCOD8176499
Probable space group: C C C 2
;
_chemical_formula_sum "Si O2"
_cell_formula_units_Z 52
_cell_length_a 9.526881
_cell_length_b 26.349766
_cell_length_c 9.390149
_cell_angle_alpha 90.000000
_cell_angle_beta 90.000000
_cell_angle_gamma 90.000000
_cell_volume 2357.219292
_symmetry_space_group_name_H-M "C C C 2"
_symmetry_group_IT_number 37
_symmetry_cell_setting 'orthorhombic'
loop_
_space_group_symop_operation_xyz
x,y,z
-x,-y,z
-x,y,1/2+z
x,-y,1/2+z
1/2+x,1/2+y,z
1/2-x,1/2-y,z
1/2-x,1/2+y,1/2+z
1/2+x,1/2-y,1/2+z
loop_
_atom_site_type_symbol
_atom_site_label
_atom_site_fract_x
_atom_site_fract_y
_atom_site_fract_z
Si Si1 0.250000 0.250000 0.048311
Si Si2 0.097278 0.434297 0.849525
Si Si3 0.206930 0.141331 0.720915
Si Si4 0.000000 0.500000 0.595418
Si Si5 0.598276 0.669476 0.243888
Si Si6 0.039635 0.259315 0.449406
Si Si7 0.750000 0.250000 0.193766
Si Si8 0.835239 0.636217 0.410820
O O1 0.322878 0.297252 0.126445
O O2 0.375174 0.226631 0.953161
O O3 0.235636 0.398680 0.838423
O O4 0.090066 0.464037 0.699289
O O5 0.108535 0.470406 0.988973
O O6 0.954950 0.402861 0.870172
O O7 0.240882 0.197798 0.782775
O O8 0.292703 0.131654 0.575568
O O9 0.039221 0.137986 0.692791
O O10 0.559515 0.706715 0.371452
O O11 0.703526 0.626597 0.306508
O O12 0.105082 0.250640 0.605229
O O13 0.116918 0.306107 0.373206
#
# Coordination Sequence:
#
# PCOD8176499 Si02
#       8
#     4   8   8   4   8   8   4   8
#     4  12  23  35  56  82 130 210 234 284 320 392
#     4  11  24  46  79 104 135 173 239 307 380 426
#     4  11  24  40  63 101 141 191 229 297 347 439
#     4  10  24  50  78 110 126 172 242 324 372 448
#     4  12  22  39  58  89 148 197 231 277 342 410
#     4  11  22  37  54  89 139 194 242 280 327 403
#     4  10  19  39  54  86 154 182 238 284 336 412
#     4  11  23  42  61 100 135 181 244 293 343 427
#
# _framework density 22.059892000000001
#
# number of rings (size 3 to 8) (size 9 to 14) (size 15 to 20)
#    0.000    0.923    7.692    0.000    8.615    0.000 
#    2.769    0.000    0.000    5.538    0.000    0.000 
#    0.000    0.000    0.000    0.000    0.000    0.000 
#
# Total GULP energy -322206.829741 kJ/mol
# GULP energy per Si atom -12392.570375 kJ/mol
# Density = 2.200968 g / cm^3
# Si number density = 22.059892 Si / 1000 Ang^3
#
#
#
# Elastic Constant Matrix: (Units=GPa)
#
#
# Indices 1 2 3 4 5 6 
#
# 1 153.6027 34.5083 27.4310 0.0000 0.0000 0.0000
# 2 34.5083 90.1622 26.1369 0.0000 0.0000 0.0000
# 3 27.4310 26.1369 66.5759 0.0000 0.0000 0.0000
# 4 0.0000 0.0000 0.0000 26.8973 0.0000 0.0000
# 5 0.0000 0.0000 0.0000 0.0000 35.5199 0.0000
# 6 0.0000 0.0000 0.0000 0.0000 0.0000 31.1905
#
#
#
# Elastic Compliance Matrix: (Units=1/GPa)
#
#
# Indices 1 2 3 4 5 6 
#
# 1 0.007394 -0.002197 -0.002184 0.000000 0.000000 0.000000
# 2 -0.002197 0.013168 -0.004265 0.000000 0.000000 0.000000
# 3 -0.002184 -0.004265 0.017595 0.000000 0.000000 0.000000
# 4 0.000000 0.000000 0.000000 0.037178 0.000000 0.000000
# 5 0.000000 0.000000 0.000000 0.000000 0.028153 0.000000
# 6 0.000000 0.000000 0.000000 0.000000 0.000000 0.032061
#
#
# Mechanical properties :
#
#
# Convention : Reuss Voigt Hill
#
# Bulk Modulus (GPa) = 47.92515 54.05479 50.98997
# Shear Modulus (GPa) = 31.29006 33.53919 32.41463
#
# Velocity S-wave (km/s) = 3.77027 3.90342 3.83742
# Velocity P-wave (km/s) = 6.38165 6.69869 6.54209
#
# Compressibility (1/GPa) = 0.02086587
#
# Stress axis : x y z
#
# Youngs Moduli (GPa) = 135.24730 75.94089 56.83583
#
# Poissons Ratio (x) = 0.16682 0.12413
# Poissons Ratio (y) = 0.29711 0.24238
# Poissons Ratio (z) = 0.29539 0.32385
#
# Static dielectric constant tensor:
#      x y z
#    x 4.423910 0.000000 0.000000 
#    y 0.000000 3.948540 0.000000 
#    z 0.000000 0.000000 4.056090 
# 
# 
# High freq. dielectric constant tensor:
#      x y z
#    x 1.875690 0.000000 0.000000 
#    y 0.000000 1.832790 0.000000 
#    z 0.000000 0.000000 1.879130 
# 
# From -- ./inp_files/6520.got.cif
#   From: 2010.03.12/outbox.cif.g09.slc.cpg/sg37_4_cif.got.tgz:6520.got - 2010.04.14 02:25:27.
