data_PCOD8176149
_publ_section_title
;
Structure prediction by ZEFSAII (Michael W. Deem and Ramdas Pophale) SiO2 
 PCOD8176149
Probable space group: C M C 21
;
_chemical_formula_sum "Si O2"
_cell_formula_units_Z 56
_cell_length_a 13.661038
_cell_length_b 12.704853
_cell_length_c 14.646114
_cell_angle_alpha 90.000000
_cell_angle_beta 90.000000
_cell_angle_gamma 90.000000
_cell_volume 2542.001216
_symmetry_space_group_name_H-M "C M C 21"
_symmetry_group_IT_number 36
_symmetry_cell_setting 'orthorhombic'
loop_
_space_group_symop_operation_xyz
x,y,z
-x,-y,1/2+z
x,-y,1/2+z
-x,y,z
1/2+x,1/2+y,z
1/2-x,1/2-y,1/2+z
1/2+x,1/2-y,1/2+z
1/2-x,1/2+y,z
loop_
_atom_site_type_symbol
_atom_site_label
_atom_site_fract_x
_atom_site_fract_y
_atom_site_fract_z
Si Si1 0.801134 0.301590 0.941850
Si Si2 0.310026 0.490935 0.229340
Si Si3 0.394684 0.959143 0.709347
Si Si4 0.106505 0.492883 0.504006
Si Si5 0.388111 0.271670 0.258108
Si Si6 0.194574 0.903043 0.533774
Si Si7 0.890324 0.925868 0.912294
O O1 0.822528 0.242624 0.847684
O O2 0.688238 0.339354 0.944783
O O3 0.875576 0.398322 0.950940
O O4 0.825023 0.221297 0.024694
O O5 0.196586 0.492992 0.266317
O O6 0.344306 0.372751 0.204740
O O7 0.312922 0.562357 0.138760
O O8 0.377082 0.542158 0.306512
O O9 0.500000 0.979738 0.759175
O O10 0.395849 0.016095 0.612049
O O11 0.380354 0.832586 0.695467
O O12 0.197668 0.415998 0.487161
O O13 0.000000 0.447341 0.472965
O O14 0.500000 0.295671 0.285083
O O15 0.117981 0.970203 0.474724
O O16 0.000000 0.879892 0.923797
#
# Coordination Sequence:
#
# PCOD8176149 Si02
#       7
#     8   8   8   8   8   8   8
#     4  11  22  42  64  92 128 173 213 270 326 396
#     4  11  22  41  67  97 132 169 219 276 328 391
#     4   9  20  39  63  91 125 167 215 264 322 393
#     4   9  20  39  63  92 122 158 210 265 319 383
#     4  11  22  39  67  92 123 174 219 256 321 402
#     4  10  24  41  66  92 132 172 214 267 333 397
#     4  11  24  43  64  96 134 169 220 280 331 392
#
# _framework density 22.029886999999999
#
# number of rings (size 3 to 8) (size 9 to 14) (size 15 to 20)
#    0.000    1.714    2.857    0.857    0.000    9.143 
#    0.000    3.571    0.000    0.000    0.000    0.000 
#    0.000    0.000    0.000    0.000    0.000    0.000 
#
# Total GULP energy -347050.105525 kJ/mol
# GULP energy per Si atom -12394.646626 kJ/mol
# Density = 2.197975 g / cm^3
# Si number density = 22.029887 Si / 1000 Ang^3
#
#
#
# Elastic Constant Matrix: (Units=GPa)
#
#
# Indices 1 2 3 4 5 6 
#
# 1 146.1306 22.6146 10.0762 0.0000 0.0000 0.0000
# 2 22.6146 72.5884 20.8624 0.0000 0.0000 0.0000
# 3 10.0762 20.8624 75.8424 0.0000 0.0000 0.0000
# 4 0.0000 0.0000 0.0000 33.5318 0.0000 0.0000
# 5 0.0000 0.0000 0.0000 0.0000 22.4425 0.0000
# 6 0.0000 0.0000 0.0000 0.0000 0.0000 24.2563
#
#
#
# Elastic Compliance Matrix: (Units=1/GPa)
#
#
# Indices 1 2 3 4 5 6 
#
# 1 0.007199 -0.002137 -0.000369 0.000000 0.000000 0.000000
# 2 -0.002137 0.015593 -0.004005 0.000000 0.000000 0.000000
# 3 -0.000369 -0.004005 0.014336 0.000000 0.000000 0.000000
# 4 0.000000 0.000000 0.000000 0.029822 0.000000 0.000000
# 5 0.000000 0.000000 0.000000 0.000000 0.044558 0.000000
# 6 0.000000 0.000000 0.000000 0.000000 0.000000 0.041226
#
#
# Mechanical properties :
#
#
# Convention : Reuss Voigt Hill
#
# Bulk Modulus (GPa) = 41.48254 44.62974 43.05614
# Shear Modulus (GPa) = 28.76982 32.11335 30.44159
#
# Velocity S-wave (km/s) = 3.61771 3.82215 3.72133
# Velocity P-wave (km/s) = 6.02672 6.30723 6.16857
#
# Compressibility (1/GPa) = 0.02410653
#
# Stress axis : x y z
#
# Youngs Moduli (GPa) = 138.90196 64.13030 69.75448
#
# Poissons Ratio (x) = 0.13704 0.02572
# Poissons Ratio (y) = 0.29683 0.27940
# Poissons Ratio (z) = 0.05121 0.25687
#
# Static dielectric constant tensor:
#      x y z
#    x 4.375640 0.000000 0.000000 
#    y 0.000000 3.857740 0.000000 
#    z 0.000000 0.000000 3.699720 
# 
# 
# High freq. dielectric constant tensor:
#      x y z
#    x 1.879720 0.000000 0.000000 
#    y 0.000000 1.848590 0.000000 
#    z 0.000000 0.000000 1.853040 
# 
# From -- ./inp_files/12146.got.cif
#   From: 2010.03.12/outbox.cif.g09.slc.cpg/sg36_7_cif.got.tgz:12146.got - 2010.04.14 02:13:53.
