data_PCOD8176737
_publ_section_title
;
Structure prediction by ZEFSAII (Michael W. Deem and Ramdas Pophale) SiO2 
 PCOD8176737
Probable space group: C C C 2
;
_chemical_formula_sum "Si O2"
_cell_formula_units_Z 64
_cell_length_a 13.732850
_cell_length_b 8.815399
_cell_length_c 23.620104
_cell_angle_alpha 90.000000
_cell_angle_beta 90.000000
_cell_angle_gamma 90.000000
_cell_volume 2859.462832
_symmetry_space_group_name_H-M "C C C 2"
_symmetry_group_IT_number 37
_symmetry_cell_setting 'orthorhombic'
loop_
_space_group_symop_operation_xyz
x,y,z
-x,-y,z
-x,y,1/2+z
x,-y,1/2+z
1/2+x,1/2+y,z
1/2-x,1/2-y,z
1/2-x,1/2+y,1/2+z
1/2+x,1/2-y,1/2+z
loop_
_atom_site_type_symbol
_atom_site_label
_atom_site_fract_x
_atom_site_fract_y
_atom_site_fract_z
Si Si1 0.771357 0.421455 0.778200
Si Si2 0.667490 0.872831 0.397191
Si Si3 0.643872 0.325231 0.299431
Si Si4 0.560667 0.147420 0.076007
Si Si5 0.979490 0.822929 0.906284
Si Si6 0.892930 0.194389 0.523365
Si Si7 0.783355 0.509133 0.013232
Si Si8 0.153425 0.662195 0.194045
O O1 0.750000 0.250000 0.760985
O O2 0.840671 0.445198 0.834054
O O3 0.665457 0.494710 0.794426
O O4 0.819143 0.500970 0.723134
O O5 0.750000 0.750000 0.390766
O O6 0.570037 0.787908 0.415410
O O7 0.699888 0.993290 0.445421
O O8 0.750000 0.250000 0.306840
O O9 0.571749 0.278124 0.348369
O O10 0.597755 0.263950 0.240928
O O11 0.496521 0.296922 0.057683
O O12 0.578594 0.143383 0.142873
O O13 0.500000 0.000000 0.056959
O O14 0.665820 0.137124 0.043492
O O15 0.908104 0.786085 0.956873
O O16 0.000000 0.000000 0.906751
O O17 0.829789 0.339880 0.540120
O O18 0.831782 0.034738 0.530203
O O19 0.250000 0.750000 0.172597
#
# Coordination Sequence:
#
# PCOD8176737 Si02
#       8
#     8   8   8   8   8   8   8   8
#     4   9  18  37  60  93 127 162 213 262 323 390
#     4  11  22  36  59  95 133 167 212 265 329 398
#     4   9  21  40  64  93 129 171 213 259 328 402
#     4  10  21  42  63  91 123 163 224 275 311 407
#     4  12  23  37  61  94 134 167 211 267 327 394
#     4  10  22  39  62  91 127 166 215 268 330 401
#     4  10  21  39  63  90 126 171 207 272 337 386
#     4   9  21  41  66  90 125 172 214 264 330 387
#
# _framework density 22.381827999999999
#
# number of rings (size 3 to 8) (size 9 to 14) (size 15 to 20)
#    0.000    2.250    1.250    3.000    5.250    1.500 
#    6.750    0.000    5.500    0.000    0.000    0.000 
#    0.000    0.000    0.000    0.000    0.000    0.000 
#
# Total GULP energy -396427.431800 kJ/mol
# GULP energy per Si atom -12388.357244 kJ/mol
# Density = 2.233089 g / cm^3
# Si number density = 22.381828 Si / 1000 Ang^3
#
#
#
# Elastic Constant Matrix: (Units=GPa)
#
#
# Indices 1 2 3 4 5 6 
#
# 1 107.8903 38.4972 49.9573 0.0000 0.0000 0.0000
# 2 38.4972 85.3738 35.1668 0.0000 0.0000 0.0000
# 3 49.9573 35.1668 121.2225 0.0000 0.0000 0.0000
# 4 0.0000 0.0000 0.0000 -3.2968 0.0000 0.0000
# 5 0.0000 0.0000 0.0000 0.0000 43.8300 0.0000
# 6 0.0000 0.0000 0.0000 0.0000 0.0000 34.4418
#
#
#
# Elastic Compliance Matrix: (Units=1/GPa)
#
#
# Indices 1 2 3 4 5 6 
#
# 1 0.012557 -0.004010 -0.004012 0.000000 0.000000 0.000000
# 2 -0.004010 0.014583 -0.002578 0.000000 0.000000 0.000000
# 3 -0.004012 -0.002578 0.010650 0.000000 0.000000 0.000000
# 4 0.000000 0.000000 0.000000 -0.303323 0.000000 0.000000
# 5 0.000000 0.000000 0.000000 0.000000 0.022815 0.000000
# 6 0.000000 0.000000 0.000000 0.000000 0.000000 0.029034
#
#
# Mechanical properties :
#
#
# Convention : Reuss Voigt Hill
#
# Bulk Modulus (GPa) = 60.27161 62.41439 61.34300
# Shear Modulus (GPa) = -26.74467 27.71936 0.48734
#
# Velocity S-wave (km/s) = -3.46052 3.52302 0.46713
# Velocity P-wave (km/s) = 3.31969 6.67050 5.26858
#
# Compressibility (1/GPa) = 0.01659156
#
# Stress axis : x y z
#
# Youngs Moduli (GPa) = 79.63690 68.57161 93.89263
#
# Poissons Ratio (x) = 0.27496 0.37666
# Poissons Ratio (y) = 0.31933 0.24207
# Poissons Ratio (z) = 0.31947 0.17679
#
# Static dielectric constant tensor:
#      x y z
#    x 4.145720 0.000000 0.000000 
#    y 0.000000 4.137900 0.000000 
#    z 0.000000 0.000000 4.111400 
# 
# 
# High freq. dielectric constant tensor:
#      x y z
#    x 1.870970 0.000000 0.000000 
#    y 0.000000 1.878660 0.000000 
#    z 0.000000 0.000000 1.872880 
# 
# From -- ./inp_files/18894.got.cif
#   From: 2010.03.12/outbox.cif.g09.slc.cpg/sg37_10_cif.got.tgz:18894.got - 2010.04.14 02:25:27.
