data_PCOD8176168
_publ_section_title
;
Structure prediction by ZEFSAII (Michael W. Deem and Ramdas Pophale) SiO2 
 PCOD8176168
Probable space group: C M C 21
;
_chemical_formula_sum "Si O2"
_cell_formula_units_Z 64
_cell_length_a 8.416676
_cell_length_b 15.372628
_cell_length_c 23.385233
_cell_angle_alpha 90.000000
_cell_angle_beta 90.000000
_cell_angle_gamma 90.000000
_cell_volume 3025.731793
_symmetry_space_group_name_H-M "C M C 21"
_symmetry_group_IT_number 36
_symmetry_cell_setting 'orthorhombic'
loop_
_space_group_symop_operation_xyz
x,y,z
-x,-y,1/2+z
x,-y,1/2+z
-x,y,z
1/2+x,1/2+y,z
1/2-x,1/2-y,1/2+z
1/2+x,1/2-y,1/2+z
1/2-x,1/2+y,z
loop_
_atom_site_type_symbol
_atom_site_label
_atom_site_fract_x
_atom_site_fract_y
_atom_site_fract_z
Si Si1 0.816666 0.656849 0.782840
Si Si2 0.184581 0.662094 0.051088
Si Si3 0.815417 0.098676 0.168451
Si Si4 0.686079 0.002738 0.360564
Si Si5 0.816840 0.993107 0.483897
Si Si6 0.315953 0.836422 0.783083
Si Si7 0.684874 0.155709 0.550644
Si Si8 0.315928 0.600134 0.665590
O O1 0.767676 0.588560 0.831565
O O2 0.782154 0.753485 0.806242
O O3 0.710648 0.643280 0.726839
O O4 0.000000 0.644438 0.766252
O O5 0.285392 0.641409 0.107395
O O6 0.212580 0.589293 0.003045
O O7 0.243886 0.754319 0.026367
O O8 0.000000 0.665960 0.066863
O O9 0.715606 0.149217 0.216080
O O10 0.000000 0.105589 0.184366
O O11 0.757435 0.999260 0.166908
O O12 0.500000 0.008058 0.374568
O O13 0.784761 0.013620 0.418073
O O14 0.740510 0.079446 0.318203
O O15 0.775454 0.076621 0.521320
O O16 0.000000 0.970076 0.493814
O O17 0.500000 0.817671 0.793030
O O18 0.500000 0.150148 0.535841
O O19 0.712963 0.151563 0.618781
O O20 0.500000 0.606813 0.648592
#
# Coordination Sequence:
#
# PCOD8176168 Si02
#       8
#     8   8   8   8   8   8   8   8
#     4  11  23  41  65  94 129 167 212 260 316 378
#     4  12  25  43  68  96 131 170 213 263 319 381
#     4  11  22  38  64  96 132 168 210 259 316 382
#     4  10  24  45  66  89 124 169 215 265 317 374
#     4  12  26  45  68  95 128 167 215 267 321 380
#     4  11  23  41  65  94 129 167 212 260 316 378
#     4  12  25  43  68  96 131 170 213 263 319 381
#     4  11  22  38  64  96 132 168 210 259 316 382
#
# _framework density 21.151909
#
# number of rings (size 3 to 8) (size 9 to 14) (size 15 to 20)
#    0.000    0.750    2.500    5.625    0.000    4.000 
#    0.000    2.500    0.000    0.000    0.000    0.000 
#    0.000    0.000    0.000    0.000    0.000    0.000 
#
# Total GULP energy -397102.368804 kJ/mol
# GULP energy per Si atom -12409.449025 kJ/mol
# Density = 2.110377 g / cm^3
# Si number density = 21.151909 Si / 1000 Ang^3
#
#
#
# Elastic Constant Matrix: (Units=GPa)
#
#
# Indices 1 2 3 4 5 6 
#
# 1 69.3986 29.1750 19.8729 0.0000 0.0000 0.0000
# 2 29.1750 127.4104 12.9826 0.0000 0.0000 0.0000
# 3 19.8729 12.9826 78.7108 0.0000 0.0000 0.0000
# 4 0.0000 0.0000 0.0000 10.2281 0.0000 0.0000
# 5 0.0000 0.0000 0.0000 0.0000 30.4205 0.0000
# 6 0.0000 0.0000 0.0000 0.0000 0.0000 34.8854
#
#
#
# Elastic Compliance Matrix: (Units=1/GPa)
#
#
# Indices 1 2 3 4 5 6 
#
# 1 0.016941 -0.003502 -0.003700 0.000000 0.000000 0.000000
# 2 -0.003502 0.008707 -0.000552 0.000000 0.000000 0.000000
# 3 -0.003700 -0.000552 0.013730 0.000000 0.000000 0.000000
# 4 0.000000 0.000000 0.000000 0.097769 0.000000 0.000000
# 5 0.000000 0.000000 0.000000 0.000000 0.032873 0.000000
# 6 0.000000 0.000000 0.000000 0.000000 0.000000 0.028665
#
#
# Mechanical properties :
#
#
# Convention : Reuss Voigt Hill
#
# Bulk Modulus (GPa) = 41.89295 44.39784 43.14540
# Shear Modulus (GPa) = 22.50734 29.33943 25.92338
#
# Velocity S-wave (km/s) = 3.26556 3.72840 3.50463
# Velocity P-wave (km/s) = 5.83672 6.29048 6.06784
#
# Compressibility (1/GPa) = 0.02387037
#
# Stress axis : x y z
#
# Youngs Moduli (GPa) = 59.02739 114.85200 72.83401
#
# Poissons Ratio (x) = 0.40225 0.26946
# Poissons Ratio (y) = 0.20673 0.04019
# Poissons Ratio (z) = 0.21838 0.06338
#
# Static dielectric constant tensor:
#      x y z
#    x 3.719870 0.000000 0.000000 
#    y 0.000000 4.095450 0.000000 
#    z 0.000000 0.000000 3.671800 
# 
# 
# High freq. dielectric constant tensor:
#      x y z
#    x 1.833810 0.000000 0.000000 
#    y 0.000000 1.847950 0.000000 
#    z 0.000000 0.000000 1.817680 
# 
# From -- ./inp_files/16585.got.cif
#   From: 2010.03.12/outbox.cif.g09.slc.cpg/sg36_9_cif.got.tgz:16585.got - 2010.04.14 02:13:53.
