data_PCOD8176207
_publ_section_title
;
Structure prediction by ZEFSAII (Michael W. Deem and Ramdas Pophale) SiO2 
 PCOD8176207
Probable space group: C M C 21
;
_chemical_formula_sum "Si O2"
_cell_formula_units_Z 64
_cell_length_a 8.392175
_cell_length_b 29.106254
_cell_length_c 12.548792
_cell_angle_alpha 90.000000
_cell_angle_beta 90.000000
_cell_angle_gamma 90.000000
_cell_volume 3065.227882
_symmetry_space_group_name_H-M "C M C 21"
_symmetry_group_IT_number 36
_symmetry_cell_setting 'orthorhombic'
loop_
_space_group_symop_operation_xyz
x,y,z
-x,-y,1/2+z
x,-y,1/2+z
-x,y,z
1/2+x,1/2+y,z
1/2-x,1/2-y,1/2+z
1/2+x,1/2-y,1/2+z
1/2-x,1/2+y,z
loop_
_atom_site_type_symbol
_atom_site_label
_atom_site_fract_x
_atom_site_fract_y
_atom_site_fract_z
Si Si1 0.683930 0.069082 0.396290
Si Si2 0.678989 0.577344 0.615516
Si Si3 0.181308 0.663652 0.705199
Si Si4 0.688498 0.118394 0.913022
Si Si5 0.186538 0.835483 0.827616
Si Si6 0.685007 0.027661 0.799751
Si Si7 0.812699 0.319178 0.598648
Si Si8 0.190794 0.726514 0.520863
O O1 0.500000 0.070462 0.430902
O O2 0.798053 0.061189 0.495789
O O3 0.726191 0.115498 0.333739
O O4 0.720988 0.024668 0.326339
O O5 0.500000 0.595702 0.631841
O O6 0.806265 0.617290 0.636462
O O7 0.713397 0.534954 0.693291
O O8 0.262072 0.652547 0.820526
O O9 0.257854 0.703212 0.630797
O O10 0.000000 0.677547 0.723029
O O11 0.500000 0.122974 0.903550
O O12 0.739278 0.065324 0.890228
O O13 0.740939 0.135482 0.030550
O O14 0.218198 0.815958 0.709464
O O15 0.000000 0.841995 0.846189
O O16 0.251256 0.800374 0.916092
O O17 0.500000 0.035554 0.775160
O O18 0.766204 0.276928 0.521847
O O19 0.000000 0.319647 0.622947
O O20 0.000000 0.727847 0.518594
#
# Coordination Sequence:
#
# PCOD8176207 Si02
#       8
#     8   8   8   8   8   8   8   8
#     4  11  22  39  64  91 121 162 214 267 320 377
#     4  11  21  34  56  88 123 157 199 257 318 373
#     4   9  18  36  62  85 114 156 205 258 308 369
#     4   8  17  37  62  89 119 158 205 255 310 371
#     4  12  26  44  64  91 130 169 214 264 321 382
#     4   9  20  39  63  88 118 164 217 260 310 381
#     4  11  24  41  64  94 131 170 211 260 321 386
#     4  11  23  40  65  94 124 162 211 263 318 381
#
# _framework density 20.879360999999999
#
# number of rings (size 3 to 8) (size 9 to 14) (size 15 to 20)
#    0.000    1.750    1.250    4.125    1.750    2.500 
#    0.000    7.500    0.000    0.000    0.000    0.000 
#    0.000    0.000    0.000    0.000    0.000    0.000 
#
# Total GULP energy -396599.608299 kJ/mol
# GULP energy per Si atom -12393.737759 kJ/mol
# Density = 2.083184 g / cm^3
# Si number density = 20.879361 Si / 1000 Ang^3
#
#
#
# Elastic Constant Matrix: (Units=GPa)
#
#
# Indices 1 2 3 4 5 6 
#
# 1 38.1152 13.2497 20.8378 0.0000 0.0000 0.0000
# 2 13.2497 111.8312 40.0493 0.0000 0.0000 0.0000
# 3 20.8378 40.0493 99.2842 0.0000 0.0000 0.0000
# 4 0.0000 0.0000 0.0000 20.7578 0.0000 0.0000
# 5 0.0000 0.0000 0.0000 0.0000 21.8177 0.0000
# 6 0.0000 0.0000 0.0000 0.0000 0.0000 23.6515
#
#
#
# Elastic Compliance Matrix: (Units=1/GPa)
#
#
# Indices 1 2 3 4 5 6 
#
# 1 0.029854 -0.001512 -0.005656 0.000000 0.000000 0.000000
# 2 -0.001512 0.010528 -0.003930 0.000000 0.000000 0.000000
# 3 -0.005656 -0.003930 0.012844 0.000000 0.000000 0.000000
# 4 0.000000 0.000000 0.000000 0.048175 0.000000 0.000000
# 5 0.000000 0.000000 0.000000 0.000000 0.045834 0.000000
# 6 0.000000 0.000000 0.000000 0.000000 0.000000 0.042281
#
#
# Mechanical properties :
#
#
# Convention : Reuss Voigt Hill
#
# Bulk Modulus (GPa) = 32.22465 44.16713 38.19589
# Shear Modulus (GPa) = 22.51696 24.91833 23.71764
#
# Velocity S-wave (km/s) = 3.28751 3.45837 3.37402
# Velocity P-wave (km/s) = 5.46604 6.09480 5.78896
#
# Compressibility (1/GPa) = 0.03103214
#
# Stress axis : x y z
#
# Youngs Moduli (GPa) = 33.49646 94.98069 77.85511
#
# Poissons Ratio (x) = 0.14356 0.44035
# Poissons Ratio (y) = 0.05063 0.30595
# Poissons Ratio (z) = 0.18946 0.37325
#
# Static dielectric constant tensor:
#      x y z
#    x 3.564420 0.000000 0.000000 
#    y 0.000000 3.799110 0.000000 
#    z 0.000000 0.000000 3.947260 
# 
# 
# High freq. dielectric constant tensor:
#      x y z
#    x 1.800720 0.000000 0.000000 
#    y 0.000000 1.815750 0.000000 
#    z 0.000000 0.000000 1.821340 
# 
# From -- ./inp_files/7271.got.cif
#   From: 2010.03.12/outbox.cif.g09.slc.cpg/sg36_4_cif.got.tgz:7271.got - 2010.04.14 02:13:53.
