data_PCOD8176642
_publ_section_title
;
Structure prediction by ZEFSAII (Michael W. Deem and Ramdas Pophale) SiO2 
 PCOD8176642
Probable space group: C C C 2
;
_chemical_formula_sum "Si O2"
_cell_formula_units_Z 48
_cell_length_a 10.883661
_cell_length_b 21.651892
_cell_length_c 8.886645
_cell_angle_alpha 90.000000
_cell_angle_beta 90.000000
_cell_angle_gamma 90.000000
_cell_volume 2094.154357
_symmetry_space_group_name_H-M "C C C 2"
_symmetry_group_IT_number 37
_symmetry_cell_setting 'orthorhombic'
loop_
_space_group_symop_operation_xyz
x,y,z
-x,-y,z
-x,y,1/2+z
x,-y,1/2+z
1/2+x,1/2+y,z
1/2-x,1/2-y,z
1/2-x,1/2+y,1/2+z
1/2+x,1/2-y,1/2+z
loop_
_atom_site_type_symbol
_atom_site_label
_atom_site_fract_x
_atom_site_fract_y
_atom_site_fract_z
Si Si1 0.083892 0.803577 0.993290
Si Si2 0.924244 0.563592 0.479479
Si Si3 0.500000 0.500000 0.314311
Si Si4 0.150996 0.935649 0.064632
Si Si5 0.942251 0.648786 0.213637
Si Si6 0.389256 0.248117 0.805799
Si Si7 0.250000 0.750000 0.748810
O O1 0.119897 0.864389 0.082870
O O2 0.174306 0.795360 0.854409
O O3 0.949389 0.799634 0.916298
O O4 0.096006 0.753856 0.125100
O O5 0.795430 0.548753 0.561214
O O6 0.888268 0.594258 0.319328
O O7 0.000000 0.500000 0.457335
O O8 0.001313 0.614342 0.571197
O O9 0.420939 0.454389 0.415187
O O10 0.600128 0.465907 0.214576
O O11 0.840741 0.701774 0.159871
O O12 0.043344 0.682008 0.322778
O O13 0.250000 0.250000 0.858207
#
# Coordination Sequence:
#
# PCOD8176642 Si02
#       7
#     8   8   4   8   8   8   4
#     4  11  21  42  67  95 134 184 218 292 362 420
#     4  12  27  45  73 106 149 195 245 295 367 428
#     4  10  26  46  70 104 128 192 244 298 360 410
#     4  11  24  47  71  98 142 181 245 300 352 437
#     4  11  24  46  68 106 140 193 231 300 361 431
#     4  11  23  42  66 101 138 178 231 289 365 433
#     4  10  20  40  72  94 140 178 232 282 370 420
#
# _framework density 22.920946000000001
#
# number of rings (size 3 to 8) (size 9 to 14) (size 15 to 20)
#    0.000    1.000    2.500    4.500    4.667    0.000 
#   16.500    0.000    0.000    0.000    0.000    0.000 
#    0.000    0.000    0.000    0.000    0.000    0.000 
#
# Total GULP energy -297412.730223 kJ/mol
# GULP energy per Si atom -12392.197093 kJ/mol
# Density = 2.286878 g / cm^3
# Si number density = 22.920946 Si / 1000 Ang^3
#
#
#
# Elastic Constant Matrix: (Units=GPa)
#
#
# Indices 1 2 3 4 5 6 
#
# 1 161.6518 43.6223 19.2007 0.0000 0.0000 0.0000
# 2 43.6223 97.5637 10.6109 0.0000 0.0000 0.0000
# 3 19.2007 10.6109 53.9897 0.0000 0.0000 0.0000
# 4 0.0000 0.0000 0.0000 40.0435 0.0000 0.0000
# 5 0.0000 0.0000 0.0000 0.0000 -1.8463 0.0000
# 6 0.0000 0.0000 0.0000 0.0000 0.0000 27.9331
#
#
#
# Elastic Compliance Matrix: (Units=1/GPa)
#
#
# Indices 1 2 3 4 5 6 
#
# 1 0.007236 -0.003020 -0.001980 0.000000 0.000000 0.000000
# 2 -0.003020 0.011734 -0.001232 0.000000 0.000000 0.000000
# 3 -0.001980 -0.001232 0.019468 0.000000 0.000000 0.000000
# 4 0.000000 0.000000 0.000000 0.024973 0.000000 0.000000
# 5 0.000000 0.000000 0.000000 0.000000 -0.541625 0.000000
# 6 0.000000 0.000000 0.000000 0.000000 0.000000 0.035800
#
#
# Mechanical properties :
#
#
# Convention : Reuss Voigt Hill
#
# Bulk Modulus (GPa) = 38.49945 51.11924 44.80935
# Shear Modulus (GPa) = -11.86829 29.21081 8.67126
#
# Velocity S-wave (km/s) = -2.27797 3.57377 1.94713
# Velocity P-wave (km/s) = 3.14868 6.27534 4.96458
#
# Compressibility (1/GPa) = 0.02597439
#
# Stress axis : x y z
#
# Youngs Moduli (GPa) = 138.19215 85.22198 51.36543
#
# Poissons Ratio (x) = 0.25738 0.10170
# Poissons Ratio (y) = 0.41736 0.06329
# Poissons Ratio (z) = 0.27361 0.10500
#
# Static dielectric constant tensor:
#      x y z
#    x 4.641350 0.000000 0.000000 
#    y 0.000000 4.123780 0.000000 
#    z 0.000000 0.000000 3.966310 
# 
# 
# High freq. dielectric constant tensor:
#      x y z
#    x 1.913180 0.000000 0.000000 
#    y 0.000000 1.902430 0.000000 
#    z 0.000000 0.000000 1.911500 
# 
# From -- ./inp_files/2954.got.cif
#   From: 2010.03.12/outbox.cif.g09.slc.cpg/sg37_2_cif.got.tgz:2954.got - 2010.04.14 02:25:27.
