data_PCOD8176891
_publ_section_title
;
Structure prediction by ZEFSAII (Michael W. Deem and Ramdas Pophale) SiO2 
 PCOD8176891
Probable space group: C C C 2
;
_chemical_formula_sum "Si O2"
_cell_formula_units_Z 64
_cell_length_a 8.885774
_cell_length_b 10.629316
_cell_length_c 30.177767
_cell_angle_alpha 90.000000
_cell_angle_beta 90.000000
_cell_angle_gamma 90.000000
_cell_volume 2850.281032
_symmetry_space_group_name_H-M "C C C 2"
_symmetry_group_IT_number 37
_symmetry_cell_setting 'orthorhombic'
loop_
_space_group_symop_operation_xyz
x,y,z
-x,-y,z
-x,y,1/2+z
x,-y,1/2+z
1/2+x,1/2+y,z
1/2-x,1/2-y,z
1/2-x,1/2+y,1/2+z
1/2+x,1/2-y,1/2+z
loop_
_atom_site_type_symbol
_atom_site_label
_atom_site_fract_x
_atom_site_fract_y
_atom_site_fract_z
Si Si1 0.384981 0.886800 0.063330
Si Si2 0.411742 0.868889 0.795154
Si Si3 0.173364 0.622760 0.161790
Si Si4 0.347726 0.556200 0.849441
Si Si5 0.583667 0.716707 0.433582
Si Si6 0.353658 0.139408 0.195476
Si Si7 0.074799 0.127626 0.526869
Si Si8 0.117270 0.342417 0.871352
O O1 0.294481 0.896973 0.109861
O O2 0.255239 0.895570 0.026081
O O3 0.465595 0.749953 0.057413
O O4 0.500000 0.000000 0.056391
O O5 0.234915 0.862546 0.811247
O O6 0.408714 0.823480 0.744704
O O7 0.515953 0.789404 0.829580
O O8 0.500000 0.000000 0.795357
O O9 0.250000 0.750000 0.180636
O O10 0.224015 0.500000 0.191068
O O11 0.994756 0.639154 0.163249
O O12 0.500000 0.500000 0.827371
O O13 0.411728 0.620709 0.892949
O O14 0.198326 0.475023 0.863278
O O15 0.750000 0.750000 0.448118
O O16 0.510639 0.653966 0.477150
O O17 0.488383 0.837775 0.415527
O O18 0.250000 0.250000 0.177077
O O19 0.000000 0.000000 0.545652
O O20 0.250000 0.250000 0.880943
#
# Coordination Sequence:
#
# PCOD8176891 Si02
#       8
#     8   8   8   8   8   8   8   8
#     4  11  23  48  74  99 135 183 222 281 355 420
#     4  10  22  43  62  93 138 179 233 290 343 402
#     4  11  23  49  71  96 142 176 223 287 353 424
#     4  11  23  40  63  94 132 184 232 284 331 412
#     4  12  23  44  65  93 141 181 228 288 346 399
#     4  11  25  43  70 106 139 179 227 294 351 414
#     4  11  26  46  70 108 140 177 234 288 343 426
#     4  11  24  39  66  96 127 188 236 276 350 406
#
# _framework density 22.453925000000002
#
# number of rings (size 3 to 8) (size 9 to 14) (size 15 to 20)
#    0.000    1.000    7.500    0.375    1.750    3.500 
#    2.250    0.000    0.000    0.000    0.000    0.000 
#    0.000    0.000    0.000    0.000    0.000    0.000 
#
# Total GULP energy -396427.560191 kJ/mol
# GULP energy per Si atom -12388.361256 kJ/mol
# Density = 2.240282 g / cm^3
# Si number density = 22.453925 Si / 1000 Ang^3
#
#
#
# Elastic Constant Matrix: (Units=GPa)
#
#
# Indices 1 2 3 4 5 6 
#
# 1 98.4776 44.2230 13.7343 0.0000 0.0000 0.0000
# 2 44.2230 142.1810 23.2018 0.0000 0.0000 0.0000
# 3 13.7343 23.2018 94.4644 0.0000 0.0000 0.0000
# 4 0.0000 0.0000 0.0000 27.2826 0.0000 0.0000
# 5 0.0000 0.0000 0.0000 0.0000 19.7933 0.0000
# 6 0.0000 0.0000 0.0000 0.0000 0.0000 39.5981
#
#
#
# Elastic Compliance Matrix: (Units=1/GPa)
#
#
# Indices 1 2 3 4 5 6 
#
# 1 0.011869 -0.003552 -0.000853 0.000000 0.000000 0.000000
# 2 -0.003552 0.008390 -0.001544 0.000000 0.000000 0.000000
# 3 -0.000853 -0.001544 0.011089 0.000000 0.000000 0.000000
# 4 0.000000 0.000000 0.000000 0.036653 0.000000 0.000000
# 5 0.000000 0.000000 0.000000 0.000000 0.050522 0.000000
# 6 0.000000 0.000000 0.000000 0.000000 0.000000 0.025254
#
#
# Mechanical properties :
#
#
# Convention : Reuss Voigt Hill
#
# Bulk Modulus (GPa) = 51.41695 55.27123 53.34409
# Shear Modulus (GPa) = 30.83372 34.26572 32.54972
#
# Velocity S-wave (km/s) = 3.70969 3.91070 3.81152
# Velocity P-wave (km/s) = 6.42633 6.71270 6.57107
#
# Compressibility (1/GPa) = 0.01944884
#
# Stress axis : x y z
#
# Youngs Moduli (GPa) = 84.25426 119.18670 90.17681
#
# Poissons Ratio (x) = 0.42340 0.07693
# Poissons Ratio (y) = 0.29930 0.13926
# Poissons Ratio (z) = 0.07188 0.18406
#
# Static dielectric constant tensor:
#      x y z
#    x 15.744900 0.000000 0.000000 
#    y 0.000000 17.956330 0.000000 
#    z 0.000000 0.000000 4.010340 
# 
# 
# High freq. dielectric constant tensor:
#      x y z
#    x 1.880090 0.000000 0.000000 
#    y 0.000000 1.892100 0.000000 
#    z 0.000000 0.000000 1.875240 
# 
# From -- ./inp_files/20416.got.cif
#   From: 2010.03.12/outbox.cif.g09.slc.cpg/sg37_11_cif.got.tgz:20416.got - 2010.04.14 02:25:27.
