data_PCOD8176627
_publ_section_title
;
Structure prediction by ZEFSAII (Michael W. Deem and Ramdas Pophale) SiO2 
 PCOD8176627
Probable space group: C C C 2
;
_chemical_formula_sum "Si O2"
_cell_formula_units_Z 64
_cell_length_a 14.599980
_cell_length_b 8.982722
_cell_length_c 21.378852
_cell_angle_alpha 90.000000
_cell_angle_beta 90.000000
_cell_angle_gamma 90.000000
_cell_volume 2803.784308
_symmetry_space_group_name_H-M "C C C 2"
_symmetry_group_IT_number 37
_symmetry_cell_setting 'orthorhombic'
loop_
_space_group_symop_operation_xyz
x,y,z
-x,-y,z
-x,y,1/2+z
x,-y,1/2+z
1/2+x,1/2+y,z
1/2-x,1/2-y,z
1/2-x,1/2+y,1/2+z
1/2+x,1/2-y,1/2+z
loop_
_atom_site_type_symbol
_atom_site_label
_atom_site_fract_x
_atom_site_fract_y
_atom_site_fract_z
Si Si1 0.243793 0.086368 0.442170
Si Si2 0.319182 0.357116 0.307229
Si Si3 0.590118 0.083608 0.508358
Si Si4 0.844066 0.163597 0.238318
Si Si5 0.176065 0.041428 0.135323
Si Si6 0.096240 0.071709 0.006311
Si Si7 0.479635 0.845464 0.775115
Si Si8 0.877218 0.635171 0.151176
O O1 0.250000 0.250000 0.473982
O O2 0.244396 0.105419 0.367464
O O3 0.323102 0.984460 0.471781
O O4 0.143046 0.012826 0.448965
O O5 0.250000 0.250000 0.266631
O O6 0.343286 0.507397 0.273443
O O7 0.413360 0.262110 0.315621
O O8 0.585508 0.256236 0.489268
O O9 0.590686 0.072873 0.583741
O O10 0.500000 0.000000 0.483542
O O11 0.750000 0.250000 0.248312
O O12 0.925996 0.261105 0.263313
O O13 0.860392 0.113212 0.165834
O O14 0.117092 0.185378 0.154579
O O15 0.278227 0.063354 0.159982
O O16 0.170143 0.035725 0.060690
O O17 0.000000 0.000000 0.024641
O O18 0.438942 0.910244 0.709596
O O19 0.500000 0.000000 0.813050
#
# Coordination Sequence:
#
# PCOD8176627 Si02
#       8
#     8   8   8   8   8   8   8   8
#     4  11  25  48  71 102 139 190 245 305 355 422
#     4  11  25  48  74  99 142 187 240 302 360 425
#     4  11  23  43  70 105 145 187 243 294 364 431
#     4  12  26  42  68 106 143 188 237 291 362 434
#     4  10  21  38  63  99 145 186 225 288 354 425
#     4  11  24  41  68 101 142 187 238 295 359 425
#     4  12  25  44  71 107 144 184 239 293 366 438
#     4  10  20  39  68 100 146 189 224 291 363 427
#
# _framework density 22.826294000000001
#
# number of rings (size 3 to 8) (size 9 to 14) (size 15 to 20)
#    0.000    1.000    2.500    4.125    3.500    2.500 
#    2.250    7.500    0.000    0.000    0.000    0.000 
#    0.000    0.000    0.000    0.000    0.000    0.000 
#
# Total GULP energy -396544.419686 kJ/mol
# GULP energy per Si atom -12392.013115 kJ/mol
# Density = 2.277434 g / cm^3
# Si number density = 22.826294 Si / 1000 Ang^3
#
#
#
# Elastic Constant Matrix: (Units=GPa)
#
#
# Indices 1 2 3 4 5 6 
#
# 1 139.2099 66.2107 30.8661 0.0000 0.0000 0.0000
# 2 66.2107 173.8430 33.1206 0.0000 0.0000 0.0000
# 3 30.8661 33.1206 47.4745 0.0000 0.0000 0.0000
# 4 0.0000 0.0000 0.0000 13.8221 0.0000 0.0000
# 5 0.0000 0.0000 0.0000 0.0000 17.2613 0.0000
# 6 0.0000 0.0000 0.0000 0.0000 0.0000 51.2095
#
#
#
# Elastic Compliance Matrix: (Units=1/GPa)
#
#
# Indices 1 2 3 4 5 6 
#
# 1 0.009443 -0.002799 -0.004187 0.000000 0.000000 0.000000
# 2 -0.002799 0.007464 -0.003387 0.000000 0.000000 0.000000
# 3 -0.004187 -0.003387 0.026149 0.000000 0.000000 0.000000
# 4 0.000000 0.000000 0.000000 0.072348 0.000000 0.000000
# 5 0.000000 0.000000 0.000000 0.000000 0.057933 0.000000
# 6 0.000000 0.000000 0.000000 0.000000 0.000000 0.019528
#
#
# Mechanical properties :
#
#
# Convention : Reuss Voigt Hill
#
# Bulk Modulus (GPa) = 44.82331 68.99137 56.90734
# Shear Modulus (GPa) = 22.61965 31.81392 27.21678
#
# Velocity S-wave (km/s) = 3.15135 3.73733 3.45678
# Velocity P-wave (km/s) = 5.73765 6.99383 6.39665
#
# Compressibility (1/GPa) = 0.02230982
#
# Stress axis : x y z
#
# Youngs Moduli (GPa) = 105.90014 133.98305 38.24209
#
# Poissons Ratio (x) = 0.37499 0.16011
# Poissons Ratio (y) = 0.29639 0.12954
# Poissons Ratio (z) = 0.44338 0.45385
#
# Static dielectric constant tensor:
#      x y z
#    x 4.090350 0.000000 0.000000 
#    y 0.000000 4.468250 0.000000 
#    z 0.000000 0.000000 4.104730 
# 
# 
# High freq. dielectric constant tensor:
#      x y z
#    x 1.908480 0.000000 0.000000 
#    y 0.000000 1.919830 0.000000 
#    z 0.000000 0.000000 1.883930 
# 
# From -- ./inp_files/18928.got.cif
#   From: 2010.03.12/outbox.cif.g09.slc.cpg/sg37_10_cif.got.tgz:18928.got - 2010.04.14 02:25:27.
