data_PCOD8176621
_publ_section_title
;
Structure prediction by ZEFSAII (Michael W. Deem and Ramdas Pophale) SiO2 
 PCOD8176621
Probable space group: C C C 2
;
_chemical_formula_sum "Si O2"
_cell_formula_units_Z 60
_cell_length_a 7.352369
_cell_length_b 24.556817
_cell_length_c 16.171231
_cell_angle_alpha 90.000000
_cell_angle_beta 90.000000
_cell_angle_gamma 90.000000
_cell_volume 2919.728371
_symmetry_space_group_name_H-M "C C C 2"
_symmetry_group_IT_number 37
_symmetry_cell_setting 'orthorhombic'
loop_
_space_group_symop_operation_xyz
x,y,z
-x,-y,z
-x,y,1/2+z
x,-y,1/2+z
1/2+x,1/2+y,z
1/2-x,1/2-y,z
1/2-x,1/2+y,1/2+z
1/2+x,1/2-y,1/2+z
loop_
_atom_site_type_symbol
_atom_site_label
_atom_site_fract_x
_atom_site_fract_y
_atom_site_fract_z
Si Si1 0.560412 0.096683 0.760930
Si Si2 0.455165 0.059606 0.936897
Si Si3 0.558106 0.559009 0.982986
Si Si4 0.382002 0.205736 0.348582
Si Si5 0.414455 0.556413 0.677792
Si Si6 0.761779 0.638926 0.497136
Si Si7 0.709405 0.643678 0.685645
Si Si8 0.250000 0.250000 0.793603
O O1 0.518236 0.062512 0.842573
O O2 0.634100 0.155521 0.786835
O O3 0.709904 0.063015 0.710461
O O4 0.382693 0.105953 0.705576
O O5 0.244041 0.076034 0.938573
O O6 0.560862 0.100780 0.996802
O O7 0.500000 0.000000 0.972129
O O8 0.500000 0.500000 0.947958
O O9 0.407608 0.604203 0.960435
O O10 0.593755 0.554629 0.079700
O O11 0.250000 0.250000 0.308678
O O12 0.306952 0.190674 0.439719
O O13 0.586024 0.230381 0.352868
O O14 0.500000 0.500000 0.711894
O O15 0.533913 0.607540 0.707502
O O16 0.718116 0.659463 0.588931
O O17 0.692896 0.699323 0.736409
#
# Coordination Sequence:
#
# PCOD8176621 Si02
#       8
#     8   8   8   8   8   8   8   4
#     4  10  23  39  56  91 122 160 204 252 313 376
#     4  11  22  36  57  86 129 167 204 252 311 370
#     4  10  20  39  60  86 121 168 203 251 306 371
#     4  10  22  40  63  87 122 160 203 262 319 368
#     4  10  22  38  61  90 124 161 208 252 312 374
#     4  10  22  39  63  94 120 162 216 257 308 382
#     4  10  22  41  65  89 121 164 211 260 313 377
#     4  10  22  42  68  88 128 162 206 266 332 370
#
# _framework density 20.549858
#
# number of rings (size 3 to 8) (size 9 to 14) (size 15 to 20)
#    0.000    1.867    1.333    1.600    2.800    5.333 
#    0.000    0.000    5.867    0.000    0.000    0.000 
#    0.000    0.000    0.000    0.000    0.000    0.000 
#
# Total GULP energy -372048.350483 kJ/mol
# GULP energy per Si atom -12401.611683 kJ/mol
# Density = 2.050309 g / cm^3
# Si number density = 20.549858 Si / 1000 Ang^3
#
#
#
# Elastic Constant Matrix: (Units=GPa)
#
#
# Indices 1 2 3 4 5 6 
#
# 1 136.2589 43.1833 28.5886 0.0000 0.0000 0.0000
# 2 43.1833 96.5134 21.1845 0.0000 0.0000 0.0000
# 3 28.5886 21.1845 50.4058 0.0000 0.0000 0.0000
# 4 0.0000 0.0000 0.0000 9.9512 0.0000 0.0000
# 5 0.0000 0.0000 0.0000 0.0000 22.5402 0.0000
# 6 0.0000 0.0000 0.0000 0.0000 0.0000 36.4759
#
#
#
# Elastic Compliance Matrix: (Units=1/GPa)
#
#
# Indices 1 2 3 4 5 6 
#
# 1 0.009178 -0.003265 -0.003833 0.000000 0.000000 0.000000
# 2 -0.003265 0.012576 -0.003433 0.000000 0.000000 0.000000
# 3 -0.003833 -0.003433 0.023456 0.000000 0.000000 0.000000
# 4 0.000000 0.000000 0.000000 0.100491 0.000000 0.000000
# 5 0.000000 0.000000 0.000000 0.000000 0.044365 0.000000
# 6 0.000000 0.000000 0.000000 0.000000 0.000000 0.027415
#
#
# Mechanical properties :
#
#
# Convention : Reuss Voigt Hill
#
# Bulk Modulus (GPa) = 41.41431 52.12123 46.76777
# Shear Modulus (GPa) = 20.27628 26.47489 23.37559
#
# Velocity S-wave (km/s) = 3.14457 3.59322 3.37635
# Velocity P-wave (km/s) = 5.77765 6.52942 6.16500
#
# Compressibility (1/GPa) = 0.02414624
#
# Stress axis : x y z
#
# Youngs Moduli (GPa) = 108.95597 79.51758 42.63290
#
# Poissons Ratio (x) = 0.25964 0.16342
# Poissons Ratio (y) = 0.35576 0.14638
# Poissons Ratio (z) = 0.41765 0.27302
#
# Static dielectric constant tensor:
#      x y z
#    x 3.849310 0.000000 0.000000 
#    y 0.000000 3.786870 0.000000 
#    z 0.000000 0.000000 3.483840 
# 
# 
# High freq. dielectric constant tensor:
#      x y z
#    x 1.815690 0.000000 0.000000 
#    y 0.000000 1.808500 0.000000 
#    z 0.000000 0.000000 1.790060 
# 
# From -- ./inp_files/14031.got.cif
#   From: 2010.03.12/outbox.cif.g09.slc.cpg/sg37_8_cif.got.tgz:14031.got - 2010.04.14 02:25:27.
