data_PCOD8176031
_publ_section_title
;
Structure prediction by ZEFSAII (Michael W. Deem and Ramdas Pophale) SiO2 
 PCOD8176031
Probable space group: C M C 21
;
_chemical_formula_sum "Si O2"
_cell_formula_units_Z 64
_cell_length_a 8.859084
_cell_length_b 15.277828
_cell_length_c 23.612301
_cell_angle_alpha 90.000000
_cell_angle_beta 90.000000
_cell_angle_gamma 90.000000
_cell_volume 3195.867364
_symmetry_space_group_name_H-M "C M C 21"
_symmetry_group_IT_number 36
_symmetry_cell_setting 'orthorhombic'
loop_
_space_group_symop_operation_xyz
x,y,z
-x,-y,1/2+z
x,-y,1/2+z
-x,y,z
1/2+x,1/2+y,z
1/2-x,1/2-y,1/2+z
1/2+x,1/2-y,1/2+z
1/2-x,1/2+y,z
loop_
_atom_site_type_symbol
_atom_site_label
_atom_site_fract_x
_atom_site_fract_y
_atom_site_fract_z
Si Si1 0.325710 0.168496 0.914190
Si Si2 0.823617 0.341957 0.899813
Si Si3 0.323405 0.002086 0.483015
Si Si4 0.675001 0.088934 0.793358
Si Si5 0.326225 0.348914 0.184669
Si Si6 0.822043 0.903000 0.788104
Si Si7 0.674182 0.847551 0.672196
Si Si8 0.177467 0.995070 0.602185
O O1 0.500000 0.192628 0.922955
O O2 0.224356 0.252042 0.930538
O O3 0.292400 0.143176 0.849620
O O4 0.278007 0.090171 0.955542
O O5 0.776870 0.422432 0.939362
O O6 0.735291 0.346781 0.840856
O O7 0.000000 0.343449 0.886734
O O8 0.500000 0.006270 0.497377
O O9 0.228402 0.017244 0.539194
O O10 0.500000 0.061689 0.789455
O O11 0.722008 0.148069 0.740192
O O12 0.775967 0.003059 0.794905
O O13 0.500000 0.363603 0.202601
O O14 0.305397 0.254315 0.155308
O O15 0.272455 0.423916 0.141524
O O16 0.754328 0.863962 0.731312
O O17 0.000000 0.895192 0.784290
O O18 0.500000 0.873224 0.678394
O O19 0.745144 0.905768 0.622645
O O20 0.000000 0.981255 0.604096
#
# Coordination Sequence:
#
# PCOD8176031 Si02
#       8
#     8   8   8   8   8   8   8   8
#     4  10  22  41  63  91 125 160 202 251 306 364
#     4  11  23  41  64  93 125 161 206 253 305 366
#     4  10  23  44  64  85 121 164 207 255 306 362
#     4  11  21  37  63  92 124 163 201 246 305 368
#     4  10  23  41  61  90 126 160 199 251 305 365
#     4  12  23  37  61  93 128 163 200 249 307 366
#     4  11  23  41  65  92 123 164 205 249 309 367
#     4  11  24  42  63  90 122 159 208 260 307 360
#
# _framework density 20.025860999999999
#
# number of rings (size 3 to 8) (size 9 to 14) (size 15 to 20)
#    0.000    1.250    2.500    3.375    0.000    7.000 
#    0.000    3.750    0.000    0.000    0.000    0.000 
#    0.000    0.000    0.000    0.000    0.000    0.000 
#
# Total GULP energy -396999.509229 kJ/mol
# GULP energy per Si atom -12406.234663 kJ/mol
# Density = 1.998028 g / cm^3
# Si number density = 20.025861 Si / 1000 Ang^3
#
#
#
# Elastic Constant Matrix: (Units=GPa)
#
#
# Indices 1 2 3 4 5 6 
#
# 1 87.6315 31.1337 40.9541 0.0000 0.0000 0.0000
# 2 31.1337 102.6650 15.1198 0.0000 0.0000 0.0000
# 3 40.9541 15.1198 80.6075 0.0000 0.0000 0.0000
# 4 0.0000 0.0000 0.0000 13.6940 0.0000 0.0000
# 5 0.0000 0.0000 0.0000 0.0000 33.7718 0.0000
# 6 0.0000 0.0000 0.0000 0.0000 0.0000 33.7374
#
#
#
# Elastic Compliance Matrix: (Units=1/GPa)
#
#
# Indices 1 2 3 4 5 6 
#
# 1 0.016309 -0.003831 -0.007568 0.000000 0.000000 0.000000
# 2 -0.003831 0.010917 -0.000101 0.000000 0.000000 0.000000
# 3 -0.007568 -0.000101 0.016270 0.000000 0.000000 0.000000
# 4 0.000000 0.000000 0.000000 0.073025 0.000000 0.000000
# 5 0.000000 0.000000 0.000000 0.000000 0.029610 0.000000
# 6 0.000000 0.000000 0.000000 0.000000 0.000000 0.029641
#
#
# Mechanical properties :
#
#
# Convention : Reuss Voigt Hill
#
# Bulk Modulus (GPa) = 48.79032 49.47990 49.13511
# Shear Modulus (GPa) = 24.31856 28.48706 26.40281
#
# Velocity S-wave (km/s) = 3.48854 3.77571 3.63497
# Velocity P-wave (km/s) = 6.37520 6.61586 6.49665
#
# Compressibility (1/GPa) = 0.02049587
#
# Stress axis : x y z
#
# Youngs Moduli (GPa) = 61.31476 91.59860 61.46428
#
# Poissons Ratio (x) = 0.35095 0.46513
# Poissons Ratio (y) = 0.23492 0.00622
# Poissons Ratio (z) = 0.46400 0.00927
#
# Static dielectric constant tensor:
#      x y z
#    x 3.669590 0.000000 0.000000 
#    y 0.000000 3.841710 0.000000 
#    z 0.000000 0.000000 3.585710 
# 
# 
# High freq. dielectric constant tensor:
#      x y z
#    x 1.785570 0.000000 0.000000 
#    y 0.000000 1.797150 0.000000 
#    z 0.000000 0.000000 1.776060 
# 
# From -- ./inp_files/16635.got.cif
#   From: 2010.03.12/outbox.cif.g09.slc.cpg/sg36_9_cif.got.tgz:16635.got - 2010.04.14 02:13:53.
