data_PCOD8176693
_publ_section_title
;
Structure prediction by ZEFSAII (Michael W. Deem and Ramdas Pophale) SiO2 
 PCOD8176693
Probable space group: C C C 2
;
_chemical_formula_sum "Si O2"
_cell_formula_units_Z 64
_cell_length_a 10.552812
_cell_length_b 10.552810
_cell_length_c 27.950778
_cell_angle_alpha 90.000000
_cell_angle_beta 90.000000
_cell_angle_gamma 90.000000
_cell_volume 3112.649509
_symmetry_space_group_name_H-M "C C C 2"
_symmetry_group_IT_number 37
_symmetry_cell_setting 'orthorhombic'
loop_
_space_group_symop_operation_xyz
x,y,z
-x,-y,z
-x,y,1/2+z
x,-y,1/2+z
1/2+x,1/2+y,z
1/2-x,1/2-y,z
1/2-x,1/2+y,1/2+z
1/2+x,1/2-y,1/2+z
loop_
_atom_site_type_symbol
_atom_site_label
_atom_site_fract_x
_atom_site_fract_y
_atom_site_fract_z
Si Si1 0.200511 0.001037 0.182740
Si Si2 0.144250 0.644250 0.858878
Si Si3 0.501036 0.299489 0.682740
Si Si4 0.504372 0.292029 0.432810
Si Si5 0.899736 0.399736 0.750521
Si Si6 0.356789 0.143211 0.505505
Si Si7 0.207971 0.004372 0.932810
Si Si8 0.856074 0.643926 0.611984
O O1 0.101875 0.101875 0.161542
O O2 0.263532 0.058441 0.230317
O O3 0.302060 0.976472 0.140864
O O4 0.128855 0.871145 0.197456
O O5 0.250000 0.750000 0.853082
O O6 0.099589 0.599588 0.807394
O O7 0.203826 0.522640 0.886421
O O8 0.022640 0.703826 0.886421
O O9 0.558441 0.236468 0.730317
O O10 0.476471 0.197940 0.640864
O O11 0.480771 0.201023 0.478801
O O12 0.405280 0.405280 0.433731
O O13 0.646805 0.353195 0.432349
O O14 0.000000 0.500000 0.731137
O O15 0.250000 0.250000 0.505551
O O16 0.298977 0.019229 0.478801
O O17 0.398134 0.101866 0.558875
O O18 0.750000 0.750000 0.606875
#
# Coordination Sequence:
#
# PCOD8176693 Si02
#       8
#     8   8   8   8   8   8   8   8
#     4  10  21  37  56  79 111 149 189 236 286 340
#     4   9  18  31  47  73 103 132 178 231 275 334
#     4  10  21  37  56  79 111 149 189 236 286 340
#     4   8  14  26  45  72 107 141 174 221 278 330
#     4  12  23  37  57  78 108 147 190 238 292 343
#     4   8  14  24  43  73 109 142 175 220 270 332
#     4   8  14  26  45  72 107 141 174 221 278 330
#     4   9  17  31  49  77 114 145 185 235 281 335
#
# _framework density 20.561260999999998
#
# number of rings (size 3 to 8) (size 9 to 14) (size 15 to 20)
#    0.000    2.750    1.250    2.625    0.000    2.000 
#    0.000    7.500    0.000    0.000   13.000    0.000 
#    0.000    0.000    0.000    0.000    0.000    0.000 
#
# Total GULP energy -396574.289498 kJ/mol
# GULP energy per Si atom -12392.946547 kJ/mol
# Density = 2.051446 g / cm^3
# Si number density = 20.561261 Si / 1000 Ang^3
#
#
#
# Elastic Constant Matrix: (Units=GPa)
#
#
# Indices 1 2 3 4 5 6 
#
# 1 77.2018 63.4807 51.8232 0.0000 0.0000 0.0000
# 2 63.4807 77.2016 51.8231 0.0000 0.0000 0.0000
# 3 51.8232 51.8231 169.0374 0.0000 0.0000 0.0000
# 4 0.0000 0.0000 0.0000 5.4881 0.0000 0.0000
# 5 0.0000 0.0000 0.0000 0.0000 5.4878 0.0000
# 6 0.0000 0.0000 0.0000 0.0000 0.0000 48.9693
#
#
#
# Elastic Compliance Matrix: (Units=1/GPa)
#
#
# Indices 1 2 3 4 5 6 
#
# 1 0.041032 -0.031849 -0.002815 0.000000 0.000000 0.000000
# 2 -0.031849 0.041032 -0.002815 0.000000 0.000000 0.000000
# 3 -0.002815 -0.002815 0.007642 0.000000 0.000000 0.000000
# 4 0.000000 0.000000 0.000000 0.182211 0.000000 0.000000
# 5 0.000000 0.000000 0.000000 0.000000 0.182223 0.000000
# 6 0.000000 0.000000 0.000000 0.000000 0.000000 0.020421
#
#
# Mechanical properties :
#
#
# Convention : Reuss Voigt Hill
#
# Bulk Modulus (GPa) = 67.81478 73.07721 70.44600
# Shear Modulus (GPa) = 9.01819 22.40996 15.71407
#
# Velocity S-wave (km/s) = 2.09655 3.30496 2.76752
# Velocity P-wave (km/s) = 6.23812 7.08393 6.67444
#
# Compressibility (1/GPa) = 0.01474605
#
# Stress axis : x y z
#
# Youngs Moduli (GPa) = 24.37145 24.37141 130.85723
#
# Poissons Ratio (x) = 0.77622 0.36837
# Poissons Ratio (y) = 0.77622 0.36837
# Poissons Ratio (z) = 0.06861 0.06861
#
# Static dielectric constant tensor:
#      x y z
#    x 3.742190 0.000000 0.000000 
#    y 0.000000 3.742190 0.000000 
#    z 0.000000 0.000000 3.777950 
# 
# 
# High freq. dielectric constant tensor:
#      x y z
#    x 1.798040 0.000000 0.000000 
#    y 0.000000 1.798040 0.000000 
#    z 0.000000 0.000000 1.789900 
# 
# From -- ./inp_files/20437.got.cif
#   From: 2010.03.12/outbox.cif.g09.slc.cpg/sg37_11_cif.got.tgz:20437.got - 2010.04.14 02:25:27.
