data_PCOD8176170
_publ_section_title
;
Structure prediction by ZEFSAII (Michael W. Deem and Ramdas Pophale) SiO2 
 PCOD8176170
Probable space group: C M C 21
;
_chemical_formula_sum "Si O2"
_cell_formula_units_Z 48
_cell_length_a 27.103206
_cell_length_b 9.107699
_cell_length_c 7.611686
_cell_angle_alpha 90.000000
_cell_angle_beta 90.000000
_cell_angle_gamma 90.000000
_cell_volume 1878.928264
_symmetry_space_group_name_H-M "C M C 21"
_symmetry_group_IT_number 36
_symmetry_cell_setting 'orthorhombic'
loop_
_space_group_symop_operation_xyz
x,y,z
-x,-y,1/2+z
x,-y,1/2+z
-x,y,z
1/2+x,1/2+y,z
1/2-x,1/2-y,1/2+z
1/2+x,1/2-y,1/2+z
1/2-x,1/2+y,z
loop_
_atom_site_type_symbol
_atom_site_label
_atom_site_fract_x
_atom_site_fract_y
_atom_site_fract_z
Si Si1 0.896209 0.833592 0.403690
Si Si2 0.260958 0.229348 0.803982
Si Si3 0.636280 0.355635 0.786774
Si Si4 0.603021 0.143578 0.070886
Si Si5 0.291292 0.955041 0.606362
Si Si6 0.500000 0.024464 0.154577
Si Si7 0.500000 0.245465 0.474712
O O1 0.868597 0.802277 0.585919
O O2 0.890582 0.700424 0.269118
O O3 0.953922 0.853156 0.451529
O O4 0.876410 0.974115 0.300448
O O5 0.307688 0.332059 0.844778
O O6 0.214604 0.339549 0.772038
O O7 0.272025 0.119302 0.639687
O O8 0.253285 0.118792 0.967188
O O9 0.601268 0.266549 0.919693
O O10 0.651621 0.040328 0.040768
O O11 0.550953 0.061543 0.049143
O O12 0.500000 0.108244 0.337742
O O13 0.500000 0.844557 0.160905
#
# Coordination Sequence:
#
# PCOD8176170 Si02
#       7
#     8   8   8   8   8   4   4
#     4  11  24  43  69  98 141 184 238 294 359 426
#     4  11  27  44  73 105 143 190 239 300 366 438
#     4  11  25  43  71 101 140 190 236 295 367 430
#     4  10  25  45  69 104 143 184 240 301 357 441
#     4  11  26  46  71 106 143 187 243 300 368 434
#     4  10  24  45  69 100 146 181 242 291 367 416
#     4  10  26  41  69 104 134 189 238 303 357 432
#
# _framework density 25.546478
#
# number of rings (size 3 to 8) (size 9 to 14) (size 15 to 20)
#    0.000    1.333    1.667    1.000   11.667    4.000 
#    0.000    0.000    0.000    0.000    0.000    0.000 
#    0.000    0.000    0.000    0.000    0.000    0.000 
#
# Total GULP energy -297486.320216 kJ/mol
# GULP energy per Si atom -12395.263342 kJ/mol
# Density = 2.548833 g / cm^3
# Si number density = 25.546478 Si / 1000 Ang^3
#
#
#
# Elastic Constant Matrix: (Units=GPa)
#
#
# Indices 1 2 3 4 5 6 
#
# 1 119.2299 37.3990 -12.9776 0.0000 0.0000 0.0000
# 2 37.3990 85.8799 -15.7149 0.0000 0.0000 0.0000
# 3 -12.9776 -15.7149 79.6433 0.0000 0.0000 0.0000
# 4 0.0000 0.0000 0.0000 37.9020 0.0000 0.0000
# 5 0.0000 0.0000 0.0000 0.0000 27.4890 0.0000
# 6 0.0000 0.0000 0.0000 0.0000 0.0000 34.0509
#
#
#
# Elastic Compliance Matrix: (Units=1/GPa)
#
#
# Indices 1 2 3 4 5 6 
#
# 1 0.009761 -0.004108 0.000780 0.000000 0.000000 0.000000
# 2 -0.004108 0.013809 0.002055 0.000000 0.000000 0.000000
# 3 0.000780 0.002055 0.013089 0.000000 0.000000 0.000000
# 4 0.000000 0.000000 0.000000 0.026384 0.000000 0.000000
# 5 0.000000 0.000000 0.000000 0.000000 0.036378 0.000000
# 6 0.000000 0.000000 0.000000 0.000000 0.000000 0.029368
#
#
# Mechanical properties :
#
#
# Convention : Reuss Voigt Hill
#
# Bulk Modulus (GPa) = 29.31402 33.57401 31.44401
# Shear Modulus (GPa) = 35.03751 38.29150 36.66450
#
# Velocity S-wave (km/s) = 3.70742 3.87576 3.79252
# Velocity P-wave (km/s) = 5.46135 5.76190 5.61364
#
# Compressibility (1/GPa) = 0.03411337
#
# Stress axis : x y z
#
# Youngs Moduli (GPa) = 102.45324 72.41576 76.40214
#
# Poissons Ratio (x) = 0.29747 -0.05959
# Poissons Ratio (y) = 0.42086 -0.15704
# Poissons Ratio (z) = -0.07990 -0.14884
#
# Static dielectric constant tensor:
#      x y z
#    x 4.606510 0.000000 0.000000 
#    y 0.000000 4.479360 0.000000 
#    z 0.000000 0.000000 4.741290 
# 
# 
# High freq. dielectric constant tensor:
#      x y z
#    x 2.019640 0.000000 0.000000 
#    y 0.000000 2.012060 0.000000 
#    z 0.000000 0.000000 2.032260 
# 
# From -- ./inp_files/6022.got.cif
#   From: 2010.03.12/outbox.cif.g09.slc.cpg/sg36_4_cif.got.tgz:6022.got - 2010.04.14 02:13:53.
