data_PCOD8176023
_publ_section_title
;
Structure prediction by ZEFSAII (Michael W. Deem and Ramdas Pophale) SiO2 
 PCOD8176023
Probable space group: C M C 21
;
_chemical_formula_sum "Si O2"
_cell_formula_units_Z 44
_cell_length_a 9.600785
_cell_length_b 10.066037
_cell_length_c 24.535688
_cell_angle_alpha 90.000000
_cell_angle_beta 90.000000
_cell_angle_gamma 90.000000
_cell_volume 2371.174452
_symmetry_space_group_name_H-M "C M C 21"
_symmetry_group_IT_number 36
_symmetry_cell_setting 'orthorhombic'
loop_
_space_group_symop_operation_xyz
x,y,z
-x,-y,1/2+z
x,-y,1/2+z
-x,y,z
1/2+x,1/2+y,z
1/2-x,1/2-y,1/2+z
1/2+x,1/2-y,1/2+z
1/2-x,1/2+y,z
loop_
_atom_site_type_symbol
_atom_site_label
_atom_site_fract_x
_atom_site_fract_y
_atom_site_fract_z
Si Si1 0.834521 0.872871 0.872140
Si Si2 0.346102 0.345391 0.320601
Si Si3 0.664873 0.893385 0.981167
Si Si4 0.000000 0.726541 0.110334
Si Si5 0.000000 0.865785 0.216595
Si Si6 0.241324 0.861368 0.549277
Si Si7 0.000000 0.017628 0.113259
O O1 0.773402 0.761974 0.831427
O O2 0.751702 0.854738 0.928007
O O3 0.000000 0.850025 0.880327
O O4 0.800775 0.016249 0.847537
O O5 0.500000 0.302562 0.344051
O O6 0.362192 0.364401 0.255012
O O7 0.500000 0.907795 0.968824
O O8 0.690620 0.776680 0.024097
O O9 0.728827 0.031833 0.002130
O O10 0.000000 0.736996 0.176526
O O11 0.871575 0.646338 0.088245
O O12 0.000000 0.873645 0.084032
O O13 0.000000 0.999096 0.179215
O O14 0.131780 0.903507 0.593846
#
# Coordination Sequence:
#
# PCOD8176023 Si02
#       7
#     8   8   8   4   4   8   4
#     4  11  24  39  64  92 127 160 214 254 314 370
#     4   9  21  43  62  89 123 162 204 262 305 369
#     4  12  25  38  61  94 126 174 203 249 310 379
#     4  10  22  41  61  95 123 157 208 261 301 363
#     4   8  20  44  67  85 123 169 203 259 321 357
#     4  12  23  40  64  93 131 163 207 253 308 370
#     4  10  22  41  64  90 128 162 203 260 304 372
#
# _framework density 18.556204000000001
#
# number of rings (size 3 to 8) (size 9 to 14) (size 15 to 20)
#    1.091    0.364    3.636    1.636    2.545    5.818 
#    0.000    0.000    2.000    0.000    0.000    0.000 
#    0.000    0.000    0.000    0.000    0.000    0.000 
#
# Total GULP energy -272636.895056 kJ/mol
# GULP energy per Si atom -12392.586139 kJ/mol
# Density = 1.851397 g / cm^3
# Si number density = 18.556204 Si / 1000 Ang^3
#
#
#
# Elastic Constant Matrix: (Units=GPa)
#
#
# Indices 1 2 3 4 5 6 
#
# 1 108.9302 26.5674 27.1266 0.0000 0.0000 0.0000
# 2 26.5674 70.3079 8.6734 0.0000 0.0000 0.0000
# 3 27.1266 8.6734 95.3599 0.0000 0.0000 0.0000
# 4 0.0000 0.0000 0.0000 27.3890 0.0000 0.0000
# 5 0.0000 0.0000 0.0000 0.0000 -1.0760 0.0000
# 6 0.0000 0.0000 0.0000 0.0000 0.0000 32.2373
#
#
#
# Elastic Compliance Matrix: (Units=1/GPa)
#
#
# Indices 1 2 3 4 5 6 
#
# 1 0.010769 -0.003733 -0.002724 0.000000 0.000000 0.000000
# 2 -0.003733 0.015679 -0.000364 0.000000 0.000000 0.000000
# 3 -0.002724 -0.000364 0.011295 0.000000 0.000000 0.000000
# 4 0.000000 0.000000 0.000000 0.036511 0.000000 0.000000
# 5 0.000000 0.000000 0.000000 0.000000 -0.929380 0.000000
# 6 0.000000 0.000000 0.000000 0.000000 0.000000 0.031020
#
#
# Mechanical properties :
#
#
# Convention : Reuss Voigt Hill
#
# Bulk Modulus (GPa) = 41.49392 44.37033 42.93213
# Shear Modulus (GPa) = -6.23106 25.85877 9.81386
#
# Velocity S-wave (km/s) = -1.83446 3.73706 2.30222
# Velocity P-wave (km/s) = 4.23353 6.52565 5.50031
#
# Compressibility (1/GPa) = 0.02409991
#
# Stress axis : x y z
#
# Youngs Moduli (GPa) = 92.85890 63.78056 88.53830
#
# Poissons Ratio (x) = 0.23811 0.24117
# Poissons Ratio (y) = 0.34667 0.03223
# Poissons Ratio (z) = 0.25293 0.02322
#
# Static dielectric constant tensor:
#      x y z
#    x 3.497750 0.000000 0.000000 
#    y 0.000000 3.425370 0.000000 
#    z 0.000000 0.000000 3.307710 
# 
# 
# High freq. dielectric constant tensor:
#      x y z
#    x 1.725630 0.000000 0.000000 
#    y 0.000000 1.722230 0.000000 
#    z 0.000000 0.000000 1.716750 
# 
# From -- ./inp_files/17274.got.cif
#   From: 2010.03.12/outbox.cif.g09.slc.cpg/sg36_9_cif.got.tgz:17274.got - 2010.04.14 02:13:53.
