data_PCOD8176566
_publ_section_title
;
Structure prediction by ZEFSAII (Michael W. Deem and Ramdas Pophale) SiO2 
 PCOD8176566
Probable space group: C C C 2
;
_chemical_formula_sum "Si O2"
_cell_formula_units_Z 60
_cell_length_a 23.554275
_cell_length_b 11.890837
_cell_length_c 8.456156
_cell_angle_alpha 90.000000
_cell_angle_beta 90.000000
_cell_angle_gamma 90.000000
_cell_volume 2368.400550
_symmetry_space_group_name_H-M "C C C 2"
_symmetry_group_IT_number 37
_symmetry_cell_setting 'orthorhombic'
loop_
_space_group_symop_operation_xyz
x,y,z
-x,-y,z
-x,y,1/2+z
x,-y,1/2+z
1/2+x,1/2+y,z
1/2-x,1/2-y,z
1/2-x,1/2+y,1/2+z
1/2+x,1/2-y,1/2+z
loop_
_atom_site_type_symbol
_atom_site_label
_atom_site_fract_x
_atom_site_fract_y
_atom_site_fract_z
Si Si1 0.700098 0.836161 0.587950
Si Si2 0.448478 0.072893 0.432684
Si Si3 0.000000 0.000000 0.972946
Si Si4 0.888086 0.812356 0.729982
Si Si5 0.414719 0.439873 0.220624
Si Si6 0.167712 0.547728 0.785894
Si Si7 0.883976 0.268761 0.569642
Si Si8 0.499003 0.201690 0.680756
O O1 0.750000 0.750000 0.631539
O O2 0.642598 0.760225 0.592749
O O3 0.708278 0.886917 0.411050
O O4 0.697790 0.936058 0.718979
O O5 0.388033 0.016384 0.393134
O O6 0.456084 0.100989 0.619954
O O7 0.459422 0.186457 0.332023
O O8 0.500000 0.000000 0.366975
O O9 0.954038 0.072962 0.874894
O O10 0.040019 0.079538 0.077873
O O11 0.956855 0.806462 0.712030
O O12 0.877256 0.946289 0.714901
O O13 0.862558 0.765852 0.895127
O O14 0.372985 0.334121 0.194832
O O15 0.151216 0.624844 0.635394
O O16 0.951811 0.292772 0.545198
#
# Coordination Sequence:
#
# PCOD8176566 Si02
#       8
#     8   8   4   8   8   8   8   8
#     4  12  29  57  85 111 144 191 258 332 404 463
#     4  11  22  35  64 106 155 196 243 285 369 459
#     4  10  20  36  56  98 162 216 262 294 356 428
#     4  12  24  44  69 106 153 200 260 314 378 449
#     4  11  23  36  63  99 150 217 261 307 355 439
#     4  11  27  50  81 113 153 194 250 321 394 461
#     4  11  25  43  70 109 159 205 251 306 382 470
#     4  11  21  35  60 104 154 203 238 291 357 460
#
# _framework density 25.333552000000001
#
# number of rings (size 3 to 8) (size 9 to 14) (size 15 to 20)
#    0.000    0.800    4.000    3.600    5.600    0.000 
#    4.800    1.333    0.000    0.000    0.000    0.000 
#    0.000    0.000    0.000    0.000    0.000    0.000 
#
# Total GULP energy -371651.882424 kJ/mol
# GULP energy per Si atom -12388.396081 kJ/mol
# Density = 2.527589 g / cm^3
# Si number density = 25.333552 Si / 1000 Ang^3
#
#
#
# Elastic Constant Matrix: (Units=GPa)
#
#
# Indices 1 2 3 4 5 6 
#
# 1 67.8846 52.7831 23.5057 0.0000 0.0000 0.0000
# 2 52.7831 128.6049 30.3547 0.0000 0.0000 0.0000
# 3 23.5057 30.3547 97.5962 0.0000 0.0000 0.0000
# 4 0.0000 0.0000 0.0000 31.0558 0.0000 0.0000
# 5 0.0000 0.0000 0.0000 0.0000 19.9568 0.0000
# 6 0.0000 0.0000 0.0000 0.0000 0.0000 49.1059
#
#
#
# Elastic Compliance Matrix: (Units=1/GPa)
#
#
# Indices 1 2 3 4 5 6 
#
# 1 0.022286 -0.008504 -0.002722 0.000000 0.000000 0.000000
# 2 -0.008504 0.011637 -0.001571 0.000000 0.000000 0.000000
# 3 -0.002722 -0.001571 0.011391 0.000000 0.000000 0.000000
# 4 0.000000 0.000000 0.000000 0.032200 0.000000 0.000000
# 5 0.000000 0.000000 0.000000 0.000000 0.050108 0.000000
# 6 0.000000 0.000000 0.000000 0.000000 0.000000 0.020364
#
#
# Mechanical properties :
#
#
# Convention : Reuss Voigt Hill
#
# Bulk Modulus (GPa) = 50.71540 56.37476 53.54508
# Shear Modulus (GPa) = 27.75399 32.51984 30.13691
#
# Velocity S-wave (km/s) = 3.31349 3.58672 3.45281
# Velocity P-wave (km/s) = 5.89080 6.28124 6.08915
#
# Compressibility (1/GPa) = 0.01971788
#
# Stress axis : x y z
#
# Youngs Moduli (GPa) = 44.87138 85.93315 87.79110
#
# Poissons Ratio (x) = 0.73079 0.23901
# Poissons Ratio (y) = 0.38159 0.13793
# Poissons Ratio (z) = 0.12216 0.13501
#
# Static dielectric constant tensor:
#      x y z
#    x 3.972510 0.000000 0.000000 
#    y 0.000000 4.613710 0.000000 
#    z 0.000000 0.000000 4.784520 
# 
# 
# High freq. dielectric constant tensor:
#      x y z
#    x 1.940050 0.000000 0.000000 
#    y 0.000000 2.027780 0.000000 
#    z 0.000000 0.000000 2.026100 
# 
# From -- ./inp_files/4791.got.cif
#   From: 2010.03.12/outbox.cif.g09.slc.cpg/sg37_3_cif.got.tgz:4791.got - 2010.04.14 02:25:27.
