data_PCOD8176991
_publ_section_title
;
Structure prediction by ZEFSAII (Michael W. Deem and Ramdas Pophale) SiO2 
 PCOD8176991
Probable space group: C C C 2
;
_chemical_formula_sum "Si O2"
_cell_formula_units_Z 52
_cell_length_a 9.542590
_cell_length_b 18.192073
_cell_length_c 14.000007
_cell_angle_alpha 90.000000
_cell_angle_beta 90.000000
_cell_angle_gamma 90.000000
_cell_volume 2430.394130
_symmetry_space_group_name_H-M "C C C 2"
_symmetry_group_IT_number 37
_symmetry_cell_setting 'orthorhombic'
loop_
_space_group_symop_operation_xyz
x,y,z
-x,-y,z
-x,y,1/2+z
x,-y,1/2+z
1/2+x,1/2+y,z
1/2-x,1/2-y,z
1/2-x,1/2+y,1/2+z
1/2+x,1/2-y,1/2+z
loop_
_atom_site_type_symbol
_atom_site_label
_atom_site_fract_x
_atom_site_fract_y
_atom_site_fract_z
Si Si1 0.314153 0.670501 0.516710
Si Si2 0.250000 0.750000 0.822522
Si Si3 0.185847 0.329499 0.628334
Si Si4 0.750000 0.590223 0.822522
Si Si5 0.616075 0.861278 0.175415
Si Si6 0.500000 0.500000 0.865002
Si Si7 0.500000 0.000000 0.280043
Si Si8 0.116075 0.138722 0.469629
O O1 0.250000 0.750000 0.529070
O O2 0.274112 0.639935 0.413825
O O3 0.245546 0.624660 0.603485
O O4 0.481940 0.670252 0.527557
O O5 0.347625 0.802445 0.758109
O O6 0.152375 0.802445 0.886936
O O7 0.250000 0.250000 0.615974
O O8 0.225889 0.360065 0.731220
O O9 0.254454 0.375340 0.541560
O O10 0.018060 0.329748 0.617487
O O11 0.614311 0.540469 0.799629
O O12 0.885689 0.540469 0.845416
O O13 0.581851 0.941455 0.215440
O O14 0.418149 0.558545 0.929605
#
# Coordination Sequence:
#
# PCOD8176991 Si02
#       8
#     8   4   8   8   8   4   4   8
#     4  11  24  42  66 101 128 175 220 283 331 404
#     4  12  26  44  70 104 136 182 222 296 330 414
#     4  11  24  42  66 101 128 175 220 283 331 404
#     4  10  24  40  68  90 140 172 224 270 339 405
#     4  11  26  42  71  95 139 172 230 274 347 394
#     4  10  24  44  62 104 130 190 218 278 338 410
#     4  10  24  44  62 104 130 190 218 278 338 410
#     4  11  26  42  71  95 139 172 230 274 347 394
#
# _framework density 21.395707000000002
#
# number of rings (size 3 to 8) (size 9 to 14) (size 15 to 20)
#    0.000    1.231    1.538    2.308    8.615    8.615 
#    0.000    0.000    0.000    0.000    0.000    0.000 
#    0.000    0.000    0.000    0.000    0.000    0.000 
#
# Total GULP energy -322409.650033 kJ/mol
# GULP energy per Si atom -12400.371155 kJ/mol
# Density = 2.134701 g / cm^3
# Si number density = 21.395707 Si / 1000 Ang^3
#
#
#
# Elastic Constant Matrix: (Units=GPa)
#
#
# Indices 1 2 3 4 5 6 
#
# 1 138.2643 16.7743 42.8457 0.0000 0.0000 0.0000
# 2 16.7743 83.2003 12.3142 0.0000 0.0000 0.0000
# 3 42.8457 12.3142 95.0146 0.0000 0.0000 0.0000
# 4 0.0000 0.0000 0.0000 4.1382 0.0000 0.0000
# 5 0.0000 0.0000 0.0000 0.0000 20.1166 0.0000
# 6 0.0000 0.0000 0.0000 0.0000 0.0000 37.4791
#
#
#
# Elastic Compliance Matrix: (Units=1/GPa)
#
#
# Indices 1 2 3 4 5 6 
#
# 1 0.008518 -0.001171 -0.003689 0.000000 0.000000 0.000000
# 2 -0.001171 0.012415 -0.001081 0.000000 0.000000 0.000000
# 3 -0.003689 -0.001081 0.012328 0.000000 0.000000 0.000000
# 4 0.000000 0.000000 0.000000 0.241653 0.000000 0.000000
# 5 0.000000 0.000000 0.000000 0.000000 0.049710 0.000000
# 6 0.000000 0.000000 0.000000 0.000000 0.000000 0.026682
#
#
# Mechanical properties :
#
#
# Convention : Reuss Voigt Hill
#
# Bulk Modulus (GPa) = 46.77538 51.14974 48.96256
# Shear Modulus (GPa) = 13.50200 28.64978 21.07589
#
# Velocity S-wave (km/s) = 2.51482 3.66326 3.14196
# Velocity P-wave (km/s) = 5.50835 6.46924 6.00804
#
# Compressibility (1/GPa) = 0.02137877
#
# Stress axis : x y z
#
# Youngs Moduli (GPa) = 117.40049 80.54572 81.11355
#
# Poissons Ratio (x) = 0.09434 0.29925
# Poissons Ratio (y) = 0.13751 0.08767
# Poissons Ratio (z) = 0.43312 0.08706
#
# Static dielectric constant tensor:
#      x y z
#    x 4.474900 0.000000 0.000000 
#    y 0.000000 3.981290 0.000000 
#    z 0.000000 0.000000 3.779400 
# 
# 
# High freq. dielectric constant tensor:
#      x y z
#    x 1.860230 0.000000 0.000000 
#    y 0.000000 1.851320 0.000000 
#    z 0.000000 0.000000 1.832320 
# 
# From -- ./inp_files/10794.got.cif
#   From: 2010.03.12/outbox.cif.g09.slc.cpg/sg37_6_cif.got.tgz:10794.got - 2010.04.14 02:25:27.
