data_PCOD8176814
_publ_section_title
;
Structure prediction by ZEFSAII (Michael W. Deem and Ramdas Pophale) SiO2 
 PCOD8176814
Probable space group: C C C 2
;
_chemical_formula_sum "Si O2"
_cell_formula_units_Z 48
_cell_length_a 24.215427
_cell_length_b 9.932840
_cell_length_c 9.047876
_cell_angle_alpha 90.000000
_cell_angle_beta 90.000000
_cell_angle_gamma 90.000000
_cell_volume 2176.267174
_symmetry_space_group_name_H-M "C C C 2"
_symmetry_group_IT_number 37
_symmetry_cell_setting 'orthorhombic'
loop_
_space_group_symop_operation_xyz
x,y,z
-x,-y,z
-x,y,1/2+z
x,-y,1/2+z
1/2+x,1/2+y,z
1/2-x,1/2-y,z
1/2-x,1/2+y,1/2+z
1/2+x,1/2-y,1/2+z
loop_
_atom_site_type_symbol
_atom_site_label
_atom_site_fract_x
_atom_site_fract_y
_atom_site_fract_z
Si Si1 0.000000 0.000000 0.238361
Si Si2 0.155828 0.587465 0.360848
Si Si3 0.860128 0.654753 0.553641
Si Si4 0.250000 0.750000 0.946498
Si Si5 0.730830 0.524120 0.239625
Si Si6 0.830104 0.876318 0.961714
Si Si7 0.924254 0.915085 0.489277
O O1 0.961132 0.909324 0.341964
O O2 0.037384 0.905572 0.134026
O O3 0.123997 0.476797 0.457727
O O4 0.118607 0.637935 0.222636
O O5 0.206815 0.518324 0.273815
O O6 0.168127 0.713755 0.470373
O O7 0.793033 0.671870 0.551863
O O8 0.886814 0.784230 0.479443
O O9 0.284881 0.651682 0.840921
O O10 0.688283 0.407734 0.292458
O O11 0.718027 0.563469 0.069668
O O12 0.888619 0.946140 0.997255
#
# Coordination Sequence:
#
# PCOD8176814 Si02
#       7
#     4   8   8   4   8   8   8
#     4  10  24  44  72 104 118 162 234 298 344 398
#     4  11  26  38  61  96 141 180 226 265 321 406
#     4  11  24  43  62  95 137 181 216 278 332 403
#     4  10  22  36  58  92 136 174 228 250 316 386
#     4  11  23  36  59  90 139 183 227 258 309 386
#     4  12  24  39  65  94 128 183 225 272 333 392
#     4  11  23  44  72  95 129 164 224 291 344 398
#
# _framework density 22.056115999999999
#
# number of rings (size 3 to 8) (size 9 to 14) (size 15 to 20)
#    0.000    1.000    1.667    5.500    9.333    0.000 
#    0.000    0.000    0.000   17.000    0.000    0.000 
#    0.000    0.000    0.000    0.000    0.000    0.000 
#
# Total GULP energy -297567.558966 kJ/mol
# GULP energy per Si atom -12398.648290 kJ/mol
# Density = 2.200592 g / cm^3
# Si number density = 22.056116 Si / 1000 Ang^3
#
#
#
# Elastic Constant Matrix: (Units=GPa)
#
#
# Indices 1 2 3 4 5 6 
#
# 1 61.0064 28.9291 21.4448 0.0000 0.0000 0.0000
# 2 28.9291 136.1642 44.6786 0.0000 0.0000 0.0000
# 3 21.4448 44.6786 119.8052 0.0000 0.0000 0.0000
# 4 0.0000 0.0000 0.0000 33.8914 0.0000 0.0000
# 5 0.0000 0.0000 0.0000 0.0000 19.0228 0.0000
# 6 0.0000 0.0000 0.0000 0.0000 0.0000 17.9416
#
#
#
# Elastic Compliance Matrix: (Units=1/GPa)
#
#
# Indices 1 2 3 4 5 6 
#
# 1 0.018691 -0.003274 -0.002125 0.000000 0.000000 0.000000
# 2 -0.003274 0.008941 -0.002749 0.000000 0.000000 0.000000
# 3 -0.002125 -0.002749 0.009752 0.000000 0.000000 0.000000
# 4 0.000000 0.000000 0.000000 0.029506 0.000000 0.000000
# 5 0.000000 0.000000 0.000000 0.000000 0.052569 0.000000
# 6 0.000000 0.000000 0.000000 0.000000 0.000000 0.055736
#
#
# Mechanical properties :
#
#
# Convention : Reuss Voigt Hill
#
# Bulk Modulus (GPa) = 47.41469 56.34231 51.87850
# Shear Modulus (GPa) = 25.18637 28.96605 27.07621
#
# Velocity S-wave (km/s) = 3.38290 3.62786 3.50752
# Velocity P-wave (km/s) = 6.06652 6.56879 6.32264
#
# Compressibility (1/GPa) = 0.02109051
#
# Stress axis : x y z
#
# Youngs Moduli (GPa) = 53.50153 111.83832 102.54108
#
# Poissons Ratio (x) = 0.36615 0.21787
# Poissons Ratio (y) = 0.17516 0.28183
# Poissons Ratio (z) = 0.11368 0.30739
#
# Static dielectric constant tensor:
#      x y z
#    x 3.608120 0.000000 0.000000 
#    y 0.000000 4.100640 0.000000 
#    z 0.000000 0.000000 4.206820 
# 
# 
# High freq. dielectric constant tensor:
#      x y z
#    x 1.819120 0.000000 0.000000 
#    y 0.000000 1.873490 0.000000 
#    z 0.000000 0.000000 1.890580 
# 
# From -- ./inp_files/4596.got.cif
#   From: 2010.03.12/outbox.cif.g09.slc.cpg/sg37_3_cif.got.tgz:4596.got - 2010.04.14 02:25:27.
