data_PCOD8176217
_publ_section_title
;
Structure prediction by ZEFSAII (Michael W. Deem and Ramdas Pophale) SiO2 
 PCOD8176217
Probable space group: C M C 21
;
_chemical_formula_sum "Si O2"
_cell_formula_units_Z 48
_cell_length_a 8.457916
_cell_length_b 19.917944
_cell_length_c 13.969161
_cell_angle_alpha 90.000000
_cell_angle_beta 90.000000
_cell_angle_gamma 90.000000
_cell_volume 2353.304891
_symmetry_space_group_name_H-M "C M C 21"
_symmetry_group_IT_number 36
_symmetry_cell_setting 'orthorhombic'
loop_
_space_group_symop_operation_xyz
x,y,z
-x,-y,1/2+z
x,-y,1/2+z
-x,y,z
1/2+x,1/2+y,z
1/2-x,1/2-y,1/2+z
1/2+x,1/2-y,1/2+z
1/2-x,1/2+y,z
loop_
_atom_site_type_symbol
_atom_site_label
_atom_site_fract_x
_atom_site_fract_y
_atom_site_fract_z
Si Si1 0.812929 0.638109 0.720540
Si Si2 0.819439 0.933586 0.905447
Si Si3 0.815908 0.687413 0.515589
Si Si4 0.316769 0.013409 0.217177
Si Si5 0.816573 0.316777 0.424515
Si Si6 0.319355 0.439328 0.529421
O O1 0.757215 0.677425 0.625295
O O2 0.745245 0.562134 0.720346
O O3 0.752748 0.677836 0.814920
O O4 0.000000 0.633405 0.727657
O O5 0.704607 0.950603 0.818332
O O6 0.000000 0.935581 0.869705
O O7 0.780750 0.860256 0.944961
O O8 0.788252 0.986364 0.989635
O O9 0.785588 0.763190 0.483179
O O10 0.000000 0.669626 0.508494
O O11 0.500000 0.012029 0.188695
O O12 0.222885 0.058362 0.140959
O O13 0.794816 0.388444 0.474587
O O14 0.000000 0.296296 0.427730
O O15 0.500000 0.416127 0.515612
#
# Coordination Sequence:
#
# PCOD8176217 Si02
#       6
#     8   8   8   8   8   8
#     4   9  20  38  63  88 119 161 207 256 312 369
#     4  11  23  39  61  93 127 161 203 257 312 370
#     4  11  23  42  64  91 125 167 212 261 315 374
#     4  11  21  38  65  94 121 163 213 258 308 369
#     4  11  23  42  64  91 125 167 212 261 315 374
#     4  11  23  39  61  93 127 161 203 257 312 370
#
# _framework density 20.396846
#
# number of rings (size 3 to 8) (size 9 to 14) (size 15 to 20)
#    0.000    1.333    3.333    2.500    0.000    2.667 
#    0.000    8.333    0.000    0.000    0.000    0.000 
#    0.000    0.000    0.000    0.000    0.000    0.000 
#
# Total GULP energy -297733.340006 kJ/mol
# GULP energy per Si atom -12405.555834 kJ/mol
# Density = 2.035042 g / cm^3
# Si number density = 20.396846 Si / 1000 Ang^3
#
#
#
# Elastic Constant Matrix: (Units=GPa)
#
#
# Indices 1 2 3 4 5 6 
#
# 1 44.2171 19.1468 23.3055 0.0000 0.0000 0.0000
# 2 19.1468 83.0613 38.8752 0.0000 0.0000 0.0000
# 3 23.3055 38.8752 145.3787 0.0000 0.0000 0.0000
# 4 0.0000 0.0000 0.0000 38.5705 0.0000 0.0000
# 5 0.0000 0.0000 0.0000 0.0000 30.1863 0.0000
# 6 0.0000 0.0000 0.0000 0.0000 0.0000 32.5239
#
#
#
# Elastic Compliance Matrix: (Units=1/GPa)
#
#
# Indices 1 2 3 4 5 6 
#
# 1 0.026188 -0.004654 -0.002954 0.000000 0.000000 0.000000
# 2 -0.004654 0.014589 -0.003155 0.000000 0.000000 0.000000
# 3 -0.002954 -0.003155 0.008196 0.000000 0.000000 0.000000
# 4 0.000000 0.000000 0.000000 0.025927 0.000000 0.000000
# 5 0.000000 0.000000 0.000000 0.000000 0.033128 0.000000
# 6 0.000000 0.000000 0.000000 0.000000 0.000000 0.030747
#
#
# Mechanical properties :
#
#
# Convention : Reuss Voigt Hill
#
# Bulk Modulus (GPa) = 36.43435 48.36802 42.40118
# Shear Modulus (GPa) = 29.50762 33.01145 31.25954
#
# Velocity S-wave (km/s) = 3.80765 4.02737 3.91905
# Velocity P-wave (km/s) = 6.10184 6.73730 6.42743
#
# Compressibility (1/GPa) = 0.02744663
#
# Stress axis : x y z
#
# Youngs Moduli (GPa) = 38.18568 68.54566 122.01462
#
# Poissons Ratio (x) = 0.31903 0.36038
# Poissons Ratio (y) = 0.17773 0.38496
# Poissons Ratio (z) = 0.11278 0.21626
#
# Static dielectric constant tensor:
#      x y z
#    x 3.456650 0.000000 0.000000 
#    y 0.000000 3.484300 0.000000 
#    z 0.000000 0.000000 3.831350 
# 
# 
# High freq. dielectric constant tensor:
#      x y z
#    x 1.787210 0.000000 0.000000 
#    y 0.000000 1.789450 0.000000 
#    z 0.000000 0.000000 1.809360 
# 
# From -- ./inp_files/10346.got.cif
#   From: 2010.03.12/outbox.cif.g09.slc.cpg/sg36_6_cif.got.tgz:10346.got - 2010.04.14 02:13:53.
