data_PCOD8176701
_publ_section_title
;
Structure prediction by ZEFSAII (Michael W. Deem and Ramdas Pophale) SiO2 
 PCOD8176701
Probable space group: C C C 2
;
_chemical_formula_sum "Si O2"
_cell_formula_units_Z 60
_cell_length_a 22.418841
_cell_length_b 8.894011
_cell_length_c 15.291938
_cell_angle_alpha 90.000000
_cell_angle_beta 90.000000
_cell_angle_gamma 90.000000
_cell_volume 3049.111793
_symmetry_space_group_name_H-M "C C C 2"
_symmetry_group_IT_number 37
_symmetry_cell_setting 'orthorhombic'
loop_
_space_group_symop_operation_xyz
x,y,z
-x,-y,z
-x,y,1/2+z
x,-y,1/2+z
1/2+x,1/2+y,z
1/2-x,1/2-y,z
1/2-x,1/2+y,1/2+z
1/2+x,1/2-y,1/2+z
loop_
_atom_site_type_symbol
_atom_site_label
_atom_site_fract_x
_atom_site_fract_y
_atom_site_fract_z
Si Si1 0.436287 0.559979 0.334440
Si Si2 0.750000 0.750000 0.264524
Si Si3 0.067652 0.557841 0.655644
Si Si4 0.866778 0.929242 0.999096
Si Si5 0.873802 0.135790 0.691033
Si Si6 0.436785 0.915681 0.324758
Si Si7 0.251533 0.413017 0.434117
Si Si8 0.138557 0.421994 0.987929
O O1 0.500000 0.500000 0.308401
O O2 0.423465 0.529221 0.437670
O O3 0.388864 0.474551 0.271650
O O4 0.439007 0.737205 0.319224
O O5 0.808708 0.784611 0.205344
O O6 0.760871 0.605865 0.329166
O O7 0.074948 0.736643 0.676594
O O8 0.096204 0.469270 0.736945
O O9 0.105231 0.511206 0.571554
O O10 0.000000 0.500000 0.640764
O O11 0.853672 0.754343 0.992182
O O12 0.815131 0.017598 0.951284
O O13 0.873853 0.966611 0.102160
O O14 0.399293 0.976344 0.405519
O O15 0.500000 0.000000 0.329601
O O16 0.250000 0.250000 0.479822
O O17 0.204231 0.514747 0.482790
#
# Coordination Sequence:
#
# PCOD8176701 Si02
#       8
#     8   4   8   8   8   8   8   8
#     4  11  22  41  63  91 128 163 207 261 314 380
#     4  10  22  40  68  88 122 170 214 256 316 380
#     4  10  21  38  61  91 120 158 210 252 308 377
#     4  10  23  40  62  92 123 162 211 255 315 375
#     4  11  23  41  66  93 123 173 210 261 321 375
#     4  10  21  37  59  88 120 159 200 254 308 368
#     4  10  21  38  60  87 119 158 205 256 301 366
#     4  10  21  37  61  84 121 161 200 253 309 364
#
# _framework density 19.677862000000001
#
# number of rings (size 3 to 8) (size 9 to 14) (size 15 to 20)
#    0.400    1.333    1.333    3.200    3.733    2.667 
#    0.000    2.667    0.000    0.000    0.000    0.000 
#    0.000    0.000    0.000    0.000    0.000    0.000 
#
# Total GULP energy -371736.985011 kJ/mol
# GULP energy per Si atom -12391.232834 kJ/mol
# Density = 1.963307 g / cm^3
# Si number density = 19.677862 Si / 1000 Ang^3
#
#
#
# Elastic Constant Matrix: (Units=GPa)
#
#
# Indices 1 2 3 4 5 6 
#
# 1 70.0512 35.1501 20.4890 0.0000 0.0000 0.0000
# 2 35.1501 46.1864 32.5695 0.0000 0.0000 0.0000
# 3 20.4890 32.5695 136.5006 0.0000 0.0000 0.0000
# 4 0.0000 0.0000 0.0000 43.1728 0.0000 0.0000
# 5 0.0000 0.0000 0.0000 0.0000 28.6825 0.0000
# 6 0.0000 0.0000 0.0000 0.0000 0.0000 26.8530
#
#
#
# Elastic Compliance Matrix: (Units=1/GPa)
#
#
# Indices 1 2 3 4 5 6 
#
# 1 0.023182 -0.018261 0.000878 0.000000 0.000000 0.000000
# 2 -0.018261 0.040417 -0.006902 0.000000 0.000000 0.000000
# 3 0.000878 -0.006902 0.008841 0.000000 0.000000 0.000000
# 4 0.000000 0.000000 0.000000 0.023163 0.000000 0.000000
# 5 0.000000 0.000000 0.000000 0.000000 0.034864 0.000000
# 6 0.000000 0.000000 0.000000 0.000000 0.000000 0.037240
#
#
# Mechanical properties :
#
#
# Convention : Reuss Voigt Hill
#
# Bulk Modulus (GPa) = 41.89856 47.68393 44.79125
# Shear Modulus (GPa) = 22.29807 30.71029 26.50418
#
# Velocity S-wave (km/s) = 3.36989 3.95479 3.67400
# Velocity P-wave (km/s) = 6.03987 6.71854 6.38822
#
# Compressibility (1/GPa) = 0.02386717
#
# Stress axis : x y z
#
# Youngs Moduli (GPa) = 43.13748 24.74229 113.10671
#
# Poissons Ratio (x) = 0.45183 -0.09926
# Poissons Ratio (y) = 0.78775 0.78072
# Poissons Ratio (z) = -0.03786 0.17078
#
# Static dielectric constant tensor:
#      x y z
#    x 3.392020 0.000000 0.000000 
#    y 0.000000 3.540980 0.000000 
#    z 0.000000 0.000000 4.050720 
# 
# 
# High freq. dielectric constant tensor:
#      x y z
#    x 1.763710 0.000000 0.000000 
#    y 0.000000 1.758820 0.000000 
#    z 0.000000 0.000000 1.780810 
# 
# From -- ./inp_files/13145.got.cif
#   From: 2010.03.12/outbox.cif.g09.slc.cpg/sg37_7_cif.got.tgz:13145.got - 2010.04.14 02:25:27.
