data_PCOD8176051
_publ_section_title
;
Structure prediction by ZEFSAII (Michael W. Deem and Ramdas Pophale) SiO2 
 PCOD8176051
Probable space group: C M C 21
;
_chemical_formula_sum "Si O2"
_cell_formula_units_Z 40
_cell_length_a 22.384496
_cell_length_b 8.591631
_cell_length_c 9.149808
_cell_angle_alpha 90.000000
_cell_angle_beta 90.000000
_cell_angle_gamma 90.000000
_cell_volume 1759.684942
_symmetry_space_group_name_H-M "C M C 21"
_symmetry_group_IT_number 36
_symmetry_cell_setting 'orthorhombic'
loop_
_space_group_symop_operation_xyz
x,y,z
-x,-y,1/2+z
x,-y,1/2+z
-x,y,z
1/2+x,1/2+y,z
1/2-x,1/2-y,1/2+z
1/2+x,1/2-y,1/2+z
1/2-x,1/2+y,z
loop_
_atom_site_type_symbol
_atom_site_label
_atom_site_fract_x
_atom_site_fract_y
_atom_site_fract_z
Si Si1 0.500000 0.466308 0.018070
Si Si2 0.702060 0.331141 0.571774
Si Si3 0.370842 0.633941 0.564624
Si Si4 0.191850 0.667057 0.283657
Si Si5 0.126110 0.351868 0.296809
Si Si6 0.500000 0.277380 0.733371
O O1 0.558887 0.390243 0.087051
O O2 0.500000 0.649045 0.068662
O O3 0.500000 0.428559 0.843733
O O4 0.663022 0.476875 0.519260
O O5 0.758170 0.388671 0.667847
O O6 0.723835 0.234882 0.429050
O O7 0.661199 0.214715 0.660679
O O8 0.346634 0.691483 0.719504
O O9 0.356978 0.761695 0.443090
O O10 0.145928 0.529215 0.321380
O O11 0.056020 0.335478 0.260721
#
# Coordination Sequence:
#
# PCOD8176051 Si02
#       6
#     4   8   8   8   8   4
#     4  10  22  41  71 101 135 176 228 274 326 409
#     4  12  25  45  70  95 135 184 229 277 336 413
#     4  11  24  44  69 101 133 180 228 271 336 410
#     4  12  27  44  69 100 137 178 227 287 344 395
#     4  11  24  44  68 103 140 176 224 283 342 398
#     4  10  22  43  71 101 141 176 222 280 334 409
#
# _framework density 22.731342999999999
#
# number of rings (size 3 to 8) (size 9 to 14) (size 15 to 20)
#    0.000    0.800    2.000    4.800    2.800    5.600 
#    0.000    6.000    0.000    0.000    0.000    0.000 
#    0.000    0.000    0.000    0.000    0.000    0.000 
#
# Total GULP energy -248032.018877 kJ/mol
# GULP energy per Si atom -12401.600944 kJ/mol
# Density = 2.267961 g / cm^3
# Si number density = 22.731343 Si / 1000 Ang^3
#
#
#
# Elastic Constant Matrix: (Units=GPa)
#
#
# Indices 1 2 3 4 5 6 
#
# 1 144.4964 41.8449 47.9410 0.0000 0.0000 0.0000
# 2 41.8449 113.3699 43.3428 0.0000 0.0000 0.0000
# 3 47.9410 43.3428 110.6272 0.0000 0.0000 0.0000
# 4 0.0000 0.0000 0.0000 41.5357 0.0000 0.0000
# 5 0.0000 0.0000 0.0000 0.0000 187.8262 0.0000
# 6 0.0000 0.0000 0.0000 0.0000 0.0000 31.0382
#
#
#
# Elastic Compliance Matrix: (Units=1/GPa)
#
#
# Indices 1 2 3 4 5 6 
#
# 1 0.008460 -0.002024 -0.002873 0.000000 0.000000 0.000000
# 2 -0.002024 0.010859 -0.003377 0.000000 0.000000 0.000000
# 3 -0.002873 -0.003377 0.011608 0.000000 0.000000 0.000000
# 4 0.000000 0.000000 0.000000 0.024076 0.000000 0.000000
# 5 0.000000 0.000000 0.000000 0.000000 0.005324 0.000000
# 6 0.000000 0.000000 0.000000 0.000000 0.000000 0.032218
#
#
# Mechanical properties :
#
#
# Convention : Reuss Voigt Hill
#
# Bulk Modulus (GPa) = 69.55320 70.52788 70.04054
# Shear Modulus (GPa) = 43.90338 67.77101 55.83719
#
# Velocity S-wave (km/s) = 4.39954 5.46613 4.96158
# Velocity P-wave (km/s) = 7.51481 8.42213 7.98137
#
# Compressibility (1/GPa) = 0.01437748
#
# Stress axis : x y z
#
# Youngs Moduli (GPa) = 118.20307 92.08968 86.15001
#
# Poissons Ratio (x) = 0.18640 0.24752
# Poissons Ratio (y) = 0.23926 0.29095
# Poissons Ratio (z) = 0.33962 0.31101
#
# Static dielectric constant tensor:
#      x y z
#    x 2.855570 0.000000 0.000000 
#    y 0.000000 4.069160 0.000000 
#    z 0.000000 0.000000 4.250290 
# 
# 
# High freq. dielectric constant tensor:
#      x y z
#    x 1.912410 0.000000 0.000000 
#    y 0.000000 1.887380 0.000000 
#    z 0.000000 0.000000 1.904030 
# 
# From -- ./inp_files/5477.got.cif
#   From: 2010.03.12/outbox.cif.g09.slc.cpg/sg36_3_cif.got.tgz:5477.got - 2010.04.14 02:13:53.
