data_PCOD8176587
_publ_section_title
;
Structure prediction by ZEFSAII (Michael W. Deem and Ramdas Pophale) SiO2 
 PCOD8176587
Probable space group: C C C 2
;
_chemical_formula_sum "Si O2"
_cell_formula_units_Z 32
_cell_length_a 10.856439
_cell_length_b 11.251357
_cell_length_c 13.019501
_cell_angle_alpha 90.000000
_cell_angle_beta 90.000000
_cell_angle_gamma 90.000000
_cell_volume 1590.327763
_symmetry_space_group_name_H-M "C C C 2"
_symmetry_group_IT_number 37
_symmetry_cell_setting 'orthorhombic'
loop_
_space_group_symop_operation_xyz
x,y,z
-x,-y,z
-x,y,1/2+z
x,-y,1/2+z
1/2+x,1/2+y,z
1/2-x,1/2-y,z
1/2-x,1/2+y,1/2+z
1/2+x,1/2-y,1/2+z
loop_
_atom_site_type_symbol
_atom_site_label
_atom_site_fract_x
_atom_site_fract_y
_atom_site_fract_z
Si Si1 0.120124 0.563419 0.457890
Si Si2 0.313775 0.369131 0.791405
Si Si3 0.672500 0.537593 0.571832
Si Si4 0.967726 0.176897 0.477667
O O1 0.216618 0.567440 0.365538
O O2 0.182754 0.479076 0.544901
O O3 0.079173 0.690809 0.504568
O O4 0.000000 0.500000 0.414030
O O5 0.250000 0.250000 0.749836
O O6 0.346058 0.446355 0.692926
O O7 0.060700 0.154170 0.856543
O O8 0.610480 0.646900 0.505887
O O9 0.610141 0.411923 0.547857
#
# Coordination Sequence:
#
# PCOD8176587 Si02
#       4
#     8   8   8   8
#     4  10  22  39  60  87 130 156 197 257 306 356
#     4   9  20  39  59  86 122 155 198 255 302 356
#     4  10  20  36  67  83 115 164 206 234 310 367
#     4   9  21  40  60  88 123 156 199 262 297 354
#
# _framework density 20.121639999999999
#
# number of rings (size 3 to 8) (size 9 to 14) (size 15 to 20)
#    0.000    2.500    0.000    2.250    3.500    9.000 
#    4.500    0.000   16.500    0.000    0.000    0.000 
#    0.000    0.000    0.000    0.000    0.000    0.000 
#
# Total GULP energy -198264.167163 kJ/mol
# GULP energy per Si atom -12391.510448 kJ/mol
# Density = 2.007584 g / cm^3
# Si number density = 20.121640 Si / 1000 Ang^3
#
#
#
# Elastic Constant Matrix: (Units=GPa)
#
#
# Indices 1 2 3 4 5 6 
#
# 1 98.7842 43.7294 36.8299 0.0000 0.0000 0.0000
# 2 43.7294 82.4147 56.0376 0.0000 0.0000 0.0000
# 3 36.8299 56.0376 121.2298 0.0000 0.0000 0.0000
# 4 0.0000 0.0000 0.0000 21.5472 0.0000 0.0000
# 5 0.0000 0.0000 0.0000 0.0000 15.3864 0.0000
# 6 0.0000 0.0000 0.0000 0.0000 0.0000 30.6622
#
#
#
# Elastic Compliance Matrix: (Units=1/GPa)
#
#
# Indices 1 2 3 4 5 6 
#
# 1 0.013338 -0.006303 -0.001139 0.000000 0.000000 0.000000
# 2 -0.006303 0.020674 -0.007642 0.000000 0.000000 0.000000
# 3 -0.001139 -0.007642 0.012127 0.000000 0.000000 0.000000
# 4 0.000000 0.000000 0.000000 0.046410 0.000000 0.000000
# 5 0.000000 0.000000 0.000000 0.000000 0.064993 0.000000
# 6 0.000000 0.000000 0.000000 0.000000 0.000000 0.032613
#
#
# Mechanical properties :
#
#
# Convention : Reuss Voigt Hill
#
# Bulk Modulus (GPa) = 62.60713 63.95804 63.28258
# Shear Modulus (GPa) = 22.15875 24.57460 23.36667
#
# Velocity S-wave (km/s) = 3.32209 3.49850 3.41144
# Velocity P-wave (km/s) = 6.77473 6.94076 6.85824
#
# Compressibility (1/GPa) = 0.01597262
#
# Stress axis : x y z
#
# Youngs Moduli (GPa) = 74.97552 48.37022 82.46103
#
# Poissons Ratio (x) = 0.30487 0.09389
# Poissons Ratio (y) = 0.47256 0.63013
# Poissons Ratio (z) = 0.08537 0.36962
#
# Static dielectric constant tensor:
#      x y z
#    x 4.258700 0.000000 0.000000 
#    y 0.000000 3.773270 0.000000 
#    z 0.000000 0.000000 3.494060 
# 
# 
# High freq. dielectric constant tensor:
#      x y z
#    x 1.786980 0.000000 0.000000 
#    y 0.000000 1.783860 0.000000 
#    z 0.000000 0.000000 1.766130 
# 
# From -- ./inp_files/2619.got.cif
#   From: 2010.03.12/outbox.cif.g09.slc.cpg/sg37_2_cif.got.tgz:2619.got - 2010.04.14 02:25:27.
