data_PCOD8176353
_publ_section_title
;
Structure prediction by ZEFSAII (Michael W. Deem and Ramdas Pophale) SiO2 
 PCOD8176353
Probable space group: C C C 2
;
_chemical_formula_sum "Si O2"
_cell_formula_units_Z 56
_cell_length_a 13.767112
_cell_length_b 33.074827
_cell_length_c 5.285218
_cell_angle_alpha 90.000000
_cell_angle_beta 90.000000
_cell_angle_gamma 90.000000
_cell_volume 2406.596785
_symmetry_space_group_name_H-M "C C C 2"
_symmetry_group_IT_number 37
_symmetry_cell_setting 'orthorhombic'
loop_
_space_group_symop_operation_xyz
x,y,z
-x,-y,z
-x,y,1/2+z
x,-y,1/2+z
1/2+x,1/2+y,z
1/2-x,1/2-y,z
1/2-x,1/2+y,1/2+z
1/2+x,1/2-y,1/2+z
loop_
_atom_site_type_symbol
_atom_site_label
_atom_site_fract_x
_atom_site_fract_y
_atom_site_fract_z
Si Si1 0.113434 0.724867 0.868630
Si Si2 0.142254 0.017085 0.302879
Si Si3 0.060765 0.188206 0.315076
Si Si4 0.060493 0.400536 0.884179
Si Si5 0.357505 0.983057 0.301093
Si Si6 0.562297 0.600386 0.384333
Si Si7 0.606520 0.191080 0.368499
O O1 0.129964 0.773212 0.858931
O O2 0.163225 0.704827 0.621953
O O3 0.000730 0.710827 0.876726
O O4 0.163627 0.707975 0.123207
O O5 0.142310 0.065436 0.344400
O O6 0.088723 0.994633 0.538447
O O7 0.249829 0.000116 0.258633
O O8 0.113260 0.144629 0.354270
O O9 0.976491 0.191092 0.526886
O O10 0.142303 0.434779 0.842052
O O11 0.108270 0.357013 0.851781
O O12 0.979172 0.405595 0.668252
O O13 0.411125 0.005395 0.536708
O O14 0.519698 0.596074 0.667212
#
# Coordination Sequence:
#
# PCOD8176353 Si02
#       7
#     8   8   8   8   8   8   8
#     4  10  14  25  41  61  99 147 159 184 254 307
#     4  10  21  39  58  71 101 140 181 215 261 323
#     4  10  16  25  41  66 104 140 161 195 243 299
#     4  12  21  32  51  77 108 135 177 226 264 297
#     4  10  23  40  54  72  98 140 186 216 265 318
#     4  10  21  32  50  84 110 133 171 220 263 299
#     4  10  16  25  41  67  97 141 162 198 250 300
#
# _framework density 23.269375
#
# number of rings (size 3 to 8) (size 9 to 14) (size 15 to 20)
#    0.000    1.714    5.714    1.714    0.000    3.429 
#    0.000    0.000    0.000    0.000    0.000    0.000 
#    0.000   27.429    0.000    0.000    0.000    0.000 
#
# Total GULP energy -346893.031180 kJ/mol
# GULP energy per Si atom -12389.036828 kJ/mol
# Density = 2.321641 g / cm^3
# Si number density = 23.269375 Si / 1000 Ang^3
#
#
#
# Elastic Constant Matrix: (Units=GPa)
#
#
# Indices 1 2 3 4 5 6 
#
# 1 20.9185 15.7535 -8.4567 0.0000 0.0000 0.0000
# 2 15.7535 198.3079 22.8662 0.0000 0.0000 0.0000
# 3 -8.4567 22.8662 199.1836 0.0000 0.0000 0.0000
# 4 0.0000 0.0000 0.0000 40.7440 0.0000 0.0000
# 5 0.0000 0.0000 0.0000 0.0000 -1.9016 0.0000
# 6 0.0000 0.0000 0.0000 0.0000 0.0000 23.2660
#
#
#
# Elastic Compliance Matrix: (Units=1/GPa)
#
#
# Indices 1 2 3 4 5 6 
#
# 1 0.052274 -0.004468 0.002732 0.000000 0.000000 0.000000
# 2 -0.004468 0.005492 -0.000820 0.000000 0.000000 0.000000
# 3 0.002732 -0.000820 0.005231 0.000000 0.000000 0.000000
# 4 0.000000 0.000000 0.000000 0.024544 0.000000 0.000000
# 5 0.000000 0.000000 0.000000 0.000000 -0.525881 0.000000
# 6 0.000000 0.000000 0.000000 0.000000 0.000000 0.042981
#
#
# Mechanical properties :
#
#
# Convention : Reuss Voigt Hill
#
# Bulk Modulus (GPa) = 17.27554 53.19288 35.23421
# Shear Modulus (GPa) = -13.47878 38.30481 12.41302
#
# Velocity S-wave (km/s) = -2.40937 4.06168 2.31216
# Velocity P-wave (km/s) = 0.54756 6.70116 4.72259
#
# Compressibility (1/GPa) = 0.05788530
#
# Stress axis : x y z
#
# Youngs Moduli (GPa) = 19.13011 182.07838 191.18076
#
# Poissons Ratio (x) = 0.81346 -0.52235
# Poissons Ratio (y) = 0.08547 0.15680
# Poissons Ratio (z) = -0.05227 0.14934
#
# Static dielectric constant tensor:
#      x y z
#    x 3.297700 0.000000 0.000000 
#    y 0.000000 4.577170 0.000000 
#    z 0.000000 0.000000 6.342230 
# 
# 
# High freq. dielectric constant tensor:
#      x y z
#    x 1.829780 0.000000 0.000000 
#    y 0.000000 1.940970 0.000000 
#    z 0.000000 0.000000 1.969180 
# 
# From -- ./inp_files/646.got.cif
#   From: 2010.03.12/outbox.cif.g09.slc.cpg/sg37_1_cif.got.tgz:646.got - 2010.04.14 02:25:27.
