data_PCOD8176091
_publ_section_title
;
Structure prediction by ZEFSAII (Michael W. Deem and Ramdas Pophale) SiO2 
 PCOD8176091
Probable space group: C M C 21
;
_chemical_formula_sum "Si O2"
_cell_formula_units_Z 56
_cell_length_a 13.414555
_cell_length_b 19.997284
_cell_length_c 9.821269
_cell_angle_alpha 90.000000
_cell_angle_beta 90.000000
_cell_angle_gamma 90.000000
_cell_volume 2634.601236
_symmetry_space_group_name_H-M "C M C 21"
_symmetry_group_IT_number 36
_symmetry_cell_setting 'orthorhombic'
loop_
_space_group_symop_operation_xyz
x,y,z
-x,-y,1/2+z
x,-y,1/2+z
-x,y,z
1/2+x,1/2+y,z
1/2-x,1/2-y,1/2+z
1/2+x,1/2-y,1/2+z
1/2-x,1/2+y,z
loop_
_atom_site_type_symbol
_atom_site_label
_atom_site_fract_x
_atom_site_fract_y
_atom_site_fract_z
Si Si1 0.681496 0.154850 0.546390
Si Si2 0.611445 0.653310 0.445721
Si Si3 0.617094 0.913227 0.776727
Si Si4 0.388773 0.290399 0.646224
Si Si5 0.886798 0.016351 0.579628
Si Si6 0.751201 0.889702 0.526005
Si Si7 0.217869 0.447509 0.258293
O O1 0.798114 0.179280 0.540832
O O2 0.640818 0.140697 0.394733
O O3 0.622026 0.210759 0.630828
O O4 0.665808 0.084736 0.625421
O O5 0.500000 0.678374 0.491451
O O6 0.635602 0.678721 0.294182
O O7 0.615324 0.572282 0.458856
O O8 0.500000 0.920492 0.757663
O O9 0.663484 0.887456 0.635997
O O10 0.664181 0.985355 0.809045
O O11 0.500000 0.310786 0.607389
O O12 0.315686 0.322910 0.536536
O O13 0.834746 0.041974 0.719331
O O14 0.000000 0.995815 0.615005
O O15 0.822986 0.953677 0.532170
O O16 0.704825 0.892076 0.375990
#
# Coordination Sequence:
#
# PCOD8176091 Si02
#       7
#     8   8   8   8   8   8   8
#     4  11  23  43  67  93 130 173 213 272 326 387
#     4   9  19  40  66  91 122 167 211 259 321 381
#     4  11  23  43  66  91 127 170 219 272 326 383
#     4  11  24  40  65  93 126 171 217 262 318 389
#     4   9  19  36  62  94 130 166 207 262 323 378
#     4  11  23  38  61  96 130 167 209 265 324 385
#     4  10  23  38  63  96 125 164 214 268 322 383
#
# _framework density 21.255589000000001
#
# number of rings (size 3 to 8) (size 9 to 14) (size 15 to 20)
#    0.000    1.714    1.429    3.429    4.000    4.000 
#    0.000    0.714    0.000    0.000    0.000    0.000 
#    0.000    0.000    0.000    0.000    0.000    0.000 
#
# Total GULP energy -347029.852991 kJ/mol
# GULP energy per Si atom -12393.923321 kJ/mol
# Density = 2.120721 g / cm^3
# Si number density = 21.255589 Si / 1000 Ang^3
#
#
#
# Elastic Constant Matrix: (Units=GPa)
#
#
# Indices 1 2 3 4 5 6 
#
# 1 123.6434 29.8898 39.0161 0.0000 0.0000 0.0000
# 2 29.8898 71.8098 26.8743 0.0000 0.0000 0.0000
# 3 39.0161 26.8743 93.3795 0.0000 0.0000 0.0000
# 4 0.0000 0.0000 0.0000 30.8622 0.0000 0.0000
# 5 0.0000 0.0000 0.0000 0.0000 17.9645 0.0000
# 6 0.0000 0.0000 0.0000 0.0000 0.0000 24.2663
#
#
#
# Elastic Compliance Matrix: (Units=1/GPa)
#
#
# Indices 1 2 3 4 5 6 
#
# 1 0.009813 -0.002858 -0.003278 0.000000 0.000000 0.000000
# 2 -0.002858 0.016439 -0.003537 0.000000 0.000000 0.000000
# 3 -0.003278 -0.003537 0.013096 0.000000 0.000000 0.000000
# 4 0.000000 0.000000 0.000000 0.032402 0.000000 0.000000
# 5 0.000000 0.000000 0.000000 0.000000 0.055665 0.000000
# 6 0.000000 0.000000 0.000000 0.000000 0.000000 0.041209
#
#
# Mechanical properties :
#
#
# Convention : Reuss Voigt Hill
#
# Bulk Modulus (GPa) = 49.99169 53.37703 51.68436
# Shear Modulus (GPa) = 25.68876 27.48876 26.58876
#
# Velocity S-wave (km/s) = 3.48021 3.60008 3.54065
# Velocity P-wave (km/s) = 6.30235 6.51516 6.40963
#
# Compressibility (1/GPa) = 0.02000332
#
# Stress axis : x y z
#
# Youngs Moduli (GPa) = 101.90683 60.83128 76.35709
#
# Poissons Ratio (x) = 0.17385 0.25026
# Poissons Ratio (y) = 0.29124 0.27007
# Poissons Ratio (z) = 0.33401 0.21516
#
# Static dielectric constant tensor:
#      x y z
#    x 3.981540 0.000000 0.000000 
#    y 0.000000 3.691140 0.000000 
#    z 0.000000 0.000000 3.784470 
# 
# 
# High freq. dielectric constant tensor:
#      x y z
#    x 1.837230 0.000000 0.000000 
#    y 0.000000 1.819960 0.000000 
#    z 0.000000 0.000000 1.826140 
# 
# From -- ./inp_files/4201.got.cif
#   From: 2010.03.12/outbox.cif.g09.slc.cpg/sg36_3_cif.got.tgz:4201.got - 2010.04.14 02:13:53.
