data_PCOD8176407
_publ_section_title
;
Structure prediction by ZEFSAII (Michael W. Deem and Ramdas Pophale) SiO2 
 PCOD8176407
Probable space group: C C C 2
;
_chemical_formula_sum "Si O2"
_cell_formula_units_Z 48
_cell_length_a 9.065861
_cell_length_b 17.393029
_cell_length_c 15.122940
_cell_angle_alpha 90.000000
_cell_angle_beta 90.000000
_cell_angle_gamma 90.000000
_cell_volume 2384.627271
_symmetry_space_group_name_H-M "C C C 2"
_symmetry_group_IT_number 37
_symmetry_cell_setting 'orthorhombic'
loop_
_space_group_symop_operation_xyz
x,y,z
-x,-y,z
-x,y,1/2+z
x,-y,1/2+z
1/2+x,1/2+y,z
1/2-x,1/2-y,z
1/2-x,1/2+y,1/2+z
1/2+x,1/2-y,1/2+z
loop_
_atom_site_type_symbol
_atom_site_label
_atom_site_fract_x
_atom_site_fract_y
_atom_site_fract_z
Si Si1 0.346287 0.465300 0.358790
Si Si2 0.848520 0.545208 0.715886
Si Si3 0.903372 0.712858 0.671680
Si Si4 0.354843 0.687751 0.754952
Si Si5 0.829272 0.507280 0.022794
Si Si6 0.815735 0.673844 0.073424
O O1 0.500000 0.500000 0.387888
O O2 0.270799 0.519514 0.286731
O O3 0.376632 0.381388 0.321268
O O4 0.252250 0.458878 0.447978
O O5 0.872343 0.636149 0.728705
O O6 0.786057 0.527103 0.618104
O O7 0.000000 0.500000 0.732486
O O8 0.750000 0.750000 0.637120
O O9 0.985951 0.776083 0.731976
O O10 0.009052 0.687152 0.590184
O O11 0.250000 0.750000 0.803320
O O12 0.268083 0.661454 0.666592
O O13 0.788062 0.597989 0.015703
O O14 0.000000 0.500000 0.003966
O O15 0.750000 0.750000 0.025049
#
# Coordination Sequence:
#
# PCOD8176407 Si02
#       6
#     8   8   8   8   8   8
#     4  12  25  40  60  97 132 165 208 270 325 374
#     4  11  20  41  68  88 122 171 217 259 311 388
#     4  10  18  33  63  96 116 156 209 258 318 374
#     4   9  19  39  65  89 120 163 210 256 320 375
#     4  11  22  41  64  92 124 168 224 252 315 392
#     4   9  18  38  63  89 119 162 207 258 314 372
#
# _framework density 20.12893
#
# number of rings (size 3 to 8) (size 9 to 14) (size 15 to 20)
#    0.000    2.000    5.000    2.500    0.000    0.667 
#    6.000    5.000    0.000    0.000    0.000    0.000 
#    0.000    0.000    0.000    0.000    0.000    0.000 
#
# Total GULP energy -297552.052816 kJ/mol
# GULP energy per Si atom -12398.002201 kJ/mol
# Density = 2.008312 g / cm^3
# Si number density = 20.128930 Si / 1000 Ang^3
#
#
#
# Elastic Constant Matrix: (Units=GPa)
#
#
# Indices 1 2 3 4 5 6 
#
# 1 93.2280 22.7897 33.2832 0.0000 0.0000 0.0000
# 2 22.7897 119.2172 18.1805 0.0000 0.0000 0.0000
# 3 33.2832 18.1805 75.6307 0.0000 0.0000 0.0000
# 4 0.0000 0.0000 0.0000 -23.8988 0.0000 0.0000
# 5 0.0000 0.0000 0.0000 0.0000 -16.6872 0.0000
# 6 0.0000 0.0000 0.0000 0.0000 0.0000 33.0090
#
#
#
# Elastic Compliance Matrix: (Units=1/GPa)
#
#
# Indices 1 2 3 4 5 6 
#
# 1 0.013042 -0.001679 -0.005336 0.000000 0.000000 0.000000
# 2 -0.001679 0.008924 -0.001406 0.000000 0.000000 0.000000
# 3 -0.005336 -0.001406 0.015908 0.000000 0.000000 0.000000
# 4 0.000000 0.000000 0.000000 -0.041843 0.000000 0.000000
# 5 0.000000 0.000000 0.000000 0.000000 -0.059926 0.000000
# 6 0.000000 0.000000 0.000000 0.000000 0.000000 0.030295
#
#
# Mechanical properties :
#
#
# Convention : Reuss Voigt Hill
#
# Bulk Modulus (GPa) = 47.54804 48.50918 48.02861
# Shear Modulus (GPa) = -512.91637 12.73942 -250.08847
#
# Velocity S-wave (km/s) = -15.98026 2.51846 -11.15854
# Velocity P-wave (km/s) = 17.79940 5.71038 11.92078
#
# Compressibility (1/GPa) = 0.02103136
#
# Stress axis : x y z
#
# Youngs Moduli (GPa) = 76.67650 112.06362 62.86054
#
# Poissons Ratio (x) = 0.18820 0.33540
# Poissons Ratio (y) = 0.12877 0.08838
# Poissons Ratio (z) = 0.40912 0.15756
#
# Static dielectric constant tensor:
#      x y z
#    x 3.724060 0.000000 0.000000 
#    y 0.000000 4.090290 0.000000 
#    z 0.000000 0.000000 3.241170 
# 
# 
# High freq. dielectric constant tensor:
#      x y z
#    x 1.791710 0.000000 0.000000 
#    y 0.000000 1.805260 0.000000 
#    z 0.000000 0.000000 1.740770 
# 
# From -- ./inp_files/10592.got.cif
#   From: 2010.03.12/outbox.cif.g09.slc.cpg/sg37_6_cif.got.tgz:10592.got - 2010.04.14 02:25:27.
