data_PCOD8176265
_publ_section_title
;
Structure prediction by ZEFSAII (Michael W. Deem and Ramdas Pophale) SiO2 
 PCOD8176265
Probable space group: C M C 21
;
_chemical_formula_sum "Si O2"
_cell_formula_units_Z 48
_cell_length_a 8.506664
_cell_length_b 19.799550
_cell_length_c 13.865805
_cell_angle_alpha 90.000000
_cell_angle_beta 90.000000
_cell_angle_gamma 90.000000
_cell_volume 2335.391457
_symmetry_space_group_name_H-M "C M C 21"
_symmetry_group_IT_number 36
_symmetry_cell_setting 'orthorhombic'
loop_
_space_group_symop_operation_xyz
x,y,z
-x,-y,1/2+z
x,-y,1/2+z
-x,y,z
1/2+x,1/2+y,z
1/2-x,1/2-y,1/2+z
1/2+x,1/2-y,1/2+z
1/2-x,1/2+y,z
loop_
_atom_site_type_symbol
_atom_site_label
_atom_site_fract_x
_atom_site_fract_y
_atom_site_fract_z
Si Si1 0.681156 0.581202 0.484420
Si Si2 0.313921 0.105670 0.685284
Si Si3 0.817994 0.060788 0.886806
Si Si4 0.181790 0.761726 0.687906
Si Si5 0.180409 0.706758 0.379220
Si Si6 0.319379 0.180186 0.999169
O O1 0.500000 0.603589 0.484432
O O2 0.737345 0.568106 0.593681
O O3 0.707417 0.515652 0.419557
O O4 0.786070 0.639766 0.439010
O O5 0.500000 0.097994 0.681002
O O6 0.250298 0.068966 0.780082
O O7 0.262140 0.184039 0.683275
O O8 0.000000 0.081781 0.887249
O O9 0.724772 0.105917 0.963585
O O10 0.282305 0.803214 0.766475
O O11 0.209319 0.797829 0.586696
O O12 0.000000 0.766674 0.715270
O O13 0.290948 0.768410 0.411521
O O14 0.000000 0.726490 0.395604
O O15 0.500000 0.181925 0.031321
#
# Coordination Sequence:
#
# PCOD8176265 Si02
#       6
#     8   8   8   8   8   8
#     4  11  25  44  67  95 131 173 214 264 323 385
#     4  11  23  40  67  96 126 170 216 265 321 384
#     4  11  25  44  67  95 131 173 214 264 323 385
#     4  11  23  40  65  98 130 168 216 267 319 380
#     4  12  24  40  65  96 128 167 213 265 317 376
#     4  12  24  40  65  96 128 167 213 265 317 376
#
# _framework density 20.553298999999999
#
# number of rings (size 3 to 8) (size 9 to 14) (size 15 to 20)
#    0.000    0.667    3.333    5.000    0.000    5.333 
#    0.000    1.667    0.000    0.000    0.000    0.000 
#    0.000    0.000    0.000    0.000    0.000    0.000 
#
# Total GULP energy -297800.436617 kJ/mol
# GULP energy per Si atom -12408.351526 kJ/mol
# Density = 2.050652 g / cm^3
# Si number density = 20.553299 Si / 1000 Ang^3
#
#
#
# Elastic Constant Matrix: (Units=GPa)
#
#
# Indices 1 2 3 4 5 6 
#
# 1 99.6058 34.8273 29.4623 0.0000 0.0000 0.0000
# 2 34.8273 55.8930 19.4126 0.0000 0.0000 0.0000
# 3 29.4623 19.4126 121.6632 0.0000 0.0000 0.0000
# 4 0.0000 0.0000 0.0000 27.7428 0.0000 0.0000
# 5 0.0000 0.0000 0.0000 0.0000 39.0045 0.0000
# 6 0.0000 0.0000 0.0000 0.0000 0.0000 30.7728
#
#
#
# Elastic Compliance Matrix: (Units=1/GPa)
#
#
# Indices 1 2 3 4 5 6 
#
# 1 0.013284 -0.007580 -0.002007 0.000000 0.000000 0.000000
# 2 -0.007580 0.023266 -0.001877 0.000000 0.000000 0.000000
# 3 -0.002007 -0.001877 0.009005 0.000000 0.000000 0.000000
# 4 0.000000 0.000000 0.000000 0.036045 0.000000 0.000000
# 5 0.000000 0.000000 0.000000 0.000000 0.025638 0.000000
# 6 0.000000 0.000000 0.000000 0.000000 0.000000 0.032496
#
#
# Mechanical properties :
#
#
# Convention : Reuss Voigt Hill
#
# Bulk Modulus (GPa) = 44.19550 49.39628 46.79589
# Shear Modulus (GPa) = 29.37634 32.40135 30.88884
#
# Velocity S-wave (km/s) = 3.78468 3.97477 3.88089
# Velocity P-wave (km/s) = 6.37557 6.71941 6.54975
#
# Compressibility (1/GPa) = 0.02262674
#
# Stress axis : x y z
#
# Youngs Moduli (GPa) = 75.28041 42.98063 111.04963
#
# Poissons Ratio (x) = 0.32579 0.22292
# Poissons Ratio (y) = 0.57062 0.20842
# Poissons Ratio (z) = 0.15111 0.08067
#
# Static dielectric constant tensor:
#      x y z
#    x 3.784190 0.000000 0.000000 
#    y 0.000000 3.608680 0.000000 
#    z 0.000000 0.000000 3.848540 
# 
# 
# High freq. dielectric constant tensor:
#      x y z
#    x 1.817820 0.000000 0.000000 
#    y 0.000000 1.792010 0.000000 
#    z 0.000000 0.000000 1.820290 
# 
# From -- ./inp_files/10383.got.cif
#   From: 2010.03.12/outbox.cif.g09.slc.cpg/sg36_6_cif.got.tgz:10383.got - 2010.04.14 02:13:53.
