data_PCOD8176964
_publ_section_title
;
Structure prediction by ZEFSAII (Michael W. Deem and Ramdas Pophale) SiO2 
 PCOD8176964
Probable space group: C C C 2
;
_chemical_formula_sum "Si O2"
_cell_formula_units_Z 60
_cell_length_a 18.765991
_cell_length_b 11.759334
_cell_length_c 11.622274
_cell_angle_alpha 90.000000
_cell_angle_beta 90.000000
_cell_angle_gamma 90.000000
_cell_volume 2564.751777
_symmetry_space_group_name_H-M "C C C 2"
_symmetry_group_IT_number 37
_symmetry_cell_setting 'orthorhombic'
loop_
_space_group_symop_operation_xyz
x,y,z
-x,-y,z
-x,y,1/2+z
x,-y,1/2+z
1/2+x,1/2+y,z
1/2-x,1/2-y,z
1/2-x,1/2+y,1/2+z
1/2+x,1/2-y,1/2+z
loop_
_atom_site_type_symbol
_atom_site_label
_atom_site_fract_x
_atom_site_fract_y
_atom_site_fract_z
Si Si1 0.876749 0.083734 0.920830
Si Si2 0.249961 0.112664 0.259153
Si Si3 0.539670 0.307970 0.732631
Si Si4 0.750000 0.750000 0.883701
Si Si5 0.985101 0.371612 0.395770
Si Si6 0.075241 0.268097 0.585353
Si Si7 0.346415 0.627735 0.557456
Si Si8 0.652323 0.088773 0.269046
O O1 0.799226 0.071232 0.864248
O O2 0.939264 0.092806 0.823833
O O3 0.875260 0.197434 0.999105
O O4 0.891655 0.973131 0.997895
O O5 0.250000 0.250000 0.262784
O O6 0.216628 0.075711 0.136259
O O7 0.326870 0.047027 0.267267
O O8 0.534400 0.190154 0.801408
O O9 0.461534 0.323056 0.673843
O O10 0.600926 0.298439 0.636746
O O11 0.726648 0.850575 0.798348
O O12 0.684251 0.709990 0.961025
O O13 0.900716 0.366987 0.369714
O O14 0.000000 0.500000 0.376023
O O15 0.007644 0.327588 0.521612
O O16 0.121515 0.366953 0.646503
#
# Coordination Sequence:
#
# PCOD8176964 Si02
#       8
#     8   8   8   4   8   8   8   8
#     4  10  23  43  68 101 142 184 237 293 348 429
#     4  11  25  44  68 103 144 186 237 290 357 427
#     4   9  22  44  67 100 139 179 236 290 351 414
#     4  12  24  44  64 100 140 180 234 284 352 426
#     4  10  23  43  70 104 139 181 234 290 357 423
#     4  10  23  45  68 105 140 187 234 291 358 429
#     4  11  23  42  69  99 140 187 237 287 356 427
#     4  11  26  42  72 103 141 187 231 294 351 425
#
# _framework density 23.394076999999999
#
# number of rings (size 3 to 8) (size 9 to 14) (size 15 to 20)
#    0.000    1.600    2.000    0.800    7.467    4.800 
#    0.000    5.333    0.000    0.000    0.000    0.000 
#    0.000    0.000    0.000    0.000    0.000    0.000 
#
# Total GULP energy -371717.965500 kJ/mol
# GULP energy per Si atom -12390.598850 kJ/mol
# Density = 2.334083 g / cm^3
# Si number density = 23.394077 Si / 1000 Ang^3
#
#
#
# Elastic Constant Matrix: (Units=GPa)
#
#
# Indices 1 2 3 4 5 6 
#
# 1 98.1991 57.7619 53.7856 0.0000 0.0000 0.0000
# 2 57.7619 123.6591 53.6352 0.0000 0.0000 0.0000
# 3 53.7856 53.6352 119.9457 0.0000 0.0000 0.0000
# 4 0.0000 0.0000 0.0000 27.9837 0.0000 0.0000
# 5 0.0000 0.0000 0.0000 0.0000 32.0153 0.0000
# 6 0.0000 0.0000 0.0000 0.0000 0.0000 49.6763
#
#
#
# Elastic Compliance Matrix: (Units=1/GPa)
#
#
# Indices 1 2 3 4 5 6 
#
# 1 0.015954 -0.005396 -0.004741 0.000000 0.000000 0.000000
# 2 -0.005396 0.011857 -0.002883 0.000000 0.000000 0.000000
# 3 -0.004741 -0.002883 0.011752 0.000000 0.000000 0.000000
# 4 0.000000 0.000000 0.000000 0.035735 0.000000 0.000000
# 5 0.000000 0.000000 0.000000 0.000000 0.031235 0.000000
# 6 0.000000 0.000000 0.000000 0.000000 0.000000 0.020130
#
#
# Mechanical properties :
#
#
# Convention : Reuss Voigt Hill
#
# Bulk Modulus (GPa) = 73.94093 74.68547 74.31320
# Shear Modulus (GPa) = 31.80418 33.70980 32.75699
#
# Velocity S-wave (km/s) = 3.69114 3.80011 3.74602
# Velocity P-wave (km/s) = 7.05984 7.15882 7.10950
#
# Compressibility (1/GPa) = 0.01352431
#
# Stress axis : x y z
#
# Youngs Moduli (GPa) = 62.67942 84.33503 85.09050
#
# Poissons Ratio (x) = 0.45506 0.40344
# Poissons Ratio (y) = 0.33821 0.24528
# Poissons Ratio (z) = 0.29718 0.24311
#
# Static dielectric constant tensor:
#      x y z
#    x 3.833200 0.000000 0.000000 
#    y 0.000000 3.994280 0.000000 
#    z 0.000000 0.000000 4.546860 
# 
# 
# High freq. dielectric constant tensor:
#      x y z
#    x 1.918630 0.000000 0.000000 
#    y 0.000000 1.915710 0.000000 
#    z 0.000000 0.000000 1.936970 
# 
# From -- ./inp_files/8653.got.cif
#   From: 2010.03.12/outbox.cif.g09.slc.cpg/sg37_5_cif.got.tgz:8653.got - 2010.04.14 02:25:27.
