data_PCOD8176211
_publ_section_title
;
Structure prediction by ZEFSAII (Michael W. Deem and Ramdas Pophale) SiO2 
 PCOD8176211
Probable space group: C M C 21
;
_chemical_formula_sum "Si O2"
_cell_formula_units_Z 64
_cell_length_a 17.979838
_cell_length_b 9.842600
_cell_length_c 19.703609
_cell_angle_alpha 90.000000
_cell_angle_beta 90.000000
_cell_angle_gamma 90.000000
_cell_volume 3486.915243
_symmetry_space_group_name_H-M "C M C 21"
_symmetry_group_IT_number 36
_symmetry_cell_setting 'orthorhombic'
loop_
_space_group_symop_operation_xyz
x,y,z
-x,-y,1/2+z
x,-y,1/2+z
-x,y,z
1/2+x,1/2+y,z
1/2-x,1/2-y,1/2+z
1/2+x,1/2-y,1/2+z
1/2-x,1/2+y,z
loop_
_atom_site_type_symbol
_atom_site_label
_atom_site_fract_x
_atom_site_fract_y
_atom_site_fract_z
Si Si1 0.586205 0.567432 0.642770
Si Si2 0.199764 0.625738 0.252773
Si Si3 0.164563 0.838138 0.562776
Si Si4 0.170135 0.925282 0.272707
Si Si5 0.800238 0.874265 0.416910
Si Si6 0.670136 0.925280 0.896976
Si Si7 0.164569 0.338137 0.606906
Si Si8 0.913794 0.567426 0.526911
O O1 0.500000 0.585040 0.626755
O O2 0.615828 0.425717 0.614049
O O3 0.597751 0.569150 0.724625
O O4 0.631724 0.686852 0.606340
O O5 0.215909 0.787061 0.257185
O O6 0.279139 0.553331 0.254732
O O7 0.149003 0.574849 0.316634
O O8 0.158087 0.594731 0.182061
O O9 0.158084 0.905271 0.487622
O O10 0.249997 0.831076 0.584842
O O11 0.131717 0.686854 0.563341
O O12 0.149001 0.925152 0.353048
O O13 0.784092 0.712942 0.412498
O O14 0.720864 0.946674 0.414951
O O15 0.597751 0.930852 0.945056
O O16 0.115837 0.425716 0.555632
O O17 0.000000 0.585015 0.542927
#
# Coordination Sequence:
#
# PCOD8176211 Si02
#       8
#     8   8   8   8   8   8   8   8
#     4  11  23  37  54  82 117 146 176 227 285 327
#     4   9  18  32  55  82 102 135 186 229 258 311
#     4  11  21  36  58  83 106 146 190 225 265 327
#     4   9  18  34  53  80 106 138 178 227 267 317
#     4   9  18  32  55  82 102 135 186 229 258 311
#     4   9  18  34  53  80 106 138 178 227 267 317
#     4  11  21  36  58  83 106 146 190 225 265 327
#     4  11  23  37  54  82 117 146 176 227 285 327
#
# _framework density 18.354333
#
# number of rings (size 3 to 8) (size 9 to 14) (size 15 to 20)
#    0.000    2.000    2.500    1.500    3.500    0.000 
#    0.000   11.250    0.000    0.000    0.000    8.750 
#    0.000    0.000    0.000    0.000    0.000    0.000 
#
# Total GULP energy -396662.484426 kJ/mol
# GULP energy per Si atom -12395.702638 kJ/mol
# Density = 1.831256 g / cm^3
# Si number density = 18.354333 Si / 1000 Ang^3
#
#
#
# Elastic Constant Matrix: (Units=GPa)
#
#
# Indices 1 2 3 4 5 6 
#
# 1 83.4849 24.9246 38.3179 0.0000 0.0000 0.0000
# 2 24.9246 56.3007 27.2934 0.0000 0.0000 0.0000
# 3 38.3179 27.2934 107.6346 0.0000 0.0000 0.0000
# 4 0.0000 0.0000 0.0000 23.2595 0.0000 0.0000
# 5 0.0000 0.0000 0.0000 0.0000 15.6152 0.0000
# 6 0.0000 0.0000 0.0000 0.0000 0.0000 16.8586
#
#
#
# Elastic Compliance Matrix: (Units=1/GPa)
#
#
# Indices 1 2 3 4 5 6 
#
# 1 0.015347 -0.004727 -0.004265 0.000000 0.000000 0.000000
# 2 -0.004727 0.021707 -0.003822 0.000000 0.000000 0.000000
# 3 -0.004265 -0.003822 0.011778 0.000000 0.000000 0.000000
# 4 0.000000 0.000000 0.000000 0.042993 0.000000 0.000000
# 5 0.000000 0.000000 0.000000 0.000000 0.064040 0.000000
# 6 0.000000 0.000000 0.000000 0.000000 0.000000 0.059317
#
#
# Mechanical properties :
#
#
# Convention : Reuss Voigt Hill
#
# Bulk Modulus (GPa) = 43.09325 47.61024 45.35174
# Shear Modulus (GPa) = 20.11719 21.60561 20.86140
#
# Velocity S-wave (km/s) = 3.31425 3.43467 3.37500
# Velocity P-wave (km/s) = 6.17860 6.45950 6.32061
#
# Compressibility (1/GPa) = 0.02320549
#
# Stress axis : x y z
#
# Youngs Moduli (GPa) = 65.15991 46.06832 84.90339
#
# Poissons Ratio (x) = 0.21775 0.36211
# Poissons Ratio (y) = 0.30798 0.32447
# Poissons Ratio (z) = 0.27790 0.17606
#
# Static dielectric constant tensor:
#      x y z
#    x 2.944860 0.000000 0.000000 
#    y 0.000000 3.434600 0.000000 
#    z 0.000000 0.000000 3.958000 
# 
# 
# High freq. dielectric constant tensor:
#      x y z
#    x 1.664160 0.000000 0.000000 
#    y 0.000000 1.719480 0.000000 
#    z 0.000000 0.000000 1.734770 
# 
# From -- ./inp_files/16229.got.cif
#   From: 2010.03.12/outbox.cif.g09.slc.cpg/sg36_9_cif.got.tgz:16229.got - 2010.04.14 02:13:53.
