data_PCOD8176732
_publ_section_title
;
Structure prediction by ZEFSAII (Michael W. Deem and Ramdas Pophale) SiO2 
 PCOD8176732
Probable space group: C C C 2
;
_chemical_formula_sum "Si O2"
_cell_formula_units_Z 64
_cell_length_a 18.952295
_cell_length_b 5.243056
_cell_length_c 27.951036
_cell_angle_alpha 90.000000
_cell_angle_beta 90.000000
_cell_angle_gamma 90.000000
_cell_volume 2777.436980
_symmetry_space_group_name_H-M "C C C 2"
_symmetry_group_IT_number 37
_symmetry_cell_setting 'orthorhombic'
loop_
_space_group_symop_operation_xyz
x,y,z
-x,-y,z
-x,y,1/2+z
x,-y,1/2+z
1/2+x,1/2+y,z
1/2-x,1/2-y,z
1/2-x,1/2+y,1/2+z
1/2+x,1/2-y,1/2+z
loop_
_atom_site_type_symbol
_atom_site_label
_atom_site_fract_x
_atom_site_fract_y
_atom_site_fract_z
Si Si1 0.328791 0.841575 0.712580
Si Si2 0.831814 0.768319 0.317087
Si Si3 0.076772 0.468432 0.878947
Si Si4 0.831088 0.737596 0.515719
Si Si5 0.458228 0.256709 0.584331
Si Si6 0.099077 0.823532 0.186057
Si Si7 0.435076 0.671257 0.289016
Si Si8 0.330893 0.263346 0.954926
O O1 0.250000 0.750000 0.706103
O O2 0.345156 0.904053 0.768876
O O3 0.375289 0.615085 0.689429
O O4 0.340055 0.105280 0.683456
O O5 0.750000 0.750000 0.331001
O O6 0.872523 0.710085 0.367778
O O7 0.858022 0.043478 0.298746
O O8 0.061836 0.409114 0.823618
O O9 0.119119 0.255814 0.908634
O O10 0.000000 0.500000 0.904464
O O11 0.750000 0.750000 0.533109
O O12 0.880030 0.752167 0.562135
O O13 0.848264 0.474033 0.489261
O O14 0.848493 0.971551 0.480579
O O15 0.500000 0.500000 0.563020
O O16 0.451808 0.291031 0.641069
O O17 0.500000 0.000000 0.571171
O O18 0.053807 0.755946 0.233531
O O19 0.500000 0.500000 0.306480
O O20 0.250000 0.250000 0.938052
#
# Coordination Sequence:
#
# PCOD8176732 Si02
#       8
#     8   8   8   8   8   8   8   8
#     4  10  21  39  61  94 134 182 236 287 333 390
#     4  10  23  39  60  89 130 180 231 285 338 391
#     4  12  25  40  64  97 133 180 234 279 336 406
#     4  10  24  50  75 102 135 177 223 286 358 424
#     4  12  26  45  73 110 140 180 233 286 352 415
#     4  11  23  41  65  96 141 186 230 281 339 409
#     4  11  23  40  61  91 137 186 230 282 331 405
#     4  10  25  45  73 102 135 176 228 282 355 420
#
# _framework density 23.042826000000002
#
# number of rings (size 3 to 8) (size 9 to 14) (size 15 to 20)
#    0.000    1.250    2.500    2.250    3.500    4.500 
#    0.000    1.250    0.000    0.000    0.000    0.000 
#    0.000    0.000    0.000    0.000    0.000    0.000 
#
# Total GULP energy -396593.222639 kJ/mol
# GULP energy per Si atom -12393.538207 kJ/mol
# Density = 2.299038 g / cm^3
# Si number density = 23.042826 Si / 1000 Ang^3
#
#
#
# Elastic Constant Matrix: (Units=GPa)
#
#
# Indices 1 2 3 4 5 6 
#
# 1 131.2867 38.0736 46.2275 0.0000 0.0000 0.0000
# 2 38.0736 105.0571 22.6428 0.0000 0.0000 0.0000
# 3 46.2275 22.6428 84.6187 0.0000 0.0000 0.0000
# 4 0.0000 0.0000 0.0000 19.8884 0.0000 0.0000
# 5 0.0000 0.0000 0.0000 0.0000 20.0577 0.0000
# 6 0.0000 0.0000 0.0000 0.0000 0.0000 29.6400
#
#
#
# Elastic Compliance Matrix: (Units=1/GPa)
#
#
# Indices 1 2 3 4 5 6 
#
# 1 0.010065 -0.002613 -0.004799 0.000000 0.000000 0.000000
# 2 -0.002613 0.010780 -0.001457 0.000000 0.000000 0.000000
# 3 -0.004799 -0.001457 0.014829 0.000000 0.000000 0.000000
# 4 0.000000 0.000000 0.000000 0.050281 0.000000 0.000000
# 5 0.000000 0.000000 0.000000 0.000000 0.049856 0.000000
# 6 0.000000 0.000000 0.000000 0.000000 0.000000 0.033738
#
#
# Mechanical properties :
#
#
# Convention : Reuss Voigt Hill
#
# Bulk Modulus (GPa) = 55.75601 59.42779 57.59190
# Shear Modulus (GPa) = 25.87123 28.18515 27.02819
#
# Velocity S-wave (km/s) = 3.35437 3.50117 3.42856
# Velocity P-wave (km/s) = 6.26511 6.49541 6.38130
#
# Compressibility (1/GPa) = 0.01793528
#
# Stress axis : x y z
#
# Youngs Moduli (GPa) = 99.35878 92.76724 67.43408
#
# Poissons Ratio (x) = 0.24241 0.32362
# Poissons Ratio (y) = 0.25964 0.09825
# Poissons Ratio (z) = 0.47683 0.13515
#
# Static dielectric constant tensor:
#      x y z
#    x 4.582920 0.000000 0.000000 
#    y 0.000000 4.317850 0.000000 
#    z 0.000000 0.000000 3.934610 
# 
# 
# High freq. dielectric constant tensor:
#      x y z
#    x 1.918410 0.000000 0.000000 
#    y 0.000000 1.916770 0.000000 
#    z 0.000000 0.000000 1.890370 
# 
# From -- ./inp_files/20619.got.cif
#   From: 2010.03.12/outbox.cif.g09.slc.cpg/sg37_11_cif.got.tgz:20619.got - 2010.04.14 02:25:27.
