data_PCOD8176507
_publ_section_title
;
Structure prediction by ZEFSAII (Michael W. Deem and Ramdas Pophale) SiO2 
 PCOD8176507
Probable space group: C C C 2
;
_chemical_formula_sum "Si O2"
_cell_formula_units_Z 64
_cell_length_a 14.355079
_cell_length_b 8.440568
_cell_length_c 22.830177
_cell_angle_alpha 90.000000
_cell_angle_beta 90.000000
_cell_angle_gamma 90.000000
_cell_volume 2766.218863
_symmetry_space_group_name_H-M "C C C 2"
_symmetry_group_IT_number 37
_symmetry_cell_setting 'orthorhombic'
loop_
_space_group_symop_operation_xyz
x,y,z
-x,-y,z
-x,y,1/2+z
x,-y,1/2+z
1/2+x,1/2+y,z
1/2-x,1/2-y,z
1/2-x,1/2+y,1/2+z
1/2+x,1/2-y,1/2+z
loop_
_atom_site_type_symbol
_atom_site_label
_atom_site_fract_x
_atom_site_fract_y
_atom_site_fract_z
Si Si1 0.350314 0.678191 0.375000
Si Si2 0.473393 0.760892 0.088570
Si Si3 0.498283 0.186614 0.457377
Si Si4 0.350844 0.698274 0.866857
Si Si5 0.865881 0.437044 0.636131
Si Si6 0.565030 0.130352 0.757152
Si Si7 0.185930 0.094122 0.648819
Si Si8 0.072162 0.129094 0.757040
O O1 0.250000 0.750000 0.384924
O O2 0.407914 0.743445 0.429632
O O3 0.354446 0.489733 0.368665
O O4 0.389328 0.732429 0.311917
O O5 0.580915 0.777346 0.113395
O O6 0.410676 0.612772 0.112191
O O7 0.416660 0.919326 0.103598
O O8 0.481273 0.731140 0.019546
O O9 0.415083 0.227146 0.415149
O O10 0.500000 0.000000 0.466724
O O11 0.250000 0.750000 0.885886
O O12 0.374291 0.769946 0.803031
O O13 0.872873 0.450759 0.706874
O O14 0.752961 0.449983 0.625310
O O15 0.492952 0.246451 0.721655
O O16 0.500000 0.000000 0.789767
O O17 0.250000 0.250000 0.647282
O O18 0.153671 0.060223 0.715907
O O19 0.000000 0.000000 0.782525
#
# Coordination Sequence:
#
# PCOD8176507 Si02
#       8
#     8   8   8   8   8   8   8   8
#     4  12  27  49  70 102 152 194 251 316 373 446
#     4  10  20  42  70 103 147 192 241 307 372 441
#     4  12  24  47  78 104 145 202 246 309 380 438
#     4  12  28  45  69 112 147 190 254 305 374 462
#     4  10  19  39  68 108 147 178 246 302 364 462
#     4  12  22  40  74 102 147 191 228 307 386 452
#     4  10  21  38  69 107 136 194 235 293 378 451
#     4  12  23  42  67 101 151 192 232 299 382 447
#
# _framework density 23.136275000000001
#
# number of rings (size 3 to 8) (size 9 to 14) (size 15 to 20)
#    0.000    0.750    6.250    2.625    3.500    1.500 
#    2.250    1.250    0.000    0.000    0.000    0.000 
#    0.000    0.000    0.000    0.000    0.000    0.000 
#
# Total GULP energy -396505.433226 kJ/mol
# GULP energy per Si atom -12390.794788 kJ/mol
# Density = 2.308362 g / cm^3
# Si number density = 23.136275 Si / 1000 Ang^3
#
#
#
# Elastic Constant Matrix: (Units=GPa)
#
#
# Indices 1 2 3 4 5 6 
#
# 1 178.0459 31.1431 57.2071 0.0000 0.0000 0.0000
# 2 31.1431 51.6166 9.4199 0.0000 0.0000 0.0000
# 3 57.2071 9.4199 140.4142 0.0000 0.0000 0.0000
# 4 0.0000 0.0000 0.0000 -58.1132 0.0000 0.0000
# 5 0.0000 0.0000 0.0000 0.0000 6.1785 0.0000
# 6 0.0000 0.0000 0.0000 0.0000 0.0000 35.9380
#
#
#
# Elastic Compliance Matrix: (Units=1/GPa)
#
#
# Indices 1 2 3 4 5 6 
#
# 1 0.007137 -0.003822 -0.002651 0.000000 0.000000 0.000000
# 2 -0.003822 0.021661 0.000104 0.000000 0.000000 0.000000
# 3 -0.002651 0.000104 0.008195 0.000000 0.000000 0.000000
# 4 0.000000 0.000000 0.000000 -0.017208 0.000000 0.000000
# 5 0.000000 0.000000 0.000000 0.000000 0.161852 0.000000
# 6 0.000000 0.000000 0.000000 0.000000 0.000000 0.027826
#
#
# Mechanical properties :
#
#
# Convention : Reuss Voigt Hill
#
# Bulk Modulus (GPa) = 41.23056 62.84632 52.03844
# Shear Modulus (GPa) = 21.71209 14.95443 18.33326
#
# Velocity S-wave (km/s) = 3.06673 2.54513 2.81802
# Velocity P-wave (km/s) = 5.51354 5.98827 5.75580
#
# Compressibility (1/GPa) = 0.02425385
#
# Stress axis : x y z
#
# Youngs Moduli (GPa) = 140.11511 46.16631 122.02581
#
# Poissons Ratio (x) = 0.17646 0.32353
# Poissons Ratio (y) = 0.53556 -0.01271
# Poissons Ratio (z) = 0.37149 -0.00481
#
# Static dielectric constant tensor:
#      x y z
#    x 4.735320 0.000000 0.000000 
#    y 0.000000 4.320460 0.000000 
#    z 0.000000 0.000000 4.087490 
# 
# 
# High freq. dielectric constant tensor:
#      x y z
#    x 1.928630 0.000000 0.000000 
#    y 0.000000 1.910100 0.000000 
#    z 0.000000 0.000000 1.900110 
# 
# From -- ./inp_files/18914.got.cif
#   From: 2010.03.12/outbox.cif.g09.slc.cpg/sg37_10_cif.got.tgz:18914.got - 2010.04.14 02:25:27.
