data_PCOD8176963
_publ_section_title
;
Structure prediction by ZEFSAII (Michael W. Deem and Ramdas Pophale) SiO2 
 PCOD8176963
Probable space group: C C C 2
;
_chemical_formula_sum "Si O2"
_cell_formula_units_Z 48
_cell_length_a 14.037562
_cell_length_b 8.471900
_cell_length_c 16.935765
_cell_angle_alpha 90.000000
_cell_angle_beta 90.000000
_cell_angle_gamma 90.000000
_cell_volume 2014.082830
_symmetry_space_group_name_H-M "C C C 2"
_symmetry_group_IT_number 37
_symmetry_cell_setting 'orthorhombic'
loop_
_space_group_symop_operation_xyz
x,y,z
-x,-y,z
-x,y,1/2+z
x,-y,1/2+z
1/2+x,1/2+y,z
1/2-x,1/2-y,z
1/2-x,1/2+y,1/2+z
1/2+x,1/2-y,1/2+z
loop_
_atom_site_type_symbol
_atom_site_label
_atom_site_fract_x
_atom_site_fract_y
_atom_site_fract_z
Si Si1 0.027424 0.683746 0.360110
Si Si2 0.099427 0.405800 0.147870
Si Si3 0.282704 0.409133 0.581342
Si Si4 0.358014 0.699466 0.509162
Si Si5 0.094975 0.899069 0.229025
Si Si6 0.651140 0.700383 0.301472
O O1 0.095256 0.742262 0.428934
O O2 0.075476 0.736138 0.276753
O O3 0.000000 0.500000 0.362673
O O4 0.929208 0.780949 0.368430
O O5 0.190493 0.504205 0.117999
O O6 0.081914 0.271469 0.081715
O O7 0.125374 0.316612 0.228540
O O8 0.000000 0.500000 0.157132
O O9 0.250000 0.250000 0.536139
O O10 0.348618 0.510619 0.521548
O O11 0.351509 0.347209 0.650815
O O12 0.250000 0.750000 0.509543
O O13 0.162455 0.017509 0.278145
O O14 0.000000 0.000000 0.211201
O O15 0.750000 0.750000 0.340321
#
# Coordination Sequence:
#
# PCOD8176963 Si02
#       6
#     8   8   8   8   8   8
#     4  11  26  44  71 108 142 200 249 306 376 452
#     4  11  22  42  74 107 141 193 249 303 371 444
#     4  11  24  41  74 110 141 195 245 312 370 442
#     4  10  23  49  70 100 148 195 243 309 381 443
#     4  10  23  43  67 104 146 192 237 308 368 438
#     4  11  21  43  70 105 145 191 243 302 377 439
#
# _framework density 23.832189
#
# number of rings (size 3 to 8) (size 9 to 14) (size 15 to 20)
#    0.000    1.333    3.333    1.500    7.000    2.000 
#    0.000   18.333    0.000    0.000    0.000    0.000 
#    0.000    0.000    0.000    0.000    0.000    0.000 
#
# Total GULP energy -297378.202534 kJ/mol
# GULP energy per Si atom -12390.758439 kJ/mol
# Density = 2.377795 g / cm^3
# Si number density = 23.832189 Si / 1000 Ang^3
#
#
#
# Elastic Constant Matrix: (Units=GPa)
#
#
# Indices 1 2 3 4 5 6 
#
# 1 80.8647 23.5963 14.8144 0.0000 0.0000 0.0000
# 2 23.5963 167.7583 37.2497 0.0000 0.0000 0.0000
# 3 14.8144 37.2497 35.3028 0.0000 0.0000 0.0000
# 4 0.0000 0.0000 0.0000 24.6304 0.0000 0.0000
# 5 0.0000 0.0000 0.0000 0.0000 27.0589 0.0000
# 6 0.0000 0.0000 0.0000 0.0000 0.0000 30.3721
#
#
#
# Elastic Compliance Matrix: (Units=1/GPa)
#
#
# Indices 1 2 3 4 5 6 
#
# 1 0.013485 -0.000836 -0.004777 0.000000 0.000000 0.000000
# 2 -0.000836 0.007837 -0.007918 0.000000 0.000000 0.000000
# 3 -0.004777 -0.007918 0.038686 0.000000 0.000000 0.000000
# 4 0.000000 0.000000 0.000000 0.040600 0.000000 0.000000
# 5 0.000000 0.000000 0.000000 0.000000 0.036956 0.000000
# 6 0.000000 0.000000 0.000000 0.000000 0.000000 0.032925
#
#
# Mechanical properties :
#
#
# Convention : Reuss Voigt Hill
#
# Bulk Modulus (GPa) = 30.35279 48.36073 39.35676
# Shear Modulus (GPa) = 23.97701 30.29664 27.13683
#
# Velocity S-wave (km/s) = 3.17531 3.56933 3.37807
# Velocity P-wave (km/s) = 5.11929 6.10926 5.63605
#
# Compressibility (1/GPa) = 0.03294590
#
# Stress axis : x y z
#
# Youngs Moduli (GPa) = 74.15416 127.60437 25.84942
#
# Poissons Ratio (x) = 0.10670 0.12348
# Poissons Ratio (y) = 0.06201 0.20468
# Poissons Ratio (z) = 0.35421 1.01038
#
# Static dielectric constant tensor:
#      x y z
#    x 4.679080 0.000000 0.000000 
#    y 0.000000 4.916170 0.000000 
#    z 0.000000 0.000000 4.020180 
# 
# 
# High freq. dielectric constant tensor:
#      x y z
#    x 1.960420 0.000000 0.000000 
#    y 0.000000 1.959660 0.000000 
#    z 0.000000 0.000000 1.916330 
# 
# From -- ./inp_files/15233.got.cif
#   From: 2010.03.12/outbox.cif.g09.slc.cpg/sg37_8_cif.got.tgz:15233.got - 2010.04.14 02:25:27.
