data_PCOD8176849
_publ_section_title
;
Structure prediction by ZEFSAII (Michael W. Deem and Ramdas Pophale) SiO2 
 PCOD8176849
Probable space group: C C C 2
;
_chemical_formula_sum "Si O2"
_cell_formula_units_Z 56
_cell_length_a 12.841739
_cell_length_b 14.116011
_cell_length_c 14.722544
_cell_angle_alpha 90.000000
_cell_angle_beta 90.000000
_cell_angle_gamma 90.000000
_cell_volume 2668.816340
_symmetry_space_group_name_H-M "C C C 2"
_symmetry_group_IT_number 37
_symmetry_cell_setting 'orthorhombic'
loop_
_space_group_symop_operation_xyz
x,y,z
-x,-y,z
-x,y,1/2+z
x,-y,1/2+z
1/2+x,1/2+y,z
1/2-x,1/2-y,z
1/2-x,1/2+y,1/2+z
1/2+x,1/2-y,1/2+z
loop_
_atom_site_type_symbol
_atom_site_label
_atom_site_fract_x
_atom_site_fract_y
_atom_site_fract_z
Si Si1 0.572269 0.091331 0.438430
Si Si2 0.572027 0.585434 0.119850
Si Si3 0.756241 0.007274 0.017981
Si Si4 0.982887 0.390168 0.245945
Si Si5 0.371980 0.732374 0.777151
Si Si6 0.417174 0.650636 0.968230
Si Si7 0.903620 0.330371 0.063108
O O1 0.584038 0.128727 0.336234
O O2 0.513961 0.161074 0.508262
O O3 0.500000 0.000000 0.431569
O O4 0.691467 0.073255 0.466291
O O5 0.500000 0.500000 0.159051
O O6 0.686610 0.542795 0.102024
O O7 0.590812 0.667420 0.193293
O O8 0.522877 0.624205 0.024117
O O9 0.673729 0.084261 0.048376
O O10 0.844160 0.058261 0.956871
O O11 0.094040 0.340700 0.260935
O O12 0.000000 0.500000 0.218025
O O13 0.924256 0.330473 0.169496
O O14 0.250000 0.750000 0.791573
O O15 0.430726 0.690940 0.866573
O O16 0.357645 0.729565 0.030540
#
# Coordination Sequence:
#
# PCOD8176849 Si02
#       7
#     8   8   8   8   8   8   8
#     4   9  20  36  60  92 129 162 210 272 335 384
#     4  10  25  46  67  96 137 179 222 271 332 395
#     4  10  22  39  66  94 126 179 220 261 332 401
#     4  11  23  38  63  98 134 166 218 277 342 377
#     4  12  26  42  72 102 131 177 231 272 329 408
#     4  11  23  43  65  93 135 175 218 274 328 394
#     4  11  20  38  64  91 129 168 213 281 331 384
#
# _framework density 20.983084999999999
#
# number of rings (size 3 to 8) (size 9 to 14) (size 15 to 20)
#    0.000    1.429    2.857    2.571    8.000    1.714 
#    0.000    1.429    0.000    0.000    0.000    0.000 
#    0.000    0.000    0.000    0.000    0.000    0.000 
#
# Total GULP energy -346921.622470 kJ/mol
# GULP energy per Si atom -12390.057945 kJ/mol
# Density = 2.093533 g / cm^3
# Si number density = 20.983085 Si / 1000 Ang^3
#
#
#
# Elastic Constant Matrix: (Units=GPa)
#
#
# Indices 1 2 3 4 5 6 
#
# 1 72.6944 28.5912 26.0323 0.0000 0.0000 0.0000
# 2 28.5912 97.0202 28.3238 0.0000 0.0000 0.0000
# 3 26.0323 28.3238 94.1256 0.0000 0.0000 0.0000
# 4 0.0000 0.0000 0.0000 20.7433 0.0000 0.0000
# 5 0.0000 0.0000 0.0000 0.0000 17.7457 0.0000
# 6 0.0000 0.0000 0.0000 0.0000 0.0000 30.7098
#
#
#
# Elastic Compliance Matrix: (Units=1/GPa)
#
#
# Indices 1 2 3 4 5 6 
#
# 1 0.016495 -0.003869 -0.003398 0.000000 0.000000 0.000000
# 2 -0.003869 0.012207 -0.002603 0.000000 0.000000 0.000000
# 3 -0.003398 -0.002603 0.012347 0.000000 0.000000 0.000000
# 4 0.000000 0.000000 0.000000 0.048208 0.000000 0.000000
# 5 0.000000 0.000000 0.000000 0.000000 0.056352 0.000000
# 6 0.000000 0.000000 0.000000 0.000000 0.000000 0.032563
#
#
# Mechanical properties :
#
#
# Convention : Reuss Voigt Hill
#
# Bulk Modulus (GPa) = 46.92814 47.74832 47.33823
# Shear Modulus (GPa) = 24.38843 25.89927 25.14385
#
# Velocity S-wave (km/s) = 3.41294 3.51706 3.46539
# Velocity P-wave (km/s) = 6.15988 6.26881 6.21458
#
# Compressibility (1/GPa) = 0.02130918
#
# Stress axis : x y z
#
# Youngs Moduli (GPa) = 60.62577 81.91824 80.99017
#
# Poissons Ratio (x) = 0.31694 0.27518
# Poissons Ratio (y) = 0.23456 0.21084
# Poissons Ratio (z) = 0.20599 0.21326
#
# Static dielectric constant tensor:
#      x y z
#    x 3.767440 0.000000 0.000000 
#    y 0.000000 4.075830 0.000000 
#    z 0.000000 0.000000 3.945390 
# 
# 
# High freq. dielectric constant tensor:
#      x y z
#    x 1.810150 0.000000 0.000000 
#    y 0.000000 1.831610 0.000000 
#    z 0.000000 0.000000 1.817930 
# 
# From -- ./inp_files/11596.got.cif
#   From: 2010.03.12/outbox.cif.g09.slc.cpg/sg37_6_cif.got.tgz:11596.got - 2010.04.14 02:25:27.
