data_PCOD8176918
_publ_section_title
;
Structure prediction by ZEFSAII (Michael W. Deem and Ramdas Pophale) SiO2 
 PCOD8176918
Probable space group: C C C 2
;
_chemical_formula_sum "Si O2"
_cell_formula_units_Z 56
_cell_length_a 9.196730
_cell_length_b 19.184162
_cell_length_c 13.743589
_cell_angle_alpha 90.000000
_cell_angle_beta 90.000000
_cell_angle_gamma 90.000000
_cell_volume 2424.802822
_symmetry_space_group_name_H-M "C C C 2"
_symmetry_group_IT_number 37
_symmetry_cell_setting 'orthorhombic'
loop_
_space_group_symop_operation_xyz
x,y,z
-x,-y,z
-x,y,1/2+z
x,-y,1/2+z
1/2+x,1/2+y,z
1/2-x,1/2-y,z
1/2-x,1/2+y,1/2+z
1/2+x,1/2-y,1/2+z
loop_
_atom_site_type_symbol
_atom_site_label
_atom_site_fract_x
_atom_site_fract_y
_atom_site_fract_z
Si Si1 0.845729 0.378559 0.173960
Si Si2 0.757090 0.379897 0.389673
Si Si3 0.750000 0.750000 0.232452
Si Si4 0.343666 0.511668 0.649667
Si Si5 0.250000 0.250000 0.549837
Si Si6 0.151278 0.973895 0.872675
Si Si7 0.922685 0.826788 0.395309
Si Si8 0.645591 0.868879 0.092462
O O1 0.839191 0.361680 0.289180
O O2 0.734861 0.438044 0.143708
O O3 0.813344 0.308439 0.118049
O O4 0.001721 0.405041 0.135463
O O5 0.765445 0.465181 0.398580
O O6 0.592836 0.348085 0.387629
O O7 0.853280 0.346724 0.477610
O O8 0.874149 0.787533 0.296656
O O9 0.672948 0.804279 0.162015
O O10 0.500000 0.500000 0.600788
O O11 0.359807 0.538955 0.758202
O O12 0.269920 0.572713 0.589338
O O13 0.113138 0.223641 0.485475
O O14 0.179404 0.895951 0.913620
O O15 0.000000 0.000000 0.915685
#
# Coordination Sequence:
#
# PCOD8176918 Si02
#       8
#     8   8   4   8   4   8   8   8
#     4  11  28  49  68 109 155 191 237 306 375 431
#     4  10  25  43  79 102 140 193 249 304 363 443
#     4  11  26  43  72 106 160 191 232 307 362 442
#     4  10  22  44  79 104 143 191 245 305 366 435
#     4  11  28  43  72 106 154 197 234 299 370 444
#     4   8  16  39  69 107 135 173 236 302 351 408
#     4  10  22  45  72 113 143 189 248 302 362 435
#     4  12  27  45  73 112 147 193 244 300 373 437
#
# _framework density 23.094660999999999
#
# number of rings (size 3 to 8) (size 9 to 14) (size 15 to 20)
#    0.000    1.714    1.429    1.286    8.000    3.429 
#    0.000    1.429    0.000    0.000    0.000    0.000 
#    0.000    0.000    0.000    0.000    0.000    0.000 
#
# Total GULP energy -347026.717025 kJ/mol
# GULP energy per Si atom -12393.811322 kJ/mol
# Density = 2.304210 g / cm^3
# Si number density = 23.094661 Si / 1000 Ang^3
#
#
#
# Elastic Constant Matrix: (Units=GPa)
#
#
# Indices 1 2 3 4 5 6 
#
# 1 128.6186 38.6755 53.1615 0.0000 0.0000 0.0000
# 2 38.6755 133.6794 62.6078 0.0000 0.0000 0.0000
# 3 53.1615 62.6078 158.2985 0.0000 0.0000 0.0000
# 4 0.0000 0.0000 0.0000 21.4545 0.0000 0.0000
# 5 0.0000 0.0000 0.0000 0.0000 26.2459 0.0000
# 6 0.0000 0.0000 0.0000 0.0000 0.0000 31.3160
#
#
#
# Elastic Compliance Matrix: (Units=1/GPa)
#
#
# Indices 1 2 3 4 5 6 
#
# 1 0.009267 -0.001502 -0.002518 0.000000 0.000000 0.000000
# 2 -0.001502 0.009425 -0.003223 0.000000 0.000000 0.000000
# 3 -0.002518 -0.003223 0.008438 0.000000 0.000000 0.000000
# 4 0.000000 0.000000 0.000000 0.046610 0.000000 0.000000
# 5 0.000000 0.000000 0.000000 0.000000 0.038101 0.000000
# 6 0.000000 0.000000 0.000000 0.000000 0.000000 0.031933
#
#
# Mechanical properties :
#
#
# Convention : Reuss Voigt Hill
#
# Bulk Modulus (GPa) = 79.09371 81.05400 80.07386
# Shear Modulus (GPa) = 30.77406 33.54672 32.16039
#
# Velocity S-wave (km/s) = 3.65433 3.81540 3.73573
# Velocity P-wave (km/s) = 7.21993 7.38799 7.30444
#
# Compressibility (1/GPa) = 0.01264323
#
# Stress axis : x y z
#
# Youngs Moduli (GPa) = 107.90517 106.10528 118.51610
#
# Poissons Ratio (x) = 0.15935 0.29846
# Poissons Ratio (y) = 0.16205 0.38199
# Poissons Ratio (z) = 0.27174 0.34199
#
# Static dielectric constant tensor:
#      x y z
#    x 4.174910 0.000000 0.000000 
#    y 0.000000 4.355050 0.000000 
#    z 0.000000 0.000000 4.305990 
# 
# 
# High freq. dielectric constant tensor:
#      x y z
#    x 1.887480 0.000000 0.000000 
#    y 0.000000 1.925420 0.000000 
#    z 0.000000 0.000000 1.932260 
# 
# From -- ./inp_files/10856.got.cif
#   From: 2010.03.12/outbox.cif.g09.slc.cpg/sg37_6_cif.got.tgz:10856.got - 2010.04.14 02:25:27.
