data_PCOD8176890
_publ_section_title
;
Structure prediction by ZEFSAII (Michael W. Deem and Ramdas Pophale) SiO2 
 PCOD8176890
Probable space group: C C C 2
;
_chemical_formula_sum "Si O2"
_cell_formula_units_Z 28
_cell_length_a 5.105149
_cell_length_b 13.881886
_cell_length_c 16.734472
_cell_angle_alpha 90.000000
_cell_angle_beta 90.000000
_cell_angle_gamma 90.000000
_cell_volume 1185.956910
_symmetry_space_group_name_H-M "C C C 2"
_symmetry_group_IT_number 37
_symmetry_cell_setting 'orthorhombic'
loop_
_space_group_symop_operation_xyz
x,y,z
-x,-y,z
-x,y,1/2+z
x,-y,1/2+z
1/2+x,1/2+y,z
1/2-x,1/2-y,z
1/2-x,1/2+y,1/2+z
1/2+x,1/2-y,1/2+z
loop_
_atom_site_type_symbol
_atom_site_label
_atom_site_fract_x
_atom_site_fract_y
_atom_site_fract_z
Si Si1 0.131489 0.901634 0.284670
Si Si2 0.250000 0.250000 0.047152
Si Si3 0.250000 0.750000 0.153242
Si Si4 0.500000 0.000000 0.401668
Si Si5 0.608076 0.653190 0.437374
O O1 0.200964 0.843403 0.206445
O O2 0.375725 0.920475 0.343080
O O3 0.936538 0.841715 0.342061
O O4 0.000000 0.000000 0.254719
O O5 0.496140 0.221312 0.101938
O O6 0.338228 0.342038 0.990596
O O7 0.721577 0.944257 0.454953
O O8 0.750000 0.750000 0.465945
#
# Coordination Sequence:
#
# PCOD8176890 Si02
#       5
#     8   4   4   4   8
#     4  10  24  43  77 104 139 187 254 308 356 431
#     4  12  27  44  73 102 154 200 236 298 385 456
#     4  12  27  46  71 108 152 198 238 296 385 456
#     4  10  22  42  78 106 140 182 262 318 358 420
#     4  11  22  46  74 108 139 192 255 303 363 441
#
# _framework density 23.609627
#
# number of rings (size 3 to 8) (size 9 to 14) (size 15 to 20)
#    0.000    1.143    1.429    4.286   10.000    0.000 
#    0.000    8.571    0.000    0.000    0.000    0.000 
#    0.000    0.000    0.000    0.000    0.000    0.000 
#
# Total GULP energy -173470.465506 kJ/mol
# GULP energy per Si atom -12390.747536 kJ/mol
# Density = 2.355589 g / cm^3
# Si number density = 23.609627 Si / 1000 Ang^3
#
#
#
# Elastic Constant Matrix: (Units=GPa)
#
#
# Indices 1 2 3 4 5 6 
#
# 1 161.0419 71.2125 72.1308 0.0000 0.0000 0.0000
# 2 71.2125 127.6792 84.3082 0.0000 0.0000 0.0000
# 3 72.1308 84.3082 147.0527 0.0000 0.0000 0.0000
# 4 0.0000 0.0000 0.0000 8.6097 0.0000 0.0000
# 5 0.0000 0.0000 0.0000 0.0000 -0.6557 0.0000
# 6 0.0000 0.0000 0.0000 0.0000 0.0000 39.0294
#
#
#
# Elastic Compliance Matrix: (Units=1/GPa)
#
#
# Indices 1 2 3 4 5 6 
#
# 1 0.008739 -0.003289 -0.002401 0.000000 0.000000 0.000000
# 2 -0.003289 0.013841 -0.006322 0.000000 0.000000 0.000000
# 3 -0.002401 -0.006322 0.011603 0.000000 0.000000 0.000000
# 4 0.000000 0.000000 0.000000 0.116148 0.000000 0.000000
# 5 0.000000 0.000000 0.000000 0.000000 -1.524984 0.000000
# 6 0.000000 0.000000 0.000000 0.000000 0.000000 0.025622
#
#
# Mechanical properties :
#
#
# Convention : Reuss Voigt Hill
#
# Bulk Modulus (GPa) = 98.43682 99.00853 98.72268
# Shear Modulus (GPa) = -3.78324 23.27148 9.74412
#
# Velocity S-wave (km/s) = -1.26724 3.14296 2.03375
# Velocity P-wave (km/s) = 6.29626 7.42951 6.88623
#
# Compressibility (1/GPa) = 0.01015880
#
# Stress axis : x y z
#
# Youngs Moduli (GPa) = 114.42474 72.24884 86.18662
#
# Poissons Ratio (x) = 0.23761 0.20695
# Poissons Ratio (y) = 0.37632 0.54489
# Poissons Ratio (z) = 0.27476 0.45677
#
# Static dielectric constant tensor:
#      x y z
#    x 5.134110 0.000000 0.000000 
#    y 0.000000 4.111260 0.000000 
#    z 0.000000 0.000000 4.150000 
# 
# 
# High freq. dielectric constant tensor:
#      x y z
#    x 1.960270 0.000000 0.000000 
#    y 0.000000 1.923980 0.000000 
#    z 0.000000 0.000000 1.920140 
# 
# From -- ./inp_files/9410.got.cif
#   From: 2010.03.12/outbox.cif.g09.slc.cpg/sg37_5_cif.got.tgz:9410.got - 2010.04.14 02:25:27.
