data_PCOD8176159
_publ_section_title
;
Structure prediction by ZEFSAII (Michael W. Deem and Ramdas Pophale) SiO2 
 PCOD8176159
Probable space group: C M C 21
;
_chemical_formula_sum "Si O2"
_cell_formula_units_Z 64
_cell_length_a 8.716436
_cell_length_b 23.909216
_cell_length_c 15.148201
_cell_angle_alpha 90.000000
_cell_angle_beta 90.000000
_cell_angle_gamma 90.000000
_cell_volume 3156.932822
_symmetry_space_group_name_H-M "C M C 21"
_symmetry_group_IT_number 36
_symmetry_cell_setting 'orthorhombic'
loop_
_space_group_symop_operation_xyz
x,y,z
-x,-y,1/2+z
x,-y,1/2+z
-x,y,z
1/2+x,1/2+y,z
1/2-x,1/2-y,1/2+z
1/2+x,1/2-y,1/2+z
1/2-x,1/2+y,z
loop_
_atom_site_type_symbol
_atom_site_label
_atom_site_fract_x
_atom_site_fract_y
_atom_site_fract_z
Si Si1 0.825971 0.013411 0.392550
Si Si2 0.325148 0.370857 0.808933
Si Si3 0.321294 0.239597 0.373852
Si Si4 0.679085 0.478654 0.585437
Si Si5 0.679816 0.052587 0.739150
Si Si6 0.319357 0.325149 0.219781
Si Si7 0.320985 0.253091 0.577718
Si Si8 0.178142 0.631581 0.130631
O O1 0.804931 0.079017 0.377143
O O2 0.000000 0.993642 0.373938
O O3 0.783076 0.008886 0.494584
O O4 0.717439 0.974431 0.333737
O O5 0.500000 0.367676 0.773275
O O6 0.283190 0.313599 0.856129
O O7 0.206061 0.385119 0.731718
O O8 0.500000 0.224391 0.361467
O O9 0.273464 0.288840 0.306263
O O10 0.283124 0.256236 0.474024
O O11 0.500000 0.475734 0.607951
O O12 0.761048 0.511389 0.663592
O O13 0.744542 0.416216 0.571699
O O14 0.500000 0.059715 0.729028
O O15 0.754475 0.113174 0.731247
O O16 0.500000 0.329318 0.210559
O O17 0.256973 0.298483 0.128847
O O18 0.500000 0.248038 0.595160
O O19 0.258926 0.309558 0.618931
O O20 0.000000 0.636479 0.108181
#
# Coordination Sequence:
#
# PCOD8176159 Si02
#       8
#     8   8   8   8   8   8   8   8
#     4  10  24  44  67  95 127 170 216 263 320 381
#     4  11  22  40  68  96 125 165 214 264 318 378
#     4  10  24  43  65  94 129 168 211 263 321 376
#     4  11  24  44  68  95 128 169 217 266 319 379
#     4  12  26  43  65  96 132 170 212 264 322 382
#     4  11  24  44  66  91 129 174 214 260 318 380
#     4  11  24  43  66  97 129 167 214 264 319 378
#     4  12  24  41  65  96 129 167 212 264 323 378
#
# _framework density 20.272839999999999
#
# number of rings (size 3 to 8) (size 9 to 14) (size 15 to 20)
#    0.000    1.000    2.500    3.750    3.500    3.000 
#    0.000    0.000    0.000    0.000    0.000    0.000 
#    0.000    0.000    0.000    0.000    0.000    0.000 
#
# Total GULP energy -396919.273317 kJ/mol
# GULP energy per Si atom -12403.727291 kJ/mol
# Density = 2.022670 g / cm^3
# Si number density = 20.272840 Si / 1000 Ang^3
#
#
#
# Elastic Constant Matrix: (Units=GPa)
#
#
# Indices 1 2 3 4 5 6 
#
# 1 89.4941 36.3322 31.4100 0.0000 0.0000 0.0000
# 2 36.3322 116.6698 12.0033 0.0000 0.0000 0.0000
# 3 31.4100 12.0033 75.7366 0.0000 0.0000 0.0000
# 4 0.0000 0.0000 0.0000 32.2179 0.0000 0.0000
# 5 0.0000 0.0000 0.0000 0.0000 28.0321 0.0000
# 6 0.0000 0.0000 0.0000 0.0000 0.0000 39.6894
#
#
#
# Elastic Compliance Matrix: (Units=1/GPa)
#
#
# Indices 1 2 3 4 5 6 
#
# 1 0.014727 -0.004023 -0.005470 0.000000 0.000000 0.000000
# 2 -0.004023 0.009812 0.000113 0.000000 0.000000 0.000000
# 3 -0.005470 0.000113 0.015454 0.000000 0.000000 0.000000
# 4 0.000000 0.000000 0.000000 0.031039 0.000000 0.000000
# 5 0.000000 0.000000 0.000000 0.000000 0.035673 0.000000
# 6 0.000000 0.000000 0.000000 0.000000 0.000000 0.025196
#
#
# Mechanical properties :
#
#
# Convention : Reuss Voigt Hill
#
# Bulk Modulus (GPa) = 47.09471 49.04351 48.06911
# Shear Modulus (GPa) = 31.69780 33.46488 32.58134
#
# Velocity S-wave (km/s) = 3.95848 4.06732 4.01327
# Velocity P-wave (km/s) = 6.64632 6.80453 6.72589
#
# Compressibility (1/GPa) = 0.02123381
#
# Stress axis : x y z
#
# Youngs Moduli (GPa) = 67.90171 101.91130 64.70709
#
# Poissons Ratio (x) = 0.41003 0.35395
# Poissons Ratio (y) = 0.27320 -0.00734
# Poissons Ratio (z) = 0.37143 -0.01156
#
# Static dielectric constant tensor:
#      x y z
#    x 3.879750 0.000000 0.000000 
#    y 0.000000 3.850450 0.000000 
#    z 0.000000 0.000000 3.824960 
# 
# 
# High freq. dielectric constant tensor:
#      x y z
#    x 1.799050 0.000000 0.000000 
#    y 0.000000 1.806580 0.000000 
#    z 0.000000 0.000000 1.798540 
# 
# From -- ./inp_files/10950.got.cif
#   From: 2010.03.12/outbox.cif.g09.slc.cpg/sg36_6_cif.got.tgz:10950.got - 2010.04.14 02:13:53.
