data_PCOD8176082
_publ_section_title
;
Structure prediction by ZEFSAII (Michael W. Deem and Ramdas Pophale) SiO2 
 PCOD8176082
Probable space group: C M C 21
;
_chemical_formula_sum "Si O2"
_cell_formula_units_Z 48
_cell_length_a 24.523978
_cell_length_b 8.752227
_cell_length_c 10.334490
_cell_angle_alpha 90.000000
_cell_angle_beta 90.000000
_cell_angle_gamma 90.000000
_cell_volume 2218.188964
_symmetry_space_group_name_H-M "C M C 21"
_symmetry_group_IT_number 36
_symmetry_cell_setting 'orthorhombic'
loop_
_space_group_symop_operation_xyz
x,y,z
-x,-y,1/2+z
x,-y,1/2+z
-x,y,z
1/2+x,1/2+y,z
1/2-x,1/2-y,1/2+z
1/2+x,1/2-y,1/2+z
1/2-x,1/2+y,z
loop_
_atom_site_type_symbol
_atom_site_label
_atom_site_fract_x
_atom_site_fract_y
_atom_site_fract_z
Si Si1 0.500000 0.578517 0.470551
Si Si2 0.334777 0.834228 0.709829
Si Si3 0.171703 0.082117 0.882418
Si Si4 0.389352 0.307825 0.978268
Si Si5 0.116349 0.663066 0.719655
Si Si6 0.288447 0.607299 0.152782
Si Si7 0.500000 0.317870 0.679237
O O1 0.548719 0.683196 0.522607
O O2 0.500000 0.416069 0.546033
O O3 0.500000 0.575898 0.310439
O O4 0.347453 0.756670 0.850815
O O5 0.351850 0.714553 0.600470
O O6 0.270152 0.839843 0.698358
O O7 0.369471 0.987702 0.687402
O O8 0.120548 0.974300 0.912863
O O9 0.199691 0.031755 0.748530
O O10 0.214499 0.064216 0.000769
O O11 0.378750 0.175067 0.874522
O O12 0.163530 0.766423 0.656743
O O13 0.055150 0.713001 0.675399
#
# Coordination Sequence:
#
# PCOD8176082 Si02
#       7
#     4   8   8   8   8   8   4
#     4  10  22  43  75  93 131 180 232 282 322 404
#     4  12  26  40  68  99 141 182 220 286 356 405
#     4  11  24  44  66  95 132 182 232 277 331 417
#     4  10  24  45  65 101 132 176 236 279 333 412
#     4  10  25  44  68 103 144 175 224 292 348 404
#     4  11  25  42  69  99 138 183 232 276 340 419
#     4  10  22  47  75 105 137 182 234 286 336 406
#
# _framework density 21.639274
#
# number of rings (size 3 to 8) (size 9 to 14) (size 15 to 20)
#    0.000    1.333    1.667    2.000   14.000    0.667 
#    0.000    0.833    0.000    0.000    0.000    0.000 
#    0.000    0.000    0.000    0.000    0.000    0.000 
#
# Total GULP energy -297340.955711 kJ/mol
# GULP energy per Si atom -12389.206488 kJ/mol
# Density = 2.159002 g / cm^3
# Si number density = 21.639274 Si / 1000 Ang^3
#
#
#
# Elastic Constant Matrix: (Units=GPa)
#
#
# Indices 1 2 3 4 5 6 
#
# 1 145.5719 52.5263 34.5034 0.0000 0.0000 0.0000
# 2 52.5263 103.5870 53.0573 0.0000 0.0000 0.0000
# 3 34.5034 53.0573 123.3757 0.0000 0.0000 0.0000
# 4 0.0000 0.0000 0.0000 32.3184 0.0000 0.0000
# 5 0.0000 0.0000 0.0000 0.0000 20.3232 0.0000
# 6 0.0000 0.0000 0.0000 0.0000 0.0000 21.3175
#
#
#
# Elastic Compliance Matrix: (Units=1/GPa)
#
#
# Indices 1 2 3 4 5 6 
#
# 1 0.008450 -0.003943 -0.000668 0.000000 0.000000 0.000000
# 2 -0.003943 0.014221 -0.005013 0.000000 0.000000 0.000000
# 3 -0.000668 -0.005013 0.010448 0.000000 0.000000 0.000000
# 4 0.000000 0.000000 0.000000 0.030942 0.000000 0.000000
# 5 0.000000 0.000000 0.000000 0.000000 0.049205 0.000000
# 6 0.000000 0.000000 0.000000 0.000000 0.000000 0.046910
#
#
# Mechanical properties :
#
#
# Convention : Reuss Voigt Hill
#
# Bulk Modulus (GPa) = 72.08774 72.52317 72.30545
# Shear Modulus (GPa) = 27.16704 30.28835 28.72770
#
# Velocity S-wave (km/s) = 3.54708 3.74531 3.64754
# Velocity P-wave (km/s) = 7.08247 7.23121 7.15723
#
# Compressibility (1/GPa) = 0.01387199
#
# Stress axis : x y z
#
# Youngs Moduli (GPa) = 118.33689 70.31987 95.71421
#
# Poissons Ratio (x) = 0.27728 0.06389
# Poissons Ratio (y) = 0.46661 0.47980
# Poissons Ratio (z) = 0.07900 0.35250
#
# Static dielectric constant tensor:
#      x y z
#    x 3.967780 0.000000 0.000000 
#    y 0.000000 3.857680 0.000000 
#    z 0.000000 0.000000 4.026470 
# 
# 
# High freq. dielectric constant tensor:
#      x y z
#    x 1.853620 0.000000 0.000000 
#    y 0.000000 1.840170 0.000000 
#    z 0.000000 0.000000 1.860140 
# 
# From -- ./inp_files/9452.got.cif
#   From: 2010.03.12/outbox.cif.g09.slc.cpg/sg36_5_cif.got.tgz:9452.got - 2010.04.14 02:13:53.
