data_PCOD8176442
_publ_section_title
;
Structure prediction by ZEFSAII (Michael W. Deem and Ramdas Pophale) SiO2 
 PCOD8176442
Probable space group: C C C 2
;
_chemical_formula_sum "Si O2"
_cell_formula_units_Z 64
_cell_length_a 23.421068
_cell_length_b 25.838808
_cell_length_c 5.052722
_cell_angle_alpha 90.000000
_cell_angle_beta 90.000000
_cell_angle_gamma 90.000000
_cell_volume 3057.768299
_symmetry_space_group_name_H-M "C C C 2"
_symmetry_group_IT_number 37
_symmetry_cell_setting 'orthorhombic'
loop_
_space_group_symop_operation_xyz
x,y,z
-x,-y,z
-x,y,1/2+z
x,-y,1/2+z
1/2+x,1/2+y,z
1/2-x,1/2-y,z
1/2-x,1/2+y,1/2+z
1/2+x,1/2-y,1/2+z
loop_
_atom_site_type_symbol
_atom_site_label
_atom_site_fract_x
_atom_site_fract_y
_atom_site_fract_z
Si Si1 0.038987 0.622151 0.937570
Si Si2 0.175402 0.789021 0.475819
Si Si3 0.343851 0.649833 0.990623
Si Si4 0.537915 0.347580 0.862760
Si Si5 0.035086 0.268495 0.313496
Si Si6 0.700078 0.821360 0.956536
Si Si7 0.868677 0.534064 0.449555
Si Si8 0.780071 0.385001 0.973936
O O1 0.069461 0.678973 0.893804
O O2 0.086055 0.578867 0.890617
O O3 0.987323 0.616245 0.728850
O O4 0.171299 0.806338 0.777745
O O5 0.239480 0.797203 0.373414
O O6 0.156945 0.728164 0.463299
O O7 0.138867 0.823828 0.272183
O O8 0.402694 0.620201 0.901705
O O9 0.289061 0.611330 0.011677
O O10 0.508244 0.360667 0.586689
O O11 0.562277 0.287924 0.871209
O O12 0.978817 0.270820 0.501758
O O13 0.701953 0.847776 0.238611
O O14 0.686050 0.863637 0.732383
O O15 0.877643 0.511569 0.741047
O O16 0.804637 0.557589 0.423362
#
# Coordination Sequence:
#
# PCOD8176442 Si02
#       8
#     8   8   8   8   8   8   8   8
#     4  10  21  38  58  79 102 134 176 218 266 322
#     4   9  17  28  46  75 106 136 173 208 245 300
#     4  10  19  32  51  75 107 147 180 210 252 310
#     4  10  19  32  49  75 110 144 178 213 247 292
#     4   8  16  30  47  69 100 136 171 204 243 294
#     4   9  17  31  50  74 104 135 169 211 255 303
#     4  12  26  42  59  80 104 132 173 233 293 333
#     4  10  21  37  54  75 105 137 174 219 271 330
#
# _framework density 20.930295999999998
#
# number of rings (size 3 to 8) (size 9 to 14) (size 15 to 20)
#    0.000    2.250    0.000    3.000    0.000    6.500 
#    0.000    5.000    0.000    0.000    0.000    0.000 
#    0.000    3.000    0.000    0.000    0.000    0.000 
#
# Total GULP energy -396470.490998 kJ/mol
# GULP energy per Si atom -12389.702844 kJ/mol
# Density = 2.088266 g / cm^3
# Si number density = 20.930296 Si / 1000 Ang^3
#
#
#
# Elastic Constant Matrix: (Units=GPa)
#
#
# Indices 1 2 3 4 5 6 
#
# 1 55.4229 13.1553 0.8866 0.0000 0.0000 0.0000
# 2 13.1553 25.8513 7.8474 0.0000 0.0000 0.0000
# 3 0.8866 7.8474 82.7426 0.0000 0.0000 0.0000
# 4 0.0000 0.0000 0.0000 9.2209 0.0000 0.0000
# 5 0.0000 0.0000 0.0000 0.0000 14.2929 0.0000
# 6 0.0000 0.0000 0.0000 0.0000 0.0000 26.7912
#
#
#
# Elastic Compliance Matrix: (Units=1/GPa)
#
#
# Indices 1 2 3 4 5 6 
#
# 1 0.020573 -0.010710 0.000795 0.000000 0.000000 0.000000
# 2 -0.010710 0.045405 -0.004192 0.000000 0.000000 0.000000
# 3 0.000795 -0.004192 0.012475 0.000000 0.000000 0.000000
# 4 0.000000 0.000000 0.000000 0.108449 0.000000 0.000000
# 5 0.000000 0.000000 0.000000 0.000000 0.069965 0.000000
# 6 0.000000 0.000000 0.000000 0.000000 0.000000 0.037326
#
#
# Mechanical properties :
#
#
# Convention : Reuss Voigt Hill
#
# Bulk Modulus (GPa) = 19.90467 23.08837 21.49652
# Shear Modulus (GPa) = 14.74267 19.53620 17.13943
#
# Velocity S-wave (km/s) = 2.65688 3.05846 2.86472
# Velocity P-wave (km/s) = 4.35231 4.85049 4.60814
#
# Compressibility (1/GPa) = 0.05023946
#
# Stress axis : x y z
#
# Youngs Moduli (GPa) = 48.60832 22.02379 80.16240
#
# Poissons Ratio (x) = 0.23588 -0.06376
# Poissons Ratio (y) = 0.52062 0.33600
# Poissons Ratio (z) = -0.03866 0.09231
#
# Static dielectric constant tensor:
#      x y z
#    x 3.771650 0.000000 0.000000 
#    y 0.000000 3.498190 0.000000 
#    z 0.000000 0.000000 3.898360 
# 
# 
# High freq. dielectric constant tensor:
#      x y z
#    x 1.811120 0.000000 0.000000 
#    y 0.000000 1.759480 0.000000 
#    z 0.000000 0.000000 1.843750 
# 
# From -- ./inp_files/1264.got.cif
#   From: 2010.03.12/outbox.cif.g09.slc.cpg/sg37_1_cif.got.tgz:1264.got - 2010.04.14 02:25:27.
