data_PCOD8176656
_publ_section_title
;
Structure prediction by ZEFSAII (Michael W. Deem and Ramdas Pophale) SiO2 
 PCOD8176656
Probable space group: C C C 2
;
_chemical_formula_sum "Si O2"
_cell_formula_units_Z 40
_cell_length_a 12.027133
_cell_length_b 12.065856
_cell_length_c 13.094288
_cell_angle_alpha 90.000000
_cell_angle_beta 90.000000
_cell_angle_gamma 90.000000
_cell_volume 1900.212367
_symmetry_space_group_name_H-M "C C C 2"
_symmetry_group_IT_number 37
_symmetry_cell_setting 'orthorhombic'
loop_
_space_group_symop_operation_xyz
x,y,z
-x,-y,z
-x,y,1/2+z
x,-y,1/2+z
1/2+x,1/2+y,z
1/2-x,1/2-y,z
1/2-x,1/2+y,1/2+z
1/2+x,1/2-y,1/2+z
loop_
_atom_site_type_symbol
_atom_site_label
_atom_site_fract_x
_atom_site_fract_y
_atom_site_fract_z
Si Si1 0.576545 0.341159 0.646010
Si Si2 0.615588 0.447401 0.430815
Si Si3 0.756874 0.875049 0.328943
Si Si4 0.370249 0.717021 0.252192
Si Si5 0.456942 0.113556 0.210644
O O1 0.611169 0.405948 0.546182
O O2 0.653371 0.383499 0.737964
O O3 0.444727 0.360097 0.674364
O O4 0.592473 0.206321 0.631567
O O5 0.500000 0.500000 0.395859
O O6 0.707511 0.544195 0.421010
O O7 0.647999 0.345104 0.358829
O O8 0.750000 0.750000 0.371729
O O9 0.637755 0.918097 0.291479
O O10 0.250000 0.750000 0.205174
O O11 0.440490 0.829473 0.271726
O O12 0.500000 0.000000 0.156886
#
# Coordination Sequence:
#
# PCOD8176656 Si02
#       5
#     8   8   8   8   8
#     4   9  23  38  63 100 132 170 230 272 346 397
#     4  12  22  39  68  96 129 176 232 281 336 416
#     4  10  20  42  66  91 133 173 221 286 348 401
#     4  10  22  41  66  97 138 170 230 279 347 405
#     4   9  19  41  65  90 135 176 211 279 350 398
#
# _framework density 21.050277999999999
#
# number of rings (size 3 to 8) (size 9 to 14) (size 15 to 20)
#    1.200    0.800    2.000    1.200    2.800    2.400 
#    0.000    8.000    0.000    0.000    0.000    0.000 
#    0.000    0.000    0.000    0.000    0.000    0.000 
#
# Total GULP energy -247769.485512 kJ/mol
# GULP energy per Si atom -12388.474276 kJ/mol
# Density = 2.100237 g / cm^3
# Si number density = 21.050278 Si / 1000 Ang^3
#
#
#
# Elastic Constant Matrix: (Units=GPa)
#
#
# Indices 1 2 3 4 5 6 
#
# 1 145.0154 46.4071 40.9730 0.0000 0.0000 0.0000
# 2 46.4071 127.7051 63.7698 0.0000 0.0000 0.0000
# 3 40.9730 63.7698 102.5407 0.0000 0.0000 0.0000
# 4 0.0000 0.0000 0.0000 29.8106 0.0000 0.0000
# 5 0.0000 0.0000 0.0000 0.0000 19.8172 0.0000
# 6 0.0000 0.0000 0.0000 0.0000 0.0000 26.8950
#
#
#
# Elastic Compliance Matrix: (Units=1/GPa)
#
#
# Indices 1 2 3 4 5 6 
#
# 1 0.008086 -0.001922 -0.002036 0.000000 0.000000 0.000000
# 2 -0.001922 0.011814 -0.006579 0.000000 0.000000 0.000000
# 3 -0.002036 -0.006579 0.014657 0.000000 0.000000 0.000000
# 4 0.000000 0.000000 0.000000 0.033545 0.000000 0.000000
# 5 0.000000 0.000000 0.000000 0.000000 0.050461 0.000000
# 6 0.000000 0.000000 0.000000 0.000000 0.000000 0.037182
#
#
# Mechanical properties :
#
#
# Convention : Reuss Voigt Hill
#
# Bulk Modulus (GPa) = 74.16355 75.28454 74.72404
# Shear Modulus (GPa) = 27.57643 30.24533 28.91088
#
# Velocity S-wave (km/s) = 3.62336 3.79464 3.70999
# Velocity P-wave (km/s) = 7.26726 7.41896 7.34350
#
# Compressibility (1/GPa) = 0.01348371
#
# Stress axis : x y z
#
# Youngs Moduli (GPa) = 123.66995 84.64284 68.22490
#
# Poissons Ratio (x) = 0.16267 0.13889
# Poissons Ratio (y) = 0.23767 0.44888
# Poissons Ratio (z) = 0.25177 0.55690
#
# Static dielectric constant tensor:
#      x y z
#    x 3.985170 0.000000 0.000000 
#    y 0.000000 3.959180 0.000000 
#    z 0.000000 0.000000 3.123860 
# 
# 
# High freq. dielectric constant tensor:
#      x y z
#    x 1.836790 0.000000 0.000000 
#    y 0.000000 1.838930 0.000000 
#    z 0.000000 0.000000 1.765210 
# 
# From -- ./inp_files/7668.got.cif
#   From: 2010.03.12/outbox.cif.g09.slc.cpg/sg37_4_cif.got.tgz:7668.got - 2010.04.14 02:25:27.
