data_PCOD8176359
_publ_section_title
;
Structure prediction by ZEFSAII (Michael W. Deem and Ramdas Pophale) SiO2 
 PCOD8176359
Probable space group: C C C 2
;
_chemical_formula_sum "Si O2"
_cell_formula_units_Z 64
_cell_length_a 25.108182
_cell_length_b 25.453860
_cell_length_c 5.216225
_cell_angle_alpha 90.000000
_cell_angle_beta 90.000000
_cell_angle_gamma 90.000000
_cell_volume 3333.690177
_symmetry_space_group_name_H-M "C C C 2"
_symmetry_group_IT_number 37
_symmetry_cell_setting 'orthorhombic'
loop_
_space_group_symop_operation_xyz
x,y,z
-x,-y,z
-x,y,1/2+z
x,-y,1/2+z
1/2+x,1/2+y,z
1/2-x,1/2-y,z
1/2-x,1/2+y,1/2+z
1/2+x,1/2-y,1/2+z
loop_
_atom_site_type_symbol
_atom_site_label
_atom_site_fract_x
_atom_site_fract_y
_atom_site_fract_z
Si Si1 0.352001 0.815358 0.559750
Si Si2 0.476786 0.558772 0.017956
Si Si3 0.356186 0.465946 0.517785
Si Si4 0.706983 0.794925 0.561432
Si Si5 0.533548 0.148313 0.571337
Si Si6 0.248630 0.412621 0.561633
Si Si7 0.925656 0.469770 0.555545
Si Si8 0.188952 0.433001 0.060224
O O1 0.332133 0.788550 0.820345
O O2 0.415871 0.813276 0.547600
O O3 0.333213 0.874686 0.551885
O O4 0.327696 0.785318 0.315954
O O5 0.500000 0.500000 0.988962
O O6 0.496025 0.588178 0.759337
O O7 0.413495 0.561055 0.045276
O O8 0.349833 0.509698 0.736228
O O9 0.312076 0.420676 0.552986
O O10 0.750000 0.750000 0.541947
O O11 0.736711 0.850871 0.563415
O O12 0.493830 0.160916 0.340802
O O13 0.551338 0.088218 0.559894
O O14 0.222470 0.441912 0.318710
O O15 0.225891 0.442221 0.812153
O O16 0.947039 0.501076 0.802509
O O17 0.861419 0.471594 0.555682
#
# Coordination Sequence:
#
# PCOD8176359 Si02
#       8
#     8   8   8   8   8   8   8   8
#     4   9  19  35  55  80 103 131 170 208 263 324
#     4  10  16  30  46  61  87 120 166 202 231 279
#     4  12  21  30  46  71  99 132 168 209 246 287
#     4  10  19  36  60  82 107 136 169 215 272 323
#     4  11  22  36  53  75 107 138 182 234 272 308
#     4  10  21  33  48  76 106 129 168 214 256 313
#     4  11  22  33  49  68  95 143 191 223 267 313
#     4   9  19  35  47  63 100 137 164 207 254 321
#
# _framework density 19.197942999999999
#
# number of rings (size 3 to 8) (size 9 to 14) (size 15 to 20)
#    0.000    1.750    2.500    3.375    0.000    8.500 
#    0.000    0.000    0.000    0.000    0.000    5.250 
#    0.000    0.000    0.000    0.000    0.000    0.000 
#
# Total GULP energy -396823.823804 kJ/mol
# GULP energy per Si atom -12400.744494 kJ/mol
# Density = 1.915425 g / cm^3
# Si number density = 19.197943 Si / 1000 Ang^3
#
#
#
# Elastic Constant Matrix: (Units=GPa)
#
#
# Indices 1 2 3 4 5 6 
#
# 1 124.9394 17.8772 23.4495 0.0000 0.0000 0.0000
# 2 17.8772 29.6996 9.2924 0.0000 0.0000 0.0000
# 3 23.4495 9.2924 140.6663 0.0000 0.0000 0.0000
# 4 0.0000 0.0000 0.0000 3.8050 0.0000 0.0000
# 5 0.0000 0.0000 0.0000 0.0000 55.8233 0.0000
# 6 0.0000 0.0000 0.0000 0.0000 0.0000 20.1849
#
#
#
# Elastic Compliance Matrix: (Units=1/GPa)
#
#
# Indices 1 2 3 4 5 6 
#
# 1 0.008939 -0.005018 -0.001159 0.000000 0.000000 0.000000
# 2 -0.005018 0.037198 -0.001621 0.000000 0.000000 0.000000
# 3 -0.001159 -0.001621 0.007409 0.000000 0.000000 0.000000
# 4 0.000000 0.000000 0.000000 0.262814 0.000000 0.000000
# 5 0.000000 0.000000 0.000000 0.000000 0.017914 0.000000
# 6 0.000000 0.000000 0.000000 0.000000 0.000000 0.049542
#
#
# Mechanical properties :
#
#
# Convention : Reuss Voigt Hill
#
# Bulk Modulus (GPa) = 26.34955 44.06038 35.20496
# Shear Modulus (GPa) = 12.13407 32.27506 22.20456
#
# Velocity S-wave (km/s) = 2.51679 4.10466 3.40459
# Velocity P-wave (km/s) = 4.71175 6.74275 5.81658
#
# Compressibility (1/GPa) = 0.03795131
#
# Stress axis : x y z
#
# Youngs Moduli (GPa) = 111.86396 26.88291 134.96643
#
# Poissons Ratio (x) = 0.13491 0.15639
# Poissons Ratio (y) = 0.56138 0.21874
# Poissons Ratio (z) = 0.12962 0.04357
#
# Static dielectric constant tensor:
#      x y z
#    x 3.718020 0.000000 0.000000 
#    y 0.000000 2.919840 0.000000 
#    z 0.000000 0.000000 4.626470 
# 
# 
# High freq. dielectric constant tensor:
#      x y z
#    x 1.761000 0.000000 0.000000 
#    y 0.000000 1.680000 0.000000 
#    z 0.000000 0.000000 1.776790 
# 
# From -- ./inp_files/1090.got.cif
#   From: 2010.03.12/outbox.cif.g09.slc.cpg/sg37_1_cif.got.tgz:1090.got - 2010.04.14 02:25:27.
