data_PCOD8176827
_publ_section_title
;
Structure prediction by ZEFSAII (Michael W. Deem and Ramdas Pophale) SiO2 
 PCOD8176827
Probable space group: C C C 2
;
_chemical_formula_sum "Si O2"
_cell_formula_units_Z 48
_cell_length_a 19.230872
_cell_length_b 9.010227
_cell_length_c 13.406210
_cell_angle_alpha 90.000000
_cell_angle_beta 90.000000
_cell_angle_gamma 90.000000
_cell_volume 2322.954631
_symmetry_space_group_name_H-M "C C C 2"
_symmetry_group_IT_number 37
_symmetry_cell_setting 'orthorhombic'
loop_
_space_group_symop_operation_xyz
x,y,z
-x,-y,z
-x,y,1/2+z
x,-y,1/2+z
1/2+x,1/2+y,z
1/2-x,1/2-y,z
1/2-x,1/2+y,1/2+z
1/2+x,1/2-y,1/2+z
loop_
_atom_site_type_symbol
_atom_site_label
_atom_site_fract_x
_atom_site_fract_y
_atom_site_fract_z
Si Si1 0.893809 0.118459 0.156600
Si Si2 0.000000 0.000000 0.505455
Si Si3 0.868860 0.540739 0.618154
Si Si4 0.555969 0.273223 0.352214
Si Si5 0.693003 0.859900 0.941699
Si Si6 0.000000 0.500000 0.244439
Si Si7 0.254497 0.575386 0.246243
O O1 0.876628 0.281304 0.111051
O O2 0.943755 0.128515 0.252257
O O3 0.827331 0.025277 0.196916
O O4 0.931414 0.024904 0.071181
O O5 0.015439 0.855233 0.440117
O O6 0.852018 0.467762 0.511482
O O7 0.804845 0.491056 0.686067
O O8 0.936244 0.468121 0.669412
O O9 0.636223 0.235741 0.379270
O O10 0.511994 0.130225 0.322964
O O11 0.750000 0.750000 0.994829
O O12 0.739785 0.957422 0.863661
O O13 0.250000 0.750000 0.229262
#
# Coordination Sequence:
#
# PCOD8176827 Si02
#       7
#     8   4   8   8   8   4   8
#     4  10  22  44  64  90 134 176 215 271 337 390
#     4  12  28  38  66 100 132 180 220 268 332 410
#     4  10  22  37  66  95 123 169 225 268 323 400
#     4  11  24  43  63  94 131 174 214 276 328 392
#     4  11  21  39  66  93 120 168 223 270 325 389
#     4  10  22  42  68  92 140 170 216 282 328 382
#     4   9  17  40  61  83 119 167 206 263 329 373
#
# _framework density 20.663338
#
# number of rings (size 3 to 8) (size 9 to 14) (size 15 to 20)
#    0.000    1.667    6.667    0.500    9.333    0.000 
#    0.000    0.000    0.000    3.000    0.000    0.000 
#    0.000    0.000    0.000    0.000    0.000    0.000 
#
# Total GULP energy -297371.270156 kJ/mol
# GULP energy per Si atom -12390.469590 kJ/mol
# Density = 2.061631 g / cm^3
# Si number density = 20.663338 Si / 1000 Ang^3
#
#
#
# Elastic Constant Matrix: (Units=GPa)
#
#
# Indices 1 2 3 4 5 6 
#
# 1 145.2584 52.0911 71.1904 0.0000 0.0000 0.0000
# 2 52.0911 49.7995 55.0224 0.0000 0.0000 0.0000
# 3 71.1904 55.0224 140.7957 0.0000 0.0000 0.0000
# 4 0.0000 0.0000 0.0000 28.7736 0.0000 0.0000
# 5 0.0000 0.0000 0.0000 0.0000 45.9088 0.0000
# 6 0.0000 0.0000 0.0000 0.0000 0.0000 27.2140
#
#
#
# Elastic Compliance Matrix: (Units=1/GPa)
#
#
# Indices 1 2 3 4 5 6 
#
# 1 0.011306 -0.009697 -0.001927 0.000000 0.000000 0.000000
# 2 -0.009697 0.043657 -0.012158 0.000000 0.000000 0.000000
# 3 -0.001927 -0.012158 0.012828 0.000000 0.000000 0.000000
# 4 0.000000 0.000000 0.000000 0.034754 0.000000 0.000000
# 5 0.000000 0.000000 0.000000 0.000000 0.021782 0.000000
# 6 0.000000 0.000000 0.000000 0.000000 0.000000 0.036746
#
#
# Mechanical properties :
#
#
# Convention : Reuss Voigt Hill
#
# Bulk Modulus (GPa) = 49.43892 76.94015 63.18953
# Shear Modulus (GPa) = 23.21478 30.88260 27.04869
#
# Velocity S-wave (km/s) = 3.35547 3.87015 3.62196
# Velocity P-wave (km/s) = 6.24420 7.56880 6.93818
#
# Compressibility (1/GPa) = 0.02022698
#
# Stress axis : x y z
#
# Youngs Moduli (GPa) = 88.44596 22.90589 77.95421
#
# Poissons Ratio (x) = 0.22213 0.15023
# Poissons Ratio (y) = 0.85770 0.94774
# Poissons Ratio (z) = 0.17045 0.27848
#
# Static dielectric constant tensor:
#      x y z
#    x 4.078420 0.000000 0.000000 
#    y 0.000000 3.308660 0.000000 
#    z 0.000000 0.000000 3.802360 
# 
# 
# High freq. dielectric constant tensor:
#      x y z
#    x 1.826460 0.000000 0.000000 
#    y 0.000000 1.764120 0.000000 
#    z 0.000000 0.000000 1.815400 
# 
# From -- ./inp_files/7222.got.cif
#   From: 2010.03.12/outbox.cif.g09.slc.cpg/sg37_4_cif.got.tgz:7222.got - 2010.04.14 02:25:27.
