data_PCOD8176796
_publ_section_title
;
Structure prediction by ZEFSAII (Michael W. Deem and Ramdas Pophale) SiO2 
 PCOD8176796
Probable space group: C C C 2
;
_chemical_formula_sum "Si O2"
_cell_formula_units_Z 40
_cell_length_a 15.554551
_cell_length_b 7.318070
_cell_length_c 15.504769
_cell_angle_alpha 90.000000
_cell_angle_beta 90.000000
_cell_angle_gamma 90.000000
_cell_volume 1764.896894
_symmetry_space_group_name_H-M "C C C 2"
_symmetry_group_IT_number 37
_symmetry_cell_setting 'orthorhombic'
loop_
_space_group_symop_operation_xyz
x,y,z
-x,-y,z
-x,y,1/2+z
x,-y,1/2+z
1/2+x,1/2+y,z
1/2-x,1/2-y,z
1/2-x,1/2+y,1/2+z
1/2+x,1/2-y,1/2+z
loop_
_atom_site_type_symbol
_atom_site_label
_atom_site_fract_x
_atom_site_fract_y
_atom_site_fract_z
Si Si1 0.863155 0.490083 0.906180
Si Si2 0.932745 0.137232 0.688861
Si Si3 0.677261 0.894204 0.089344
Si Si4 0.743925 0.541699 0.754886
Si Si5 0.496397 0.286783 0.865456
O O1 0.789168 0.438927 0.836109
O O2 0.930154 0.325764 0.913108
O O3 0.905109 0.689457 0.885221
O O4 0.828121 0.488981 0.003206
O O5 0.908523 0.281715 0.615066
O O6 0.987487 0.235017 0.763456
O O7 0.851003 0.038310 0.736012
O O8 0.000000 0.000000 0.643031
O O9 0.750000 0.750000 0.072123
O O10 0.698921 0.023490 0.169403
O O11 0.750000 0.750000 0.782373
O O12 0.500000 0.500000 0.894240
#
# Coordination Sequence:
#
# PCOD8176796 Si02
#       5
#     8   8   8   8   8
#     4  11  23  44  68  98 137 182 222 283 341 401
#     4  10  21  43  69  96 133 178 224 284 340 401
#     4  10  23  43  63  96 135 174 233 281 339 412
#     4  11  22  43  66  96 133 178 225 277 343 403
#     4  10  22  43  66 101 133 176 228 271 340 401
#
# _framework density 22.664213
#
# number of rings (size 3 to 8) (size 9 to 14) (size 15 to 20)
#    0.000    1.600    2.000    3.000    0.000    0.800 
#   25.200    0.000    0.000    0.000    0.000    0.000 
#    0.000    0.000    0.000    0.000    0.000    0.000 
#
# Total GULP energy -247889.433546 kJ/mol
# GULP energy per Si atom -12394.471677 kJ/mol
# Density = 2.261263 g / cm^3
# Si number density = 22.664213 Si / 1000 Ang^3
#
#
#
# Elastic Constant Matrix: (Units=GPa)
#
#
# Indices 1 2 3 4 5 6 
#
# 1 96.5667 16.4786 35.9896 0.0000 0.0000 0.0000
# 2 16.4786 84.3146 12.1761 0.0000 0.0000 0.0000
# 3 35.9896 12.1761 147.3237 0.0000 0.0000 0.0000
# 4 0.0000 0.0000 0.0000 32.6749 0.0000 0.0000
# 5 0.0000 0.0000 0.0000 0.0000 12.5564 0.0000
# 6 0.0000 0.0000 0.0000 0.0000 0.0000 22.3709
#
#
#
# Elastic Compliance Matrix: (Units=1/GPa)
#
#
# Indices 1 2 3 4 5 6 
#
# 1 0.011684 -0.001894 -0.002698 0.000000 0.000000 0.000000
# 2 -0.001894 0.012311 -0.000555 0.000000 0.000000 0.000000
# 3 -0.002698 -0.000555 0.007493 0.000000 0.000000 0.000000
# 4 0.000000 0.000000 0.000000 0.030605 0.000000 0.000000
# 5 0.000000 0.000000 0.000000 0.000000 0.079641 0.000000
# 6 0.000000 0.000000 0.000000 0.000000 0.000000 0.044701
#
#
# Mechanical properties :
#
#
# Convention : Reuss Voigt Hill
#
# Bulk Modulus (GPa) = 47.18233 50.83263 49.00748
# Shear Modulus (GPa) = 24.53486 31.09114 27.81300
#
# Velocity S-wave (km/s) = 3.29376 3.70782 3.50691
# Velocity P-wave (km/s) = 5.94377 6.38810 6.16994
#
# Compressibility (1/GPa) = 0.02119438
#
# Stress axis : x y z
#
# Youngs Moduli (GPa) = 85.58586 81.23069 133.46392
#
# Poissons Ratio (x) = 0.15385 0.36006
# Poissons Ratio (y) = 0.16210 0.07404
# Poissons Ratio (z) = 0.23089 0.04507
#
# Static dielectric constant tensor:
#      x y z
#    x 4.332180 0.000000 0.000000 
#    y 0.000000 4.392890 0.000000 
#    z 0.000000 0.000000 4.032950 
# 
# 
# High freq. dielectric constant tensor:
#      x y z
#    x 1.901090 0.000000 0.000000 
#    y 0.000000 1.891540 0.000000 
#    z 0.000000 0.000000 1.883780 
# 
# From -- ./inp_files/11987.got.cif
#   From: 2010.03.12/outbox.cif.g09.slc.cpg/sg37_6_cif.got.tgz:11987.got - 2010.04.14 02:25:27.
