data_PCOD8176406
_publ_section_title
;
Structure prediction by ZEFSAII (Michael W. Deem and Ramdas Pophale) SiO2 
 PCOD8176406
Probable space group: C C C 2
;
_chemical_formula_sum "Si O2"
_cell_formula_units_Z 48
_cell_length_a 26.749638
_cell_length_b 8.712457
_cell_length_c 8.941906
_cell_angle_alpha 90.000000
_cell_angle_beta 90.000000
_cell_angle_gamma 90.000000
_cell_volume 2083.956536
_symmetry_space_group_name_H-M "C C C 2"
_symmetry_group_IT_number 37
_symmetry_cell_setting 'orthorhombic'
loop_
_space_group_symop_operation_xyz
x,y,z
-x,-y,z
-x,y,1/2+z
x,-y,1/2+z
1/2+x,1/2+y,z
1/2-x,1/2-y,z
1/2-x,1/2+y,1/2+z
1/2+x,1/2-y,1/2+z
loop_
_atom_site_type_symbol
_atom_site_label
_atom_site_fract_x
_atom_site_fract_y
_atom_site_fract_z
Si Si1 0.166345 0.375923 0.767130
Si Si2 0.777768 0.398736 0.961425
Si Si3 0.319588 0.580924 0.469835
Si Si4 0.384500 0.440819 0.241584
Si Si5 0.476649 0.668036 0.592363
Si Si6 0.434707 0.244417 0.769548
O O1 0.185141 0.535242 0.836708
O O2 0.190655 0.351885 0.606076
O O3 0.182602 0.230095 0.865844
O O4 0.105592 0.393644 0.761348
O O5 0.750000 0.250000 0.895485
O O6 0.736345 0.526008 0.000553
O O7 0.355837 0.446013 0.400751
O O8 0.343404 0.622901 0.627381
O O9 0.402889 0.612775 0.207899
O O10 0.434122 0.336276 0.223355
O O11 0.500000 0.500000 0.563123
O O12 0.518743 0.783263 0.657800
O O13 0.453731 0.730096 0.438812
#
# Coordination Sequence:
#
# PCOD8176406 Si02
#       6
#     8   8   8   8   8   8
#     4  11  25  47  66 100 139 172 229 289 350 414
#     4  12  25  44  68  96 132 180 228 282 345 422
#     4  11  22  40  68 102 142 174 220 287 352 408
#     4  10  18  33  59 101 141 173 218 276 344 403
#     4  10  18  33  61 100 140 178 228 275 337 401
#     4  10  21  37  61  98 141 184 224 288 334 402
#
# _framework density 23.033110000000001
#
# number of rings (size 3 to 8) (size 9 to 14) (size 15 to 20)
#    0.000    1.333    3.333    6.000    2.333    2.667 
#    0.000    0.000    0.000    3.000    0.000    0.000 
#    0.000    0.000    0.000    0.000    0.000    0.000 
#
# Total GULP energy -297450.988055 kJ/mol
# GULP energy per Si atom -12393.791169 kJ/mol
# Density = 2.298069 g / cm^3
# Si number density = 23.033110 Si / 1000 Ang^3
#
#
#
# Elastic Constant Matrix: (Units=GPa)
#
#
# Indices 1 2 3 4 5 6 
#
# 1 162.2690 46.9490 45.4980 0.0000 0.0000 0.0000
# 2 46.9490 60.7797 29.5883 0.0000 0.0000 0.0000
# 3 45.4980 29.5883 70.0900 0.0000 0.0000 0.0000
# 4 0.0000 0.0000 0.0000 28.1809 0.0000 0.0000
# 5 0.0000 0.0000 0.0000 0.0000 44.5415 0.0000
# 6 0.0000 0.0000 0.0000 0.0000 0.0000 25.3869
#
#
#
# Elastic Compliance Matrix: (Units=1/GPa)
#
#
# Indices 1 2 3 4 5 6 
#
# 1 0.008562 -0.004919 -0.003481 0.000000 0.000000 0.000000
# 2 -0.004919 0.023534 -0.006742 0.000000 0.000000 0.000000
# 3 -0.003481 -0.006742 0.019373 0.000000 0.000000 0.000000
# 4 0.000000 0.000000 0.000000 0.035485 0.000000 0.000000
# 5 0.000000 0.000000 0.000000 0.000000 0.022451 0.000000
# 6 0.000000 0.000000 0.000000 0.000000 0.000000 0.039390
#
#
# Mechanical properties :
#
#
# Convention : Reuss Voigt Hill
#
# Bulk Modulus (GPa) = 47.20251 59.68992 53.44622
# Shear Modulus (GPa) = 26.86115 31.02876 28.94496
#
# Velocity S-wave (km/s) = 3.41867 3.67432 3.54880
# Velocity P-wave (km/s) = 6.01006 6.63113 6.32822
#
# Compressibility (1/GPa) = 0.02118531
#
# Stress axis : x y z
#
# Youngs Moduli (GPa) = 116.79671 42.49083 51.61715
#
# Poissons Ratio (x) = 0.20900 0.17970
# Poissons Ratio (y) = 0.57450 0.34801
# Poissons Ratio (z) = 0.40661 0.28648
#
# Static dielectric constant tensor:
#      x y z
#    x 4.909270 0.000000 0.000000 
#    y 0.000000 3.742160 0.000000 
#    z 0.000000 0.000000 4.072240 
# 
# 
# High freq. dielectric constant tensor:
#      x y z
#    x 1.940880 0.000000 0.000000 
#    y 0.000000 1.856070 0.000000 
#    z 0.000000 0.000000 1.905530 
# 
# From -- ./inp_files/2401.got.cif
#   From: 2010.03.12/outbox.cif.g09.slc.cpg/sg37_2_cif.got.tgz:2401.got - 2010.04.14 02:25:27.
