data_PCOD8176439
_publ_section_title
;
Structure prediction by ZEFSAII (Michael W. Deem and Ramdas Pophale) SiO2 
 PCOD8176439
Probable space group: C C C 2
;
_chemical_formula_sum "Si O2"
_cell_formula_units_Z 48
_cell_length_a 8.636306
_cell_length_b 28.837055
_cell_length_c 10.443440
_cell_angle_alpha 90.000000
_cell_angle_beta 90.000000
_cell_angle_gamma 90.000000
_cell_volume 2600.893106
_symmetry_space_group_name_H-M "C C C 2"
_symmetry_group_IT_number 37
_symmetry_cell_setting 'orthorhombic'
loop_
_space_group_symop_operation_xyz
x,y,z
-x,-y,z
-x,y,1/2+z
x,-y,1/2+z
1/2+x,1/2+y,z
1/2-x,1/2-y,z
1/2-x,1/2+y,1/2+z
1/2+x,1/2-y,1/2+z
loop_
_atom_site_type_symbol
_atom_site_label
_atom_site_fract_x
_atom_site_fract_y
_atom_site_fract_z
Si Si1 0.619984 0.867056 0.108940
Si Si2 0.619984 0.132944 0.318592
Si Si3 0.868012 0.791518 0.819098
Si Si4 0.164655 0.474105 0.826396
Si Si5 0.631988 0.291518 0.608433
Si Si6 0.835345 0.474105 0.601136
O O1 0.500000 0.847137 0.213766
O O2 0.781068 0.840350 0.125667
O O3 0.647554 0.920758 0.138327
O O4 0.555163 0.859920 0.963766
O O5 0.781067 0.159650 0.301865
O O6 0.647554 0.079242 0.289205
O O7 0.750000 0.750000 0.794681
O O8 1.000000 0.788149 0.713766
O O9 0.937022 0.787960 0.963766
O O10 0.261907 0.500000 0.713766
O O11 0.000000 0.500000 0.835148
O O12 0.249937 0.478812 0.963766
O O13 0.750000 0.250000 0.632850
O O14 0.000000 0.500000 0.592384
#
# Coordination Sequence:
#
# PCOD8176439 Si02
#       6
#     8   8   8   8   8   8
#     4  10  19  31  51  80 109 138 176 219 265 315
#     4  10  19  31  51  80 109 138 176 219 265 315
#     4  10  22  39  57  79 108 140 177 223 269 319
#     4   9  15  25  43  71 104 134 168 213 257 301
#     4  10  22  39  57  79 108 140 177 223 269 319
#     4   9  15  25  43  71 104 134 168 213 257 301
#
# _framework density 18.455200000000001
#
# number of rings (size 3 to 8) (size 9 to 14) (size 15 to 20)
#    0.000    2.333    3.333    1.000    0.000    2.000 
#    0.000    0.000    0.000    1.000    0.000    7.000 
#    0.000    0.000    0.000    0.000    0.000    0.000 
#
# Total GULP energy -297356.337433 kJ/mol
# GULP energy per Si atom -12389.847393 kJ/mol
# Density = 1.841319 g / cm^3
# Si number density = 18.455200 Si / 1000 Ang^3
#
#
#
# Elastic Constant Matrix: (Units=GPa)
#
#
# Indices 1 2 3 4 5 6 
#
# 1 65.3533 40.0382 72.5319 0.0000 0.0000 0.0000
# 2 40.0382 115.4953 45.4859 0.0000 0.0000 0.0000
# 3 72.5319 45.4859 193.4205 0.0000 0.0000 0.0000
# 4 0.0000 0.0000 0.0000 28.4135 0.0000 0.0000
# 5 0.0000 0.0000 0.0000 0.0000 31.7946 0.0000
# 6 0.0000 0.0000 0.0000 0.0000 0.0000 16.8660
#
#
#
# Elastic Compliance Matrix: (Units=1/GPa)
#
#
# Indices 1 2 3 4 5 6 
#
# 1 0.030198 -0.006622 -0.009767 0.000000 0.000000 0.000000
# 2 -0.006622 0.010994 -0.000102 0.000000 0.000000 0.000000
# 3 -0.009767 -0.000102 0.008857 0.000000 0.000000 0.000000
# 4 0.000000 0.000000 0.000000 0.035194 0.000000 0.000000
# 5 0.000000 0.000000 0.000000 0.000000 0.031452 0.000000
# 6 0.000000 0.000000 0.000000 0.000000 0.000000 0.059291
#
#
# Mechanical properties :
#
#
# Convention : Reuss Voigt Hill
#
# Bulk Modulus (GPa) = 58.59384 76.70900 67.65142
# Shear Modulus (GPa) = 23.29291 29.82903 26.56097
#
# Velocity S-wave (km/s) = 3.55650 4.02468 3.79781
# Velocity P-wave (km/s) = 6.97733 7.95315 7.48117
#
# Compressibility (1/GPa) = 0.01706664
#
# Stress axis : x y z
#
# Youngs Moduli (GPa) = 33.11467 90.95644 112.90945
#
# Poissons Ratio (x) = 0.60232 1.10277
# Poissons Ratio (y) = 0.21929 0.01154
# Poissons Ratio (z) = 0.32343 0.00930
#
# Static dielectric constant tensor:
#      x y z
#    x 2.917370 0.000000 0.000000 
#    y 0.000000 3.591460 0.000000 
#    z 0.000000 0.000000 4.983730 
# 
# 
# High freq. dielectric constant tensor:
#      x y z
#    x 1.643320 0.000000 0.000000 
#    y 0.000000 1.735640 0.000000 
#    z 0.000000 0.000000 1.748380 
# 
# From -- ./inp_files/6393.got.cif
#   From: 2010.03.12/outbox.cif.g09.slc.cpg/sg37_4_cif.got.tgz:6393.got - 2010.04.14 02:25:27.
