data_PCOD8176230
_publ_section_title
;
Structure prediction by ZEFSAII (Michael W. Deem and Ramdas Pophale) SiO2 
 PCOD8176230
Probable space group: C M C 21
;
_chemical_formula_sum "Si O2"
_cell_formula_units_Z 64
_cell_length_a 8.734987
_cell_length_b 25.066734
_cell_length_c 15.664341
_cell_angle_alpha 90.000000
_cell_angle_beta 90.000000
_cell_angle_gamma 90.000000
_cell_volume 3429.826442
_symmetry_space_group_name_H-M "C M C 21"
_symmetry_group_IT_number 36
_symmetry_cell_setting 'orthorhombic'
loop_
_space_group_symop_operation_xyz
x,y,z
-x,-y,1/2+z
x,-y,1/2+z
-x,y,z
1/2+x,1/2+y,z
1/2-x,1/2-y,1/2+z
1/2+x,1/2-y,1/2+z
1/2-x,1/2+y,z
loop_
_atom_site_type_symbol
_atom_site_label
_atom_site_fract_x
_atom_site_fract_y
_atom_site_fract_z
Si Si1 0.673098 0.492588 0.653770
Si Si2 0.680764 0.717822 0.203741
Si Si3 0.819982 0.631551 0.928328
Si Si4 0.173807 0.925540 0.288038
Si Si5 0.320632 0.881975 0.622501
Si Si6 0.681494 0.259401 0.377214
Si Si7 0.818667 0.707588 0.551098
Si Si8 0.819295 0.403041 0.122691
O O1 0.500000 0.478433 0.625435
O O2 0.677330 0.513443 0.752468
O O3 0.782823 0.442306 0.647373
O O4 0.737028 0.541373 0.594058
O O5 0.500000 0.723160 0.212870
O O6 0.725398 0.657136 0.182742
O O7 0.756343 0.731492 0.293287
O O8 0.746057 0.756122 0.128628
O O9 0.760380 0.578713 0.878761
O O10 0.739461 0.680402 0.881011
O O11 0.000000 0.636740 0.920328
O O12 0.767245 0.628034 0.025718
O O13 0.263771 0.888447 0.218941
O O14 0.000000 0.905153 0.297001
O O15 0.500000 0.871836 0.634806
O O16 0.500000 0.258324 0.375512
O O17 0.745834 0.228273 0.460731
O O18 0.768134 0.645935 0.562283
O O19 0.000000 0.712418 0.553113
O O20 0.000000 0.411627 0.121009
#
# Coordination Sequence:
#
# PCOD8176230 Si02
#       8
#     8   8   8   8   8   8   8   8
#     4   9  20  37  57  85 114 150 196 241 296 357
#     4  11  22  39  60  87 121 160 197 245 304 359
#     4  11  22  36  57  88 119 152 201 252 299 357
#     4   9  19  34  55  85 113 148 194 242 294 349
#     4  11  23  39  60  87 119 160 204 248 303 363
#     4  11  22  38  58  86 120 159 202 246 299 365
#     4   9  19  35  57  84 117 154 193 235 295 356
#     4   9  16  32  58  84 113 151 193 241 290 348
#
# _framework density 18.659837
#
# number of rings (size 3 to 8) (size 9 to 14) (size 15 to 20)
#    0.750    1.250    1.250    3.000    0.000    2.500 
#    0.000    5.000    0.000    1.500    0.000    0.000 
#    0.000    0.000    0.000    0.000    0.000    0.000 
#
# Total GULP energy -396662.446954 kJ/mol
# GULP energy per Si atom -12395.701467 kJ/mol
# Density = 1.861737 g / cm^3
# Si number density = 18.659837 Si / 1000 Ang^3
#
#
#
# Elastic Constant Matrix: (Units=GPa)
#
#
# Indices 1 2 3 4 5 6 
#
# 1 60.4777 11.8330 21.1008 0.0000 0.0000 0.0000
# 2 11.8330 92.9871 27.5978 0.0000 0.0000 0.0000
# 3 21.1008 27.5978 96.6953 0.0000 0.0000 0.0000
# 4 0.0000 0.0000 0.0000 16.6707 0.0000 0.0000
# 5 0.0000 0.0000 0.0000 0.0000 27.3107 0.0000
# 6 0.0000 0.0000 0.0000 0.0000 0.0000 31.3428
#
#
#
# Elastic Compliance Matrix: (Units=1/GPa)
#
#
# Indices 1 2 3 4 5 6 
#
# 1 0.018026 -0.001231 -0.003582 0.000000 0.000000 0.000000
# 2 -0.001231 0.011833 -0.003109 0.000000 0.000000 0.000000
# 3 -0.003582 -0.003109 0.012011 0.000000 0.000000 0.000000
# 4 0.000000 0.000000 0.000000 0.059986 0.000000 0.000000
# 5 0.000000 0.000000 0.000000 0.000000 0.036616 0.000000
# 6 0.000000 0.000000 0.000000 0.000000 0.000000 0.031905
#
#
# Mechanical properties :
#
#
# Convention : Reuss Voigt Hill
#
# Bulk Modulus (GPa) = 38.42262 41.24703 39.83482
# Shear Modulus (GPa) = 25.65477 27.70673 26.68075
#
# Velocity S-wave (km/s) = 3.71194 3.85753 3.78544
# Velocity P-wave (km/s) = 6.24557 6.48024 6.36398
#
# Compressibility (1/GPa) = 0.02602634
#
# Stress axis : x y z
#
# Youngs Moduli (GPa) = 55.47642 84.50615 83.25847
#
# Poissons Ratio (x) = 0.10400 0.29826
# Poissons Ratio (y) = 0.06827 0.25884
# Poissons Ratio (z) = 0.19873 0.26272
#
# Static dielectric constant tensor:
#      x y z
#    x 3.360520 0.000000 0.000000 
#    y 0.000000 3.332490 0.000000 
#    z 0.000000 0.000000 3.446040 
# 
# 
# High freq. dielectric constant tensor:
#      x y z
#    x 1.728320 0.000000 0.000000 
#    y 0.000000 1.718320 0.000000 
#    z 0.000000 0.000000 1.711620 
# 
# From -- ./inp_files/11112.got.cif
#   From: 2010.03.12/outbox.cif.g09.slc.cpg/sg36_6_cif.got.tgz:11112.got - 2010.04.14 02:13:53.
