data_PCOD8176371
_publ_section_title
;
Structure prediction by ZEFSAII (Michael W. Deem and Ramdas Pophale) SiO2 
 PCOD8176371
Probable space group: C C C 2
;
_chemical_formula_sum "Si O2"
_cell_formula_units_Z 40
_cell_length_a 28.154189
_cell_length_b 12.033389
_cell_length_c 5.133659
_cell_angle_alpha 90.000000
_cell_angle_beta 90.000000
_cell_angle_gamma 90.000000
_cell_volume 1739.233915
_symmetry_space_group_name_H-M "C C C 2"
_symmetry_group_IT_number 37
_symmetry_cell_setting 'orthorhombic'
loop_
_space_group_symop_operation_xyz
x,y,z
-x,-y,z
-x,y,1/2+z
x,-y,1/2+z
1/2+x,1/2+y,z
1/2-x,1/2-y,z
1/2-x,1/2+y,1/2+z
1/2+x,1/2-y,1/2+z
loop_
_atom_site_type_symbol
_atom_site_label
_atom_site_fract_x
_atom_site_fract_y
_atom_site_fract_z
Si Si1 0.778193 0.571204 0.065020
Si Si2 0.297374 0.710863 0.346636
Si Si3 0.969396 0.199854 0.183272
Si Si4 0.447484 0.048496 0.706568
Si Si5 0.624533 0.569649 0.608402
O O1 0.788447 0.524265 0.350617
O O2 0.722506 0.610453 0.032834
O O3 0.812321 0.679764 0.016310
O O4 0.250000 0.750000 0.178080
O O5 0.339885 0.671796 0.163348
O O6 0.947430 0.321659 0.148746
O O7 0.929167 0.109675 0.137777
O O8 0.989227 0.182242 0.472877
O O9 0.500000 0.000000 0.766962
O O10 0.420501 0.982347 0.475203
O O11 0.633218 0.528736 0.315488
#
# Coordination Sequence:
#
# PCOD8176371 Si02
#       5
#     8   8   8   8   8
#     4   9  18  34  60  89 122 155 197 252 312 367
#     4   8  22  39  68  93 124 168 212 258 325 401
#     4  12  23  40  66  93 131 171 230 264 318 390
#     4  10  16  32  60  88 112 160 200 249 326 367
#     4  12  27  46  65  93 131 176 221 269 330 387
#
# _framework density 22.998629000000001
#
# number of rings (size 3 to 8) (size 9 to 14) (size 15 to 20)
#    1.200    0.400    4.000    2.400    0.000    7.200 
#    0.000    2.000    0.000    0.000    0.000    0.000 
#    0.000    0.000    0.000    0.000    0.000    0.000 
#
# Total GULP energy -247789.442916 kJ/mol
# GULP energy per Si atom -12389.472146 kJ/mol
# Density = 2.294628 g / cm^3
# Si number density = 22.998629 Si / 1000 Ang^3
#
#
#
# Elastic Constant Matrix: (Units=GPa)
#
#
# Indices 1 2 3 4 5 6 
#
# 1 50.0812 17.1563 3.3283 0.0000 0.0000 0.0000
# 2 17.1563 91.8987 8.6757 0.0000 0.0000 0.0000
# 3 3.3283 8.6757 95.9411 0.0000 0.0000 0.0000
# 4 0.0000 0.0000 0.0000 21.8866 0.0000 0.0000
# 5 0.0000 0.0000 0.0000 0.0000 13.1634 0.0000
# 6 0.0000 0.0000 0.0000 0.0000 0.0000 38.1518
#
#
#
# Elastic Compliance Matrix: (Units=1/GPa)
#
#
# Indices 1 2 3 4 5 6 
#
# 1 0.021346 -0.003949 -0.000383 0.000000 0.000000 0.000000
# 2 -0.003949 0.011706 -0.000922 0.000000 0.000000 0.000000
# 3 -0.000383 -0.000922 0.010520 0.000000 0.000000 0.000000
# 4 0.000000 0.000000 0.000000 0.045690 0.000000 0.000000
# 5 0.000000 0.000000 0.000000 0.000000 0.075968 0.000000
# 6 0.000000 0.000000 0.000000 0.000000 0.000000 0.026211
#
#
# Mechanical properties :
#
#
# Convention : Reuss Voigt Hill
#
# Bulk Modulus (GPa) = 30.24463 32.91573 31.58018
# Shear Modulus (GPa) = 23.47754 28.55773 26.01763
#
# Velocity S-wave (km/s) = 3.19850 3.52762 3.36708
# Velocity P-wave (km/s) = 5.17877 5.56195 5.37378
#
# Compressibility (1/GPa) = 0.03306372
#
# Stress axis : x y z
#
# Youngs Moduli (GPa) = 46.84769 85.42821 95.05981
#
# Poissons Ratio (x) = 0.33734 0.03645
# Poissons Ratio (y) = 0.18499 0.08760
# Poissons Ratio (z) = 0.01796 0.07873
#
# Static dielectric constant tensor:
#      x y z
#    x 3.670140 0.000000 0.000000 
#    y 0.000000 4.227190 0.000000 
#    z 0.000000 0.000000 4.214540 
# 
# 
# High freq. dielectric constant tensor:
#      x y z
#    x 1.863580 0.000000 0.000000 
#    y 0.000000 1.920680 0.000000 
#    z 0.000000 0.000000 1.904600 
# 
# From -- ./inp_files/1457.got.cif
#   From: 2010.03.12/outbox.cif.g09.slc.cpg/sg37_1_cif.got.tgz:1457.got - 2010.04.14 02:25:27.
