data_PCOD8176295
_publ_section_title
;
Structure prediction by ZEFSAII (Michael W. Deem and Ramdas Pophale) SiO2 
 PCOD8176295
Probable space group: C M C 21
;
_chemical_formula_sum "Si O2"
_cell_formula_units_Z 48
_cell_length_a 17.285837
_cell_length_b 8.870495
_cell_length_c 16.136240
_cell_angle_alpha 90.000000
_cell_angle_beta 90.000000
_cell_angle_gamma 90.000000
_cell_volume 2474.233106
_symmetry_space_group_name_H-M "C M C 21"
_symmetry_group_IT_number 36
_symmetry_cell_setting 'orthorhombic'
loop_
_space_group_symop_operation_xyz
x,y,z
-x,-y,1/2+z
x,-y,1/2+z
-x,y,z
1/2+x,1/2+y,z
1/2-x,1/2-y,1/2+z
1/2+x,1/2-y,1/2+z
1/2-x,1/2+y,z
loop_
_atom_site_type_symbol
_atom_site_label
_atom_site_fract_x
_atom_site_fract_y
_atom_site_fract_z
Si Si1 0.308566 0.708033 0.291700
Si Si2 0.308103 0.996367 0.889747
Si Si3 0.412182 0.433746 0.277054
Si Si4 0.275924 0.390407 0.545504
Si Si5 0.291983 0.664284 0.655424
Si Si6 0.411252 0.257298 0.444279
O O1 0.239766 0.598453 0.322152
O O2 0.383386 0.606277 0.274387
O O3 0.284332 0.795573 0.208374
O O4 0.328746 0.836111 0.359061
O O5 0.386817 0.908425 0.912106
O O6 0.255738 0.008787 0.971263
O O7 0.500000 0.429740 0.247898
O O8 0.366956 0.321787 0.214331
O O9 0.400766 0.375913 0.370235
O O10 0.291502 0.492030 0.625907
O O11 0.209378 0.271855 0.574551
O O12 0.355631 0.307841 0.519352
O O13 0.500000 0.251434 0.475170
#
# Coordination Sequence:
#
# PCOD8176295 Si02
#       6
#     8   8   8   8   8   8
#     4  12  20  39  67  91 123 166 220 256 298 381
#     4  12  20  39  67  93 119 166 218 257 297 381
#     4  11  24  42  63  92 127 166 210 262 320 375
#     4  12  22  37  64  93 120 165 213 257 313 375
#     4  12  22  37  64  94 120 165 210 260 309 379
#     4  11  24  42  63  91 129 166 207 266 321 371
#
# _framework density 19.399951000000001
#
# number of rings (size 3 to 8) (size 9 to 14) (size 15 to 20)
#    0.000    0.333   10.000    0.000    0.000    1.333 
#    0.000    0.833    0.000    0.000    0.000    0.000 
#    0.000    0.000    0.000    0.000    0.000    0.000 
#
# Total GULP energy -297605.317500 kJ/mol
# GULP energy per Si atom -12400.221563 kJ/mol
# Density = 1.935580 g / cm^3
# Si number density = 19.399951 Si / 1000 Ang^3
#
#
#
# Elastic Constant Matrix: (Units=GPa)
#
#
# Indices 1 2 3 4 5 6 
#
# 1 114.3141 48.4551 39.9172 0.0000 0.0000 0.0000
# 2 48.4551 98.4983 28.1201 0.0000 0.0000 0.0000
# 3 39.9172 28.1201 73.5470 0.0000 0.0000 0.0000
# 4 0.0000 0.0000 0.0000 42.8732 0.0000 0.0000
# 5 0.0000 0.0000 0.0000 0.0000 28.2553 0.0000
# 6 0.0000 0.0000 0.0000 0.0000 0.0000 31.3063
#
#
#
# Elastic Compliance Matrix: (Units=1/GPa)
#
#
# Indices 1 2 3 4 5 6 
#
# 1 0.012485 -0.004723 -0.004971 0.000000 0.000000 0.000000
# 2 -0.004723 0.013183 -0.002477 0.000000 0.000000 0.000000
# 3 -0.004971 -0.002477 0.017242 0.000000 0.000000 0.000000
# 4 0.000000 0.000000 0.000000 0.023325 0.000000 0.000000
# 5 0.000000 0.000000 0.000000 0.000000 0.035392 0.000000
# 6 0.000000 0.000000 0.000000 0.000000 0.000000 0.031942
#
#
# Mechanical properties :
#
#
# Convention : Reuss Voigt Hill
#
# Bulk Modulus (GPa) = 53.85384 57.70491 55.77938
# Shear Modulus (GPa) = 30.46927 31.81143 31.14035
#
# Velocity S-wave (km/s) = 3.96736 4.05380 4.01081
# Velocity P-wave (km/s) = 6.98617 7.19170 7.08968
#
# Compressibility (1/GPa) = 0.01856878
#
# Stress axis : x y z
#
# Youngs Moduli (GPa) = 80.09293 75.85483 57.99930
#
# Poissons Ratio (x) = 0.35827 0.28829
# Poissons Ratio (y) = 0.37828 0.14367
# Poissons Ratio (z) = 0.39811 0.18790
#
# Static dielectric constant tensor:
#      x y z
#    x 3.358100 0.000000 0.000000 
#    y 0.000000 3.798990 0.000000 
#    z 0.000000 0.000000 3.626270 
# 
# 
# High freq. dielectric constant tensor:
#      x y z
#    x 1.722480 0.000000 0.000000 
#    y 0.000000 1.768160 0.000000 
#    z 0.000000 0.000000 1.766900 
# 
# From -- ./inp_files/12481.got.cif
#   From: 2010.03.12/outbox.cif.g09.slc.cpg/sg36_7_cif.got.tgz:12481.got - 2010.04.14 02:13:53.
