data_PCOD8176210
_publ_section_title
;
Structure prediction by ZEFSAII (Michael W. Deem and Ramdas Pophale) SiO2 
 PCOD8176210
Probable space group: C M C 21
;
_chemical_formula_sum "Si O2"
_cell_formula_units_Z 64
_cell_length_a 17.777828
_cell_length_b 19.818390
_cell_length_c 9.852241
_cell_angle_alpha 90.000000
_cell_angle_beta 90.000000
_cell_angle_gamma 90.000000
_cell_volume 3471.219664
_symmetry_space_group_name_H-M "C M C 21"
_symmetry_group_IT_number 36
_symmetry_cell_setting 'orthorhombic'
loop_
_space_group_symop_operation_xyz
x,y,z
-x,-y,1/2+z
x,-y,1/2+z
-x,y,z
1/2+x,1/2+y,z
1/2-x,1/2-y,1/2+z
1/2+x,1/2-y,1/2+z
1/2-x,1/2+y,z
loop_
_atom_site_type_symbol
_atom_site_label
_atom_site_fract_x
_atom_site_fract_y
_atom_site_fract_z
Si Si1 0.414062 0.540799 0.645760
Si Si2 0.831894 0.532685 0.415903
Si Si3 0.585938 0.959201 0.645760
Si Si4 0.717398 0.175324 0.382571
Si Si5 0.717398 0.324676 0.382571
Si Si6 0.831894 0.967315 0.415903
Si Si7 0.839937 0.675797 0.094974
Si Si8 0.339937 0.324203 0.094974
O O1 0.500000 0.528197 0.686640
O O2 0.393440 0.496814 0.516109
O O3 0.359008 0.515982 0.764515
O O4 0.404137 0.620031 0.611634
O O5 0.859008 0.515982 0.264515
O O6 0.893440 0.503186 0.516109
O O7 0.832850 0.613777 0.439266
O O8 0.750000 0.500000 0.440352
O O9 0.500000 0.971803 0.686640
O O10 0.595863 0.879969 0.611634
O O11 0.685020 0.250000 0.422956
O O12 0.721374 0.169089 0.218288
O O13 0.799475 0.166366 0.449620
O O14 0.667150 0.386223 0.439266
O O15 0.799475 0.333634 0.449620
O O16 0.721374 0.330911 0.218288
O O17 0.877864 0.750000 0.101436
#
# Coordination Sequence:
#
# PCOD8176210 Si02
#       8
#     8   8   8   8   8   8   8   8
#     4  11  23  36  53  81 114 144 175 222 274 317
#     4  11  21  36  58  80 107 142 186 221 261 321
#     4  11  23  36  53  81 114 144 175 222 274 317
#     4   9  18  32  53  81 105 133 178 227 262 303
#     4   9  18  32  53  81 105 133 178 227 262 303
#     4  11  21  36  58  80 107 142 186 221 261 321
#     4   9  18  33  53  78 106 138 177 220 265 315
#     4   9  18  33  53  78 106 138 177 220 265 315
#
# _framework density 18.437322000000002
#
# number of rings (size 3 to 8) (size 9 to 14) (size 15 to 20)
#    0.000    2.000    2.500    1.500    3.500    0.500 
#    0.000    0.000    0.000    2.250    0.000    0.000 
#    0.000    0.000    0.000    0.000    0.000    0.000 
#
# Total GULP energy -396556.400960 kJ/mol
# GULP energy per Si atom -12392.387530 kJ/mol
# Density = 1.839536 g / cm^3
# Si number density = 18.437322 Si / 1000 Ang^3
#
#
#
# Elastic Constant Matrix: (Units=GPa)
#
#
# Indices 1 2 3 4 5 6 
#
# 1 68.9367 26.1105 14.1289 0.0000 0.0000 0.0000
# 2 26.1105 117.4612 34.9574 0.0000 0.0000 0.0000
# 3 14.1289 34.9574 53.9172 0.0000 0.0000 0.0000
# 4 0.0000 0.0000 0.0000 26.9051 0.0000 0.0000
# 5 0.0000 0.0000 0.0000 0.0000 23.7453 0.0000
# 6 0.0000 0.0000 0.0000 0.0000 0.0000 18.7644
#
#
#
# Elastic Compliance Matrix: (Units=1/GPa)
#
#
# Indices 1 2 3 4 5 6 
#
# 1 0.016076 -0.002874 -0.002349 0.000000 0.000000 0.000000
# 2 -0.002874 0.011063 -0.006419 0.000000 0.000000 0.000000
# 3 -0.002349 -0.006419 0.023325 0.000000 0.000000 0.000000
# 4 0.000000 0.000000 0.000000 0.037168 0.000000 0.000000
# 5 0.000000 0.000000 0.000000 0.000000 0.042114 0.000000
# 6 0.000000 0.000000 0.000000 0.000000 0.000000 0.053292
#
#
# Mechanical properties :
#
#
# Convention : Reuss Voigt Hill
#
# Bulk Modulus (GPa) = 36.79476 43.41206 40.10341
# Shear Modulus (GPa) = 23.21452 24.89086 24.05269
#
# Velocity S-wave (km/s) = 3.55224 3.67826 3.61579
# Velocity P-wave (km/s) = 6.06832 6.45262 6.26342
#
# Compressibility (1/GPa) = 0.02717778
#
# Stress axis : x y z
#
# Youngs Moduli (GPa) = 62.20357 90.39233 42.87328
#
# Poissons Ratio (x) = 0.25983 0.10071
# Poissons Ratio (y) = 0.17880 0.27522
# Poissons Ratio (z) = 0.14612 0.58026
#
# Static dielectric constant tensor:
#      x y z
#    x 2.877540 0.000000 0.000000 
#    y 0.000000 3.824150 0.000000 
#    z 0.000000 0.000000 3.495180 
# 
# 
# High freq. dielectric constant tensor:
#      x y z
#    x 1.661930 0.000000 0.000000 
#    y 0.000000 1.739510 0.000000 
#    z 0.000000 0.000000 1.721370 
# 
# From -- ./inp_files/4945.got.cif
#   From: 2010.03.12/outbox.cif.g09.slc.cpg/sg36_3_cif.got.tgz:4945.got - 2010.04.14 02:13:53.
