data_PCOD8176481
_publ_section_title
;
Structure prediction by ZEFSAII (Michael W. Deem and Ramdas Pophale) SiO2 
 PCOD8176481
Probable space group: C C C 2
;
_chemical_formula_sum "Si O2"
_cell_formula_units_Z 64
_cell_length_a 22.636224
_cell_length_b 9.381873
_cell_length_c 14.781421
_cell_angle_alpha 90.000000
_cell_angle_beta 90.000000
_cell_angle_gamma 90.000000
_cell_volume 3139.133020
_symmetry_space_group_name_H-M "C C C 2"
_symmetry_group_IT_number 37
_symmetry_cell_setting 'orthorhombic'
loop_
_space_group_symop_operation_xyz
x,y,z
-x,-y,z
-x,y,1/2+z
x,-y,1/2+z
1/2+x,1/2+y,z
1/2-x,1/2-y,z
1/2-x,1/2+y,1/2+z
1/2+x,1/2-y,1/2+z
loop_
_atom_site_type_symbol
_atom_site_label
_atom_site_fract_x
_atom_site_fract_y
_atom_site_fract_z
Si Si1 0.162834 0.668451 0.030010
Si Si2 0.961258 0.129508 0.883995
Si Si3 0.838497 0.966602 0.452072
Si Si4 0.532029 0.644537 0.177288
Si Si5 0.160722 0.167020 0.109464
Si Si6 0.471435 0.151142 0.538746
Si Si7 0.283769 0.955139 0.657692
Si Si8 0.726143 0.093460 0.855303
O O1 0.097070 0.635238 0.063803
O O2 0.205917 0.602994 0.105707
O O3 0.175650 0.837547 0.022609
O O4 0.175191 0.597871 0.931477
O O5 0.893068 0.081454 0.889907
O O6 0.979795 0.171721 0.782860
O O7 0.976709 0.262836 0.945930
O O8 0.000000 0.000000 0.920961
O O9 0.781558 0.999366 0.390439
O O10 0.850889 0.111470 0.507338
O O11 0.500000 0.500000 0.144527
O O12 0.602186 0.633300 0.165775
O O13 0.505437 0.774815 0.121227
O O14 0.214694 0.082366 0.154516
O O15 0.175721 0.334973 0.108937
O O16 0.500000 0.000000 0.520671
O O17 0.301142 0.972420 0.763537
O O18 0.750000 0.250000 0.831539
#
# Coordination Sequence:
#
# PCOD8176481 Si02
#       8
#     8   8   8   8   8   8   8   8
#     4  10  22  39  62  87 120 163 200 247 306 365
#     4  10  22  39  64  92 120 163 209 258 309 367
#     4  10  20  38  65  86 123 159 202 253 306 366
#     4  11  23  41  64  93 123 160 213 257 308 374
#     4  11  21  36  66  88 123 154 205 255 306 361
#     4  11  23  41  61  88 126 165 203 252 311 367
#     4  11  22  37  62  93 122 161 204 249 311 370
#     4  10  19  36  60  87 117 160 203 240 301 375
#
# _framework density 20.387794
#
# number of rings (size 3 to 8) (size 9 to 14) (size 15 to 20)
#    0.000    1.500    2.500    4.125    3.500    0.500 
#    2.250    0.000    8.250    0.000    0.000    0.000 
#    0.000    0.000    0.000    0.000    0.000    0.000 
#
# Total GULP energy -396871.611233 kJ/mol
# GULP energy per Si atom -12402.237851 kJ/mol
# Density = 2.034139 g / cm^3
# Si number density = 20.387794 Si / 1000 Ang^3
#
#
#
# Elastic Constant Matrix: (Units=GPa)
#
#
# Indices 1 2 3 4 5 6 
#
# 1 110.7839 44.8573 32.0645 0.0000 0.0000 0.0000
# 2 44.8573 80.4973 38.8889 0.0000 0.0000 0.0000
# 3 32.0645 38.8889 110.8363 0.0000 0.0000 0.0000
# 4 0.0000 0.0000 0.0000 14.8616 0.0000 0.0000
# 5 0.0000 0.0000 0.0000 0.0000 29.0125 0.0000
# 6 0.0000 0.0000 0.0000 0.0000 0.0000 27.5854
#
#
#
# Elastic Compliance Matrix: (Units=1/GPa)
#
#
# Indices 1 2 3 4 5 6 
#
# 1 0.011818 -0.005941 -0.001334 0.000000 0.000000 0.000000
# 2 -0.005941 0.017945 -0.004578 0.000000 0.000000 0.000000
# 3 -0.001334 -0.004578 0.011014 0.000000 0.000000 0.000000
# 4 0.000000 0.000000 0.000000 0.067288 0.000000 0.000000
# 5 0.000000 0.000000 0.000000 0.000000 0.034468 0.000000
# 6 0.000000 0.000000 0.000000 0.000000 0.000000 0.036251
#
#
# Mechanical properties :
#
#
# Convention : Reuss Voigt Hill
#
# Bulk Modulus (GPa) = 58.57708 59.30431 58.94070
# Shear Modulus (GPa) = 24.01752 26.71235 25.36493
#
# Velocity S-wave (km/s) = 3.43597 3.62361 3.53104
# Velocity P-wave (km/s) = 6.67346 6.83072 6.75255
#
# Compressibility (1/GPa) = 0.01707152
#
# Stress axis : x y z
#
# Youngs Moduli (GPa) = 84.61351 55.72601 90.78953
#
# Poissons Ratio (x) = 0.33108 0.12116
# Poissons Ratio (y) = 0.50270 0.41559
# Poissons Ratio (z) = 0.11291 0.25509
#
# Static dielectric constant tensor:
#      x y z
#    x 3.823370 0.000000 0.000000 
#    y 0.000000 3.586140 0.000000 
#    z 0.000000 0.000000 3.618870 
# 
# 
# High freq. dielectric constant tensor:
#      x y z
#    x 1.807230 0.000000 0.000000 
#    y 0.000000 1.776560 0.000000 
#    z 0.000000 0.000000 1.794560 
# 
# From -- ./inp_files/10968.got.cif
#   From: 2010.03.12/outbox.cif.g09.slc.cpg/sg37_6_cif.got.tgz:10968.got - 2010.04.14 02:25:27.
