data_PCOD8176029
_publ_section_title
;
Structure prediction by ZEFSAII (Michael W. Deem and Ramdas Pophale) SiO2 
 PCOD8176029
Probable space group: C M C 21
;
_chemical_formula_sum "Si O2"
_cell_formula_units_Z 64
_cell_length_a 8.905168
_cell_length_b 30.260439
_cell_length_c 11.883736
_cell_angle_alpha 90.000000
_cell_angle_beta 90.000000
_cell_angle_gamma 90.000000
_cell_volume 3202.361357
_symmetry_space_group_name_H-M "C M C 21"
_symmetry_group_IT_number 36
_symmetry_cell_setting 'orthorhombic'
loop_
_space_group_symop_operation_xyz
x,y,z
-x,-y,1/2+z
x,-y,1/2+z
-x,y,z
1/2+x,1/2+y,z
1/2-x,1/2-y,1/2+z
1/2+x,1/2-y,1/2+z
1/2-x,1/2+y,z
loop_
_atom_site_type_symbol
_atom_site_label
_atom_site_fract_x
_atom_site_fract_y
_atom_site_fract_z
Si Si1 0.825232 0.617774 0.162840
Si Si2 0.673233 0.546389 0.766396
Si Si3 0.829108 0.794104 0.284592
Si Si4 0.173165 0.946913 0.825910
Si Si5 0.174926 0.694738 0.333653
Si Si6 0.176816 0.625153 0.903711
Si Si7 0.823993 0.575390 0.556373
Si Si8 0.328927 0.336863 0.055985
O O1 0.733372 0.576592 0.213566
O O2 0.788015 0.663085 0.228543
O O3 0.000000 0.605985 0.172185
O O4 0.775272 0.624015 0.034165
O O5 0.500000 0.558890 0.751149
O O6 0.695740 0.499319 0.824371
O O7 0.748703 0.583816 0.841715
O O8 0.747808 0.541474 0.643076
O O9 0.775975 0.744333 0.305391
O O10 0.727088 0.828119 0.353102
O O11 0.814680 0.799416 0.150338
O O12 0.000000 0.801729 0.324109
O O13 0.000000 0.934366 0.841516
O O14 0.266960 0.928935 0.930059
O O15 0.276272 0.681118 0.437410
O O16 0.000000 0.691220 0.366426
O O17 0.000000 0.620604 0.888390
O O18 0.778071 0.623866 0.599156
O O19 0.000000 0.568258 0.559154
O O20 0.500000 0.353870 0.044924
#
# Coordination Sequence:
#
# PCOD8176029 Si02
#       8
#     8   8   8   8   8   8   8   8
#     4  10  23  42  63  90 127 166 206 258 312 368
#     4  11  25  44  65  92 127 166 209 259 314 373
#     4  10  23  41  63  90 126 168 209 259 316 372
#     4  11  25  43  66  94 125 165 209 256 314 376
#     4  10  22  41  63  90 125 168 211 258 314 369
#     4  11  24  41  64  93 126 167 211 257 315 373
#     4  12  24  41  67  94 125 163 208 263 314 372
#     4  11  22  39  65  93 123 163 209 262 317 371
#
# _framework density 19.985253
#
# number of rings (size 3 to 8) (size 9 to 14) (size 15 to 20)
#    0.000    1.250    2.500    2.625    3.500    4.000 
#    0.000    0.000    0.000    0.000    0.000    0.000 
#    0.000    0.000    0.000    0.000    0.000    0.000 
#
# Total GULP energy -396933.236095 kJ/mol
# GULP energy per Si atom -12404.163628 kJ/mol
# Density = 1.993977 g / cm^3
# Si number density = 19.985253 Si / 1000 Ang^3
#
#
#
# Elastic Constant Matrix: (Units=GPa)
#
#
# Indices 1 2 3 4 5 6 
#
# 1 110.1136 48.9714 54.5032 0.0000 0.0000 0.0000
# 2 48.9714 105.3041 36.3577 0.0000 0.0000 0.0000
# 3 54.5032 36.3577 119.7268 0.0000 0.0000 0.0000
# 4 0.0000 0.0000 0.0000 24.0182 0.0000 0.0000
# 5 0.0000 0.0000 0.0000 0.0000 33.3570 0.0000
# 6 0.0000 0.0000 0.0000 0.0000 0.0000 28.1438
#
#
#
# Elastic Compliance Matrix: (Units=1/GPa)
#
#
# Indices 1 2 3 4 5 6 
#
# 1 0.013486 -0.004638 -0.004731 0.000000 0.000000 0.000000
# 2 -0.004638 0.012204 -0.001594 0.000000 0.000000 0.000000
# 3 -0.004731 -0.001594 0.010990 0.000000 0.000000 0.000000
# 4 0.000000 0.000000 0.000000 0.041635 0.000000 0.000000
# 5 0.000000 0.000000 0.000000 0.000000 0.029979 0.000000
# 6 0.000000 0.000000 0.000000 0.000000 0.000000 0.035532
#
#
# Mechanical properties :
#
#
# Convention : Reuss Voigt Hill
#
# Bulk Modulus (GPa) = 67.78288 68.31211 68.04750
# Shear Modulus (GPa) = 29.29635 30.12463 29.71049
#
# Velocity S-wave (km/s) = 3.83286 3.88666 3.85985
# Velocity P-wave (km/s) = 7.31969 7.37543 7.34761
#
# Compressibility (1/GPa) = 0.01475299
#
# Stress axis : x y z
#
# Youngs Moduli (GPa) = 74.15170 81.94149 90.99105
#
# Poissons Ratio (x) = 0.38006 0.43045
# Poissons Ratio (y) = 0.34393 0.14508
# Poissons Ratio (z) = 0.35079 0.13066
#
# Static dielectric constant tensor:
#      x y z
#    x 3.690920 0.000000 0.000000 
#    y 0.000000 3.753430 0.000000 
#    z 0.000000 0.000000 3.753020 
# 
# 
# High freq. dielectric constant tensor:
#      x y z
#    x 1.785370 0.000000 0.000000 
#    y 0.000000 1.785330 0.000000 
#    z 0.000000 0.000000 1.791970 
# 
# From -- ./inp_files/7106.got.cif
#   From: 2010.03.12/outbox.cif.g09.slc.cpg/sg36_4_cif.got.tgz:7106.got - 2010.04.14 02:13:53.
