data_PCOD8176793
_publ_section_title
;
Structure prediction by ZEFSAII (Michael W. Deem and Ramdas Pophale) SiO2 
 PCOD8176793
Probable space group: C C C 2
;
_chemical_formula_sum "Si O2"
_cell_formula_units_Z 56
_cell_length_a 20.234834
_cell_length_b 9.871735
_cell_length_c 12.957596
_cell_angle_alpha 90.000000
_cell_angle_beta 90.000000
_cell_angle_gamma 90.000000
_cell_volume 2588.317624
_symmetry_space_group_name_H-M "C C C 2"
_symmetry_group_IT_number 37
_symmetry_cell_setting 'orthorhombic'
loop_
_space_group_symop_operation_xyz
x,y,z
-x,-y,z
-x,y,1/2+z
x,-y,1/2+z
1/2+x,1/2+y,z
1/2-x,1/2-y,z
1/2-x,1/2+y,1/2+z
1/2+x,1/2-y,1/2+z
loop_
_atom_site_type_symbol
_atom_site_label
_atom_site_fract_x
_atom_site_fract_y
_atom_site_fract_z
Si Si1 0.420474 0.754371 0.495290
Si Si2 0.533780 0.863193 0.358590
Si Si3 0.632251 0.710830 0.620612
Si Si4 0.512997 0.351623 0.683266
Si Si5 0.141682 0.467289 0.508015
Si Si6 0.188423 0.845307 0.338965
Si Si7 0.278193 0.607284 0.939301
O O1 0.490495 0.797559 0.448751
O O2 0.433146 0.649978 0.589896
O O3 0.375145 0.690948 0.407198
O O4 0.386539 0.888420 0.541011
O O5 0.539788 0.753167 0.267983
O O6 0.604772 0.901356 0.407613
O O7 0.500000 0.000000 0.314470
O O8 0.555928 0.682990 0.631780
O O9 0.635297 0.872137 0.607303
O O10 0.674678 0.675165 0.719738
O O11 0.664126 0.634424 0.522380
O O12 0.500000 0.500000 0.732459
O O13 0.219253 0.481155 0.487498
O O14 0.250000 0.750000 0.372071
O O15 0.196843 0.007849 0.349404
O O16 0.250000 0.750000 0.895625
#
# Coordination Sequence:
#
# PCOD8176793 Si02
#       7
#     8   8   8   8   8   8   8
#     4  11  23  42  69  99 135 174 224 285 331 400
#     4  10  23  41  68  96 130 174 226 281 334 400
#     4  11  24  43  70  95 135 181 226 273 346 405
#     4  12  26  41  63 101 136 178 221 272 345 407
#     4  10  21  43  68  99 129 173 227 284 333 389
#     4  12  23  44  71  98 132 177 230 276 340 408
#     4  10  23  44  66  97 134 178 221 279 338 397
#
# _framework density 21.635676
#
# number of rings (size 3 to 8) (size 9 to 14) (size 15 to 20)
#    0.000    1.143    4.286    2.143    2.000    2.857 
#    2.571    0.714    0.000    0.000    0.000    0.000 
#    0.000    0.000    0.000    0.000    0.000    0.000 
#
# Total GULP energy -347065.533999 kJ/mol
# GULP energy per Si atom -12395.197643 kJ/mol
# Density = 2.158643 g / cm^3
# Si number density = 21.635676 Si / 1000 Ang^3
#
#
#
# Elastic Constant Matrix: (Units=GPa)
#
#
# Indices 1 2 3 4 5 6 
#
# 1 59.7588 -1.1100 -2.0492 0.0000 0.0000 0.0000
# 2 -1.1100 125.2643 57.6196 0.0000 0.0000 0.0000
# 3 -2.0492 57.6196 68.7436 0.0000 0.0000 0.0000
# 4 0.0000 0.0000 0.0000 51.9447 0.0000 0.0000
# 5 0.0000 0.0000 0.0000 0.0000 121.0796 0.0000
# 6 0.0000 0.0000 0.0000 0.0000 0.0000 26.8164
#
#
#
# Elastic Compliance Matrix: (Units=1/GPa)
#
#
# Indices 1 2 3 4 5 6 
#
# 1 0.016752 -0.000132 0.000610 0.000000 0.000000 0.000000
# 2 -0.000132 0.012993 -0.010895 0.000000 0.000000 0.000000
# 3 0.000610 -0.010895 0.023697 0.000000 0.000000 0.000000
# 4 0.000000 0.000000 0.000000 0.019251 0.000000 0.000000
# 5 0.000000 0.000000 0.000000 0.000000 0.008259 0.000000
# 6 0.000000 0.000000 0.000000 0.000000 0.000000 0.037291
#
#
# Mechanical properties :
#
#
# Convention : Reuss Voigt Hill
#
# Bulk Modulus (GPa) = 30.66639 40.29861 35.48250
# Shear Modulus (GPa) = 33.34521 53.25524 43.30022
#
# Velocity S-wave (km/s) = 3.93009 4.96669 4.47848
# Velocity P-wave (km/s) = 5.89906 7.18033 6.57100
#
# Compressibility (1/GPa) = 0.03260899
#
# Stress axis : x y z
#
# Youngs Moduli (GPa) = 59.69296 76.96238 42.19983
#
# Poissons Ratio (x) = 0.01018 -0.02575
# Poissons Ratio (y) = 0.00789 0.45976
# Poissons Ratio (z) = -0.03642 0.83849
#
# Static dielectric constant tensor:
#      x y z
#    x 3.957890 0.000000 0.000000 
#    y 0.000000 2.173950 0.000000 
#    z 0.000000 0.000000 3.590600 
# 
# 
# High freq. dielectric constant tensor:
#      x y z
#    x 1.863780 0.000000 0.000000 
#    y 0.000000 1.859620 0.000000 
#    z 0.000000 0.000000 1.827850 
# 
# From -- ./inp_files/12935.got.cif
#   From: 2010.03.12/outbox.cif.g09.slc.cpg/sg37_7_cif.got.tgz:12935.got - 2010.04.14 02:25:27.
