data_PCOD8176303
_publ_section_title
;
Structure prediction by ZEFSAII (Michael W. Deem and Ramdas Pophale) SiO2 
 PCOD8176303
Probable space group: C M C 21
;
_chemical_formula_sum "Si O2"
_cell_formula_units_Z 44
_cell_length_a 11.539529
_cell_length_b 13.993840
_cell_length_c 13.239624
_cell_angle_alpha 90.000000
_cell_angle_beta 90.000000
_cell_angle_gamma 90.000000
_cell_volume 2137.965233
_symmetry_space_group_name_H-M "C M C 21"
_symmetry_group_IT_number 36
_symmetry_cell_setting 'orthorhombic'
loop_
_space_group_symop_operation_xyz
x,y,z
-x,-y,1/2+z
x,-y,1/2+z
-x,y,z
1/2+x,1/2+y,z
1/2-x,1/2-y,1/2+z
1/2+x,1/2-y,1/2+z
1/2-x,1/2+y,z
loop_
_atom_site_type_symbol
_atom_site_label
_atom_site_fract_x
_atom_site_fract_y
_atom_site_fract_z
Si Si1 0.000000 0.555466 0.324530
Si Si2 0.000000 0.642133 0.891747
Si Si3 0.637888 0.619118 0.928411
Si Si4 0.258078 0.741841 0.578681
Si Si5 0.711468 0.761653 0.296379
Si Si6 0.000000 0.666464 0.115116
Si Si7 0.256083 0.913036 0.910706
O O1 0.892633 0.579191 0.395788
O O2 0.000000 0.441699 0.309549
O O3 0.000000 0.599158 0.212958
O O4 0.886225 0.704026 0.874221
O O5 0.000000 0.607385 0.009072
O O6 0.500000 0.611620 0.938313
O O7 0.670091 0.684620 0.831549
O O8 0.691562 0.513760 0.916079
O O9 0.692481 0.669608 0.026674
O O10 0.185327 0.716390 0.679878
O O11 0.385935 0.768507 0.617725
O O12 0.265997 0.646755 0.512290
O O13 0.714084 0.647223 0.313069
#
# Coordination Sequence:
#
# PCOD8176303 Si02
#       7
#     4   4   8   8   8   4   8
#     4  12  24  44  76  98 134 183 234 288 334 413
#     4  12  24  46  66 104 142 172 232 295 334 410
#     4  11  26  45  66 101 140 177 229 284 341 422
#     4  11  26  42  70 100 136 182 231 280 350 408
#     4  11  25  44  68  99 137 182 225 286 347 403
#     4  12  22  44  72  98 140 177 230 283 346 407
#     4  11  24  44  69  97 136 181 226 282 347 402
#
# _framework density 20.580316
#
# number of rings (size 3 to 8) (size 9 to 14) (size 15 to 20)
#    0.000    0.727    7.273    0.000   10.182    4.364 
#    0.000    1.818    0.000    0.000    0.000    0.000 
#    0.000    0.000    0.000    0.000    0.000    0.000 
#
# Total GULP energy -272709.626589 kJ/mol
# GULP energy per Si atom -12395.892118 kJ/mol
# Density = 2.053347 g / cm^3
# Si number density = 20.580316 Si / 1000 Ang^3
#
#
#
# Elastic Constant Matrix: (Units=GPa)
#
#
# Indices 1 2 3 4 5 6 
#
# 1 133.3571 42.1772 35.9289 0.0000 0.0000 0.0000
# 2 42.1772 136.3493 48.5263 0.0000 0.0000 0.0000
# 3 35.9289 48.5263 128.3835 0.0000 0.0000 0.0000
# 4 0.0000 0.0000 0.0000 28.4061 0.0000 0.0000
# 5 0.0000 0.0000 0.0000 0.0000 33.3330 0.0000
# 6 0.0000 0.0000 0.0000 0.0000 0.0000 25.2032
#
#
#
# Elastic Compliance Matrix: (Units=1/GPa)
#
#
# Indices 1 2 3 4 5 6 
#
# 1 0.008593 -0.002082 -0.001618 0.000000 0.000000 0.000000
# 2 -0.002082 0.008979 -0.002811 0.000000 0.000000 0.000000
# 3 -0.001618 -0.002811 0.009304 0.000000 0.000000 0.000000
# 4 0.000000 0.000000 0.000000 0.035204 0.000000 0.000000
# 5 0.000000 0.000000 0.000000 0.000000 0.030000 0.000000
# 6 0.000000 0.000000 0.000000 0.000000 0.000000 0.039677
#
#
# Mechanical properties :
#
#
# Convention : Reuss Voigt Hill
#
# Bulk Modulus (GPa) = 72.18146 72.37274 72.27710
# Shear Modulus (GPa) = 33.46769 35.48564 34.47666
#
# Velocity S-wave (km/s) = 4.03699 4.15692 4.09739
# Velocity P-wave (km/s) = 7.54181 7.63428 7.58819
#
# Compressibility (1/GPa) = 0.01385397
#
# Stress axis : x y z
#
# Youngs Moduli (GPa) = 116.37227 111.37500 107.47614
#
# Poissons Ratio (x) = 0.23193 0.17387
# Poissons Ratio (y) = 0.24233 0.30211
# Poissons Ratio (z) = 0.18826 0.31307
#
# Static dielectric constant tensor:
#      x y z
#    x 3.856370 0.000000 0.000000 
#    y 0.000000 3.868790 0.000000 
#    z 0.000000 0.000000 3.739520 
# 
# 
# High freq. dielectric constant tensor:
#      x y z
#    x 1.814940 0.000000 0.000000 
#    y 0.000000 1.806240 0.000000 
#    z 0.000000 0.000000 1.810330 
# 
# From -- ./inp_files/11500.got.cif
#   From: 2010.03.12/outbox.cif.g09.slc.cpg/sg36_6_cif.got.tgz:11500.got - 2010.04.14 02:13:53.
