data_PCOD8176199
_publ_section_title
;
Structure prediction by ZEFSAII (Michael W. Deem and Ramdas Pophale) SiO2 
 PCOD8176199
Probable space group: C M C 21
;
_chemical_formula_sum "Si O2"
_cell_formula_units_Z 64
_cell_length_a 9.153087
_cell_length_b 23.188832
_cell_length_c 17.719494
_cell_angle_alpha 90.000000
_cell_angle_beta 90.000000
_cell_angle_gamma 90.000000
_cell_volume 3760.951912
_symmetry_space_group_name_H-M "C M C 21"
_symmetry_group_IT_number 36
_symmetry_cell_setting 'orthorhombic'
loop_
_space_group_symop_operation_xyz
x,y,z
-x,-y,1/2+z
x,-y,1/2+z
-x,y,z
1/2+x,1/2+y,z
1/2-x,1/2-y,1/2+z
1/2+x,1/2-y,1/2+z
1/2-x,1/2+y,z
loop_
_atom_site_type_symbol
_atom_site_label
_atom_site_fract_x
_atom_site_fract_y
_atom_site_fract_z
Si Si1 0.326802 0.935395 0.986830
Si Si2 0.837154 0.275116 0.620819
Si Si3 0.325069 0.940037 0.541019
Si Si4 0.325083 0.382722 0.679541
Si Si5 0.840152 0.734248 0.401211
Si Si6 0.340641 0.830531 0.457715
Si Si7 0.325709 0.882766 0.831303
Si Si8 0.662716 0.176783 0.563497
O O1 0.500000 0.931210 0.988257
O O2 0.275660 0.922878 0.901361
O O3 0.269047 0.886436 0.045233
O O4 0.271511 0.997660 0.013237
O O5 0.734402 0.317955 0.667920
O O6 0.849329 0.296344 0.535689
O O7 0.766537 0.211067 0.621867
O O8 0.000000 0.272874 0.656893
O O9 0.500000 0.936163 0.555060
O O10 0.240445 0.926220 0.617835
O O11 0.276974 0.894190 0.476183
O O12 0.500000 0.383192 0.676231
O O13 0.265658 0.405071 0.759883
O O14 0.750479 0.793955 0.396800
O O15 0.777009 0.683370 0.348502
O O16 0.848258 0.711782 0.486119
O O17 0.000000 0.750646 0.371894
O O18 0.500000 0.837259 0.421445
O O19 0.500000 0.886891 0.817313
O O20 0.500000 0.171738 0.598816
#
# Coordination Sequence:
#
# PCOD8176199 Si02
#       8
#     8   8   8   8   8   8   8   8
#     4   8  15  29  51  73  94 124 164 200 233 279
#     4   9  16  27  43  64  89 118 147 180 225 277
#     4   9  17  31  49  70  95 127 165 201 234 279
#     4  11  21  31  45  68  95 124 157 199 245 288
#     4   8  14  24  41  63  87 112 139 174 223 275
#     4   8  14  23  39  63  89 113 142 180 220 261
#     4   9  17  31  49  69  91 119 155 196 241 293
#     4   8  13  24  43  68  92 113 141 182 225 268
#
# _framework density 17.016967999999999
#
# number of rings (size 3 to 8) (size 9 to 14) (size 15 to 20)
#    0.000    3.250    0.000    3.750    0.000    3.500 
#    0.000    3.125    0.000    1.500    0.000    7.000 
#    0.000    0.000    0.000    0.000    0.000    0.000 
#
# Total GULP energy -396503.883527 kJ/mol
# GULP energy per Si atom -12390.746360 kJ/mol
# Density = 1.697824 g / cm^3
# Si number density = 17.016968 Si / 1000 Ang^3
#
#
#
# Elastic Constant Matrix: (Units=GPa)
#
#
# Indices 1 2 3 4 5 6 
#
# 1 79.1609 47.1794 35.8890 0.0000 0.0000 0.0000
# 2 47.1794 143.0661 48.2595 0.0000 0.0000 0.0000
# 3 35.8890 48.2595 64.1050 0.0000 0.0000 0.0000
# 4 0.0000 0.0000 0.0000 14.6423 0.0000 0.0000
# 5 0.0000 0.0000 0.0000 0.0000 18.3386 0.0000
# 6 0.0000 0.0000 0.0000 0.0000 0.0000 22.3228
#
#
#
# Elastic Compliance Matrix: (Units=1/GPa)
#
#
# Indices 1 2 3 4 5 6 
#
# 1 0.018096 -0.003418 -0.007558 0.000000 0.000000 0.000000
# 2 -0.003418 0.010015 -0.005626 0.000000 0.000000 0.000000
# 3 -0.007558 -0.005626 0.024066 0.000000 0.000000 0.000000
# 4 0.000000 0.000000 0.000000 0.068295 0.000000 0.000000
# 5 0.000000 0.000000 0.000000 0.000000 0.054530 0.000000
# 6 0.000000 0.000000 0.000000 0.000000 0.000000 0.044797
#
#
# Mechanical properties :
#
#
# Convention : Reuss Voigt Hill
#
# Bulk Modulus (GPa) = 52.70549 60.99865 56.85207
# Shear Modulus (GPa) = 19.28074 21.39436 20.33755
#
# Velocity S-wave (km/s) = 3.36970 3.54960 3.46082
# Velocity P-wave (km/s) = 6.79554 7.26107 7.03216
#
# Compressibility (1/GPa) = 0.01897336
#
# Stress axis : x y z
#
# Youngs Moduli (GPa) = 55.26018 99.85391 41.55306
#
# Poissons Ratio (x) = 0.34132 0.31405
# Poissons Ratio (y) = 0.18889 0.23376
# Poissons Ratio (z) = 0.41765 0.56173
#
# Static dielectric constant tensor:
#      x y z
#    x 3.242030 0.000000 0.000000 
#    y 0.000000 3.396980 0.000000 
#    z 0.000000 0.000000 2.882720 
# 
# 
# High freq. dielectric constant tensor:
#      x y z
#    x 1.641180 0.000000 0.000000 
#    y 0.000000 1.647990 0.000000 
#    z 0.000000 0.000000 1.617660 
# 
# From -- ./inp_files/14104.got.cif
#   From: 2010.03.12/outbox.cif.g09.slc.cpg/sg36_8_cif.got.tgz:14104.got - 2010.04.14 02:13:53.
