data_PCOD8176807
_publ_section_title
;
Structure prediction by ZEFSAII (Michael W. Deem and Ramdas Pophale) SiO2 
 PCOD8176807
Probable space group: C C C 2
;
_chemical_formula_sum "Si O2"
_cell_formula_units_Z 56
_cell_length_a 10.473048
_cell_length_b 15.504106
_cell_length_c 15.560346
_cell_angle_alpha 90.000000
_cell_angle_beta 90.000000
_cell_angle_gamma 90.000000
_cell_volume 2526.615015
_symmetry_space_group_name_H-M "C C C 2"
_symmetry_group_IT_number 37
_symmetry_cell_setting 'orthorhombic'
loop_
_space_group_symop_operation_xyz
x,y,z
-x,-y,z
-x,y,1/2+z
x,-y,1/2+z
1/2+x,1/2+y,z
1/2-x,1/2-y,z
1/2-x,1/2+y,1/2+z
1/2+x,1/2-y,1/2+z
loop_
_atom_site_type_symbol
_atom_site_label
_atom_site_fract_x
_atom_site_fract_y
_atom_site_fract_z
Si Si1 0.868065 0.683989 0.987300
Si Si2 0.997528 0.219469 0.635537
Si Si3 0.147678 0.505195 0.569840
Si Si4 0.702991 0.656705 0.520386
Si Si5 0.453173 0.588104 0.867237
Si Si6 0.873398 0.945265 0.185395
Si Si7 0.102992 0.245250 0.811094
O O1 0.750000 0.750000 0.987180
O O2 0.931662 0.692545 0.892130
O O3 0.965653 0.710524 0.062758
O O4 0.829080 0.584458 0.003285
O O5 0.882633 0.151313 0.646179
O O6 0.122437 0.163575 0.608835
O O7 0.023761 0.270703 0.725007
O O8 0.185577 0.414891 0.524878
O O9 0.241634 0.514746 0.651185
O O10 0.000000 0.500000 0.598972
O O11 0.750000 0.750000 0.496698
O O12 0.613532 0.640147 0.440494
O O13 0.500000 0.500000 0.911058
O O14 0.360994 0.562121 0.788152
O O15 0.570705 0.645501 0.832447
O O16 0.000000 0.000000 0.159772
O O17 0.250000 0.250000 0.786620
#
# Coordination Sequence:
#
# PCOD8176807 Si02
#       7
#     8   8   8   8   8   8   8
#     4  11  23  43  69 106 142 186 242 290 362 436
#     4  11  21  43  75 101 133 191 237 296 352 432
#     4  12  27  45  70 105 147 191 239 303 374 429
#     4  12  26  45  71 100 145 189 242 299 371 432
#     4  10  24  43  73 105 136 185 251 302 353 431
#     4  10  21  45  72 108 137 183 251 296 352 440
#     4  10  23  41  70 106 143 179 239 297 358 426
#
# _framework density 22.164041000000001
#
# number of rings (size 3 to 8) (size 9 to 14) (size 15 to 20)
#    0.000    1.143    4.286    1.286    6.000    0.000 
#    5.143    0.714    0.000    0.000    0.000    0.000 
#    0.000    0.000    0.000    0.000    0.000    0.000 
#
# Total GULP energy -347087.708275 kJ/mol
# GULP energy per Si atom -12395.989581 kJ/mol
# Density = 2.211359 g / cm^3
# Si number density = 22.164041 Si / 1000 Ang^3
#
#
#
# Elastic Constant Matrix: (Units=GPa)
#
#
# Indices 1 2 3 4 5 6 
#
# 1 107.7436 43.1654 49.3691 0.0000 0.0000 0.0000
# 2 43.1654 140.8257 58.6213 0.0000 0.0000 0.0000
# 3 49.3691 58.6213 146.8148 0.0000 0.0000 0.0000
# 4 0.0000 0.0000 0.0000 23.5958 0.0000 0.0000
# 5 0.0000 0.0000 0.0000 0.0000 11.1907 0.0000
# 6 0.0000 0.0000 0.0000 0.0000 0.0000 41.0121
#
#
#
# Elastic Compliance Matrix: (Units=1/GPa)
#
#
# Indices 1 2 3 4 5 6 
#
# 1 0.011566 -0.002310 -0.002967 0.000000 0.000000 0.000000
# 2 -0.002310 0.008978 -0.002808 0.000000 0.000000 0.000000
# 3 -0.002967 -0.002808 0.008930 0.000000 0.000000 0.000000
# 4 0.000000 0.000000 0.000000 0.042380 0.000000 0.000000
# 5 0.000000 0.000000 0.000000 0.000000 0.089360 0.000000
# 6 0.000000 0.000000 0.000000 0.000000 0.000000 0.024383
#
#
# Mechanical properties :
#
#
# Convention : Reuss Voigt Hill
#
# Bulk Modulus (GPa) = 75.16397 77.52175 76.34286
# Shear Modulus (GPa) = 24.24796 31.44160 27.84478
#
# Velocity S-wave (km/s) = 3.31119 3.77050 3.54828
# Velocity P-wave (km/s) = 6.97172 7.34900 7.16284
#
# Compressibility (1/GPa) = 0.01330425
#
# Stress axis : x y z
#
# Youngs Moduli (GPa) = 86.45790 111.38399 111.98008
#
# Poissons Ratio (x) = 0.25732 0.33224
# Poissons Ratio (y) = 0.19974 0.31443
# Poissons Ratio (z) = 0.25652 0.31276
#
# Static dielectric constant tensor:
#      x y z
#    x 3.888200 0.000000 0.000000 
#    y 0.000000 4.255560 0.000000 
#    z 0.000000 0.000000 4.127670 
# 
# 
# High freq. dielectric constant tensor:
#      x y z
#    x 1.856480 0.000000 0.000000 
#    y 0.000000 1.878540 0.000000 
#    z 0.000000 0.000000 1.874810 
# 
# From -- ./inp_files/11587.got.cif
#   From: 2010.03.12/outbox.cif.g09.slc.cpg/sg37_6_cif.got.tgz:11587.got - 2010.04.14 02:25:27.
