data_PCOD8176326
_publ_section_title
;
Structure prediction by ZEFSAII (Michael W. Deem and Ramdas Pophale) SiO2 
 PCOD8176326
Probable space group: C M C 21
;
_chemical_formula_sum "Si O2"
_cell_formula_units_Z 64
_cell_length_a 8.911070
_cell_length_b 28.570340
_cell_length_c 13.932088
_cell_angle_alpha 90.000000
_cell_angle_beta 90.000000
_cell_angle_gamma 90.000000
_cell_volume 3547.002323
_symmetry_space_group_name_H-M "C M C 21"
_symmetry_group_IT_number 36
_symmetry_cell_setting 'orthorhombic'
loop_
_space_group_symop_operation_xyz
x,y,z
-x,-y,1/2+z
x,-y,1/2+z
-x,y,z
1/2+x,1/2+y,z
1/2-x,1/2-y,1/2+z
1/2+x,1/2-y,1/2+z
1/2-x,1/2+y,z
loop_
_atom_site_type_symbol
_atom_site_label
_atom_site_fract_x
_atom_site_fract_y
_atom_site_fract_z
Si Si1 0.325689 0.174118 0.646260
Si Si2 0.672593 0.953818 0.960583
Si Si3 0.822733 0.924756 0.146580
Si Si4 0.827895 0.509137 0.782672
Si Si5 0.174058 0.264743 0.328609
Si Si6 0.322886 0.263584 0.528434
Si Si7 0.178721 0.917260 0.786970
Si Si8 0.678352 0.320180 0.705545
O O1 0.500000 0.161077 0.633424
O O2 0.226189 0.128405 0.630192
O O3 0.296088 0.193963 0.752628
O O4 0.274508 0.212359 0.567196
O O5 0.500000 0.939593 0.978060
O O6 0.754131 0.913911 0.895406
O O7 0.682953 0.002851 0.899424
O O8 0.757836 0.957637 0.061557
O O9 0.756847 0.944277 0.247226
O O10 0.000000 0.928268 0.148480
O O11 0.747390 0.463397 0.735111
O O12 0.000000 0.511204 0.748674
O O13 0.258980 0.276424 0.425680
O O14 0.236859 0.215824 0.286559
O O15 0.000000 0.260541 0.352808
O O16 0.500000 0.265586 0.523496
O O17 0.262266 0.303346 0.601827
O O18 0.235654 0.872223 0.728008
O O19 0.000000 0.920549 0.791588
O O20 0.500000 0.317710 0.706296
#
# Coordination Sequence:
#
# PCOD8176326 Si02
#       8
#     8   8   8   8   8   8   8   8
#     4   9  20  37  54  76 111 149 184 220 274 333
#     4   9  20  36  55  79 109 140 173 216 271 327
#     4  12  23  35  58  84 109 141 183 234 276 323
#     4   9  20  37  55  76 108 143 174 219 275 329
#     4   9  18  34  53  75 106 144 179 219 267 319
#     4   9  18  33  52  75 104 143 182 220 265 320
#     4   9  16  31  54  79 104 133 174 220 263 313
#     4   8  16  31  51  74 105 139 171 214 269 316
#
# _framework density 18.043405
#
# number of rings (size 3 to 8) (size 9 to 14) (size 15 to 20)
#    0.750    2.000    0.000    3.375    1.750    1.000 
#    0.000    5.000    0.000    3.000    0.000    0.000 
#    0.000    0.000    0.000    0.000    0.000    0.000 
#
# Total GULP energy -396544.226295 kJ/mol
# GULP energy per Si atom -12392.007072 kJ/mol
# Density = 1.800234 g / cm^3
# Si number density = 18.043405 Si / 1000 Ang^3
#
#
#
# Elastic Constant Matrix: (Units=GPa)
#
#
# Indices 1 2 3 4 5 6 
#
# 1 87.2365 28.0659 22.5332 0.0000 0.0000 0.0000
# 2 28.0659 49.6718 13.6202 0.0000 0.0000 0.0000
# 3 22.5332 13.6202 77.5567 0.0000 0.0000 0.0000
# 4 0.0000 0.0000 0.0000 20.1744 0.0000 0.0000
# 5 0.0000 0.0000 0.0000 0.0000 32.5130 0.0000
# 6 0.0000 0.0000 0.0000 0.0000 0.0000 25.5574
#
#
#
# Elastic Compliance Matrix: (Units=1/GPa)
#
#
# Indices 1 2 3 4 5 6 
#
# 1 0.014621 -0.007455 -0.002939 0.000000 0.000000 0.000000
# 2 -0.007455 0.024952 -0.002216 0.000000 0.000000 0.000000
# 3 -0.002939 -0.002216 0.014137 0.000000 0.000000 0.000000
# 4 0.000000 0.000000 0.000000 0.049568 0.000000 0.000000
# 5 0.000000 0.000000 0.000000 0.000000 0.030757 0.000000
# 6 0.000000 0.000000 0.000000 0.000000 0.000000 0.039128
#
#
# Mechanical properties :
#
#
# Convention : Reuss Voigt Hill
#
# Bulk Modulus (GPa) = 35.10016 38.10040 36.60028
# Shear Modulus (GPa) = 24.05257 25.66536 24.85897
#
# Velocity S-wave (km/s) = 3.65504 3.77559 3.71581
# Velocity P-wave (km/s) = 6.10802 6.33787 6.22401
#
# Compressibility (1/GPa) = 0.02848990
#
# Stress axis : x y z
#
# Youngs Moduli (GPa) = 68.39643 40.07668 70.73775
#
# Poissons Ratio (x) = 0.29878 0.20787
# Poissons Ratio (y) = 0.50991 0.15675
# Poissons Ratio (z) = 0.20099 0.08881
#
# Static dielectric constant tensor:
#      x y z
#    x 3.160130 0.000000 0.000000 
#    y 0.000000 3.260220 0.000000 
#    z 0.000000 0.000000 3.363580 
# 
# 
# High freq. dielectric constant tensor:
#      x y z
#    x 1.692120 0.000000 0.000000 
#    y 0.000000 1.683280 0.000000 
#    z 0.000000 0.000000 1.691590 
# 
# From -- ./inp_files/11189.got.cif
#   From: 2010.03.12/outbox.cif.g09.slc.cpg/sg36_6_cif.got.tgz:11189.got - 2010.04.14 02:13:53.
