data_PCOD8176704
_publ_section_title
;
Structure prediction by ZEFSAII (Michael W. Deem and Ramdas Pophale) SiO2 
 PCOD8176704
Probable space group: C C C 2
;
_chemical_formula_sum "Si O2"
_cell_formula_units_Z 64
_cell_length_a 31.254610
_cell_length_b 9.632203
_cell_length_c 9.430190
_cell_angle_alpha 90.000000
_cell_angle_beta 90.000000
_cell_angle_gamma 90.000000
_cell_volume 2838.965755
_symmetry_space_group_name_H-M "C C C 2"
_symmetry_group_IT_number 37
_symmetry_cell_setting 'orthorhombic'
loop_
_space_group_symop_operation_xyz
x,y,z
-x,-y,z
-x,y,1/2+z
x,-y,1/2+z
1/2+x,1/2+y,z
1/2-x,1/2-y,z
1/2-x,1/2+y,1/2+z
1/2+x,1/2-y,1/2+z
loop_
_atom_site_type_symbol
_atom_site_label
_atom_site_fract_x
_atom_site_fract_y
_atom_site_fract_z
Si Si1 0.542527 0.907342 0.045850
Si Si2 0.499496 0.656278 0.173685
Si Si3 0.283899 0.920975 0.121402
Si Si4 0.588210 0.980594 0.312399
Si Si5 0.678579 0.120998 0.822359
Si Si6 0.313818 0.629612 0.180792
Si Si7 0.355065 0.584412 0.884772
Si Si8 0.554935 0.697793 0.429559
O O1 0.535661 0.751388 0.100150
O O2 0.577754 0.980923 0.146785
O O3 0.500000 0.000000 0.045909
O O4 0.564051 0.891265 0.890125
O O5 0.500000 0.500000 0.119496
O O6 0.510157 0.664107 0.342621
O O7 0.454248 0.701997 0.100501
O O8 0.289021 0.904366 0.952549
O O9 0.311291 0.797310 0.197866
O O10 0.234353 0.919718 0.158948
O O11 0.299494 0.070759 0.176788
O O12 0.638246 0.979989 0.344090
O O13 0.567458 0.852189 0.394157
O O14 0.665160 0.281461 0.805012
O O15 0.336812 0.556359 0.314588
O O16 0.342101 0.585792 0.047718
O O17 0.407044 0.591924 0.882435
#
# Coordination Sequence:
#
# PCOD8176704 Si02
#       8
#     8   8   8   8   8   8   8   8
#     4  11  21  37  62  81 118 158 207 253 303 355
#     4  11  24  41  58  87 119 161 205 257 300 362
#     4  10  21  39  64  92 125 160 201 253 308 377
#     4  10  21  37  60  92 117 158 205 254 304 363
#     4  10  21  40  62  92 130 159 203 258 313 364
#     4  10  22  41  63  92 123 162 206 246 311 377
#     4  10  23  42  64  91 125 166 206 257 310 374
#     4  10  23  42  61  85 124 160 208 251 306 362
#
# _framework density 22.543420999999999
#
# number of rings (size 3 to 8) (size 9 to 14) (size 15 to 20)
#    0.000    1.750    1.250    2.250    3.500    2.500 
#    2.250    0.000    0.000    0.000    0.000    0.000 
#    0.000    0.000    0.000    0.000    0.000    0.000 
#
# Total GULP energy -396419.998899 kJ/mol
# GULP energy per Si atom -12388.124966 kJ/mol
# Density = 2.249211 g / cm^3
# Si number density = 22.543421 Si / 1000 Ang^3
#
#
#
# Elastic Constant Matrix: (Units=GPa)
#
#
# Indices 1 2 3 4 5 6 
#
# 1 69.4238 7.6025 33.1808 0.0000 0.0000 0.0000
# 2 7.6025 45.3496 9.4896 0.0000 0.0000 0.0000
# 3 33.1808 9.4896 73.3596 0.0000 0.0000 0.0000
# 4 0.0000 0.0000 0.0000 28.7588 0.0000 0.0000
# 5 0.0000 0.0000 0.0000 0.0000 35.5065 0.0000
# 6 0.0000 0.0000 0.0000 0.0000 0.0000 28.2272
#
#
#
# Elastic Compliance Matrix: (Units=1/GPa)
#
#
# Indices 1 2 3 4 5 6 
#
# 1 0.018461 -0.001385 -0.008171 0.000000 0.000000 0.000000
# 2 -0.001385 0.022768 -0.002319 0.000000 0.000000 0.000000
# 3 -0.008171 -0.002319 0.017627 0.000000 0.000000 0.000000
# 4 0.000000 0.000000 0.000000 0.034772 0.000000 0.000000
# 5 0.000000 0.000000 0.000000 0.000000 0.028164 0.000000
# 6 0.000000 0.000000 0.000000 0.000000 0.000000 0.035427
#
#
# Mechanical properties :
#
#
# Convention : Reuss Voigt Hill
#
# Bulk Modulus (GPa) = 28.48418 32.07540 30.27979
# Shear Modulus (GPa) = 25.95095 27.68919 26.82007
#
# Velocity S-wave (km/s) = 3.39655 3.50846 3.45296
# Velocity P-wave (km/s) = 5.29573 5.53819 5.41831
#
# Compressibility (1/GPa) = 0.03510721
#
# Stress axis : x y z
#
# Youngs Moduli (GPa) = 54.16763 43.92066 56.73062
#
# Poissons Ratio (x) = 0.06083 0.46354
# Poissons Ratio (y) = 0.07503 0.13155
# Poissons Ratio (z) = 0.44260 0.10184
#
# Static dielectric constant tensor:
#      x y z
#    x 4.317130 0.000000 0.000000 
#    y 0.000000 4.219750 0.000000 
#    z 0.000000 0.000000 4.092060 
# 
# 
# High freq. dielectric constant tensor:
#      x y z
#    x 1.885920 0.000000 0.000000 
#    y 0.000000 1.880970 0.000000 
#    z 0.000000 0.000000 1.883580 
# 
# From -- ./inp_files/5012.got.cif
#   From: 2010.03.12/outbox.cif.g09.slc.cpg/sg37_3_cif.got.tgz:5012.got - 2010.04.14 02:25:27.
