data_PCOD8176945
_publ_section_title
;
Structure prediction by ZEFSAII (Michael W. Deem and Ramdas Pophale) SiO2 
 PCOD8176945
Probable space group: C C C 2
;
_chemical_formula_sum "Si O2"
_cell_formula_units_Z 64
_cell_length_a 13.224475
_cell_length_b 13.759313
_cell_length_c 17.633816
_cell_angle_alpha 90.000000
_cell_angle_beta 90.000000
_cell_angle_gamma 90.000000
_cell_volume 3208.643707
_symmetry_space_group_name_H-M "C C C 2"
_symmetry_group_IT_number 37
_symmetry_cell_setting 'orthorhombic'
loop_
_space_group_symop_operation_xyz
x,y,z
-x,-y,z
-x,y,1/2+z
x,-y,1/2+z
1/2+x,1/2+y,z
1/2-x,1/2-y,z
1/2-x,1/2+y,1/2+z
1/2+x,1/2-y,1/2+z
loop_
_atom_site_type_symbol
_atom_site_label
_atom_site_fract_x
_atom_site_fract_y
_atom_site_fract_z
Si Si1 0.818516 0.157056 0.206120
Si Si2 0.662932 0.831453 0.245860
Si Si3 0.401093 0.557547 0.906276
Si Si4 0.653785 0.178403 0.424304
Si Si5 0.281494 0.861395 0.583711
Si Si6 0.773527 0.522735 0.817589
Si Si7 0.491744 0.720378 0.321135
Si Si8 0.115798 0.030793 0.570302
O O1 0.750000 0.250000 0.188551
O O2 0.745917 0.072228 0.236755
O O3 0.903552 0.176792 0.269312
O O4 0.866219 0.116722 0.129687
O O5 0.750000 0.750000 0.250986
O O6 0.656867 0.878897 0.161560
O O7 0.552034 0.793681 0.266926
O O8 0.684175 0.914960 0.307196
O O9 0.500000 0.500000 0.927495
O O10 0.329392 0.481597 0.864970
O O11 0.423246 0.645239 0.849275
O O12 0.358059 0.583028 0.989851
O O13 0.750000 0.250000 0.414901
O O14 0.647893 0.131164 0.508500
O O15 0.651618 0.090179 0.364963
O O16 0.553528 0.237012 0.399862
O O17 0.250000 0.750000 0.585846
O O18 0.186342 0.934957 0.580159
O O19 0.000000 0.000000 0.581138
#
# Coordination Sequence:
#
# PCOD8176945 Si02
#       8
#     8   8   8   8   8   8   8   8
#     4  12  25  44  66  95 130 172 215 267 325 385
#     4  11  25  40  62  97 135 170 211 274 329 377
#     4  11  22  38  66  99 129 162 218 278 317 374
#     4  11  21  41  68  93 127 174 218 260 323 395
#     4  10  23  40  62  95 138 169 207 269 333 383
#     4  12  20  41  67  90 127 174 215 262 322 381
#     4  12  24  40  67  98 127 172 224 267 320 384
#     4  11  26  41  67 102 129 171 218 270 330 385
#
# _framework density 19.946121999999999
#
# number of rings (size 3 to 8) (size 9 to 14) (size 15 to 20)
#    0.000    0.750    7.500    0.000   10.500    0.500 
#    2.250    0.000    0.000    1.500    0.000    0.000 
#    0.000    0.000    0.000    0.000    0.000    0.000 
#
# Total GULP energy -396616.245082 kJ/mol
# GULP energy per Si atom -12394.257659 kJ/mol
# Density = 1.990072 g / cm^3
# Si number density = 19.946122 Si / 1000 Ang^3
#
#
#
# Elastic Constant Matrix: (Units=GPa)
#
#
# Indices 1 2 3 4 5 6 
#
# 1 61.4271 26.4681 29.9206 0.0000 0.0000 0.0000
# 2 26.4681 89.8168 44.0414 0.0000 0.0000 0.0000
# 3 29.9206 44.0414 127.3846 0.0000 0.0000 0.0000
# 4 0.0000 0.0000 0.0000 22.8989 0.0000 0.0000
# 5 0.0000 0.0000 0.0000 0.0000 24.3148 0.0000
# 6 0.0000 0.0000 0.0000 0.0000 0.0000 20.3376
#
#
#
# Elastic Compliance Matrix: (Units=1/GPa)
#
#
# Indices 1 2 3 4 5 6 
#
# 1 0.019641 -0.004246 -0.003145 0.000000 0.000000 0.000000
# 2 -0.004246 0.014324 -0.003955 0.000000 0.000000 0.000000
# 3 -0.003145 -0.003955 0.009957 0.000000 0.000000 0.000000
# 4 0.000000 0.000000 0.000000 0.043670 0.000000 0.000000
# 5 0.000000 0.000000 0.000000 0.000000 0.041127 0.000000
# 6 0.000000 0.000000 0.000000 0.000000 0.000000 0.049170
#
#
# Mechanical properties :
#
#
# Convention : Reuss Voigt Hill
#
# Bulk Modulus (GPa) = 47.10487 53.27650 50.19069
# Shear Modulus (GPa) = 24.07800 25.39014 24.73407
#
# Velocity S-wave (km/s) = 3.47818 3.57169 3.52525
# Velocity P-wave (km/s) = 6.30854 6.61646 6.46433
#
# Compressibility (1/GPa) = 0.02122923
#
# Stress axis : x y z
#
# Youngs Moduli (GPa) = 50.91393 69.81123 100.43665
#
# Poissons Ratio (x) = 0.29639 0.31592
# Poissons Ratio (y) = 0.21616 0.39725
# Poissons Ratio (z) = 0.16015 0.27612
#
# Static dielectric constant tensor:
#      x y z
#    x 3.380880 0.000000 0.000000 
#    y 0.000000 3.509920 0.000000 
#    z 0.000000 0.000000 4.122060 
# 
# 
# High freq. dielectric constant tensor:
#      x y z
#    x 1.753320 0.000000 0.000000 
#    y 0.000000 1.779030 0.000000 
#    z 0.000000 0.000000 1.795560 
# 
# From -- ./inp_files/15301.got.cif
#   From: 2010.03.12/outbox.cif.g09.slc.cpg/sg37_8_cif.got.tgz:15301.got - 2010.04.14 02:25:27.
