data_PCOD8176408
_publ_section_title
;
Structure prediction by ZEFSAII (Michael W. Deem and Ramdas Pophale) SiO2 
 PCOD8176408
Probable space group: C C C 2
;
_chemical_formula_sum "Si O2"
_cell_formula_units_Z 40
_cell_length_a 9.655722
_cell_length_b 23.050568
_cell_length_c 8.794443
_cell_angle_alpha 90.000000
_cell_angle_beta 90.000000
_cell_angle_gamma 90.000000
_cell_volume 1957.378093
_symmetry_space_group_name_H-M "C C C 2"
_symmetry_group_IT_number 37
_symmetry_cell_setting 'orthorhombic'
loop_
_space_group_symop_operation_xyz
x,y,z
-x,-y,z
-x,y,1/2+z
x,-y,1/2+z
1/2+x,1/2+y,z
1/2-x,1/2-y,z
1/2-x,1/2+y,1/2+z
1/2+x,1/2-y,1/2+z
loop_
_atom_site_type_symbol
_atom_site_label
_atom_site_fract_x
_atom_site_fract_y
_atom_site_fract_z
Si Si1 0.872038 0.936016 0.135510
Si Si2 0.830324 0.047537 0.276897
Si Si3 0.250000 0.250000 0.961799
Si Si4 0.581769 0.310060 0.703305
Si Si5 0.255019 0.332860 0.708162
Si Si6 0.750000 0.250000 0.953669
O O1 0.831967 0.870532 0.183441
O O2 0.030783 0.944753 0.180156
O O3 0.777240 0.982862 0.229784
O O4 0.855545 0.946099 0.955760
O O5 0.725479 0.098064 0.218303
O O6 0.380721 0.269288 0.062016
O O7 0.192344 0.302426 0.857378
O O8 0.419840 0.321166 0.708986
O O9 0.626547 0.277251 0.856007
O O10 0.189743 0.302413 0.559399
#
# Coordination Sequence:
#
# PCOD8176408 Si02
#       6
#     8   8   4   8   8   4
#     4  10  19  29  47  70  99 134 164 194 246 311
#     4  10  19  29  47  70  99 134 164 194 246 311
#     4  10  18  34  46  70 100 132 170 200 240 298
#     4  10  20  33  50  71 105 134 162 207 246 287
#     4  10  20  33  50  71 105 134 162 207 246 287
#     4  10  22  30  50  74  96 140 174 196 240 306
#
# _framework density 20.435500000000001
#
# number of rings (size 3 to 8) (size 9 to 14) (size 15 to 20)
#    0.000    2.000    2.000    3.600   11.200    0.000 
#    0.000    0.000    0.000    0.000    0.000    0.000 
#    0.000  112.000    0.000    0.000    0.000    0.000 
#
# Total GULP energy -247786.871291 kJ/mol
# GULP energy per Si atom -12389.343565 kJ/mol
# Density = 2.038899 g / cm^3
# Si number density = 20.435500 Si / 1000 Ang^3
#
#
#
# Elastic Constant Matrix: (Units=GPa)
#
#
# Indices 1 2 3 4 5 6 
#
# 1 16.7085 22.7663 12.6704 0.0000 0.0000 0.0000
# 2 22.7663 184.3217 70.7837 0.0000 0.0000 0.0000
# 3 12.6704 70.7837 153.0956 0.0000 0.0000 0.0000
# 4 0.0000 0.0000 0.0000 21.0569 0.0000 0.0000
# 5 0.0000 0.0000 0.0000 0.0000 23.6226 0.0000
# 6 0.0000 0.0000 0.0000 0.0000 0.0000 25.0249
#
#
#
# Elastic Compliance Matrix: (Units=1/GPa)
#
#
# Indices 1 2 3 4 5 6 
#
# 1 0.072600 -0.008097 -0.002265 0.000000 0.000000 0.000000
# 2 -0.008097 0.007500 -0.002797 0.000000 0.000000 0.000000
# 3 -0.002265 -0.002797 0.008013 0.000000 0.000000 0.000000
# 4 0.000000 0.000000 0.000000 0.047490 0.000000 0.000000
# 5 0.000000 0.000000 0.000000 0.000000 0.042332 0.000000
# 6 0.000000 0.000000 0.000000 0.000000 0.000000 0.039960
#
#
# Mechanical properties :
#
#
# Convention : Reuss Voigt Hill
#
# Bulk Modulus (GPa) = 16.18284 62.95185 39.56734
# Shear Modulus (GPa) = 18.88128 30.46790 24.67459
#
# Velocity S-wave (km/s) = 3.04294 3.86545 3.47859
# Velocity P-wave (km/s) = 4.50357 7.12701 5.96139
#
# Compressibility (1/GPa) = 0.06179387
#
# Stress axis : x y z
#
# Youngs Moduli (GPa) = 13.77401 133.33900 124.80297
#
# Poissons Ratio (x) = 1.07971 0.28264
# Poissons Ratio (y) = 0.11153 0.34911
# Poissons Ratio (z) = 0.03119 0.37299
#
# Static dielectric constant tensor:
#      x y z
#    x 2.934540 0.000000 0.000000 
#    y 0.000000 5.223120 0.000000 
#    z 0.000000 0.000000 4.014640 
# 
# 
# High freq. dielectric constant tensor:
#      x y z
#    x 1.705300 0.000000 0.000000 
#    y 0.000000 1.825380 0.000000 
#    z 0.000000 0.000000 1.823590 
# 
# From -- ./inp_files/2854.got.cif
#   From: 2010.03.12/outbox.cif.g09.slc.cpg/sg37_2_cif.got.tgz:2854.got - 2010.04.14 02:25:27.
