data_PCOD8176124
_publ_section_title
;
Structure prediction by ZEFSAII (Michael W. Deem and Ramdas Pophale) SiO2 
 PCOD8176124
Probable space group: C M C 21
;
_chemical_formula_sum "Si O2"
_cell_formula_units_Z 64
_cell_length_a 8.766020
_cell_length_b 23.696020
_cell_length_c 15.235438
_cell_angle_alpha 90.000000
_cell_angle_beta 90.000000
_cell_angle_gamma 90.000000
_cell_volume 3164.701909
_symmetry_space_group_name_H-M "C M C 21"
_symmetry_group_IT_number 36
_symmetry_cell_setting 'orthorhombic'
loop_
_space_group_symop_operation_xyz
x,y,z
-x,-y,1/2+z
x,-y,1/2+z
-x,y,z
1/2+x,1/2+y,z
1/2-x,1/2-y,1/2+z
1/2+x,1/2-y,1/2+z
1/2-x,1/2+y,z
loop_
_atom_site_type_symbol
_atom_site_label
_atom_site_fract_x
_atom_site_fract_y
_atom_site_fract_z
Si Si1 0.821417 0.495532 0.609240
Si Si2 0.323868 0.125677 0.873063
Si Si3 0.828392 0.884844 0.548938
Si Si4 0.172502 0.233751 0.126793
Si Si5 0.821902 0.498992 0.308469
Si Si6 0.321915 0.193810 0.456873
Si Si7 0.179750 0.928259 0.961108
Si Si8 0.676558 0.272215 0.296450
O O1 0.790487 0.433491 0.572282
O O2 0.759445 0.496814 0.708964
O O3 0.741963 0.542205 0.548958
O O4 0.000000 0.508402 0.606069
O O5 0.500000 0.131593 0.898935
O O6 0.285997 0.063775 0.839027
O O7 0.278461 0.171308 0.800110
O O8 0.216061 0.139850 0.954724
O O9 0.817183 0.833447 0.615911
O O10 0.000000 0.909611 0.546734
O O11 0.294528 0.247065 0.201032
O O12 0.000000 0.250440 0.154318
O O13 0.219636 0.266949 0.039242
O O14 0.738717 0.542835 0.371966
O O15 0.000000 0.513447 0.312010
O O16 0.500000 0.178483 0.454425
O O17 0.226710 0.136706 0.462405
O O18 0.271790 0.227081 0.369523
O O19 0.000000 0.933405 0.961978
O O20 0.500000 0.287733 0.308043
#
# Coordination Sequence:
#
# PCOD8176124 Si02
#       8
#     8   8   8   8   8   8   8   8
#     4  11  24  43  66  93 127 169 213 256 312 381
#     4  11  22  40  67  94 123 165 212 259 315 374
#     4  11  22  41  66  95 127 162 209 265 318 368
#     4  10  23  43  65  91 127 168 208 256 315 375
#     4  10  24  44  66  92 124 169 214 253 309 381
#     4  10  23  45  65  85 126 174 209 249 313 380
#     4  12  26  42  64  95 129 164 207 265 319 367
#     4  11  24  42  65  95 127 165 210 261 315 370
#
# _framework density 20.223074
#
# number of rings (size 3 to 8) (size 9 to 14) (size 15 to 20)
#    0.000    1.250    2.500    2.625    3.500    4.000 
#    0.000    0.000    0.000    0.000    0.000    0.000 
#    0.000    0.000    0.000    0.000    0.000    0.000 
#
# Total GULP energy -396950.474638 kJ/mol
# GULP energy per Si atom -12404.702332 kJ/mol
# Density = 2.017705 g / cm^3
# Si number density = 20.223074 Si / 1000 Ang^3
#
#
#
# Elastic Constant Matrix: (Units=GPa)
#
#
# Indices 1 2 3 4 5 6 
#
# 1 68.3833 40.2344 35.5694 0.0000 0.0000 0.0000
# 2 40.2344 103.4921 27.6340 0.0000 0.0000 0.0000
# 3 35.5694 27.6340 118.1589 0.0000 0.0000 0.0000
# 4 0.0000 0.0000 0.0000 25.7904 0.0000 0.0000
# 5 0.0000 0.0000 0.0000 0.0000 29.6629 0.0000
# 6 0.0000 0.0000 0.0000 0.0000 0.0000 34.0423
#
#
#
# Elastic Compliance Matrix: (Units=1/GPa)
#
#
# Indices 1 2 3 4 5 6 
#
# 1 0.021196 -0.006972 -0.004750 0.000000 0.000000 0.000000
# 2 -0.006972 0.012599 -0.000848 0.000000 0.000000 0.000000
# 3 -0.004750 -0.000848 0.010091 0.000000 0.000000 0.000000
# 4 0.000000 0.000000 0.000000 0.038774 0.000000 0.000000
# 5 0.000000 0.000000 0.000000 0.000000 0.033712 0.000000
# 6 0.000000 0.000000 0.000000 0.000000 0.000000 0.029375
#
#
# Mechanical properties :
#
#
# Convention : Reuss Voigt Hill
#
# Bulk Modulus (GPa) = 53.34173 55.21219 54.27696
# Shear Modulus (GPa) = 28.22655 30.33887 29.28271
#
# Velocity S-wave (km/s) = 3.74004 3.87746 3.80937
# Velocity P-wave (km/s) = 6.71450 6.88528 6.80042
#
# Compressibility (1/GPa) = 0.01874705
#
# Stress axis : x y z
#
# Youngs Moduli (GPa) = 47.17782 79.36832 99.09409
#
# Poissons Ratio (x) = 0.55336 0.47072
# Poissons Ratio (y) = 0.32893 0.08402
# Poissons Ratio (z) = 0.22410 0.06729
#
# Static dielectric constant tensor:
#      x y z
#    x 3.593830 0.000000 0.000000 
#    y 0.000000 3.641790 0.000000 
#    z 0.000000 0.000000 3.834590 
# 
# 
# High freq. dielectric constant tensor:
#      x y z
#    x 1.789540 0.000000 0.000000 
#    y 0.000000 1.800670 0.000000 
#    z 0.000000 0.000000 1.797960 
# 
# From -- ./inp_files/11061.got.cif
#   From: 2010.03.12/outbox.cif.g09.slc.cpg/sg36_6_cif.got.tgz:11061.got - 2010.04.14 02:13:53.
