data_PCOD8176355
_publ_section_title
;
Structure prediction by ZEFSAII (Michael W. Deem and Ramdas Pophale) SiO2 
 PCOD8176355
Probable space group: C C C 2
;
_chemical_formula_sum "Si O2"
_cell_formula_units_Z 44
_cell_length_a 23.897834
_cell_length_b 14.339013
_cell_length_c 8.329525
_cell_angle_alpha 90.000000
_cell_angle_beta 90.000000
_cell_angle_gamma 90.000000
_cell_volume 2854.289597
_symmetry_space_group_name_H-M "C C C 2"
_symmetry_group_IT_number 37
_symmetry_cell_setting 'orthorhombic'
loop_
_space_group_symop_operation_xyz
x,y,z
-x,-y,z
-x,y,1/2+z
x,-y,1/2+z
1/2+x,1/2+y,z
1/2-x,1/2-y,z
1/2-x,1/2+y,1/2+z
1/2+x,1/2-y,1/2+z
loop_
_atom_site_type_symbol
_atom_site_label
_atom_site_fract_x
_atom_site_fract_y
_atom_site_fract_z
Si Si1 0.500000 0.000000 0.783280
Si Si2 0.250068 0.951683 0.837149
Si Si3 0.332872 0.198997 0.915492
Si Si4 0.285312 0.379985 0.019795
Si Si5 0.174061 0.581258 0.118676
Si Si6 0.918727 0.437067 0.538853
O O1 0.536348 0.073448 0.680309
O O2 0.455284 0.059971 0.878966
O O3 0.212852 0.888828 0.715184
O O4 0.295313 0.007678 0.733246
O O5 0.285427 0.891624 0.968727
O O6 0.207463 0.020156 0.932465
O O7 0.340266 0.173313 0.725647
O O8 0.332736 0.310183 0.949975
O O9 0.275245 0.157691 0.976381
O O10 0.380911 0.154630 0.026245
O O11 0.117714 0.532113 0.054529
#
# Coordination Sequence:
#
# PCOD8176355 Si02
#       6
#     4   8   8   8   8   8
#     4  10  22  26  46  68  92 134 168 176 236 290
#     4   9  15  28  46  63  91 121 158 184 245 281
#     4  10  18  29  46  65  95 121 168 193 232 277
#     4   9  18  29  45  67  89 127 158 198 232 291
#     4  10  15  27  49  60  90 132 150 193 232 272
#     4  11  17  31  44  67  94 130 159 193 227 280
#
# _framework density 15.415395
#
# number of rings (size 3 to 8) (size 9 to 14) (size 15 to 20)
#    0.000    2.182    7.273    0.000    0.000    0.000 
#    0.000   10.909    0.000    0.000    0.000    0.000 
#    0.000    4.364    0.000    0.000    0.000    0.000 
#
# Total GULP energy -272552.873434 kJ/mol
# GULP energy per Si atom -12388.766974 kJ/mol
# Density = 1.538031 g / cm^3
# Si number density = 15.415395 Si / 1000 Ang^3
#
#
#
# Elastic Constant Matrix: (Units=GPa)
#
#
# Indices 1 2 3 4 5 6 
#
# 1 64.5527 35.7724 32.7030 0.0000 0.0000 0.0000
# 2 35.7724 59.0776 39.4995 0.0000 0.0000 0.0000
# 3 32.7030 39.4995 109.3213 0.0000 0.0000 0.0000
# 4 0.0000 0.0000 0.0000 18.1311 0.0000 0.0000
# 5 0.0000 0.0000 0.0000 0.0000 38.2725 0.0000
# 6 0.0000 0.0000 0.0000 0.0000 0.0000 19.3602
#
#
#
# Elastic Compliance Matrix: (Units=1/GPa)
#
#
# Indices 1 2 3 4 5 6 
#
# 1 0.023832 -0.012742 -0.002525 0.000000 0.000000 0.000000
# 2 -0.012742 0.029131 -0.006714 0.000000 0.000000 0.000000
# 3 -0.002525 -0.006714 0.012329 0.000000 0.000000 0.000000
# 4 0.000000 0.000000 0.000000 0.055154 0.000000 0.000000
# 5 0.000000 0.000000 0.000000 0.000000 0.026128 0.000000
# 6 0.000000 0.000000 0.000000 0.000000 0.000000 0.051652
#
#
# Mechanical properties :
#
#
# Convention : Reuss Voigt Hill
#
# Bulk Modulus (GPa) = 46.88401 49.87795 48.38098
# Shear Modulus (GPa) = 20.05629 23.48454 21.77042
#
# Velocity S-wave (km/s) = 3.61093 3.90737 3.76207
# Velocity P-wave (km/s) = 6.91844 7.26518 7.09393
#
# Compressibility (1/GPa) = 0.02132923
#
# Stress axis : x y z
#
# Youngs Moduli (GPa) = 41.96102 34.32726 81.11226
#
# Poissons Ratio (x) = 0.43740 0.20483
# Poissons Ratio (y) = 0.53467 0.54458
# Poissons Ratio (z) = 0.10596 0.23047
#
# Static dielectric constant tensor:
#      x y z
#    x 2.781830 0.000000 0.000000 
#    y 0.000000 3.250210 0.000000 
#    z 0.000000 0.000000 3.489090 
# 
# 
# High freq. dielectric constant tensor:
#      x y z
#    x 1.554960 0.000000 0.000000 
#    y 0.000000 1.544660 0.000000 
#    z 0.000000 0.000000 1.614380 
# 
# From -- ./inp_files/3680.got.cif
#   From: 2010.03.12/outbox.cif.g09.slc.cpg/sg37_2_cif.got.tgz:3680.got - 2010.04.14 02:25:27.
