data_PCOD8176724
_publ_section_title
;
Structure prediction by ZEFSAII (Michael W. Deem and Ramdas Pophale) SiO2 
 PCOD8176724
Probable space group: C C C 2
;
_chemical_formula_sum "Si O2"
_cell_formula_units_Z 56
_cell_length_a 13.096412
_cell_length_b 9.443090
_cell_length_c 20.955358
_cell_angle_alpha 90.000000
_cell_angle_beta 90.000000
_cell_angle_gamma 90.000000
_cell_volume 2591.561638
_symmetry_space_group_name_H-M "C C C 2"
_symmetry_group_IT_number 37
_symmetry_cell_setting 'orthorhombic'
loop_
_space_group_symop_operation_xyz
x,y,z
-x,-y,z
-x,y,1/2+z
x,-y,1/2+z
1/2+x,1/2+y,z
1/2-x,1/2-y,z
1/2-x,1/2+y,1/2+z
1/2+x,1/2-y,1/2+z
loop_
_atom_site_type_symbol
_atom_site_label
_atom_site_fract_x
_atom_site_fract_y
_atom_site_fract_z
Si Si1 0.976845 0.233007 0.188680
Si Si2 0.087832 0.290175 0.822075
Si Si3 0.000000 0.500000 0.920378
Si Si4 0.500000 0.000000 0.606752
Si Si5 0.282775 0.470720 0.823725
Si Si6 0.660124 0.465117 0.687857
Si Si7 0.782814 0.406803 0.956076
Si Si8 0.212975 0.406861 0.068618
O O1 0.988357 0.279573 0.262306
O O2 0.953048 0.372205 0.148160
O O3 0.080536 0.156128 0.166522
O O4 0.883430 0.123682 0.181931
O O5 0.029435 0.362418 0.879750
O O6 0.184785 0.382667 0.802005
O O7 0.123908 0.133134 0.842537
O O8 0.095760 0.559551 0.960380
O O9 0.409532 0.930316 0.564757
O O10 0.309477 0.565358 0.761603
O O11 0.261253 0.564764 0.885692
O O12 0.754430 0.454043 0.639709
O O13 0.750000 0.250000 0.974878
O O14 0.733601 0.502971 0.011939
O O15 0.250000 0.250000 0.053642
#
# Coordination Sequence:
#
# PCOD8176724 Si02
#       8
#     8   8   4   4   8   8   8   8
#     4  10  21  38  65 103 140 174 225 280 344 409
#     4   9  18  35  64  98 132 176 215 278 340 397
#     4  10  22  42  66  98 137 170 231 282 329 412
#     4  12  24  42  70  98 131 180 231 278 343 406
#     4   9  20  40  67  94 134 177 221 276 344 403
#     4  10  22  42  68 101 137 177 227 281 341 409
#     4  11  27  46  69  99 134 181 228 277 343 411
#     4  12  27  47  70  97 137 182 225 286 343 407
#
# _framework density 21.608592999999999
#
# number of rings (size 3 to 8) (size 9 to 14) (size 15 to 20)
#    0.000    1.714    1.429    1.714    8.000    2.857 
#    0.000    0.000    0.000    0.000    0.000    0.000 
#    0.000    0.000    0.000    0.000    0.000    0.000 
#
# Total GULP energy -347127.318887 kJ/mol
# GULP energy per Si atom -12397.404246 kJ/mol
# Density = 2.155941 g / cm^3
# Si number density = 21.608593 Si / 1000 Ang^3
#
#
#
# Elastic Constant Matrix: (Units=GPa)
#
#
# Indices 1 2 3 4 5 6 
#
# 1 75.1824 38.7324 36.6215 0.0000 0.0000 0.0000
# 2 38.7324 139.8567 60.7748 0.0000 0.0000 0.0000
# 3 36.6215 60.7748 118.4751 0.0000 0.0000 0.0000
# 4 0.0000 0.0000 0.0000 20.8498 0.0000 0.0000
# 5 0.0000 0.0000 0.0000 0.0000 3.0210 0.0000
# 6 0.0000 0.0000 0.0000 0.0000 0.0000 27.2991
#
#
#
# Elastic Compliance Matrix: (Units=1/GPa)
#
#
# Indices 1 2 3 4 5 6 
#
# 1 0.016611 -0.003049 -0.003571 0.000000 0.000000 0.000000
# 2 -0.003049 0.009761 -0.004065 0.000000 0.000000 0.000000
# 3 -0.003571 -0.004065 0.011629 0.000000 0.000000 0.000000
# 4 0.000000 0.000000 0.000000 0.047962 0.000000 0.000000
# 5 0.000000 0.000000 0.000000 0.000000 0.331020 0.000000
# 6 0.000000 0.000000 0.000000 0.000000 0.000000 0.036631
#
#
# Mechanical properties :
#
#
# Convention : Reuss Voigt Hill
#
# Bulk Modulus (GPa) = 60.12117 67.30794 63.71455
# Shear Modulus (GPa) = 10.40525 23.39302 16.89913
#
# Velocity S-wave (km/s) = 2.19677 3.29383 2.79956
# Velocity P-wave (km/s) = 5.85812 6.75885 6.32454
#
# Compressibility (1/GPa) = 0.01663308
#
# Stress axis : x y z
#
# Youngs Moduli (GPa) = 60.20156 102.45080 85.98906
#
# Poissons Ratio (x) = 0.31234 0.30704
# Poissons Ratio (y) = 0.18353 0.34952
# Poissons Ratio (z) = 0.21496 0.41643
#
# Static dielectric constant tensor:
#      x y z
#    x 4.045590 0.000000 0.000000 
#    y 0.000000 3.949930 0.000000 
#    z 0.000000 0.000000 3.821180 
# 
# 
# High freq. dielectric constant tensor:
#      x y z
#    x 1.841210 0.000000 0.000000 
#    y 0.000000 1.852610 0.000000 
#    z 0.000000 0.000000 1.848770 
# 
# From -- ./inp_files/17201.got.cif
#   From: 2010.03.12/outbox.cif.g09.slc.cpg/sg37_9_cif.got.tgz:17201.got - 2010.04.14 02:25:27.
