data_PCOD8176820
_publ_section_title
;
Structure prediction by ZEFSAII (Michael W. Deem and Ramdas Pophale) SiO2 
 PCOD8176820
Probable space group: C C C 2
;
_chemical_formula_sum "Si O2"
_cell_formula_units_Z 64
_cell_length_a 24.400242
_cell_length_b 13.670888
_cell_length_c 9.336633
_cell_angle_alpha 90.000000
_cell_angle_beta 90.000000
_cell_angle_gamma 90.000000
_cell_volume 3114.448451
_symmetry_space_group_name_H-M "C C C 2"
_symmetry_group_IT_number 37
_symmetry_cell_setting 'orthorhombic'
loop_
_space_group_symop_operation_xyz
x,y,z
-x,-y,z
-x,y,1/2+z
x,-y,1/2+z
1/2+x,1/2+y,z
1/2-x,1/2-y,z
1/2-x,1/2+y,1/2+z
1/2+x,1/2-y,1/2+z
loop_
_atom_site_type_symbol
_atom_site_label
_atom_site_fract_x
_atom_site_fract_y
_atom_site_fract_z
Si Si1 0.946659 0.067123 0.322260
Si Si2 0.025237 0.717564 0.263926
Si Si3 0.736436 0.133891 0.377912
Si Si4 0.878997 0.424742 0.308476
Si Si5 0.388348 0.555167 0.030694
Si Si6 0.933034 0.747070 0.455285
Si Si7 0.849537 0.594585 0.493501
Si Si8 0.763875 0.038247 0.071004
O O1 0.961586 0.179652 0.339184
O O2 0.903639 0.053364 0.195417
O O3 0.911157 0.044405 0.463276
O O4 0.000000 0.000000 0.300538
O O5 0.064769 0.634535 0.327667
O O6 0.962732 0.699853 0.316501
O O7 0.028963 0.722850 0.093102
O O8 0.750000 0.250000 0.373424
O O9 0.670615 0.136087 0.379048
O O10 0.757846 0.069718 0.239137
O O11 0.756833 0.077855 0.524503
O O12 0.882862 0.530085 0.380554
O O13 0.865861 0.449143 0.145578
O O14 0.323380 0.570568 0.015891
O O15 0.421936 0.637914 0.943431
O O16 0.872141 0.703809 0.476193
O O17 0.783363 0.594461 0.479030
#
# Coordination Sequence:
#
# PCOD8176820 Si02
#       8
#     8   8   8   8   8   8   8   8
#     4  11  22  38  56  84 123 158 192 245 301 357
#     4  10  22  37  57  84 117 153 201 240 295 365
#     4  10  22  40  66  90 126 168 206 260 316 371
#     4   9  20  38  61  83 114 156 198 248 300 356
#     4  11  23  35  61  87 120 156 197 244 300 366
#     4  10  22  38  57  85 115 155 198 242 302 360
#     4   9  20  39  60  85 117 152 197 250 299 355
#     4  10  22  39  64  95 124 160 213 256 306 383
#
# _framework density 20.549385000000001
#
# number of rings (size 3 to 8) (size 9 to 14) (size 15 to 20)
#    0.000    2.000    1.250    1.125   10.500    1.500 
#    0.000    3.125   11.000    0.000    0.000    0.000 
#    0.000    0.000    0.000    0.000    0.000    0.000 
#
# Total GULP energy -396466.001812 kJ/mol
# GULP energy per Si atom -12389.562557 kJ/mol
# Density = 2.050261 g / cm^3
# Si number density = 20.549385 Si / 1000 Ang^3
#
#
#
# Elastic Constant Matrix: (Units=GPa)
#
#
# Indices 1 2 3 4 5 6 
#
# 1 113.1273 9.6553 22.0930 0.0000 0.0000 0.0000
# 2 9.6553 59.2751 34.9699 0.0000 0.0000 0.0000
# 3 22.0930 34.9699 38.7687 0.0000 0.0000 0.0000
# 4 0.0000 0.0000 0.0000 29.4371 0.0000 0.0000
# 5 0.0000 0.0000 0.0000 0.0000 24.6104 0.0000
# 6 0.0000 0.0000 0.0000 0.0000 0.0000 25.8200
#
#
#
# Elastic Compliance Matrix: (Units=1/GPa)
#
#
# Indices 1 2 3 4 5 6 
#
# 1 0.010338 0.003830 -0.009346 0.000000 0.000000 0.000000
# 2 0.003830 0.037478 -0.035988 0.000000 0.000000 0.000000
# 3 -0.009346 -0.035988 0.063582 0.000000 0.000000 0.000000
# 4 0.000000 0.000000 0.000000 0.033971 0.000000 0.000000
# 5 0.000000 0.000000 0.000000 0.000000 0.040633 0.000000
# 6 0.000000 0.000000 0.000000 0.000000 0.000000 0.038730
#
#
# Mechanical properties :
#
#
# Convention : Reuss Voigt Hill
#
# Bulk Modulus (GPa) = 35.22451 38.28971 36.75711
# Shear Modulus (GPa) = 15.76273 25.60369 20.68321
#
# Velocity S-wave (km/s) = 2.77260 3.53364 3.17600
# Velocity P-wave (km/s) = 5.23721 5.94326 5.60137
#
# Compressibility (1/GPa) = 0.02838932
#
# Stress axis : x y z
#
# Youngs Moduli (GPa) = 96.73173 26.68201 15.72774
#
# Poissons Ratio (x) = -0.10218 0.14698
# Poissons Ratio (y) = -0.37044 0.56602
# Poissons Ratio (z) = 0.90401 0.96024
#
# Static dielectric constant tensor:
#      x y z
#    x 3.870310 0.000000 0.000000 
#    y 0.000000 3.700420 0.000000 
#    z 0.000000 0.000000 3.688480 
# 
# 
# High freq. dielectric constant tensor:
#      x y z
#    x 1.812640 0.000000 0.000000 
#    y 0.000000 1.794710 0.000000 
#    z 0.000000 0.000000 1.792720 
# 
# From -- ./inp_files/4661.got.cif
#   From: 2010.03.12/outbox.cif.g09.slc.cpg/sg37_3_cif.got.tgz:4661.got - 2010.04.14 02:25:27.
