data_PCOD8176558
_publ_section_title
;
Structure prediction by ZEFSAII (Michael W. Deem and Ramdas Pophale) SiO2 
 PCOD8176558
Probable space group: C C C 2
;
_chemical_formula_sum "Si O2"
_cell_formula_units_Z 64
_cell_length_a 11.586640
_cell_length_b 10.968534
_cell_length_c 23.133854
_cell_angle_alpha 90.000000
_cell_angle_beta 90.000000
_cell_angle_gamma 90.000000
_cell_volume 2940.045758
_symmetry_space_group_name_H-M "C C C 2"
_symmetry_group_IT_number 37
_symmetry_cell_setting 'orthorhombic'
loop_
_space_group_symop_operation_xyz
x,y,z
-x,-y,z
-x,y,1/2+z
x,-y,1/2+z
1/2+x,1/2+y,z
1/2-x,1/2-y,z
1/2-x,1/2+y,1/2+z
1/2+x,1/2-y,1/2+z
loop_
_atom_site_type_symbol
_atom_site_label
_atom_site_fract_x
_atom_site_fract_y
_atom_site_fract_z
Si Si1 0.435221 0.281841 0.350460
Si Si2 0.355803 0.830346 0.416529
Si Si3 0.533649 0.362046 0.728800
Si Si4 0.033272 0.655969 0.651340
Si Si5 0.215562 0.389088 0.616995
Si Si6 0.273892 0.053411 0.346069
Si Si7 0.267757 0.955644 0.719421
Si Si8 0.881819 0.568738 0.038948
O O1 0.526712 0.241779 0.399716
O O2 0.505856 0.313199 0.291769
O O3 0.353065 0.169912 0.337586
O O4 0.354223 0.400010 0.367545
O O5 0.250000 0.750000 0.394591
O O6 0.346267 0.849005 0.485094
O O7 0.339238 0.964242 0.389738
O O8 0.500000 0.500000 0.720385
O O9 0.483172 0.284181 0.675283
O O10 0.672833 0.348372 0.723014
O O11 0.107511 0.597915 0.703280
O O12 0.105782 0.665470 0.592014
O O13 0.917648 0.581766 0.635914
O O14 0.250000 0.250000 0.603445
O O15 0.281730 0.444321 0.672580
O O16 0.219677 0.470250 0.557874
O O17 0.269390 0.985047 0.283645
O O18 0.000000 0.500000 0.022012
#
# Coordination Sequence:
#
# PCOD8176558 Si02
#       8
#     8   8   8   8   8   8   8   8
#     4  10  23  42  66  93 133 174 224 272 325 408
#     4  12  27  42  66  97 130 178 223 278 341 388
#     4  11  22  35  60  93 133 167 204 270 333 388
#     4  10  20  38  64  91 123 168 214 257 320 395
#     4  10  21  37  62  95 128 159 214 276 329 381
#     4  10  22  42  66  96 125 179 226 267 331 396
#     4  10  20  35  59  89 126 166 206 254 326 403
#     4   9  21  44  64  86 124 169 224 271 315 400
#
# _framework density 21.768367999999999
#
# number of rings (size 3 to 8) (size 9 to 14) (size 15 to 20)
#    0.000    1.750    1.250    3.375    5.250    3.500 
#    6.750    0.000    0.000    0.000    0.000    0.000 
#    0.000    0.000    0.000    0.000    0.000    0.000 
#
# Total GULP energy -396465.529534 kJ/mol
# GULP energy per Si atom -12389.547798 kJ/mol
# Density = 2.171882 g / cm^3
# Si number density = 21.768368 Si / 1000 Ang^3
#
#
#
# Elastic Constant Matrix: (Units=GPa)
#
#
# Indices 1 2 3 4 5 6 
#
# 1 70.8445 17.5565 24.1301 0.0000 0.0000 0.0000
# 2 17.5565 89.8361 48.4804 0.0000 0.0000 0.0000
# 3 24.1301 48.4804 132.3004 0.0000 0.0000 0.0000
# 4 0.0000 0.0000 0.0000 32.0513 0.0000 0.0000
# 5 0.0000 0.0000 0.0000 0.0000 18.6637 0.0000
# 6 0.0000 0.0000 0.0000 0.0000 0.0000 27.0791
#
#
#
# Elastic Compliance Matrix: (Units=1/GPa)
#
#
# Indices 1 2 3 4 5 6 
#
# 1 0.015293 -0.001849 -0.002112 0.000000 0.000000 0.000000
# 2 -0.001849 0.014099 -0.004829 0.000000 0.000000 0.000000
# 3 -0.002112 -0.004829 0.009713 0.000000 0.000000 0.000000
# 4 0.000000 0.000000 0.000000 0.031200 0.000000 0.000000
# 5 0.000000 0.000000 0.000000 0.000000 0.053580 0.000000
# 6 0.000000 0.000000 0.000000 0.000000 0.000000 0.036929
#
#
# Mechanical properties :
#
#
# Convention : Reuss Voigt Hill
#
# Bulk Modulus (GPa) = 46.45712 52.59054 49.52383
# Shear Modulus (GPa) = 26.94420 29.07975 28.01198
#
# Velocity S-wave (km/s) = 3.52201 3.65892 3.59112
# Velocity P-wave (km/s) = 6.15852 6.48551 6.32413
#
# Compressibility (1/GPa) = 0.02152522
#
# Stress axis : x y z
#
# Youngs Moduli (GPa) = 65.38977 70.92792 102.95162
#
# Poissons Ratio (x) = 0.13115 0.21740
# Poissons Ratio (y) = 0.12091 0.49717
# Poissons Ratio (z) = 0.13808 0.34252
#
# Static dielectric constant tensor:
#      x y z
#    x 4.039620 0.000000 0.000000 
#    y 0.000000 3.898920 0.000000 
#    z 0.000000 0.000000 3.891550 
# 
# 
# High freq. dielectric constant tensor:
#      x y z
#    x 1.847540 0.000000 0.000000 
#    y 0.000000 1.854940 0.000000 
#    z 0.000000 0.000000 1.842850 
# 
# From -- ./inp_files/18756.got.cif
#   From: 2010.03.12/outbox.cif.g09.slc.cpg/sg37_10_cif.got.tgz:18756.got - 2010.04.14 02:25:27.
