data_PCOD8176951
_publ_section_title
;
Structure prediction by ZEFSAII (Michael W. Deem and Ramdas Pophale) SiO2 
 PCOD8176951
Probable space group: C C C 2
;
_chemical_formula_sum "Si O2"
_cell_formula_units_Z 36
_cell_length_a 24.973152
_cell_length_b 5.103450
_cell_length_c 12.624659
_cell_angle_alpha 90.000000
_cell_angle_beta 90.000000
_cell_angle_gamma 90.000000
_cell_volume 1609.003101
_symmetry_space_group_name_H-M "C C C 2"
_symmetry_group_IT_number 37
_symmetry_cell_setting 'orthorhombic'
loop_
_space_group_symop_operation_xyz
x,y,z
-x,-y,z
-x,y,1/2+z
x,-y,1/2+z
1/2+x,1/2+y,z
1/2-x,1/2-y,z
1/2-x,1/2+y,1/2+z
1/2+x,1/2-y,1/2+z
loop_
_atom_site_type_symbol
_atom_site_label
_atom_site_fract_x
_atom_site_fract_y
_atom_site_fract_z
Si Si1 0.335475 0.266716 0.116310
Si Si2 0.750000 0.750000 0.295077
Si Si3 0.467360 0.239650 0.390635
Si Si4 0.250000 0.750000 0.438762
Si Si5 0.098275 0.259182 0.577871
Si Si6 0.000000 0.500000 0.189302
O O1 0.301417 0.302930 0.222384
O O2 0.382747 0.478767 0.120176
O O3 0.358680 0.974704 0.111142
O O4 0.300450 0.319890 0.012026
O O5 0.762454 0.499723 0.366823
O O6 0.500000 0.500000 0.413012
O O7 0.409629 0.253990 0.449592
O O8 0.500000 0.000000 0.444290
O O9 0.461570 0.181886 0.264750
O O10 0.039049 0.312888 0.623547
#
# Coordination Sequence:
#
# PCOD8176951 Si02
#       6
#     8   4   8   4   8   4
#     4  11  27  43  70 105 130 176 231 275 349 406
#     4  11  24  49  72 100 134 175 220 287 352 414
#     4  10  23  41  61  89 131 180 221 263 332 377
#     4  11  24  49  72  96 144 171 214 297 346 406
#     4  12  24  43  67  96 141 174 224 284 323 402
#     4  10  26  40  66  94 136 182 222 278 316 392
#
# _framework density 22.374102000000001
#
# number of rings (size 3 to 8) (size 9 to 14) (size 15 to 20)
#    0.667    0.444    1.111    4.000    3.111    8.889 
#    0.000    0.000    0.000    0.000    0.000    0.000 
#    0.000    0.000    0.000    0.000    0.000    0.000 
#
# Total GULP energy -223179.732581 kJ/mol
# GULP energy per Si atom -12398.874032 kJ/mol
# Density = 2.232318 g / cm^3
# Si number density = 22.374102 Si / 1000 Ang^3
#
#
#
# Elastic Constant Matrix: (Units=GPa)
#
#
# Indices 1 2 3 4 5 6 
#
# 1 68.9425 17.4892 40.0508 0.0000 0.0000 0.0000
# 2 17.4892 136.8232 32.7788 0.0000 0.0000 0.0000
# 3 40.0508 32.7788 114.4536 0.0000 0.0000 0.0000
# 4 0.0000 0.0000 0.0000 23.1889 0.0000 0.0000
# 5 0.0000 0.0000 0.0000 0.0000 -72.8716 0.0000
# 6 0.0000 0.0000 0.0000 0.0000 0.0000 45.7736
#
#
#
# Elastic Compliance Matrix: (Units=1/GPa)
#
#
# Indices 1 2 3 4 5 6 
#
# 1 0.018301 -0.000864 -0.006156 0.000000 0.000000 0.000000
# 2 -0.000864 0.007888 -0.001957 0.000000 0.000000 0.000000
# 3 -0.006156 -0.001957 0.011452 0.000000 0.000000 0.000000
# 4 0.000000 0.000000 0.000000 0.043124 0.000000 0.000000
# 5 0.000000 0.000000 0.000000 0.000000 -0.013723 0.000000
# 6 0.000000 0.000000 0.000000 0.000000 0.000000 0.021847
#
#
# Mechanical properties :
#
#
# Convention : Reuss Voigt Hill
#
# Bulk Modulus (GPa) = 50.79840 55.65076 53.22458
# Shear Modulus (GPa) = 44.08985 14.54487 29.31736
#
# Velocity S-wave (km/s) = 4.44393 2.55243 3.62377
# Velocity P-wave (km/s) = 7.00605 5.79770 6.43032
#
# Compressibility (1/GPa) = 0.01968566
#
# Stress axis : x y z
#
# Youngs Moduli (GPa) = 54.64327 126.77598 87.32244
#
# Poissons Ratio (x) = 0.10958 0.53759
# Poissons Ratio (y) = 0.04723 0.17085
# Poissons Ratio (z) = 0.33640 0.24805
#
# Static dielectric constant tensor:
#      x y z
#    x 3.733830 0.000000 0.000000 
#    y 0.000000 4.273850 0.000000 
#    z 0.000000 0.000000 4.184600 
# 
# 
# High freq. dielectric constant tensor:
#      x y z
#    x 1.869010 0.000000 0.000000 
#    y 0.000000 1.891850 0.000000 
#    z 0.000000 0.000000 1.896610 
# 
# From -- ./inp_files/5483.got.cif
#   From: 2010.03.12/outbox.cif.g09.slc.cpg/sg37_3_cif.got.tgz:5483.got - 2010.04.14 02:25:27.
