data_PCOD8176930
_publ_section_title
;
Structure prediction by ZEFSAII (Michael W. Deem and Ramdas Pophale) SiO2 
 PCOD8176930
Probable space group: C C C 2
;
_chemical_formula_sum "Si O2"
_cell_formula_units_Z 28
_cell_length_a 5.044558
_cell_length_b 18.232392
_cell_length_c 13.532467
_cell_angle_alpha 90.000000
_cell_angle_beta 90.000000
_cell_angle_gamma 90.000000
_cell_volume 1244.639977
_symmetry_space_group_name_H-M "C C C 2"
_symmetry_group_IT_number 37
_symmetry_cell_setting 'orthorhombic'
loop_
_space_group_symop_operation_xyz
x,y,z
-x,-y,z
-x,y,1/2+z
x,-y,1/2+z
1/2+x,1/2+y,z
1/2-x,1/2-y,z
1/2-x,1/2+y,1/2+z
1/2+x,1/2-y,1/2+z
loop_
_atom_site_type_symbol
_atom_site_label
_atom_site_fract_x
_atom_site_fract_y
_atom_site_fract_z
Si Si1 0.913571 0.082682 0.943200
Si Si2 0.250000 0.250000 0.261223
Si Si3 0.351804 0.331763 0.643530
Si Si4 0.584057 0.866307 0.832595
O O1 0.652952 0.081580 0.872764
O O2 0.153776 0.128624 0.897666
O O3 0.852720 0.119814 0.046711
O O4 0.000000 0.000000 0.960656
O O5 0.361060 0.317713 0.194474
O O6 0.476596 0.217793 0.333661
O O7 0.250000 0.250000 0.619396
O O8 0.165762 0.379267 0.717933
#
# Coordination Sequence:
#
# PCOD8176930 Si02
#       4
#     8   4   8   8
#     4  12  28  47  71 110 146 196 239 289 370 441
#     4  10  22  46  72 112 138 192 240 302 366 398
#     4  10  25  44  76 106 144 187 246 304 357 418
#     4  11  25  47  72 103 145 188 240 299 356 423
#
# _framework density 22.496466000000002
#
# number of rings (size 3 to 8) (size 9 to 14) (size 15 to 20)
#    0.000    1.143    2.857    0.857   10.000    1.143 
#    5.143    0.000    0.000    0.000    0.000    0.000 
#    0.000    0.000    0.000    0.000    0.000    0.000 
#
# Total GULP energy -173456.461566 kJ/mol
# GULP energy per Si atom -12389.747255 kJ/mol
# Density = 2.244526 g / cm^3
# Si number density = 22.496466 Si / 1000 Ang^3
#
#
#
# Elastic Constant Matrix: (Units=GPa)
#
#
# Indices 1 2 3 4 5 6 
#
# 1 164.8821 47.5071 88.5412 0.0000 0.0000 0.0000
# 2 47.5071 95.9521 104.1710 0.0000 0.0000 0.0000
# 3 88.5412 104.1710 173.6080 0.0000 0.0000 0.0000
# 4 0.0000 0.0000 0.0000 4.0803 0.0000 0.0000
# 5 0.0000 0.0000 0.0000 0.0000 34.2690 0.0000
# 6 0.0000 0.0000 0.0000 0.0000 0.0000 37.6512
#
#
#
# Elastic Compliance Matrix: (Units=1/GPa)
#
#
# Indices 1 2 3 4 5 6 
#
# 1 0.008419 0.001415 -0.005143 0.000000 0.000000 0.000000
# 2 0.001415 0.030137 -0.018805 0.000000 0.000000 0.000000
# 3 -0.005143 -0.018805 0.019666 0.000000 0.000000 0.000000
# 4 0.000000 0.000000 0.000000 0.245079 0.000000 0.000000
# 5 0.000000 0.000000 0.000000 0.000000 0.029181 0.000000
# 6 0.000000 0.000000 0.000000 0.000000 0.000000 0.026560
#
#
# Mechanical properties :
#
#
# Convention : Reuss Voigt Hill
#
# Bulk Modulus (GPa) = 76.00500 101.65343 88.82922
# Shear Modulus (GPa) = 12.24013 28.14828 20.19421
#
# Velocity S-wave (km/s) = 2.33511 3.54111 2.99935
# Velocity P-wave (km/s) = 6.41319 7.87425 7.18097
#
# Compressibility (1/GPa) = 0.01315703
#
# Stress axis : x y z
#
# Youngs Moduli (GPa) = 118.78091 33.18186 50.84801
#
# Poissons Ratio (x) = -0.04695 0.26149
# Poissons Ratio (y) = -0.16806 0.95619
# Poissons Ratio (z) = 0.61085 0.62398
#
# Static dielectric constant tensor:
#      x y z
#    x 4.678780 0.000000 0.000000 
#    y 0.000000 3.980320 0.000000 
#    z 0.000000 0.000000 4.047340 
# 
# 
# High freq. dielectric constant tensor:
#      x y z
#    x 1.916590 0.000000 0.000000 
#    y 0.000000 1.862390 0.000000 
#    z 0.000000 0.000000 1.882250 
# 
# From -- ./inp_files/5273.got.cif
#   From: 2010.03.12/outbox.cif.g09.slc.cpg/sg37_3_cif.got.tgz:5273.got - 2010.04.14 02:25:27.
