data_PCOD8176231
_publ_section_title
;
Structure prediction by ZEFSAII (Michael W. Deem and Ramdas Pophale) SiO2 
 PCOD8176231
Probable space group: C M C 21
;
_chemical_formula_sum "Si O2"
_cell_formula_units_Z 32
_cell_length_a 8.145028
_cell_length_b 36.180019
_cell_length_c 5.196202
_cell_angle_alpha 90.000000
_cell_angle_beta 90.000000
_cell_angle_gamma 90.000000
_cell_volume 1531.254570
_symmetry_space_group_name_H-M "C M C 21"
_symmetry_group_IT_number 36
_symmetry_cell_setting 'orthorhombic'
loop_
_space_group_symop_operation_xyz
x,y,z
-x,-y,1/2+z
x,-y,1/2+z
-x,y,z
1/2+x,1/2+y,z
1/2-x,1/2-y,1/2+z
1/2+x,1/2-y,1/2+z
1/2-x,1/2+y,z
loop_
_atom_site_type_symbol
_atom_site_label
_atom_site_fract_x
_atom_site_fract_y
_atom_site_fract_z
Si Si1 0.195908 0.604635 0.011850
Si Si2 0.309659 0.230360 0.514039
Si Si3 0.195795 0.521163 0.010735
Si Si4 0.304508 0.853248 0.010993
O O1 0.265265 0.625724 0.261371
O O2 0.000000 0.604432 0.012343
O O3 0.263894 0.562893 0.011013
O O4 0.263464 0.625837 0.761800
O O5 0.500000 0.230826 0.589048
O O6 0.212568 0.252940 0.730318
O O7 0.239975 0.188699 0.511418
O O8 0.263497 0.500040 0.760579
O O9 0.000000 0.521421 0.010756
O O10 0.500000 0.853754 0.005286
#
# Coordination Sequence:
#
# PCOD8176231 Si02
#       4
#     8   8   8   8
#     4   9  15  24  37  54  79 113 155 199 238 281
#     4  11  22  37  56  79 106 137 177 221 266 315
#     4   9  15  21  30  47  73 107 149 193 232 275
#     4   9  17  28  43  62  85 117 159 203 242 291
#
# _framework density 20.897897
#
# number of rings (size 3 to 8) (size 9 to 14) (size 15 to 20)
#    0.000    2.500    0.000    3.750    0.000   10.000 
#    0.000    0.000    0.000    0.000    0.000    0.000 
#    0.000    0.000    0.000    0.000    0.000  315.000 
#
# Total GULP energy -198419.216431 kJ/mol
# GULP energy per Si atom -12401.201027 kJ/mol
# Density = 2.085033 g / cm^3
# Si number density = 20.897897 Si / 1000 Ang^3
#
#
#
# Elastic Constant Matrix: (Units=GPa)
#
#
# Indices 1 2 3 4 5 6 
#
# 1 12.8223 6.8886 1.0711 0.0000 0.0000 0.0000
# 2 6.8886 227.5876 110.8287 0.0000 0.0000 0.0000
# 3 1.0711 110.8287 206.9309 0.0000 0.0000 0.0000
# 4 0.0000 0.0000 0.0000 52.9467 0.0000 0.0000
# 5 0.0000 0.0000 0.0000 0.0000 11.2637 0.0000
# 6 0.0000 0.0000 0.0000 0.0000 0.0000 12.1167
#
#
#
# Elastic Compliance Matrix: (Units=1/GPa)
#
#
# Indices 1 2 3 4 5 6 
#
# 1 0.079493 -0.002984 0.001187 0.000000 0.000000 0.000000
# 2 -0.002984 0.006056 -0.003228 0.000000 0.000000 0.000000
# 3 0.001187 -0.003228 0.006555 0.000000 0.000000 0.000000
# 4 0.000000 0.000000 0.000000 0.018887 0.000000 0.000000
# 5 0.000000 0.000000 0.000000 0.000000 0.088781 0.000000
# 6 0.000000 0.000000 0.000000 0.000000 0.000000 0.082531
#
#
# Mechanical properties :
#
#
# Convention : Reuss Voigt Hill
#
# Bulk Modulus (GPa) = 12.18715 76.10198 44.14457
# Shear Modulus (GPa) = 15.63941 37.16891 26.40416
#
# Velocity S-wave (km/s) = 2.73861 4.22192 3.55841
# Velocity P-wave (km/s) = 3.98050 7.76281 6.16870
#
# Compressibility (1/GPa) = 0.08205363
#
# Stress axis : x y z
#
# Youngs Moduli (GPa) = 12.57973 165.11812 152.54710
#
# Poissons Ratio (x) = 0.49271 -0.18103
# Poissons Ratio (y) = 0.03754 0.49245
# Poissons Ratio (z) = -0.01493 0.53303
#
# Static dielectric constant tensor:
#      x y z
#    x 2.918600 0.000000 0.000000 
#    y 0.000000 4.049520 0.000000 
#    z 0.000000 0.000000 3.941370 
# 
# 
# High freq. dielectric constant tensor:
#      x y z
#    x 1.742300 0.000000 0.000000 
#    y 0.000000 1.838090 0.000000 
#    z 0.000000 0.000000 1.835960 
# 
# From -- ./inp_files/222.got.cif
#   From: 2010.03.12/outbox.cif.g09.slc.cpg/sg36_1_cif.got.tgz:222.got - 2010.04.14 02:13:53.
