data_PCOD8176157
_publ_section_title
;
Structure prediction by ZEFSAII (Michael W. Deem and Ramdas Pophale) SiO2 
 PCOD8176157
Probable space group: C M C 21
;
_chemical_formula_sum "Si O2"
_cell_formula_units_Z 48
_cell_length_a 8.621203
_cell_length_b 19.817048
_cell_length_c 13.907480
_cell_angle_alpha 90.000000
_cell_angle_beta 90.000000
_cell_angle_gamma 90.000000
_cell_volume 2376.048366
_symmetry_space_group_name_H-M "C M C 21"
_symmetry_group_IT_number 36
_symmetry_cell_setting 'orthorhombic'
loop_
_space_group_symop_operation_xyz
x,y,z
-x,-y,1/2+z
x,-y,1/2+z
-x,y,z
1/2+x,1/2+y,z
1/2-x,1/2-y,1/2+z
1/2+x,1/2-y,1/2+z
1/2-x,1/2+y,z
loop_
_atom_site_type_symbol
_atom_site_label
_atom_site_fract_x
_atom_site_fract_y
_atom_site_fract_z
Si Si1 0.180426 0.134558 0.936080
Si Si2 0.680328 0.827711 0.242115
Si Si3 0.680181 0.690855 0.141550
Si Si4 0.821142 0.945609 0.122862
Si Si5 0.319591 0.987311 0.935859
Si Si6 0.820439 0.435406 0.726992
O O1 0.226260 0.177513 0.842027
O O2 0.000000 0.115695 0.932252
O O3 0.276547 0.065739 0.938920
O O4 0.220400 0.179909 0.029237
O O5 0.500000 0.827396 0.268002
O O6 0.726546 0.766506 0.171747
O O7 0.718546 0.896588 0.187533
O O8 0.500000 0.676647 0.161380
O O9 0.781673 0.642498 0.209199
O O10 0.000000 0.927197 0.137131
O O11 0.785995 0.022108 0.154404
O O12 0.775310 0.941708 0.011280
O O13 0.500000 0.980248 0.959542
O O14 0.275415 0.955472 0.834356
O O15 0.000000 0.450085 0.705388
#
# Coordination Sequence:
#
# PCOD8176157 Si02
#       6
#     8   8   8   8   8   8
#     4  11  22  39  64  93 124 166 212 262 319 378
#     4  11  24  43  64  91 129 170 210 261 318 379
#     4  10  24  43  64  91 128 167 209 262 317 375
#     4  12  24  39  63  93 125 163 211 263 310 369
#     4  11  23  39  63  95 128 166 210 262 316 373
#     4  11  23  39  64  93 124 162 208 258 312 374
#
# _framework density 20.201609000000001
#
# number of rings (size 3 to 8) (size 9 to 14) (size 15 to 20)
#    0.000    1.000    3.333    3.500    0.000    5.333 
#    0.000    5.000    0.000    0.000    0.000    0.000 
#    0.000    0.000    0.000    0.000    0.000    0.000 
#
# Total GULP energy -297762.987007 kJ/mol
# GULP energy per Si atom -12406.791125 kJ/mol
# Density = 2.015563 g / cm^3
# Si number density = 20.201609 Si / 1000 Ang^3
#
#
#
# Elastic Constant Matrix: (Units=GPa)
#
#
# Indices 1 2 3 4 5 6 
#
# 1 54.3392 12.6697 30.4763 0.0000 0.0000 0.0000
# 2 12.6697 73.5622 31.1131 0.0000 0.0000 0.0000
# 3 30.4763 31.1131 129.5983 0.0000 0.0000 0.0000
# 4 0.0000 0.0000 0.0000 37.8465 0.0000 0.0000
# 5 0.0000 0.0000 0.0000 0.0000 35.7919 0.0000
# 6 0.0000 0.0000 0.0000 0.0000 0.0000 29.6582
#
#
#
# Elastic Compliance Matrix: (Units=1/GPa)
#
#
# Indices 1 2 3 4 5 6 
#
# 1 0.021396 -0.001733 -0.004615 0.000000 0.000000 0.000000
# 2 -0.001733 0.015271 -0.003259 0.000000 0.000000 0.000000
# 3 -0.004615 -0.003259 0.009584 0.000000 0.000000 0.000000
# 4 0.000000 0.000000 0.000000 0.026422 0.000000 0.000000
# 5 0.000000 0.000000 0.000000 0.000000 0.027939 0.000000
# 6 0.000000 0.000000 0.000000 0.000000 0.000000 0.033717
#
#
# Mechanical properties :
#
#
# Convention : Reuss Voigt Hill
#
# Bulk Modulus (GPa) = 36.98733 45.11309 41.05021
# Shear Modulus (GPa) = 30.75886 32.87538 31.81712
#
# Velocity S-wave (km/s) = 3.90628 4.03844 3.97291
# Velocity P-wave (km/s) = 6.22046 6.64268 6.43504
#
# Compressibility (1/GPa) = 0.02703629
#
# Stress axis : x y z
#
# Youngs Moduli (GPa) = 46.73878 65.48532 104.34287
#
# Poissons Ratio (x) = 0.11348 0.48158
# Poissons Ratio (y) = 0.08099 0.34001
# Poissons Ratio (z) = 0.21572 0.21339
#
# Static dielectric constant tensor:
#      x y z
#    x 3.640270 0.000000 0.000000 
#    y 0.000000 3.520340 0.000000 
#    z 0.000000 0.000000 3.921620 
# 
# 
# High freq. dielectric constant tensor:
#      x y z
#    x 1.795360 0.000000 0.000000 
#    y 0.000000 1.777710 0.000000 
#    z 0.000000 0.000000 1.805720 
# 
# From -- ./inp_files/10402.got.cif
#   From: 2010.03.12/outbox.cif.g09.slc.cpg/sg36_6_cif.got.tgz:10402.got - 2010.04.14 02:13:53.
