data_PCOD8176659
_publ_section_title
;
Structure prediction by ZEFSAII (Michael W. Deem and Ramdas Pophale) SiO2 
 PCOD8176659
Probable space group: C C C 2
;
_chemical_formula_sum "Si O2"
_cell_formula_units_Z 44
_cell_length_a 8.856798
_cell_length_b 18.208295
_cell_length_c 13.112463
_cell_angle_alpha 90.000000
_cell_angle_beta 90.000000
_cell_angle_gamma 90.000000
_cell_volume 2114.610072
_symmetry_space_group_name_H-M "C C C 2"
_symmetry_group_IT_number 37
_symmetry_cell_setting 'orthorhombic'
loop_
_space_group_symop_operation_xyz
x,y,z
-x,-y,z
-x,y,1/2+z
x,-y,1/2+z
1/2+x,1/2+y,z
1/2-x,1/2-y,z
1/2-x,1/2+y,1/2+z
1/2+x,1/2-y,1/2+z
loop_
_atom_site_type_symbol
_atom_site_label
_atom_site_fract_x
_atom_site_fract_y
_atom_site_fract_z
Si Si1 0.617605 0.155979 0.758500
Si Si2 0.361052 0.108935 0.623872
Si Si3 0.750000 0.750000 0.510329
Si Si4 0.651756 0.035392 0.916677
Si Si5 0.424565 0.306414 0.323106
Si Si6 0.375181 0.443440 0.790589
O O1 0.531710 0.109513 0.671635
O O2 0.650477 0.114030 0.864125
O O3 0.513234 0.227442 0.783468
O O4 0.793613 0.175968 0.737315
O O5 0.327522 0.190474 0.584050
O O6 0.352063 0.047072 0.537471
O O7 0.243145 0.080231 0.706236
O O8 0.632142 0.706468 0.438830
O O9 0.500000 0.000000 0.875842
O O10 0.793593 0.984688 0.884797
O O11 0.549906 0.368686 0.330740
O O12 0.500000 0.500000 0.745617
#
# Coordination Sequence:
#
# PCOD8176659 Si02
#       6
#     8   8   4   8   8   8
#     4  10  21  44  67  92 131 179 214 273 326 386
#     4  12  24  41  71  96 129 176 230 258 331 404
#     4  10  20  42  68  98 132 180 214 274 326 390
#     4  12  25  44  64  97 134 176 219 275 332 391
#     4  10  21  44  70  92 141 168 215 281 333 378
#     4  12  25  41  66 100 136 172 218 280 336 387
#
# _framework density 20.807618000000002
#
# number of rings (size 3 to 8) (size 9 to 14) (size 15 to 20)
#    0.000    1.091    7.273    1.091    2.545    2.182 
#    0.000    3.636    0.000    0.000    0.000    0.000 
#    0.000    0.000    0.000    0.000    0.000    0.000 
#
# Total GULP energy -272547.497617 kJ/mol
# GULP energy per Si atom -12388.522619 kJ/mol
# Density = 2.076026 g / cm^3
# Si number density = 20.807618 Si / 1000 Ang^3
#
#
#
# Elastic Constant Matrix: (Units=GPa)
#
#
# Indices 1 2 3 4 5 6 
#
# 1 102.2516 54.7908 49.3417 0.0000 0.0000 0.0000
# 2 54.7908 129.3180 44.9890 0.0000 0.0000 0.0000
# 3 49.3417 44.9890 115.4247 0.0000 0.0000 0.0000
# 4 0.0000 0.0000 0.0000 -148.3077 0.0000 0.0000
# 5 0.0000 0.0000 0.0000 0.0000 18.5185 0.0000
# 6 0.0000 0.0000 0.0000 0.0000 0.0000 22.4754
#
#
#
# Elastic Compliance Matrix: (Units=1/GPa)
#
#
# Indices 1 2 3 4 5 6 
#
# 1 0.014317 -0.004554 -0.004345 0.000000 0.000000 0.000000
# 2 -0.004554 0.010395 -0.002105 0.000000 0.000000 0.000000
# 3 -0.004345 -0.002105 0.011341 0.000000 0.000000 0.000000
# 4 0.000000 0.000000 0.000000 -0.006743 0.000000 0.000000
# 5 0.000000 0.000000 0.000000 0.000000 0.054000 0.000000
# 6 0.000000 0.000000 0.000000 0.000000 0.000000 0.044493
#
#
# Mechanical properties :
#
#
# Convention : Reuss Voigt Hill
#
# Bulk Modulus (GPa) = 71.19991 71.69303 71.44647
# Shear Modulus (GPa) = 32.36388 -8.27126 12.04631
#
# Velocity S-wave (km/s) = 3.94812 -1.99593 2.40872
# Velocity P-wave (km/s) = 7.42132 5.40540 6.49208
#
# Compressibility (1/GPa) = 0.01404496
#
# Stress axis : x y z
#
# Youngs Moduli (GPa) = 69.84744 96.20292 88.17248
#
# Poissons Ratio (x) = 0.43814 0.38311
# Poissons Ratio (y) = 0.31811 0.18557
# Poissons Ratio (z) = 0.30349 0.20247
#
# Static dielectric constant tensor:
#      x y z
#    x 4.013160 0.000000 0.000000 
#    y 0.000000 4.784660 0.000000 
#    z 0.000000 0.000000 3.541910 
# 
# 
# High freq. dielectric constant tensor:
#      x y z
#    x 1.804450 0.000000 0.000000 
#    y 0.000000 1.845060 0.000000 
#    z 0.000000 0.000000 1.793120 
# 
# From -- ./inp_files/10520.got.cif
#   From: 2010.03.12/outbox.cif.g09.slc.cpg/sg37_6_cif.got.tgz:10520.got - 2010.04.14 02:25:27.
