data_PCOD8176163
_publ_section_title
;
Structure prediction by ZEFSAII (Michael W. Deem and Ramdas Pophale) SiO2 
 PCOD8176163
Probable space group: C M C 21
;
_chemical_formula_sum "Si O2"
_cell_formula_units_Z 64
_cell_length_a 8.510903
_cell_length_b 19.539192
_cell_length_c 18.246765
_cell_angle_alpha 90.000000
_cell_angle_beta 90.000000
_cell_angle_gamma 90.000000
_cell_volume 3034.367094
_symmetry_space_group_name_H-M "C M C 21"
_symmetry_group_IT_number 36
_symmetry_cell_setting 'orthorhombic'
loop_
_space_group_symop_operation_xyz
x,y,z
-x,-y,1/2+z
x,-y,1/2+z
-x,y,z
1/2+x,1/2+y,z
1/2-x,1/2-y,1/2+z
1/2+x,1/2-y,1/2+z
1/2-x,1/2+y,z
loop_
_atom_site_type_symbol
_atom_site_label
_atom_site_fract_x
_atom_site_fract_y
_atom_site_fract_z
Si Si1 0.818659 0.275822 0.313970
Si Si2 0.317767 0.070220 0.429421
Si Si3 0.184200 0.636357 0.277508
Si Si4 0.317437 0.297656 0.470309
Si Si5 0.317597 0.019850 0.166844
Si Si6 0.317961 0.622372 0.702574
Si Si7 0.182308 0.949642 0.511488
Si Si8 0.681878 0.327150 0.042925
O O1 0.776053 0.207630 0.268375
O O2 0.715881 0.276141 0.387265
O O3 0.783328 0.342490 0.265875
O O4 0.000000 0.275599 0.336298
O O5 0.500000 0.050456 0.427726
O O6 0.260917 0.098355 0.351340
O O7 0.289547 0.127526 0.490458
O O8 0.217919 0.002319 0.446128
O O9 0.230418 0.589215 0.208664
O O10 0.000000 0.652538 0.279406
O O11 0.500000 0.286208 0.486662
O O12 0.265764 0.375474 0.483490
O O13 0.216795 0.252153 0.526709
O O14 0.500000 0.003030 0.178209
O O15 0.283046 0.028607 0.081448
O O16 0.218630 0.957961 0.200968
O O17 0.500000 0.633688 0.720594
O O18 0.270828 0.657030 0.625941
O O19 0.000000 0.952419 0.532855
O O20 0.500000 0.344826 0.028594
#
# Coordination Sequence:
#
# PCOD8176163 Si02
#       8
#     8   8   8   8   8   8   8   8
#     4  12  26  43  67  96 128 168 218 266 318 385
#     4  11  22  40  68  94 125 167 210 262 318 379
#     4  10  24  44  65  94 130 167 211 262 322 384
#     4  11  25  44  66  94 132 171 213 267 323 380
#     4  11  24  43  67  96 129 168 214 263 316 381
#     4  11  25  44  66  93 132 172 212 264 322 382
#     4  11  25  43  64  95 131 168 214 265 320 380
#     4  11  23  41  67  96 125 165 214 263 317 381
#
# _framework density 21.091712999999999
#
# number of rings (size 3 to 8) (size 9 to 14) (size 15 to 20)
#    0.000    1.000    2.500    3.375    3.500    5.000 
#    0.000    0.000    0.000    0.000    0.000    0.000 
#    0.000    0.000    0.000    0.000    0.000    0.000 
#
# Total GULP energy -397084.961661 kJ/mol
# GULP energy per Si atom -12408.905052 kJ/mol
# Density = 2.104371 g / cm^3
# Si number density = 21.091713 Si / 1000 Ang^3
#
#
#
# Elastic Constant Matrix: (Units=GPa)
#
#
# Indices 1 2 3 4 5 6 
#
# 1 47.2591 17.0558 16.2615 0.0000 0.0000 0.0000
# 2 17.0558 120.0722 11.6633 0.0000 0.0000 0.0000
# 3 16.2615 11.6633 48.2363 0.0000 0.0000 0.0000
# 4 0.0000 0.0000 0.0000 41.1588 0.0000 0.0000
# 5 0.0000 0.0000 0.0000 0.0000 28.3548 0.0000
# 6 0.0000 0.0000 0.0000 0.0000 0.0000 34.6085
#
#
#
# Elastic Compliance Matrix: (Units=1/GPa)
#
#
# Indices 1 2 3 4 5 6 
#
# 1 0.024809 -0.002777 -0.007692 0.000000 0.000000 0.000000
# 2 -0.002777 0.008839 -0.001201 0.000000 0.000000 0.000000
# 3 -0.007692 -0.001201 0.023615 0.000000 0.000000 0.000000
# 4 0.000000 0.000000 0.000000 0.024296 0.000000 0.000000
# 5 0.000000 0.000000 0.000000 0.000000 0.035267 0.000000
# 6 0.000000 0.000000 0.000000 0.000000 0.000000 0.028895
#
#
# Mechanical properties :
#
#
# Convention : Reuss Voigt Hill
#
# Bulk Modulus (GPa) = 29.47868 33.94765 31.71317
# Shear Modulus (GPa) = 27.72084 32.19686 29.95885
#
# Velocity S-wave (km/s) = 3.62926 3.91131 3.77292
# Velocity P-wave (km/s) = 5.61861 6.04384 5.83510
#
# Compressibility (1/GPa) = 0.03392283
#
# Stress axis : x y z
#
# Youngs Moduli (GPa) = 40.30803 113.12938 42.34609
#
# Poissons Ratio (x) = 0.31414 0.32574
# Poissons Ratio (y) = 0.11193 0.05087
# Poissons Ratio (z) = 0.31006 0.13589
#
# Static dielectric constant tensor:
#      x y z
#    x 3.766070 0.000000 0.000000 
#    y 0.000000 3.966960 0.000000 
#    z 0.000000 0.000000 3.800580 
# 
# 
# High freq. dielectric constant tensor:
#      x y z
#    x 1.828350 0.000000 0.000000 
#    y 0.000000 1.840640 0.000000 
#    z 0.000000 0.000000 1.826660 
# 
# From -- ./inp_files/13948.got.cif
#   From: 2010.03.12/outbox.cif.g09.slc.cpg/sg36_7_cif.got.tgz:13948.got - 2010.04.14 02:13:53.
