data_PCOD8176781
_publ_section_title
;
Structure prediction by ZEFSAII (Michael W. Deem and Ramdas Pophale) SiO2 
 PCOD8176781
Probable space group: C C C 2
;
_chemical_formula_sum "Si O2"
_cell_formula_units_Z 52
_cell_length_a 22.300724
_cell_length_b 8.201322
_cell_length_c 14.985275
_cell_angle_alpha 90.000000
_cell_angle_beta 90.000000
_cell_angle_gamma 90.000000
_cell_volume 2740.738140
_symmetry_space_group_name_H-M "C C C 2"
_symmetry_group_IT_number 37
_symmetry_cell_setting 'orthorhombic'
loop_
_space_group_symop_operation_xyz
x,y,z
-x,-y,z
-x,y,1/2+z
x,-y,1/2+z
1/2+x,1/2+y,z
1/2-x,1/2-y,z
1/2-x,1/2+y,1/2+z
1/2+x,1/2-y,1/2+z
loop_
_atom_site_type_symbol
_atom_site_label
_atom_site_fract_x
_atom_site_fract_y
_atom_site_fract_z
Si Si1 0.385984 0.920337 0.551800
Si Si2 0.663653 0.912869 0.723788
Si Si3 0.800476 0.112818 0.930893
Si Si4 0.883892 0.385490 0.888967
Si Si5 0.300620 0.436318 0.751787
Si Si6 0.807551 0.132961 0.589877
Si Si7 0.500000 0.000000 0.963291
O O1 0.363449 0.737377 0.557900
O O2 0.372205 0.036886 0.635508
O O3 0.353536 0.007259 0.467773
O O4 0.456938 0.899520 0.530687
O O5 0.655396 0.721418 0.747840
O O6 0.734692 0.922469 0.707435
O O7 0.638877 0.036943 0.797471
O O8 0.750000 0.250000 0.928698
O O9 0.863264 0.199170 0.904179
O O10 0.789876 0.978608 0.854777
O O11 0.800407 0.024024 0.026252
O O12 0.956937 0.389909 0.899064
O O13 0.327804 0.577707 0.689379
O O14 0.750000 0.250000 0.591822
#
# Coordination Sequence:
#
# PCOD8176781 Si02
#       7
#     8   8   8   8   8   8   4
#     4  10  21  42  60  88 117 164 208 248 297 357
#     4  11  21  37  66  85 131 157 200 251 308 366
#     4  12  23  36  61  93 129 161 197 249 316 365
#     4  10  21  42  60  88 117 164 208 248 297 357
#     4  11  24  35  57 103 124 157 195 250 313 381
#     4  12  23  36  61  93 129 161 197 249 316 365
#     4   8  24  42  66  84 118 164 226 240 288 364
#
# _framework density 18.972992000000001
#
# number of rings (size 3 to 8) (size 9 to 14) (size 15 to 20)
#    0.923    0.308    3.077    4.154    4.308    0.615 
#    0.000    0.769    0.000    1.846    0.000    0.000 
#    0.000    0.000    0.000    0.000    0.000    0.000 
#
# Total GULP energy -322111.778038 kJ/mol
# GULP energy per Si atom -12388.914540 kJ/mol
# Density = 1.892981 g / cm^3
# Si number density = 18.972992 Si / 1000 Ang^3
#
#
#
# Elastic Constant Matrix: (Units=GPa)
#
#
# Indices 1 2 3 4 5 6 
#
# 1 65.7342 16.3323 -4.2708 0.0000 0.0000 0.0000
# 2 16.3323 86.2591 11.6157 0.0000 0.0000 0.0000
# 3 -4.2708 11.6157 81.0409 0.0000 0.0000 0.0000
# 4 0.0000 0.0000 0.0000 32.4581 0.0000 0.0000
# 5 0.0000 0.0000 0.0000 0.0000 19.9011 0.0000
# 6 0.0000 0.0000 0.0000 0.0000 0.0000 26.2368
#
#
#
# Elastic Compliance Matrix: (Units=1/GPa)
#
#
# Indices 1 2 3 4 5 6 
#
# 1 0.016099 -0.003225 0.001311 0.000000 0.000000 0.000000
# 2 -0.003225 0.012467 -0.001957 0.000000 0.000000 0.000000
# 3 0.001311 -0.001957 0.012689 0.000000 0.000000 0.000000
# 4 0.000000 0.000000 0.000000 0.030809 0.000000 0.000000
# 5 0.000000 0.000000 0.000000 0.000000 0.050249 0.000000
# 6 0.000000 0.000000 0.000000 0.000000 0.000000 0.038114
#
#
# Mechanical properties :
#
#
# Convention : Reuss Voigt Hill
#
# Bulk Modulus (GPa) = 29.83891 31.15430 30.49660
# Shear Modulus (GPa) = 27.87999 29.67632 28.77816
#
# Velocity S-wave (km/s) = 3.83751 3.95921 3.89883
# Velocity P-wave (km/s) = 5.94949 6.11199 6.03129
#
# Compressibility (1/GPa) = 0.03351329
#
# Stress axis : x y z
#
# Youngs Moduli (GPa) = 62.11509 80.21135 78.80844
#
# Poissons Ratio (x) = 0.25866 -0.10329
# Poissons Ratio (y) = 0.20030 0.15422
# Poissons Ratio (z) = -0.08141 0.15696
#
# Static dielectric constant tensor:
#      x y z
#    x 3.287080 0.000000 0.000000 
#    y 0.000000 3.644410 0.000000 
#    z 0.000000 0.000000 3.543830 
# 
# 
# High freq. dielectric constant tensor:
#      x y z
#    x 1.705120 0.000000 0.000000 
#    y 0.000000 1.736920 0.000000 
#    z 0.000000 0.000000 1.753080 
# 
# From -- ./inp_files/13099.got.cif
#   From: 2010.03.12/outbox.cif.g09.slc.cpg/sg37_7_cif.got.tgz:13099.got - 2010.04.14 02:25:27.
