data_PCOD8176823
_publ_section_title
;
Structure prediction by ZEFSAII (Michael W. Deem and Ramdas Pophale) SiO2 
 PCOD8176823
Probable space group: C C C 2
;
_chemical_formula_sum "Si O2"
_cell_formula_units_Z 60
_cell_length_a 14.844060
_cell_length_b 22.082576
_cell_length_c 8.801328
_cell_angle_alpha 90.000000
_cell_angle_beta 90.000000
_cell_angle_gamma 90.000000
_cell_volume 2885.032043
_symmetry_space_group_name_H-M "C C C 2"
_symmetry_group_IT_number 37
_symmetry_cell_setting 'orthorhombic'
loop_
_space_group_symop_operation_xyz
x,y,z
-x,-y,z
-x,y,1/2+z
x,-y,1/2+z
1/2+x,1/2+y,z
1/2-x,1/2-y,z
1/2-x,1/2+y,1/2+z
1/2+x,1/2-y,1/2+z
loop_
_atom_site_type_symbol
_atom_site_label
_atom_site_fract_x
_atom_site_fract_y
_atom_site_fract_z
Si Si1 0.870992 0.520363 0.978560
Si Si2 0.589756 0.796558 0.364567
Si Si3 0.242073 0.622234 0.373922
Si Si4 0.283430 0.110082 0.517642
Si Si5 0.500000 0.000000 0.229315
Si Si6 0.918884 0.846332 0.024357
Si Si7 0.403256 0.795432 0.516599
Si Si8 0.603808 0.346795 0.870494
O O1 0.786551 0.564004 0.972508
O O2 0.934870 0.539372 0.836532
O O3 0.837362 0.451006 0.973585
O O4 0.931909 0.538281 0.123890
O O5 0.661171 0.831874 0.465479
O O6 0.491918 0.815520 0.425886
O O7 0.595093 0.818290 0.190289
O O8 0.614721 0.725788 0.382687
O O9 0.229638 0.612256 0.196709
O O10 0.347144 0.625562 0.409328
O O11 0.185249 0.679896 0.431679
O O12 0.186868 0.115077 0.436731
O O13 0.900186 0.775869 0.014823
O O14 0.907440 0.868233 0.197007
O O15 0.016823 0.865974 0.967123
#
# Coordination Sequence:
#
# PCOD8176823 Si02
#       8
#     8   8   8   8   4   8   8   8
#     4  11  26  42  63  92 122 162 203 244 301 358
#     4  10  22  37  60  91 125 163 202 246 304 362
#     4  12  25  39  62  91 123 161 205 251 302 361
#     4  12  25  39  62  91 123 161 205 251 302 361
#     4  10  24  46  64  82 130 162 200 246 296 356
#     4  10  22  42  64  89 122 161 203 253 304 356
#     4  10  22  37  60  91 125 163 202 246 304 362
#     4  10  22  42  64  89 122 161 203 253 304 356
#
# _framework density 20.796996
#
# number of rings (size 3 to 8) (size 9 to 14) (size 15 to 20)
#    0.000    1.333    1.333    3.200    7.467    6.400 
#    0.000    0.667    0.000    3.200    0.000    0.000 
#    0.000    0.000    0.000    0.000    0.000    0.000 
#
# Total GULP energy -371930.837630 kJ/mol
# GULP energy per Si atom -12397.694588 kJ/mol
# Density = 2.074966 g / cm^3
# Si number density = 20.796996 Si / 1000 Ang^3
#
#
#
# Elastic Constant Matrix: (Units=GPa)
#
#
# Indices 1 2 3 4 5 6 
#
# 1 130.3158 33.9472 46.3628 0.0000 0.0000 0.0000
# 2 33.9472 39.1776 27.7285 0.0000 0.0000 0.0000
# 3 46.3628 27.7285 131.5298 0.0000 0.0000 0.0000
# 4 0.0000 0.0000 0.0000 18.6179 0.0000 0.0000
# 5 0.0000 0.0000 0.0000 0.0000 14.4866 0.0000
# 6 0.0000 0.0000 0.0000 0.0000 0.0000 9.5125
#
#
#
# Elastic Compliance Matrix: (Units=1/GPa)
#
#
# Indices 1 2 3 4 5 6 
#
# 1 0.010369 -0.007520 -0.002070 0.000000 0.000000 0.000000
# 2 -0.007520 0.035455 -0.004824 0.000000 0.000000 0.000000
# 3 -0.002070 -0.004824 0.009349 0.000000 0.000000 0.000000
# 4 0.000000 0.000000 0.000000 0.053712 0.000000 0.000000
# 5 0.000000 0.000000 0.000000 0.000000 0.069030 0.000000
# 6 0.000000 0.000000 0.000000 0.000000 0.000000 0.105125
#
#
# Mechanical properties :
#
#
# Convention : Reuss Voigt Hill
#
# Bulk Modulus (GPa) = 37.95563 57.45559 47.70561
# Shear Modulus (GPa) = 15.59341 21.38901 18.49121
#
# Velocity S-wave (km/s) = 2.74120 3.21045 2.98506
# Velocity P-wave (km/s) = 5.32063 6.43658 5.90502
#
# Compressibility (1/GPa) = 0.02634655
#
# Stress axis : x y z
#
# Youngs Moduli (GPa) = 96.44241 28.20497 106.95997
#
# Poissons Ratio (x) = 0.21210 0.22137
# Poissons Ratio (y) = 0.72523 0.51595
# Poissons Ratio (z) = 0.19960 0.13605
#
# Static dielectric constant tensor:
#      x y z
#    x 4.156810 0.000000 0.000000 
#    y 0.000000 3.455140 0.000000 
#    z 0.000000 0.000000 4.155980 
# 
# 
# High freq. dielectric constant tensor:
#      x y z
#    x 1.826810 0.000000 0.000000 
#    y 0.000000 1.786400 0.000000 
#    z 0.000000 0.000000 1.836200 
# 
# From -- ./inp_files/3737.got.cif
#   From: 2010.03.12/outbox.cif.g09.slc.cpg/sg37_2_cif.got.tgz:3737.got - 2010.04.14 02:25:27.
