data_PCOD8176817
_publ_section_title
;
Structure prediction by ZEFSAII (Michael W. Deem and Ramdas Pophale) SiO2 
 PCOD8176817
Probable space group: C C C 2
;
_chemical_formula_sum "Si O2"
_cell_formula_units_Z 36
_cell_length_a 7.649579
_cell_length_b 15.722019
_cell_length_c 14.730882
_cell_angle_alpha 90.000000
_cell_angle_beta 90.000000
_cell_angle_gamma 90.000000
_cell_volume 1771.636428
_symmetry_space_group_name_H-M "C C C 2"
_symmetry_group_IT_number 37
_symmetry_cell_setting 'orthorhombic'
loop_
_space_group_symop_operation_xyz
x,y,z
-x,-y,z
-x,y,1/2+z
x,-y,1/2+z
1/2+x,1/2+y,z
1/2-x,1/2-y,z
1/2-x,1/2+y,1/2+z
1/2+x,1/2-y,1/2+z
loop_
_atom_site_type_symbol
_atom_site_label
_atom_site_fract_x
_atom_site_fract_y
_atom_site_fract_z
Si Si1 0.438740 0.155491 0.446360
Si Si2 0.737032 0.849401 0.080585
Si Si3 0.053473 0.852014 0.968766
Si Si4 0.150249 0.560906 0.760847
Si Si5 0.000000 0.000000 0.832008
O O1 0.593037 0.115482 0.508068
O O2 0.255449 0.138138 0.498731
O O3 0.475563 0.255749 0.432853
O O4 0.423265 0.109819 0.349203
O O5 0.750000 0.750000 0.074178
O O6 0.690263 0.871843 0.182667
O O7 0.930866 0.881047 0.052606
O O8 0.997774 0.912783 0.887367
O O9 0.322288 0.503100 0.774183
O O10 0.000000 0.500000 0.724056
#
# Coordination Sequence:
#
# PCOD8176817 Si02
#       5
#     8   8   8   8   4
#     4   9  20  40  63  83 121 162 198 238 300 357
#     4  10  22  38  61  87 116 158 203 243 293 357
#     4   9  19  38  62  84 115 160 198 243 293 356
#     4  11  24  38  59  92 123 157 200 249 298 351
#     4  10  22  36  60  90 122 160 196 244 304 344
#
# _framework density 20.320195999999999
#
# number of rings (size 3 to 8) (size 9 to 14) (size 15 to 20)
#    0.000    2.222    0.000    1.333    6.222    7.111 
#    0.000    0.000   14.667    0.000    0.000    0.000 
#    0.000    0.000    0.000    0.000    0.000    0.000 
#
# Total GULP energy -223085.222338 kJ/mol
# GULP energy per Si atom -12393.623463 kJ/mol
# Density = 2.027395 g / cm^3
# Si number density = 20.320196 Si / 1000 Ang^3
#
#
#
# Elastic Constant Matrix: (Units=GPa)
#
#
# Indices 1 2 3 4 5 6 
#
# 1 155.7132 40.9936 68.3882 0.0000 0.0000 0.0000
# 2 40.9936 39.7248 20.0286 0.0000 0.0000 0.0000
# 3 68.3882 20.0286 107.8783 0.0000 0.0000 0.0000
# 4 0.0000 0.0000 0.0000 19.5864 0.0000 0.0000
# 5 0.0000 0.0000 0.0000 0.0000 12.4484 0.0000
# 6 0.0000 0.0000 0.0000 0.0000 0.0000 28.3868
#
#
#
# Elastic Compliance Matrix: (Units=1/GPa)
#
#
# Indices 1 2 3 4 5 6 
#
# 1 0.011096 -0.008720 -0.005415 0.000000 0.000000 0.000000
# 2 -0.008720 0.034626 -0.000901 0.000000 0.000000 0.000000
# 3 -0.005415 -0.000901 0.012870 0.000000 0.000000 0.000000
# 4 0.000000 0.000000 0.000000 0.051056 0.000000 0.000000
# 5 0.000000 0.000000 0.000000 0.000000 0.080332 0.000000
# 6 0.000000 0.000000 0.000000 0.000000 0.000000 0.035228
#
#
# Mechanical properties :
#
#
# Convention : Reuss Voigt Hill
#
# Bulk Modulus (GPa) = 35.06331 62.45969 48.76150
# Shear Modulus (GPa) = 18.88318 23.67804 21.28061
#
# Velocity S-wave (km/s) = 3.05172 3.41727 3.23966
# Velocity P-wave (km/s) = 5.45070 6.80991 6.16786
#
# Compressibility (1/GPa) = 0.02851984
#
# Stress axis : x y z
#
# Youngs Moduli (GPa) = 90.12154 28.88007 77.70101
#
# Poissons Ratio (x) = 0.25184 0.42077
# Poissons Ratio (y) = 0.78588 0.06997
# Poissons Ratio (z) = 0.48803 0.02601
#
# Static dielectric constant tensor:
#      x y z
#    x 5.367860 0.000000 0.000000 
#    y 0.000000 3.630220 0.000000 
#    z 0.000000 0.000000 3.428260 
# 
# 
# High freq. dielectric constant tensor:
#      x y z
#    x 1.818300 0.000000 0.000000 
#    y 0.000000 1.793550 0.000000 
#    z 0.000000 0.000000 1.770480 
# 
# From -- ./inp_files/10292.got.cif
#   From: 2010.03.12/outbox.cif.g09.slc.cpg/sg37_6_cif.got.tgz:10292.got - 2010.04.14 02:25:27.
