data_PCOD8176208
_publ_section_title
;
Structure prediction by ZEFSAII (Michael W. Deem and Ramdas Pophale) SiO2 
 PCOD8176208
Probable space group: C M C 21
;
_chemical_formula_sum "Si O2"
_cell_formula_units_Z 64
_cell_length_a 8.463531
_cell_length_b 27.517040
_cell_length_c 13.139678
_cell_angle_alpha 90.000000
_cell_angle_beta 90.000000
_cell_angle_gamma 90.000000
_cell_volume 3060.116968
_symmetry_space_group_name_H-M "C M C 21"
_symmetry_group_IT_number 36
_symmetry_cell_setting 'orthorhombic'
loop_
_space_group_symop_operation_xyz
x,y,z
-x,-y,1/2+z
x,-y,1/2+z
-x,y,z
1/2+x,1/2+y,z
1/2-x,1/2-y,1/2+z
1/2+x,1/2-y,1/2+z
1/2-x,1/2+y,z
loop_
_atom_site_type_symbol
_atom_site_label
_atom_site_fract_x
_atom_site_fract_y
_atom_site_fract_z
Si Si1 0.317922 0.701083 0.736710
Si Si2 0.818105 0.767271 0.882443
Si Si3 0.812137 0.873306 0.825174
Si Si4 0.812317 0.875212 0.599718
Si Si5 0.688522 0.449315 0.430733
Si Si6 0.188501 0.054769 0.498325
Si Si7 0.312184 0.408975 0.216677
Si Si8 0.817683 0.765888 0.574300
O O1 0.500000 0.704367 0.703663
O O2 0.290700 0.720562 0.851155
O O3 0.253744 0.646618 0.723005
O O4 0.204595 0.740127 0.682297
O O5 0.751723 0.818282 0.839608
O O6 0.000000 0.760091 0.853143
O O7 0.793512 0.767329 0.003408
O O8 0.757111 0.891949 0.713324
O O9 0.000000 0.873754 0.833707
O O10 0.743126 0.907418 0.914868
O O11 0.743250 0.910868 0.513098
O O12 0.752319 0.820811 0.578798
O O13 0.000000 0.876181 0.596800
O O14 0.500000 0.447511 0.430876
O O15 0.750707 0.501938 0.465088
O O16 0.751996 0.437303 0.316799
O O17 0.252843 0.067350 0.611848
O O18 0.000000 0.056180 0.499554
O O19 0.500000 0.410575 0.217897
O O20 0.000000 0.764523 0.541918
#
# Coordination Sequence:
#
# PCOD8176208 Si02
#       8
#     8   8   8   8   8   8   8   8
#     4  11  21  35  54  77 111 151 185 225 274 325
#     4  11  21  35  54  79 111 148 185 224 271 327
#     4   9  17  30  47  70 102 138 174 217 271 322
#     4   9  17  30  47  70 102 138 174 217 271 322
#     4   9  17  27  44  68  99 139 176 214 268 333
#     4   9  17  27  44  68  99 139 176 214 268 333
#     4   9  18  31  44  69 105 139 177 221 274 327
#     4  11  21  35  54  79 111 148 185 224 271 327
#
# _framework density 20.914232999999999
#
# number of rings (size 3 to 8) (size 9 to 14) (size 15 to 20)
#    0.000    2.250    1.250    2.625    1.750    4.000 
#    0.000    0.000    0.000    0.000    0.000    0.000 
#    0.000   44.000    0.000    0.000    0.000    0.000 
#
# Total GULP energy -396635.287220 kJ/mol
# GULP energy per Si atom -12394.852726 kJ/mol
# Density = 2.086663 g / cm^3
# Si number density = 20.914233 Si / 1000 Ang^3
#
#
#
# Elastic Constant Matrix: (Units=GPa)
#
#
# Indices 1 2 3 4 5 6 
#
# 1 18.7815 21.3954 13.0032 0.0000 0.0000 0.0000
# 2 21.3954 168.6059 85.0648 0.0000 0.0000 0.0000
# 3 13.0032 85.0648 165.9052 0.0000 0.0000 0.0000
# 4 0.0000 0.0000 0.0000 44.1877 0.0000 0.0000
# 5 0.0000 0.0000 0.0000 0.0000 19.5860 0.0000
# 6 0.0000 0.0000 0.0000 0.0000 0.0000 17.5368
#
#
#
# Elastic Compliance Matrix: (Units=1/GPa)
#
#
# Indices 1 2 3 4 5 6 
#
# 1 0.062395 -0.007352 -0.001121 0.000000 0.000000 0.000000
# 2 -0.007352 0.008867 -0.003970 0.000000 0.000000 0.000000
# 3 -0.001121 -0.003970 0.008151 0.000000 0.000000 0.000000
# 4 0.000000 0.000000 0.000000 0.022631 0.000000 0.000000
# 5 0.000000 0.000000 0.000000 0.000000 0.051057 0.000000
# 6 0.000000 0.000000 0.000000 0.000000 0.000000 0.057023
#
#
# Mechanical properties :
#
#
# Convention : Reuss Voigt Hill
#
# Bulk Modulus (GPa) = 18.33953 65.80216 42.07085
# Shear Modulus (GPa) = 19.74837 31.85070 25.79954
#
# Velocity S-wave (km/s) = 3.07621 3.90669 3.51606
# Velocity P-wave (km/s) = 4.62659 7.20284 6.05335
#
# Compressibility (1/GPa) = 0.05452701
#
# Stress axis : x y z
#
# Youngs Moduli (GPa) = 16.02688 112.77809 122.68467
#
# Poissons Ratio (x) = 0.82918 0.13748
# Poissons Ratio (y) = 0.11783 0.48707
# Poissons Ratio (z) = 0.01796 0.44774
#
# Static dielectric constant tensor:
#      x y z
#    x 2.933310 0.000000 0.000000 
#    y 0.000000 3.878710 0.000000 
#    z 0.000000 0.000000 4.083270 
# 
# 
# High freq. dielectric constant tensor:
#      x y z
#    x 1.744280 0.000000 0.000000 
#    y 0.000000 1.821480 0.000000 
#    z 0.000000 0.000000 1.844320 
# 
# From -- ./inp_files/11055.got.cif
#   From: 2010.03.12/outbox.cif.g09.slc.cpg/sg36_6_cif.got.tgz:11055.got - 2010.04.14 02:13:53.
