data_PCOD8176615
_publ_section_title
;
Structure prediction by ZEFSAII (Michael W. Deem and Ramdas Pophale) SiO2 
 PCOD8176615
Probable space group: C C C 2
;
_chemical_formula_sum "Si O2"
_cell_formula_units_Z 40
_cell_length_a 18.623887
_cell_length_b 10.478416
_cell_length_c 8.658910
_cell_angle_alpha 90.000000
_cell_angle_beta 90.000000
_cell_angle_gamma 90.000000
_cell_volume 1689.776203
_symmetry_space_group_name_H-M "C C C 2"
_symmetry_group_IT_number 37
_symmetry_cell_setting 'orthorhombic'
loop_
_space_group_symop_operation_xyz
x,y,z
-x,-y,z
-x,y,1/2+z
x,-y,1/2+z
1/2+x,1/2+y,z
1/2-x,1/2-y,z
1/2-x,1/2+y,1/2+z
1/2+x,1/2-y,1/2+z
loop_
_atom_site_type_symbol
_atom_site_label
_atom_site_fract_x
_atom_site_fract_y
_atom_site_fract_z
Si Si1 0.374098 0.152297 0.016080
Si Si2 0.500000 0.500000 0.656078
Si Si3 0.350853 0.100340 0.678387
Si Si4 0.123166 0.159014 0.263351
Si Si5 0.471439 0.230939 0.505043
Si Si6 0.250000 0.750000 0.958106
O O1 0.356727 0.290422 0.091430
O O2 0.458473 0.146422 0.976052
O O3 0.353905 0.050187 0.147307
O O4 0.331109 0.126822 0.857461
O O5 0.425348 0.528251 0.753913
O O6 0.487615 0.376691 0.551674
O O7 0.426242 0.166840 0.641011
O O8 0.290152 0.153046 0.567591
O O9 0.071955 0.265669 0.343819
O O10 0.197550 0.155327 0.359232
#
# Coordination Sequence:
#
# PCOD8176615 Si02
#       6
#     8   4   8   8   8   4
#     4  11  22  40  69  94 130 172 226 281 348 401
#     4  10  20  38  68 102 132 180 228 284 344 406
#     4  11  23  41  63  98 133 176 222 279 343 413
#     4  10  22  43  68  97 140 174 231 280 346 414
#     4  10  21  38  64 100 136 169 223 282 335 403
#     4  10  24  46  62  98 140 180 230 282 344 432
#
# _framework density 23.671773000000002
#
# number of rings (size 3 to 8) (size 9 to 14) (size 15 to 20)
#    0.000    1.600    0.000    6.000    0.000    4.000 
#   14.400    0.000    0.000    0.000    0.000    0.000 
#    0.000    0.000    0.000    0.000    0.000    0.000 
#
# Total GULP energy -247844.537452 kJ/mol
# GULP energy per Si atom -12392.226873 kJ/mol
# Density = 2.361790 g / cm^3
# Si number density = 23.671773 Si / 1000 Ang^3
#
#
#
# Elastic Constant Matrix: (Units=GPa)
#
#
# Indices 1 2 3 4 5 6 
#
# 1 124.0423 30.2521 44.0585 0.0000 0.0000 0.0000
# 2 30.2521 84.2632 28.9859 0.0000 0.0000 0.0000
# 3 44.0585 28.9859 143.4392 0.0000 0.0000 0.0000
# 4 0.0000 0.0000 0.0000 28.9788 0.0000 0.0000
# 5 0.0000 0.0000 0.0000 0.0000 26.1980 0.0000
# 6 0.0000 0.0000 0.0000 0.0000 0.0000 30.3047
#
#
#
# Elastic Compliance Matrix: (Units=1/GPa)
#
#
# Indices 1 2 3 4 5 6 
#
# 1 0.009551 -0.002601 -0.002408 0.000000 0.000000 0.000000
# 2 -0.002601 0.013462 -0.001922 0.000000 0.000000 0.000000
# 3 -0.002408 -0.001922 0.008100 0.000000 0.000000 0.000000
# 4 0.000000 0.000000 0.000000 0.034508 0.000000 0.000000
# 5 0.000000 0.000000 0.000000 0.000000 0.038171 0.000000
# 6 0.000000 0.000000 0.000000 0.000000 0.000000 0.032998
#
#
# Mechanical properties :
#
#
# Convention : Reuss Voigt Hill
#
# Bulk Modulus (GPa) = 57.96362 62.03752 60.00057
# Shear Modulus (GPa) = 31.96886 33.65952 32.81419
#
# Velocity S-wave (km/s) = 3.67891 3.77494 3.72723
# Velocity P-wave (km/s) = 6.52575 6.72789 6.62759
#
# Compressibility (1/GPa) = 0.01725220
#
# Stress axis : x y z
#
# Youngs Moduli (GPa) = 104.69635 74.28153 123.46259
#
# Poissons Ratio (x) = 0.19319 0.29733
# Poissons Ratio (y) = 0.27229 0.23725
# Poissons Ratio (z) = 0.25213 0.14274
#
# Static dielectric constant tensor:
#      x y z
#    x 4.445250 0.000000 0.000000 
#    y 0.000000 3.986740 0.000000 
#    z 0.000000 0.000000 4.333530 
# 
# 
# High freq. dielectric constant tensor:
#      x y z
#    x 1.930580 0.000000 0.000000 
#    y 0.000000 1.917960 0.000000 
#    z 0.000000 0.000000 1.949920 
# 
# From -- ./inp_files/2857.got.cif
#   From: 2010.03.12/outbox.cif.g09.slc.cpg/sg37_2_cif.got.tgz:2857.got - 2010.04.14 02:25:27.
