data_PCOD8176388
_publ_section_title
;
Structure prediction by ZEFSAII (Michael W. Deem and Ramdas Pophale) SiO2 
 PCOD8176388
Probable space group: C C C 2
;
_chemical_formula_sum "Si O2"
_cell_formula_units_Z 48
_cell_length_a 8.446266
_cell_length_b 17.417752
_cell_length_c 15.755150
_cell_angle_alpha 90.000000
_cell_angle_beta 90.000000
_cell_angle_gamma 90.000000
_cell_volume 2317.818365
_symmetry_space_group_name_H-M "C C C 2"
_symmetry_group_IT_number 37
_symmetry_cell_setting 'orthorhombic'
loop_
_space_group_symop_operation_xyz
x,y,z
-x,-y,z
-x,y,1/2+z
x,-y,1/2+z
1/2+x,1/2+y,z
1/2-x,1/2-y,z
1/2-x,1/2+y,1/2+z
1/2+x,1/2-y,1/2+z
loop_
_atom_site_type_symbol
_atom_site_label
_atom_site_fract_x
_atom_site_fract_y
_atom_site_fract_z
Si Si1 0.187109 0.490495 0.444210
Si Si2 0.075580 0.657383 0.742126
Si Si3 0.100347 0.203955 0.805984
Si Si4 0.800533 0.830813 0.398982
Si Si5 0.335964 0.042918 0.118978
Si Si6 0.724000 0.939696 0.769293
O O1 0.244704 0.401984 0.456943
O O2 0.250495 0.537447 0.527359
O O3 0.269888 0.523899 0.360093
O O4 0.000000 0.500000 0.433357
O O5 0.219127 0.660591 0.807244
O O6 0.139126 0.631791 0.648698
O O7 0.990021 0.739765 0.739762
O O8 0.958640 0.588451 0.771582
O O9 0.250000 0.250000 0.846616
O O10 0.160944 0.132050 0.751551
O O11 0.989111 0.174498 0.882653
O O12 0.750000 0.750000 0.442700
O O13 0.500000 0.000000 0.102302
O O14 0.241399 0.000114 0.194517
#
# Coordination Sequence:
#
# PCOD8176388 Si02
#       6
#     8   8   8   8   8   8
#     4  11  19  33  59  91 118 158 207 254 304 371
#     4   9  16  35  57  84 110 153 197 239 298 369
#     4   9  20  33  59  83 115 157 199 245 313 358
#     4  10  19  34  59  85 114 157 202 245 304 368
#     4   9  18  31  56  88 115 149 201 245 294 359
#     4  10  17  34  58  83 116 150 193 253 302 354
#
# _framework density 20.709129000000001
#
# number of rings (size 3 to 8) (size 9 to 14) (size 15 to 20)
#    0.000    2.333    3.333    0.500    0.000    0.667 
#    0.000    5.833    7.333    5.000    0.000    0.000 
#    0.000    0.000    0.000    0.000    0.000    0.000 
#
# Total GULP energy -297395.710659 kJ/mol
# GULP energy per Si atom -12391.487944 kJ/mol
# Density = 2.066199 g / cm^3
# Si number density = 20.709129 Si / 1000 Ang^3
#
#
#
# Elastic Constant Matrix: (Units=GPa)
#
#
# Indices 1 2 3 4 5 6 
#
# 1 72.5293 31.8314 12.5338 0.0000 0.0000 0.0000
# 2 31.8314 124.4488 51.2871 0.0000 0.0000 0.0000
# 3 12.5338 51.2871 132.5264 0.0000 0.0000 0.0000
# 4 0.0000 0.0000 0.0000 27.5338 0.0000 0.0000
# 5 0.0000 0.0000 0.0000 0.0000 3.3086 0.0000
# 6 0.0000 0.0000 0.0000 0.0000 0.0000 24.8744
#
#
#
# Elastic Compliance Matrix: (Units=1/GPa)
#
#
# Indices 1 2 3 4 5 6 
#
# 1 0.015532 -0.004006 0.000081 0.000000 0.000000 0.000000
# 2 -0.004006 0.010594 -0.003721 0.000000 0.000000 0.000000
# 3 0.000081 -0.003721 0.008978 0.000000 0.000000 0.000000
# 4 0.000000 0.000000 0.000000 0.036319 0.000000 0.000000
# 5 0.000000 0.000000 0.000000 0.000000 0.302243 0.000000
# 6 0.000000 0.000000 0.000000 0.000000 0.000000 0.040202
#
#
# Mechanical properties :
#
#
# Convention : Reuss Voigt Hill
#
# Bulk Modulus (GPa) = 50.47435 57.86768 54.17102
# Shear Modulus (GPa) = 11.47414 26.73350 19.10382
#
# Velocity S-wave (km/s) = 2.35641 3.59681 3.04054
# Velocity P-wave (km/s) = 5.64176 6.72705 6.20816
#
# Compressibility (1/GPa) = 0.01981204
#
# Stress axis : x y z
#
# Youngs Moduli (GPa) = 64.38442 94.39727 111.38491
#
# Poissons Ratio (x) = 0.37818 -0.00908
# Poissons Ratio (y) = 0.25794 0.41444
# Poissons Ratio (z) = -0.00525 0.35123
#
# Static dielectric constant tensor:
#      x y z
#    x 3.594550 0.000000 0.000000 
#    y 0.000000 4.205340 0.000000 
#    z 0.000000 0.000000 3.621920 
# 
# 
# High freq. dielectric constant tensor:
#      x y z
#    x 1.789910 0.000000 0.000000 
#    y 0.000000 1.821850 0.000000 
#    z 0.000000 0.000000 1.765620 
# 
# From -- ./inp_files/10601.got.cif
#   From: 2010.03.12/outbox.cif.g09.slc.cpg/sg37_6_cif.got.tgz:10601.got - 2010.04.14 02:25:27.
