data_PCOD8176742
_publ_section_title
;
Structure prediction by ZEFSAII (Michael W. Deem and Ramdas Pophale) SiO2 
 PCOD8176742
Probable space group: C C C 2
;
_chemical_formula_sum "Si O2"
_cell_formula_units_Z 56
_cell_length_a 22.288089
_cell_length_b 7.613049
_cell_length_c 14.628615
_cell_angle_alpha 90.000000
_cell_angle_beta 90.000000
_cell_angle_gamma 90.000000
_cell_volume 2482.187982
_symmetry_space_group_name_H-M "C C C 2"
_symmetry_group_IT_number 37
_symmetry_cell_setting 'orthorhombic'
loop_
_space_group_symop_operation_xyz
x,y,z
-x,-y,z
-x,y,1/2+z
x,-y,1/2+z
1/2+x,1/2+y,z
1/2-x,1/2-y,z
1/2-x,1/2+y,1/2+z
1/2+x,1/2-y,1/2+z
loop_
_atom_site_type_symbol
_atom_site_label
_atom_site_fract_x
_atom_site_fract_y
_atom_site_fract_z
Si Si1 0.685687 0.331955 0.500000
Si Si2 0.057627 0.598897 0.960309
Si Si3 0.856578 0.934963 0.804285
Si Si4 0.433129 0.904019 0.274844
Si Si5 0.538725 0.332134 0.813268
Si Si6 0.134878 0.484531 0.109915
Si Si7 0.738485 0.542920 0.168421
O O1 0.750000 0.250000 0.470561
O O2 0.653374 0.415278 0.412783
O O3 0.698516 0.481187 0.576671
O O4 0.641978 0.193171 0.550746
O O5 0.082960 0.492932 0.871630
O O6 0.039762 0.791923 0.922480
O O7 0.000000 0.500000 0.003106
O O8 0.107967 0.624206 0.037460
O O9 0.893410 0.771195 0.765551
O O10 0.893631 0.116530 0.782678
O O11 0.792784 0.951956 0.754570
O O12 0.505000 0.842244 0.268537
O O13 0.412692 0.034315 0.193004
O O14 0.500000 0.500000 0.792436
O O15 0.197806 0.552473 0.151651
O O16 0.750000 0.750000 0.186673
#
# Coordination Sequence:
#
# PCOD8176742 Si02
#       7
#     8   8   8   8   8   8   8
#     4   9  21  41  63  93 131 178 225 278 336 398
#     4  10  21  39  64  96 123 175 225 276 336 401
#     4  11  21  41  69  90 136 186 209 284 348 393
#     4  10  22  39  67  97 127 172 227 280 329 405
#     4   9  22  41  60  95 133 167 220 269 340 416
#     4  10  21  40  64  96 131 170 232 275 333 409
#     4   9  23  40  59  99 136 172 228 277 335 411
#
# _framework density 22.560741
#
# number of rings (size 3 to 8) (size 9 to 14) (size 15 to 20)
#    0.000    2.571    1.429    0.000    6.000    2.857 
#    0.000    3.571    0.000    0.000    0.000    0.000 
#    0.000    0.000    0.000    0.000    0.000    0.000 
#
# Total GULP energy -346873.665576 kJ/mol
# GULP energy per Si atom -12388.345199 kJ/mol
# Density = 2.250939 g / cm^3
# Si number density = 22.560741 Si / 1000 Ang^3
#
#
#
# Elastic Constant Matrix: (Units=GPa)
#
#
# Indices 1 2 3 4 5 6 
#
# 1 131.1101 27.5075 79.7735 0.0000 0.0000 0.0000
# 2 27.5075 48.1822 27.1802 0.0000 0.0000 0.0000
# 3 79.7735 27.1802 135.1089 0.0000 0.0000 0.0000
# 4 0.0000 0.0000 0.0000 25.5141 0.0000 0.0000
# 5 0.0000 0.0000 0.0000 0.0000 37.7036 0.0000
# 6 0.0000 0.0000 0.0000 0.0000 0.0000 23.9145
#
#
#
# Elastic Compliance Matrix: (Units=1/GPa)
#
#
# Indices 1 2 3 4 5 6 
#
# 1 0.012356 -0.003315 -0.006628 0.000000 0.000000 0.000000
# 2 -0.003315 0.024301 -0.002931 0.000000 0.000000 0.000000
# 3 -0.006628 -0.002931 0.011905 0.000000 0.000000 0.000000
# 4 0.000000 0.000000 0.000000 0.039194 0.000000 0.000000
# 5 0.000000 0.000000 0.000000 0.000000 0.026523 0.000000
# 6 0.000000 0.000000 0.000000 0.000000 0.000000 0.041816
#
#
# Mechanical properties :
#
#
# Convention : Reuss Voigt Hill
#
# Bulk Modulus (GPa) = 43.83682 64.81374 54.32528
# Shear Modulus (GPa) = 26.39263 29.42242 27.90752
#
# Velocity S-wave (km/s) = 3.42401 3.61521 3.52091
# Velocity P-wave (km/s) = 5.92491 6.79833 6.37659
#
# Compressibility (1/GPa) = 0.02281187
#
# Stress axis : x y z
#
# Youngs Moduli (GPa) = 80.93452 41.15118 83.99937
#
# Poissons Ratio (x) = 0.13641 0.55678
# Poissons Ratio (y) = 0.26828 0.24624
# Poissons Ratio (z) = 0.53647 0.12063
#
# Static dielectric constant tensor:
#      x y z
#    x 4.364010 0.000000 0.000000 
#    y 0.000000 4.180130 0.000000 
#    z 0.000000 0.000000 3.931460 
# 
# 
# High freq. dielectric constant tensor:
#      x y z
#    x 1.902670 0.000000 0.000000 
#    y 0.000000 1.874620 0.000000 
#    z 0.000000 0.000000 1.877780 
# 
# From -- ./inp_files/12941.got.cif
#   From: 2010.03.12/outbox.cif.g09.slc.cpg/sg37_7_cif.got.tgz:12941.got - 2010.04.14 02:25:27.
