data_PCOD8176294
_publ_section_title
;
Structure prediction by ZEFSAII (Michael W. Deem and Ramdas Pophale) SiO2 
 PCOD8176294
Probable space group: C M C 21
;
_chemical_formula_sum "Si O2"
_cell_formula_units_Z 64
_cell_length_a 29.383479
_cell_length_b 11.627545
_cell_length_c 8.532204
_cell_angle_alpha 90.000000
_cell_angle_beta 90.000000
_cell_angle_gamma 90.000000
_cell_volume 2915.093402
_symmetry_space_group_name_H-M "C M C 21"
_symmetry_group_IT_number 36
_symmetry_cell_setting 'orthorhombic'
loop_
_space_group_symop_operation_xyz
x,y,z
-x,-y,1/2+z
x,-y,1/2+z
-x,y,z
1/2+x,1/2+y,z
1/2-x,1/2-y,1/2+z
1/2+x,1/2-y,1/2+z
1/2-x,1/2+y,z
loop_
_atom_site_type_symbol
_atom_site_label
_atom_site_fract_x
_atom_site_fract_y
_atom_site_fract_z
Si Si1 0.805228 0.747713 0.291300
Si Si2 0.946824 0.747372 0.286138
Si Si3 0.909106 0.968353 0.458153
Si Si4 0.051364 0.201076 0.427334
Si Si5 0.378897 0.922242 0.901012
Si Si6 0.843946 0.020644 0.711261
Si Si7 0.626795 0.159385 0.752274
Si Si8 0.709521 0.692398 0.147373
O O1 0.838288 0.639460 0.307355
O O2 0.760322 0.712096 0.201318
O O3 0.792749 0.789959 0.463250
O O4 0.829720 0.846222 0.186348
O O5 0.924588 0.841832 0.403462
O O6 0.926495 0.622886 0.329105
O O7 0.000000 0.746162 0.318255
O O8 0.934958 0.769527 0.105306
O O9 0.893449 0.981018 0.638563
O O10 0.946995 0.062363 0.412958
O O11 0.858187 0.994167 0.392219
O O12 0.085351 0.257604 0.301981
O O13 0.000000 0.241275 0.388106
O O14 0.371686 0.058119 0.880417
O O15 0.381394 0.896823 0.084345
O O16 0.801129 0.941081 0.676130
O O17 0.674080 0.229331 0.745906
#
# Coordination Sequence:
#
# PCOD8176294 Si02
#       8
#     8   8   8   8   8   8   8   8
#     4  11  26  44  67  99 134 175 228 278 337 405
#     4  11  24  42  66  99 135 173 221 276 334 403
#     4  12  21  42  68  97 136 174 215 272 340 400
#     4  11  24  41  66 100 133 173 222 275 336 403
#     4  11  24  46  66  94 129 176 224 275 333 400
#     4  12  23  43  70  96 138 176 220 276 340 399
#     4  11  25  45  68  93 131 175 224 277 333 400
#     4  11  26  43  66 100 132 176 227 277 338 404
#
# _framework density 21.954699000000002
#
# number of rings (size 3 to 8) (size 9 to 14) (size 15 to 20)
#    0.000    0.750    5.000    1.875    3.500    3.000 
#    0.000    0.000    0.000    0.000    0.000    0.000 
#    0.000    0.000    0.000    0.000    0.000    0.000 
#
# Total GULP energy -396689.772241 kJ/mol
# GULP energy per Si atom -12396.555383 kJ/mol
# Density = 2.190473 g / cm^3
# Si number density = 21.954699 Si / 1000 Ang^3
#
#
#
# Elastic Constant Matrix: (Units=GPa)
#
#
# Indices 1 2 3 4 5 6 
#
# 1 109.7825 21.5564 41.3571 0.0000 0.0000 0.0000
# 2 21.5564 88.8790 19.7087 0.0000 0.0000 0.0000
# 3 41.3571 19.7087 53.4721 0.0000 0.0000 0.0000
# 4 0.0000 0.0000 0.0000 36.1606 0.0000 0.0000
# 5 0.0000 0.0000 0.0000 0.0000 37.5907 0.0000
# 6 0.0000 0.0000 0.0000 0.0000 0.0000 33.8199
#
#
#
# Elastic Compliance Matrix: (Units=1/GPa)
#
#
# Indices 1 2 3 4 5 6 
#
# 1 0.012935 -0.001001 -0.009636 0.000000 0.000000 0.000000
# 2 -0.001001 0.012330 -0.003771 0.000000 0.000000 0.000000
# 3 -0.009636 -0.003771 0.027544 0.000000 0.000000 0.000000
# 4 0.000000 0.000000 0.000000 0.027654 0.000000 0.000000
# 5 0.000000 0.000000 0.000000 0.000000 0.026602 0.000000
# 6 0.000000 0.000000 0.000000 0.000000 0.000000 0.029568
#
#
# Mechanical properties :
#
#
# Convention : Reuss Voigt Hill
#
# Bulk Modulus (GPa) = 41.67540 46.37534 44.02537
# Shear Modulus (GPa) = 28.82719 32.81499 30.82109
#
# Velocity S-wave (km/s) = 3.62751 3.87029 3.75086
# Velocity P-wave (km/s) = 6.04721 6.41414 6.23338
#
# Compressibility (1/GPa) = 0.02399497
#
# Stress axis : x y z
#
# Youngs Moduli (GPa) = 77.30712 81.10250 36.30565
#
# Poissons Ratio (x) = 0.08115 0.34984
# Poissons Ratio (y) = 0.07735 0.13690
# Poissons Ratio (z) = 0.74492 0.30582
#
# Static dielectric constant tensor:
#      x y z
#    x 3.947310 0.000000 0.000000 
#    y 0.000000 4.022220 0.000000 
#    z 0.000000 0.000000 4.025360 
# 
# 
# High freq. dielectric constant tensor:
#      x y z
#    x 1.861390 0.000000 0.000000 
#    y 0.000000 1.862300 0.000000 
#    z 0.000000 0.000000 1.877790 
# 
# From -- ./inp_files/6095.got.cif
#   From: 2010.03.12/outbox.cif.g09.slc.cpg/sg36_4_cif.got.tgz:6095.got - 2010.04.14 02:13:53.
