data_PCOD8176932
_publ_section_title
;
Structure prediction by ZEFSAII (Michael W. Deem and Ramdas Pophale) SiO2 
 PCOD8176932
Probable space group: C C C 2
;
_chemical_formula_sum "Si O2"
_cell_formula_units_Z 48
_cell_length_a 5.051768
_cell_length_b 13.778935
_cell_length_c 28.393701
_cell_angle_alpha 90.000000
_cell_angle_beta 90.000000
_cell_angle_gamma 90.000000
_cell_volume 1976.428254
_symmetry_space_group_name_H-M "C C C 2"
_symmetry_group_IT_number 37
_symmetry_cell_setting 'orthorhombic'
loop_
_space_group_symop_operation_xyz
x,y,z
-x,-y,z
-x,y,1/2+z
x,-y,1/2+z
1/2+x,1/2+y,z
1/2-x,1/2-y,z
1/2-x,1/2+y,1/2+z
1/2+x,1/2-y,1/2+z
loop_
_atom_site_type_symbol
_atom_site_label
_atom_site_fract_x
_atom_site_fract_y
_atom_site_fract_z
Si Si1 0.988328 0.890429 0.696120
Si Si2 0.128269 0.100279 0.483001
Si Si3 0.388180 0.653017 0.392140
Si Si4 0.250000 0.250000 0.122098
Si Si5 0.480242 0.888214 0.757421
Si Si6 0.250000 0.250000 0.561605
Si Si7 0.250000 0.750000 0.826616
Si Si8 0.000000 0.500000 0.415485
O O1 0.693227 0.864680 0.715711
O O2 0.093369 0.829174 0.652431
O O3 0.182813 0.873611 0.739289
O O4 0.000000 0.000000 0.677697
O O5 0.178683 0.158126 0.530149
O O6 0.382732 0.082206 0.449971
O O7 0.938089 0.160165 0.448164
O O8 0.000000 0.000000 0.499604
O O9 0.250000 0.750000 0.375313
O O10 0.647485 0.658554 0.358732
O O11 0.223253 0.552966 0.383175
O O12 0.493911 0.211155 0.090473
O O13 0.487028 0.804934 0.797513
O O14 0.500000 0.000000 0.775286
#
# Coordination Sequence:
#
# PCOD8176932 Si02
#       8
#     8   8   8   4   8   4   4   4
#     4  10  23  50  76 102 143 196 241 291 378 465
#     4  10  24  46  72  97 143 208 244 296 368 449
#     4  11  24  45  69 102 146 201 248 310 370 445
#     4  12  27  44  78 113 148 185 240 316 383 450
#     4  10  24  47  77 105 144 196 247 301 368 453
#     4  12  27  44  72 117 146 183 246 318 369 442
#     4  12  26  42  72 114 154 188 256 330 376 428
#     4  10  22  46  74  94 140 214 254 292 376 452
#
# _framework density 24.286235000000001
#
# number of rings (size 3 to 8) (size 9 to 14) (size 15 to 20)
#    0.000    1.333    0.000    4.000    8.167    2.000 
#   12.000    0.000    0.000    0.000    0.000    0.000 
#    0.000    0.000    0.000    0.000    0.000    0.000 
#
# Total GULP energy -297343.294869 kJ/mol
# GULP energy per Si atom -12389.303953 kJ/mol
# Density = 2.423096 g / cm^3
# Si number density = 24.286235 Si / 1000 Ang^3
#
#
#
# Elastic Constant Matrix: (Units=GPa)
#
#
# Indices 1 2 3 4 5 6 
#
# 1 134.4864 54.2159 50.9305 0.0000 0.0000 0.0000
# 2 54.2159 129.5308 87.7541 0.0000 0.0000 0.0000
# 3 50.9305 87.7541 125.7739 0.0000 0.0000 0.0000
# 4 0.0000 0.0000 0.0000 19.7514 0.0000 0.0000
# 5 0.0000 0.0000 0.0000 0.0000 -24.1385 0.0000
# 6 0.0000 0.0000 0.0000 0.0000 0.0000 35.0326
#
#
#
# Elastic Compliance Matrix: (Units=1/GPa)
#
#
# Indices 1 2 3 4 5 6 
#
# 1 0.009195 -0.002515 -0.001969 0.000000 0.000000 0.000000
# 2 -0.002515 0.015328 -0.009676 0.000000 0.000000 0.000000
# 3 -0.001969 -0.009676 0.015499 0.000000 0.000000 0.000000
# 4 0.000000 0.000000 0.000000 0.050629 0.000000 0.000000
# 5 0.000000 0.000000 0.000000 0.000000 -0.041428 0.000000
# 6 0.000000 0.000000 0.000000 0.000000 0.000000 0.028545
#
#
# Mechanical properties :
#
#
# Convention : Reuss Voigt Hill
#
# Bulk Modulus (GPa) = 85.45052 86.17690 85.81371
# Shear Modulus (GPa) = 45.45855 19.25514 32.35684
#
# Velocity S-wave (km/s) = 4.33110 2.81880 3.65404
# Velocity P-wave (km/s) = 7.76353 6.79375 7.29477
#
# Compressibility (1/GPa) = 0.01170268
#
# Stress axis : x y z
#
# Youngs Moduli (GPa) = 108.75349 65.23877 64.51882
#
# Poissons Ratio (x) = 0.16407 0.12702
# Poissons Ratio (y) = 0.27350 0.62431
# Poissons Ratio (z) = 0.21411 0.63128
#
# Static dielectric constant tensor:
#      x y z
#    x 4.872780 0.000000 0.000000 
#    y 0.000000 4.520950 0.000000 
#    z 0.000000 0.000000 4.134560 
# 
# 
# High freq. dielectric constant tensor:
#      x y z
#    x 1.981710 0.000000 0.000000 
#    y 0.000000 1.970780 0.000000 
#    z 0.000000 0.000000 1.950480 
# 
# From -- ./inp_files/19435.got.cif
#   From: 2010.03.12/outbox.cif.g09.slc.cpg/sg37_10_cif.got.tgz:19435.got - 2010.04.14 02:25:27.
