data_PCOD8176039
_publ_section_title
;
Structure prediction by ZEFSAII (Michael W. Deem and Ramdas Pophale) SiO2 
 PCOD8176039
Probable space group: C M C 21
;
_chemical_formula_sum "Si O2"
_cell_formula_units_Z 64
_cell_length_a 8.547682
_cell_length_b 23.588354
_cell_length_c 15.316329
_cell_angle_alpha 90.000000
_cell_angle_beta 90.000000
_cell_angle_gamma 90.000000
_cell_volume 3088.166305
_symmetry_space_group_name_H-M "C M C 21"
_symmetry_group_IT_number 36
_symmetry_cell_setting 'orthorhombic'
loop_
_space_group_symop_operation_xyz
x,y,z
-x,-y,1/2+z
x,-y,1/2+z
-x,y,z
1/2+x,1/2+y,z
1/2-x,1/2-y,1/2+z
1/2+x,1/2-y,1/2+z
1/2-x,1/2+y,z
loop_
_atom_site_type_symbol
_atom_site_label
_atom_site_fract_x
_atom_site_fract_y
_atom_site_fract_z
Si Si1 0.679663 0.381505 0.329520
Si Si2 0.183267 0.696629 0.483229
Si Si3 0.679272 0.505696 0.386031
Si Si4 0.317478 0.120511 0.648048
Si Si5 0.180780 0.890102 0.642435
Si Si6 0.318726 0.881014 0.821874
Si Si7 0.680282 0.818965 0.490308
Si Si8 0.317920 0.999426 0.072568
O O1 0.500000 0.366997 0.350280
O O2 0.711905 0.448593 0.332245
O O3 0.723229 0.359634 0.233237
O O4 0.786152 0.349845 0.399462
O O5 0.226854 0.662909 0.570564
O O6 0.235265 0.658814 0.401093
O O7 0.283517 0.753121 0.480455
O O8 0.000000 0.711013 0.479529
O O9 0.500000 0.525194 0.376404
O O10 0.790313 0.553926 0.347890
O O11 0.715718 0.492851 0.486358
O O12 0.500000 0.122385 0.669790
O O13 0.265326 0.057350 0.621618
O O14 0.221355 0.863081 0.736334
O O15 0.215796 0.844760 0.567505
O O16 0.284242 0.946821 0.633648
O O17 0.000000 0.906903 0.638121
O O18 0.500000 0.872598 0.801324
O O19 0.500000 0.827990 0.514509
O O20 0.500000 0.996509 0.046950
#
# Coordination Sequence:
#
# PCOD8176039 Si02
#       8
#     8   8   8   8   8   8   8   8
#     4  11  24  41  63  94 129 168 206 256 315 370
#     4  10  23  45  67  90 124 164 211 265 316 367
#     4  11  22  37  62  95 132 170 207 254 316 376
#     4  10  22  41  65  95 127 166 208 254 311 372
#     4  12  25  42  64  95 131 167 208 261 319 376
#     4  11  23  42  67  95 128 169 212 259 315 376
#     4  12  26  44  67  92 120 164 215 263 317 376
#     4  11  21  38  65  96 129 168 209 254 313 379
#
# _framework density 20.724271999999999
#
# number of rings (size 3 to 8) (size 9 to 14) (size 15 to 20)
#    0.000    1.000    2.500    4.500    0.000    7.000 
#    0.000    0.000    0.000    0.000    0.000    0.000 
#    0.000    0.000    0.000    0.000    0.000    0.000 
#
# Total GULP energy -397058.273428 kJ/mol
# GULP energy per Si atom -12408.071045 kJ/mol
# Density = 2.067710 g / cm^3
# Si number density = 20.724272 Si / 1000 Ang^3
#
#
#
# Elastic Constant Matrix: (Units=GPa)
#
#
# Indices 1 2 3 4 5 6 
#
# 1 62.1123 34.4766 30.0414 0.0000 0.0000 0.0000
# 2 34.4766 90.1896 28.0560 0.0000 0.0000 0.0000
# 3 30.0414 28.0560 130.5126 0.0000 0.0000 0.0000
# 4 0.0000 0.0000 0.0000 3.7634 0.0000 0.0000
# 5 0.0000 0.0000 0.0000 0.0000 33.4794 0.0000
# 6 0.0000 0.0000 0.0000 0.0000 0.0000 22.9991
#
#
#
# Elastic Compliance Matrix: (Units=1/GPa)
#
#
# Indices 1 2 3 4 5 6 
#
# 1 0.021801 -0.007258 -0.003458 0.000000 0.000000 0.000000
# 2 -0.007258 0.014299 -0.001403 0.000000 0.000000 0.000000
# 3 -0.003458 -0.001403 0.008760 0.000000 0.000000 0.000000
# 4 0.000000 0.000000 0.000000 0.265720 0.000000 0.000000
# 5 0.000000 0.000000 0.000000 0.000000 0.029869 0.000000
# 6 0.000000 0.000000 0.000000 0.000000 0.000000 0.043480
#
#
# Mechanical properties :
#
#
# Convention : Reuss Voigt Hill
#
# Bulk Modulus (GPa) = 48.49381 51.99586 50.24483
# Shear Modulus (GPa) = 12.04700 24.73108 18.38904
#
# Velocity S-wave (km/s) = 2.41363 3.45822 2.98202
# Velocity P-wave (km/s) = 5.58729 6.41011 6.01279
#
# Compressibility (1/GPa) = 0.02062119
#
# Stress axis : x y z
#
# Youngs Moduli (GPa) = 45.86921 69.93594 114.15972
#
# Poissons Ratio (x) = 0.50761 0.39475
# Poissons Ratio (y) = 0.33293 0.16018
# Poissons Ratio (z) = 0.15861 0.09813
#
# Static dielectric constant tensor:
#      x y z
#    x 3.650470 0.000000 0.000000 
#    y 0.000000 3.663950 0.000000 
#    z 0.000000 0.000000 3.857600 
# 
# 
# High freq. dielectric constant tensor:
#      x y z
#    x 1.812600 0.000000 0.000000 
#    y 0.000000 1.806020 0.000000 
#    z 0.000000 0.000000 1.825230 
# 
# From -- ./inp_files/11050.got.cif
#   From: 2010.03.12/outbox.cif.g09.slc.cpg/sg36_6_cif.got.tgz:11050.got - 2010.04.14 02:13:53.
