data_PCOD8176277
_publ_section_title
;
Structure prediction by ZEFSAII (Michael W. Deem and Ramdas Pophale) SiO2 
 PCOD8176277
Probable space group: C M C 21
;
_chemical_formula_sum "Si O2"
_cell_formula_units_Z 48
_cell_length_a 14.058763
_cell_length_b 9.599570
_cell_length_c 16.792219
_cell_angle_alpha 90.000000
_cell_angle_beta 90.000000
_cell_angle_gamma 90.000000
_cell_volume 2266.245627
_symmetry_space_group_name_H-M "C M C 21"
_symmetry_group_IT_number 36
_symmetry_cell_setting 'orthorhombic'
loop_
_space_group_symop_operation_xyz
x,y,z
-x,-y,1/2+z
x,-y,1/2+z
-x,y,z
1/2+x,1/2+y,z
1/2-x,1/2-y,1/2+z
1/2+x,1/2-y,1/2+z
1/2-x,1/2+y,z
loop_
_atom_site_type_symbol
_atom_site_label
_atom_site_fract_x
_atom_site_fract_y
_atom_site_fract_z
Si Si1 0.300584 0.775644 0.057890
Si Si2 0.500000 0.110018 0.224139
Si Si3 0.500000 0.242253 0.478141
Si Si4 0.000000 0.452609 0.385801
Si Si5 0.301120 0.049993 0.154640
Si Si6 0.196745 0.973628 0.812788
Si Si7 0.196066 0.303869 0.403218
Si Si8 0.000000 0.896460 0.316901
O O1 0.267004 0.676592 0.129342
O O2 0.298605 0.934372 0.086393
O O3 0.407229 0.735487 0.032138
O O4 0.225175 0.763226 0.986762
O O5 0.500000 0.990736 0.292165
O O6 0.409375 0.097841 0.166964
O O7 0.500000 0.259169 0.264600
O O8 0.500000 0.359886 0.410195
O O9 0.500000 0.090593 0.438699
O O10 0.910529 0.358896 0.408455
O O11 0.262270 0.990935 0.237626
O O12 0.232661 0.070000 0.884880
O O13 0.088519 0.008261 0.793465
O O14 0.207499 0.812285 0.835129
#
# Coordination Sequence:
#
# PCOD8176277 Si02
#       8
#     8   4   4   4   8   8   8   4
#     4  12  26  44  67  99 140 181 224 285 356 417
#     4  11  23  44  72  99 137 182 236 280 349 411
#     4  11  23  43  69  97 135 180 230 278 351 412
#     4  11  23  42  75 105 129 180 242 290 329 413
#     4  12  26  44  68 102 140 181 227 289 354 418
#     4  12  24  44  70 102 138 181 240 287 346 414
#     4  12  24  44  71 102 137 183 238 286 341 418
#     4  11  23  41  70 103 129 178 234 302 333 400
#
# _framework density 21.180406000000001
#
# number of rings (size 3 to 8) (size 9 to 14) (size 15 to 20)
#    0.000    0.333    3.333    7.000    0.000    1.333 
#    0.000    1.667    0.000    0.000    0.000    0.000 
#    0.000    0.000    0.000    0.000    0.000    0.000 
#
# Total GULP energy -297809.163627 kJ/mol
# GULP energy per Si atom -12408.715151 kJ/mol
# Density = 2.113220 g / cm^3
# Si number density = 21.180406 Si / 1000 Ang^3
#
#
#
# Elastic Constant Matrix: (Units=GPa)
#
#
# Indices 1 2 3 4 5 6 
#
# 1 159.4215 47.7220 37.1300 0.0000 0.0000 0.0000
# 2 47.7220 84.3232 23.5303 0.0000 0.0000 0.0000
# 3 37.1300 23.5303 84.0622 0.0000 0.0000 0.0000
# 4 0.0000 0.0000 0.0000 35.8222 0.0000 0.0000
# 5 0.0000 0.0000 0.0000 0.0000 33.7652 0.0000
# 6 0.0000 0.0000 0.0000 0.0000 0.0000 38.4818
#
#
#
# Elastic Compliance Matrix: (Units=1/GPa)
#
#
# Indices 1 2 3 4 5 6 
#
# 1 0.007994 -0.003839 -0.002456 0.000000 0.000000 0.000000
# 2 -0.003839 0.014707 -0.002421 0.000000 0.000000 0.000000
# 3 -0.002456 -0.002421 0.013659 0.000000 0.000000 0.000000
# 4 0.000000 0.000000 0.000000 0.027916 0.000000 0.000000
# 5 0.000000 0.000000 0.000000 0.000000 0.029616 0.000000
# 6 0.000000 0.000000 0.000000 0.000000 0.000000 0.025986
#
#
# Mechanical properties :
#
#
# Convention : Reuss Voigt Hill
#
# Bulk Modulus (GPa) = 52.83389 60.50793 56.67091
# Shear Modulus (GPa) = 34.81420 36.24215 35.52818
#
# Velocity S-wave (km/s) = 4.05865 4.14105 4.10006
# Velocity P-wave (km/s) = 6.85291 7.17595 7.01629
#
# Compressibility (1/GPa) = 0.01892724
#
# Stress axis : x y z
#
# Youngs Moduli (GPa) = 125.09626 67.99387 73.21351
#
# Poissons Ratio (x) = 0.26100 0.17984
# Poissons Ratio (y) = 0.48019 0.17727
# Poissons Ratio (z) = 0.30728 0.16463
#
# Static dielectric constant tensor:
#      x y z
#    x 3.977350 0.000000 0.000000 
#    y 0.000000 3.833870 0.000000 
#    z 0.000000 0.000000 3.792270 
# 
# 
# High freq. dielectric constant tensor:
#      x y z
#    x 1.847150 0.000000 0.000000 
#    y 0.000000 1.836250 0.000000 
#    z 0.000000 0.000000 1.832530 
# 
# From -- ./inp_files/14266.got.cif
#   From: 2010.03.12/outbox.cif.g09.slc.cpg/sg36_8_cif.got.tgz:14266.got - 2010.04.14 02:13:53.
