data_PCOD8176193
_publ_section_title
;
Structure prediction by ZEFSAII (Michael W. Deem and Ramdas Pophale) SiO2 
 PCOD8176193
Probable space group: C M C 21
;
_chemical_formula_sum "Si O2"
_cell_formula_units_Z 64
_cell_length_a 16.690895
_cell_length_b 21.338366
_cell_length_c 8.888697
_cell_angle_alpha 90.000000
_cell_angle_beta 90.000000
_cell_angle_gamma 90.000000
_cell_volume 3165.766559
_symmetry_space_group_name_H-M "C M C 21"
_symmetry_group_IT_number 36
_symmetry_cell_setting 'orthorhombic'
loop_
_space_group_symop_operation_xyz
x,y,z
-x,-y,1/2+z
x,-y,1/2+z
-x,y,z
1/2+x,1/2+y,z
1/2-x,1/2-y,1/2+z
1/2+x,1/2-y,1/2+z
1/2-x,1/2+y,z
loop_
_atom_site_type_symbol
_atom_site_label
_atom_site_fract_x
_atom_site_fract_y
_atom_site_fract_z
Si Si1 0.094581 0.931280 0.125000
Si Si2 0.779078 0.775594 0.487647
Si Si3 0.682623 0.478340 0.844109
Si Si4 0.792981 0.375370 0.690376
Si Si5 0.362373 0.918433 0.125785
Si Si6 0.410795 0.813080 0.929706
Si Si7 0.663152 0.962003 0.443316
Si Si8 0.783709 0.166122 0.668312
O O1 0.127366 0.863019 0.179525
O O2 0.000000 0.928147 0.135226
O O3 0.125955 0.988579 0.224275
O O4 0.122923 0.943309 0.955705
O O5 0.769848 0.827567 0.615958
O O6 0.871434 0.752119 0.485622
O O7 0.754501 0.802506 0.324433
O O8 0.722356 0.716358 0.532316
O O9 0.743307 0.428741 0.772235
O O10 0.740686 0.530367 0.919461
O O11 0.853276 0.339865 0.800649
O O12 0.848813 0.406383 0.562579
O O13 0.384835 0.943558 0.291652
O O14 0.270680 0.894402 0.128615
O O15 0.417425 0.860954 0.070871
O O16 0.374007 0.973809 0.005872
O O17 0.500000 0.799826 0.868336
#
# Coordination Sequence:
#
# PCOD8176193 Si02
#       8
#     8   8   8   8   8   8   8   8
#     4  12  25  39  59  96 140 170 201 265 335 382
#     4  11  23  40  68  93 118 169 230 259 309 382
#     4  12  20  40  65  94 127 168 215 257 311 398
#     4  12  21  39  72  93 121 170 226 257 308 396
#     4  11  20  37  65  93 125 164 205 259 316 386
#     4  11  25  45  64  94 135 165 210 283 331 357
#     4  12  18  35  69  98 118 157 219 262 301 377
#     4  11  21  39  63  91 118 167 226 262 296 380
#
# _framework density 20.216273000000001
#
# number of rings (size 3 to 8) (size 9 to 14) (size 15 to 20)
#    0.000    0.500    8.750    1.125    0.000    0.500 
#    0.000    4.375    0.000    0.000    0.000    0.000 
#    0.000    0.000    0.000    0.000    0.000    0.000 
#
# Total GULP energy -396774.923838 kJ/mol
# GULP energy per Si atom -12399.216370 kJ/mol
# Density = 2.017026 g / cm^3
# Si number density = 20.216273 Si / 1000 Ang^3
#
#
#
# Elastic Constant Matrix: (Units=GPa)
#
#
# Indices 1 2 3 4 5 6 
#
# 1 99.4127 26.6539 33.4606 0.0000 0.0000 0.0000
# 2 26.6539 90.2436 44.7317 0.0000 0.0000 0.0000
# 3 33.4606 44.7317 118.9177 0.0000 0.0000 0.0000
# 4 0.0000 0.0000 0.0000 38.3463 0.0000 0.0000
# 5 0.0000 0.0000 0.0000 0.0000 15.7444 0.0000
# 6 0.0000 0.0000 0.0000 0.0000 0.0000 15.2295
#
#
#
# Elastic Compliance Matrix: (Units=1/GPa)
#
#
# Indices 1 2 3 4 5 6 
#
# 1 0.011454 -0.002195 -0.002397 0.000000 0.000000 0.000000
# 2 -0.002195 0.014041 -0.004664 0.000000 0.000000 0.000000
# 3 -0.002397 -0.004664 0.010838 0.000000 0.000000 0.000000
# 4 0.000000 0.000000 0.000000 0.026078 0.000000 0.000000
# 5 0.000000 0.000000 0.000000 0.000000 0.063515 0.000000
# 6 0.000000 0.000000 0.000000 0.000000 0.000000 0.065662
#
#
# Mechanical properties :
#
#
# Convention : Reuss Voigt Hill
#
# Bulk Modulus (GPa) = 56.11293 57.58516 56.84905
# Shear Modulus (GPa) = 23.14366 27.44589 25.29478
#
# Velocity S-wave (km/s) = 3.38717 3.68858 3.54108
# Velocity P-wave (km/s) = 6.56611 6.83280 6.70078
#
# Compressibility (1/GPa) = 0.01782120
#
# Stress axis : x y z
#
# Youngs Moduli (GPa) = 87.30220 71.21854 92.26608
#
# Poissons Ratio (x) = 0.15631 0.22120
# Poissons Ratio (y) = 0.19161 0.43034
# Poissons Ratio (z) = 0.20930 0.33218
#
# Static dielectric constant tensor:
#      x y z
#    x 3.306770 0.000000 0.000000 
#    y 0.000000 3.897660 0.000000 
#    z 0.000000 0.000000 3.959160 
# 
# 
# High freq. dielectric constant tensor:
#      x y z
#    x 1.743910 0.000000 0.000000 
#    y 0.000000 1.803710 0.000000 
#    z 0.000000 0.000000 1.805900 
# 
# From -- ./inp_files/4919.got.cif
#   From: 2010.03.12/outbox.cif.g09.slc.cpg/sg36_3_cif.got.tgz:4919.got - 2010.04.14 02:13:53.
