data_PCOD8176297
_publ_section_title
;
Structure prediction by ZEFSAII (Michael W. Deem and Ramdas Pophale) SiO2 
 PCOD8176297
Probable space group: C M C 21
;
_chemical_formula_sum "Si O2"
_cell_formula_units_Z 56
_cell_length_a 14.613126
_cell_length_b 12.747906
_cell_length_c 13.920537
_cell_angle_alpha 90.000000
_cell_angle_beta 90.000000
_cell_angle_gamma 90.000000
_cell_volume 2593.211688
_symmetry_space_group_name_H-M "C M C 21"
_symmetry_group_IT_number 36
_symmetry_cell_setting 'orthorhombic'
loop_
_space_group_symop_operation_xyz
x,y,z
-x,-y,1/2+z
x,-y,1/2+z
-x,y,z
1/2+x,1/2+y,z
1/2-x,1/2-y,1/2+z
1/2+x,1/2-y,1/2+z
1/2-x,1/2+y,z
loop_
_atom_site_type_symbol
_atom_site_label
_atom_site_fract_x
_atom_site_fract_y
_atom_site_fract_z
Si Si1 0.604418 0.164379 0.385540
Si Si2 0.820544 0.491957 0.029356
Si Si3 0.161079 0.125652 0.970390
Si Si4 0.396675 0.530002 0.785980
Si Si5 0.232725 0.170613 0.661309
Si Si6 0.396341 0.850154 0.666831
Si Si7 0.604211 0.679704 0.180450
O O1 0.500000 0.203348 0.390253
O O2 0.666706 0.258374 0.424905
O O3 0.632851 0.134453 0.277642
O O4 0.615571 0.061478 0.450281
O O5 0.750337 0.408725 0.074738
O O6 0.883952 0.539236 0.113344
O O7 0.764244 0.584466 0.979223
O O8 0.106288 0.044755 0.901212
O O9 0.112943 0.130966 0.074022
O O10 0.500000 0.554612 0.749045
O O11 0.323418 0.613197 0.745316
O O12 0.369681 0.411792 0.756271
O O13 0.170137 0.264044 0.619263
O O14 0.328727 0.221303 0.697927
O O15 0.500000 0.811268 0.657269
O O16 0.500000 0.718665 0.195840
#
# Coordination Sequence:
#
# PCOD8176297 Si02
#       7
#     8   8   8   8   8   8   8
#     4  11  24  42  67  94 126 174 222 265 326 395
#     4  12  25  40  65  98 132 170 214 274 326 385
#     4  12  23  40  67  98 126 169 220 268 321 393
#     4  11  24  42  66  95 130 171 219 273 325 388
#     4  12  22  42  63  96 128 173 209 267 327 385
#     4  11  24  43  66  95 130 171 218 266 325 391
#     4  11  24  43  65  96 132 170 219 269 327 389
#
# _framework density 21.594843000000001
#
# number of rings (size 3 to 8) (size 9 to 14) (size 15 to 20)
#    0.000    0.571    5.714    2.143    4.000    0.571 
#    0.000    0.000    0.000    1.714    0.000    0.000 
#    0.000    0.000    0.000    0.000    0.000    0.000 
#
# Total GULP energy -347255.250769 kJ/mol
# GULP energy per Si atom -12401.973242 kJ/mol
# Density = 2.154569 g / cm^3
# Si number density = 21.594843 Si / 1000 Ang^3
#
#
#
# Elastic Constant Matrix: (Units=GPa)
#
#
# Indices 1 2 3 4 5 6 
#
# 1 111.9928 53.2252 28.6229 0.0000 0.0000 0.0000
# 2 53.2252 106.8871 40.9701 0.0000 0.0000 0.0000
# 3 28.6229 40.9701 77.2833 0.0000 0.0000 0.0000
# 4 0.0000 0.0000 0.0000 41.3742 0.0000 0.0000
# 5 0.0000 0.0000 0.0000 0.0000 28.0949 0.0000
# 6 0.0000 0.0000 0.0000 0.0000 0.0000 36.0761
#
#
#
# Elastic Compliance Matrix: (Units=1/GPa)
#
#
# Indices 1 2 3 4 5 6 
#
# 1 0.011850 -0.005294 -0.001582 0.000000 0.000000 0.000000
# 2 -0.005294 0.014107 -0.005518 0.000000 0.000000 0.000000
# 3 -0.001582 -0.005518 0.016450 0.000000 0.000000 0.000000
# 4 0.000000 0.000000 0.000000 0.024170 0.000000 0.000000
# 5 0.000000 0.000000 0.000000 0.000000 0.035594 0.000000
# 6 0.000000 0.000000 0.000000 0.000000 0.000000 0.027719
#
#
# Mechanical properties :
#
#
# Convention : Reuss Voigt Hill
#
# Bulk Modulus (GPa) = 56.75681 60.19997 58.47839
# Shear Modulus (GPa) = 31.14291 32.66539 31.90415
#
# Velocity S-wave (km/s) = 3.80168 3.89350 3.84786
# Velocity P-wave (km/s) = 6.75352 6.93902 6.84689
#
# Compressibility (1/GPa) = 0.01761903
#
# Stress axis : x y z
#
# Youngs Moduli (GPa) = 84.39120 70.88735 60.78873
#
# Poissons Ratio (x) = 0.37529 0.09617
# Poissons Ratio (y) = 0.44678 0.33541
# Poissons Ratio (z) = 0.13351 0.39113
#
# Static dielectric constant tensor:
#      x y z
#    x 3.866780 0.000000 0.000000 
#    y 0.000000 3.917570 0.000000 
#    z 0.000000 0.000000 3.957680 
# 
# 
# High freq. dielectric constant tensor:
#      x y z
#    x 1.849720 0.000000 0.000000 
#    y 0.000000 1.849110 0.000000 
#    z 0.000000 0.000000 1.842890 
# 
# From -- ./inp_files/12171.got.cif
#   From: 2010.03.12/outbox.cif.g09.slc.cpg/sg36_7_cif.got.tgz:12171.got - 2010.04.14 02:13:53.
