data_PCOD8176142
_publ_section_title
;
Structure prediction by ZEFSAII (Michael W. Deem and Ramdas Pophale) SiO2 
 PCOD8176142
Probable space group: C M C 21
;
_chemical_formula_sum "Si O2"
_cell_formula_units_Z 48
_cell_length_a 15.470610
_cell_length_b 11.840640
_cell_length_c 11.744838
_cell_angle_alpha 90.000000
_cell_angle_beta 90.000000
_cell_angle_gamma 90.000000
_cell_volume 2151.442017
_symmetry_space_group_name_H-M "C M C 21"
_symmetry_group_IT_number 36
_symmetry_cell_setting 'orthorhombic'
loop_
_space_group_symop_operation_xyz
x,y,z
-x,-y,1/2+z
x,-y,1/2+z
-x,y,z
1/2+x,1/2+y,z
1/2-x,1/2-y,1/2+z
1/2+x,1/2-y,1/2+z
1/2-x,1/2+y,z
loop_
_atom_site_type_symbol
_atom_site_label
_atom_site_fract_x
_atom_site_fract_y
_atom_site_fract_z
Si Si1 0.401143 0.582967 0.161250
Si Si2 0.599865 0.137456 0.273868
Si Si3 0.403246 0.773406 0.007571
Si Si4 0.843195 0.836369 0.121907
Si Si5 0.843801 0.602136 0.711628
Si Si6 0.101778 0.212963 0.377201
O O1 0.500000 0.622815 0.160723
O O2 0.357274 0.660161 0.060867
O O3 0.395073 0.451882 0.138096
O O4 0.366274 0.618399 0.285849
O O5 0.500000 0.098848 0.287073
O O6 0.642270 0.181631 0.392621
O O7 0.605223 0.236817 0.182625
O O8 0.657038 0.031640 0.232390
O O9 0.500000 0.743806 0.968149
O O10 0.405411 0.870083 0.104611
O O11 0.749738 0.852274 0.175697
O O12 0.839919 0.806903 0.988484
O O13 0.877601 0.663591 0.825617
O O14 0.000000 0.202984 0.407864
#
# Coordination Sequence:
#
# PCOD8176142 Si02
#       6
#     8   8   8   8   8   8
#     4   9  20  42  69  98 133 177 229 286 349 419
#     4  11  25  45  70 101 137 185 238 285 346 434
#     4   9  21  43  70  94 131 181 230 279 346 423
#     4  12  27  40  71 103 142 174 236 294 354 412
#     4  11  26  43  69  99 143 179 229 293 356 407
#     4  10  23  47  73  97 136 188 234 281 353 435
#
# _framework density 22.310616
#
# number of rings (size 3 to 8) (size 9 to 14) (size 15 to 20)
#    0.000    1.667    0.000    4.000   11.667    0.000 
#    0.000    0.000    0.000    0.000    0.000    0.000 
#    0.000    0.000    0.000    0.000    0.000    0.000 
#
# Total GULP energy -297554.407204 kJ/mol
# GULP energy per Si atom -12398.100300 kJ/mol
# Density = 2.225984 g / cm^3
# Si number density = 22.310616 Si / 1000 Ang^3
#
#
#
# Elastic Constant Matrix: (Units=GPa)
#
#
# Indices 1 2 3 4 5 6 
#
# 1 56.1774 5.1942 13.0326 0.0000 0.0000 0.0000
# 2 5.1942 167.4804 76.5226 0.0000 0.0000 0.0000
# 3 13.0326 76.5226 161.8536 0.0000 0.0000 0.0000
# 4 0.0000 0.0000 0.0000 30.2322 0.0000 0.0000
# 5 0.0000 0.0000 0.0000 0.0000 24.0243 0.0000
# 6 0.0000 0.0000 0.0000 0.0000 0.0000 5.9128
#
#
#
# Elastic Compliance Matrix: (Units=1/GPa)
#
#
# Indices 1 2 3 4 5 6 
#
# 1 0.018142 0.000134 -0.001524 0.000000 0.000000 0.000000
# 2 0.000134 0.007617 -0.003612 0.000000 0.000000 0.000000
# 3 -0.001524 -0.003612 0.008009 0.000000 0.000000 0.000000
# 4 0.000000 0.000000 0.000000 0.033077 0.000000 0.000000
# 5 0.000000 0.000000 0.000000 0.000000 0.041625 0.000000
# 6 0.000000 0.000000 0.000000 0.000000 0.000000 0.169124
#
#
# Mechanical properties :
#
#
# Convention : Reuss Voigt Hill
#
# Bulk Modulus (GPa) = 42.08193 63.89003 52.98598
# Shear Modulus (GPa) = 16.91935 31.41799 24.16867
#
# Velocity S-wave (km/s) = 2.75681 3.75668 3.29489
# Velocity P-wave (km/s) = 5.38852 6.89316 6.18675
#
# Compressibility (1/GPa) = 0.02376317
#
# Stress axis : x y z
#
# Youngs Moduli (GPa) = 55.12082 131.28437 124.86165
#
# Poissons Ratio (x) = -0.01755 0.19029
# Poissons Ratio (y) = -0.00737 0.45100
# Poissons Ratio (z) = 0.08400 0.47420
#
# Static dielectric constant tensor:
#      x y z
#    x 3.783050 0.000000 0.000000 
#    y 0.000000 3.914320 0.000000 
#    z 0.000000 0.000000 4.142300 
# 
# 
# High freq. dielectric constant tensor:
#      x y z
#    x 1.865260 0.000000 0.000000 
#    y 0.000000 1.877390 0.000000 
#    z 0.000000 0.000000 1.888110 
# 
# From -- ./inp_files/8867.got.cif
#   From: 2010.03.12/outbox.cif.g09.slc.cpg/sg36_5_cif.got.tgz:8867.got - 2010.04.14 02:13:53.
