data_PCOD8176679
_publ_section_title
;
Structure prediction by ZEFSAII (Michael W. Deem and Ramdas Pophale) SiO2 
 PCOD8176679
Probable space group: C C C 2
;
_chemical_formula_sum "Si O2"
_cell_formula_units_Z 48
_cell_length_a 11.129361
_cell_length_b 15.630594
_cell_length_c 14.775664
_cell_angle_alpha 90.000000
_cell_angle_beta 90.000000
_cell_angle_gamma 90.000000
_cell_volume 2570.352690
_symmetry_space_group_name_H-M "C C C 2"
_symmetry_group_IT_number 37
_symmetry_cell_setting 'orthorhombic'
loop_
_space_group_symop_operation_xyz
x,y,z
-x,-y,z
-x,y,1/2+z
x,-y,1/2+z
1/2+x,1/2+y,z
1/2-x,1/2-y,z
1/2-x,1/2+y,1/2+z
1/2+x,1/2-y,1/2+z
loop_
_atom_site_type_symbol
_atom_site_label
_atom_site_fract_x
_atom_site_fract_y
_atom_site_fract_z
Si Si1 0.468202 0.134047 0.260980
Si Si2 0.928513 0.720679 0.921862
Si Si3 0.613555 0.263345 0.611003
Si Si4 0.201543 0.109753 0.903596
Si Si5 0.875049 0.953949 0.094814
Si Si6 0.803157 0.524777 0.737969
O O1 0.468517 0.182195 0.357800
O O2 0.419944 0.203242 0.192040
O O3 0.373903 0.058510 0.270586
O O4 0.599352 0.101501 0.226679
O O5 0.882614 0.809664 0.878529
O O6 0.831864 0.644969 0.928393
O O7 0.971585 0.741352 0.024448
O O8 0.750000 0.250000 0.576436
O O9 0.604278 0.361660 0.641235
O O10 0.207323 0.048851 0.815736
O O11 0.155186 0.054724 0.988660
O O12 0.768134 0.006285 0.144918
O O13 0.000000 0.000000 0.107266
#
# Coordination Sequence:
#
# PCOD8176679 Si02
#       6
#     8   8   8   8   8   8
#     4  10  21  35  61  91 112 149 201 241 289 343
#     4   9  17  35  60  80 107 155 196 226 281 353
#     4  11  19  40  61  81 117 160 194 230 291 356
#     4   9  18  36  55  77 114 150 188 230 286 344
#     4  11  23  38  57  85 116 156 195 234 296 351
#     4  10  21  37  57  88 119 146 191 251 290 335
#
# _framework density 18.674479000000002
#
# number of rings (size 3 to 8) (size 9 to 14) (size 15 to 20)
#    0.000    2.000    5.000    0.000    2.333    2.000 
#    3.000    3.333    0.000    0.000    0.000    0.000 
#    0.000    0.000    0.000    0.000    0.000    0.000 
#
# Total GULP energy -297481.681335 kJ/mol
# GULP energy per Si atom -12395.070056 kJ/mol
# Density = 1.863198 g / cm^3
# Si number density = 18.674479 Si / 1000 Ang^3
#
#
#
# Elastic Constant Matrix: (Units=GPa)
#
#
# Indices 1 2 3 4 5 6 
#
# 1 56.4711 26.9060 33.7461 0.0000 0.0000 0.0000
# 2 26.9060 88.0180 40.1029 0.0000 0.0000 0.0000
# 3 33.7461 40.1029 82.2400 0.0000 0.0000 0.0000
# 4 0.0000 0.0000 0.0000 45.2232 0.0000 0.0000
# 5 0.0000 0.0000 0.0000 0.0000 -182.7849 0.0000
# 6 0.0000 0.0000 0.0000 0.0000 0.0000 23.7962
#
#
#
# Elastic Compliance Matrix: (Units=1/GPa)
#
#
# Indices 1 2 3 4 5 6 
#
# 1 0.024373 -0.003720 -0.008187 0.000000 0.000000 0.000000
# 2 -0.003720 0.015174 -0.005873 0.000000 0.000000 0.000000
# 3 -0.008187 -0.005873 0.018383 0.000000 0.000000 0.000000
# 4 0.000000 0.000000 0.000000 0.022113 0.000000 0.000000
# 5 0.000000 0.000000 0.000000 0.000000 -0.005471 0.000000
# 6 0.000000 0.000000 0.000000 0.000000 0.000000 0.042024
#
#
# Mechanical properties :
#
#
# Convention : Reuss Voigt Hill
#
# Bulk Modulus (GPa) = 44.70330 47.58213 46.14271
# Shear Modulus (GPa) = 31.32579 -14.35484 8.48547
#
# Velocity S-wave (km/s) = 4.10013 -2.77553 2.13395
# Velocity P-wave (km/s) = 6.81211 3.90687 5.55286
#
# Compressibility (1/GPa) = 0.02236971
#
# Stress axis : x y z
#
# Youngs Moduli (GPa) = 41.02864 65.90038 54.39869
#
# Poissons Ratio (x) = 0.24518 0.44536
# Poissons Ratio (y) = 0.15264 0.31948
# Poissons Ratio (z) = 0.33590 0.38703
#
# Static dielectric constant tensor:
#      x y z
#    x 3.619230 0.000000 0.000000 
#    y 0.000000 2.459200 0.000000 
#    z 0.000000 0.000000 3.537810 
# 
# 
# High freq. dielectric constant tensor:
#      x y z
#    x 1.696000 0.000000 0.000000 
#    y 0.000000 1.736670 0.000000 
#    z 0.000000 0.000000 1.724410 
# 
# From -- ./inp_files/7203.got.cif
#   From: 2010.03.12/outbox.cif.g09.slc.cpg/sg37_4_cif.got.tgz:7203.got - 2010.04.14 02:25:27.
