data_PCOD8176630
_publ_section_title
;
Structure prediction by ZEFSAII (Michael W. Deem and Ramdas Pophale) SiO2 
 PCOD8176630
Probable space group: C C C 2
;
_chemical_formula_sum "Si O2"
_cell_formula_units_Z 64
_cell_length_a 10.656692
_cell_length_b 34.006515
_cell_length_c 7.554338
_cell_angle_alpha 90.000000
_cell_angle_beta 90.000000
_cell_angle_gamma 90.000000
_cell_volume 2737.669098
_symmetry_space_group_name_H-M "C C C 2"
_symmetry_group_IT_number 37
_symmetry_cell_setting 'orthorhombic'
loop_
_space_group_symop_operation_xyz
x,y,z
-x,-y,z
-x,y,1/2+z
x,-y,1/2+z
1/2+x,1/2+y,z
1/2-x,1/2-y,z
1/2-x,1/2+y,1/2+z
1/2+x,1/2-y,1/2+z
loop_
_atom_site_type_symbol
_atom_site_label
_atom_site_fract_x
_atom_site_fract_y
_atom_site_fract_z
Si Si1 0.704979 0.932669 0.431970
Si Si2 0.762407 0.444946 0.477075
Si Si3 0.478968 0.044481 0.730879
Si Si4 0.358218 0.722086 0.441553
Si Si5 0.863138 0.776235 0.526214
Si Si6 0.355974 0.489275 0.654241
Si Si7 0.642525 0.633791 0.929324
Si Si8 0.633830 0.363606 0.015443
O O1 0.609078 0.931839 0.597859
O O2 0.618154 0.936833 0.254485
O O3 0.808557 0.966690 0.473485
O O4 0.768385 0.890429 0.410363
O O5 0.907569 0.453762 0.424206
O O6 0.722587 0.469484 0.654416
O O7 0.671349 0.461138 0.319753
O O8 0.737356 0.398607 0.509072
O O9 0.500000 0.000000 0.670562
O O10 0.250000 0.750000 0.524860
O O11 0.495941 0.739780 0.488732
O O12 0.338435 0.677456 0.514065
O O13 0.342593 0.720897 0.233132
O O14 0.750000 0.750000 0.443199
O O15 0.853746 0.819448 0.438732
O O16 0.500000 0.500000 0.635151
O O17 0.503511 0.619350 0.977316
O O18 0.664618 0.635079 0.721131
#
# Coordination Sequence:
#
# PCOD8176630 Si02
#       8
#     8   8   8   8   8   8   8   8
#     4  11  23  40  55  80 111 154 194 243 289 353
#     4  11  23  37  56  81 111 154 193 244 292 351
#     4  11  22  39  57  73 109 153 194 236 288 345
#     4   9  19  37  65  90 120 160 196 239 299 366
#     4   9  19  37  61  91 123 157 192 242 297 360
#     4  11  22  37  56  82 110 145 196 253 296 347
#     4  10  20  40  61  85 121 152 192 246 303 346
#     4  10  20  40  61  85 119 151 192 243 303 348
#
# _framework density 23.377549999999999
#
# number of rings (size 3 to 8) (size 9 to 14) (size 15 to 20)
#    0.000    1.750    3.750    1.500    1.750    0.500 
#    4.500    0.000    0.000    0.000    0.000    0.000 
#    0.000    0.000    0.000    0.000    0.000    0.000 
#
# Total GULP energy -396755.592704 kJ/mol
# GULP energy per Si atom -12398.612272 kJ/mol
# Density = 2.332434 g / cm^3
# Si number density = 23.377550 Si / 1000 Ang^3
#
#
#
# Elastic Constant Matrix: (Units=GPa)
#
#
# Indices 1 2 3 4 5 6 
#
# 1 191.5916 86.1950 5.2343 0.0000 0.0000 0.0000
# 2 86.1950 136.3202 3.5801 0.0000 0.0000 0.0000
# 3 5.2343 3.5801 27.3588 0.0000 0.0000 0.0000
# 4 0.0000 0.0000 0.0000 17.9079 0.0000 0.0000
# 5 0.0000 0.0000 0.0000 0.0000 27.7626 0.0000
# 6 0.0000 0.0000 0.0000 0.0000 0.0000 44.7325
#
#
#
# Elastic Compliance Matrix: (Units=1/GPa)
#
#
# Indices 1 2 3 4 5 6 
#
# 1 0.007312 -0.004602 -0.000797 0.000000 0.000000 0.000000
# 2 -0.004602 0.010258 -0.000462 0.000000 0.000000 0.000000
# 3 -0.000797 -0.000462 0.036764 0.000000 0.000000 0.000000
# 4 0.000000 0.000000 0.000000 0.055841 0.000000 0.000000
# 5 0.000000 0.000000 0.000000 0.000000 0.036020 0.000000
# 6 0.000000 0.000000 0.000000 0.000000 0.000000 0.022355
#
#
# Mechanical properties :
#
#
# Convention : Reuss Voigt Hill
#
# Bulk Modulus (GPa) = 23.46743 60.58773 42.02758
# Shear Modulus (GPa) = 25.71022 35.43134 30.57078
#
# Velocity S-wave (km/s) = 3.31989 3.89731 3.62013
# Velocity P-wave (km/s) = 4.97552 6.79892 5.95740
#
# Compressibility (1/GPa) = 0.04261226
#
# Stress axis : x y z
#
# Youngs Moduli (GPa) = 136.76695 97.48682 27.20040
#
# Poissons Ratio (x) = 0.44866 0.02167
# Poissons Ratio (y) = 0.62944 0.01256
# Poissons Ratio (z) = 0.10895 0.04502
#
# Static dielectric constant tensor:
#      x y z
#    x 4.522990 0.000000 0.000000 
#    y 0.000000 4.428750 0.000000 
#    z 0.000000 0.000000 4.326560 
# 
# 
# High freq. dielectric constant tensor:
#      x y z
#    x 1.936430 0.000000 0.000000 
#    y 0.000000 1.903070 0.000000 
#    z 0.000000 0.000000 1.942330 
# 
# From -- ./inp_files/3116.got.cif
#   From: 2010.03.12/outbox.cif.g09.slc.cpg/sg37_2_cif.got.tgz:3116.got - 2010.04.14 02:25:27.
