data_PCOD8176526
_publ_section_title
;
Structure prediction by ZEFSAII (Michael W. Deem and Ramdas Pophale) SiO2 
 PCOD8176526
Probable space group: C C C 2
;
_chemical_formula_sum "Si O2"
_cell_formula_units_Z 60
_cell_length_a 14.318613
_cell_length_b 21.735843
_cell_length_c 10.101031
_cell_angle_alpha 90.000000
_cell_angle_beta 90.000000
_cell_angle_gamma 90.000000
_cell_volume 3143.714829
_symmetry_space_group_name_H-M "C C C 2"
_symmetry_group_IT_number 37
_symmetry_cell_setting 'orthorhombic'
loop_
_space_group_symop_operation_xyz
x,y,z
-x,-y,z
-x,y,1/2+z
x,-y,1/2+z
1/2+x,1/2+y,z
1/2-x,1/2-y,z
1/2-x,1/2+y,1/2+z
1/2+x,1/2-y,1/2+z
loop_
_atom_site_type_symbol
_atom_site_label
_atom_site_fract_x
_atom_site_fract_y
_atom_site_fract_z
Si Si1 0.763061 0.180258 0.625000
Si Si2 0.310013 1.000000 0.722456
Si Si3 0.156576 0.087325 0.620316
Si Si4 0.921012 0.394207 0.327446
Si Si5 0.078988 0.605793 0.617465
Si Si6 0.843424 0.087325 0.824595
Si Si7 0.000000 0.000000 0.722456
Si Si8 0.736939 0.680258 0.819911
O O1 0.750000 0.250000 0.672601
O O2 0.660267 0.154150 0.641423
O O3 0.836875 0.142860 0.717142
O O4 0.798521 0.175477 0.472456
O O5 0.246968 0.044062 0.632414
O O6 0.377476 0.037886 0.818768
O O7 0.377476 0.962114 0.626143
O O8 0.246968 0.955938 0.812497
O O9 0.154983 0.115596 0.472456
O O10 0.163125 0.142860 0.727769
O O11 0.064632 0.045202 0.635869
O O12 0.965761 0.386495 0.472456
O O13 0.839733 0.345850 0.303488
O O14 1.000000 0.380360 0.222456
O O15 0.935368 0.045202 0.809042
O O16 0.750000 0.750000 0.772310
#
# Coordination Sequence:
#
# PCOD8176526 Si02
#       8
#     8   8   8   8   8   8   4   8
#     4   9  20  40  59  75 106 150 187 225 282 335
#     4   9  19  33  53  78 110 142 175 213 273 325
#     4  10  20  35  58  84 110 145 188 233 274 330
#     4  10  20  33  52  78 106 138 173 215 265 319
#     4  10  20  33  52  78 106 138 173 215 265 319
#     4  10  20  35  58  84 110 145 188 233 274 330
#     4  10  22  36  54  86 128 148 178 232 306 346
#     4   9  20  40  59  75 106 150 187 225 282 335
#
# _framework density 19.085701
#
# number of rings (size 3 to 8) (size 9 to 14) (size 15 to 20)
#    0.000    2.400    0.000    1.600    0.000   14.400 
#    2.400    0.000    0.000    0.000    0.000    0.000 
#    0.000    0.000    0.000    0.000    0.000    0.000 
#
# Total GULP energy -371882.946598 kJ/mol
# GULP energy per Si atom -12396.098220 kJ/mol
# Density = 1.904226 g / cm^3
# Si number density = 19.085701 Si / 1000 Ang^3
#
#
#
# Elastic Constant Matrix: (Units=GPa)
#
#
# Indices 1 2 3 4 5 6 
#
# 1 68.7390 30.8941 55.0916 0.0000 0.0000 0.0000
# 2 30.8941 131.1918 57.9123 0.0000 0.0000 0.0000
# 3 55.0916 57.9123 148.4325 0.0000 0.0000 0.0000
# 4 0.0000 0.0000 0.0000 21.3231 0.0000 0.0000
# 5 0.0000 0.0000 0.0000 0.0000 39.6032 0.0000
# 6 0.0000 0.0000 0.0000 0.0000 0.0000 13.0441
#
#
#
# Elastic Compliance Matrix: (Units=1/GPa)
#
#
# Indices 1 2 3 4 5 6 
#
# 1 0.021062 -0.001823 -0.007106 0.000000 0.000000 0.000000
# 2 -0.001823 0.009366 -0.002978 0.000000 0.000000 0.000000
# 3 -0.007106 -0.002978 0.010536 0.000000 0.000000 0.000000
# 4 0.000000 0.000000 0.000000 0.046898 0.000000 0.000000
# 5 0.000000 0.000000 0.000000 0.000000 0.025250 0.000000
# 6 0.000000 0.000000 0.000000 0.000000 0.000000 0.076663
#
#
# Mechanical properties :
#
#
# Convention : Reuss Voigt Hill
#
# Bulk Modulus (GPa) = 58.30503 70.68435 64.49469
# Shear Modulus (GPa) = 22.79912 28.42509 25.61210
#
# Velocity S-wave (km/s) = 3.46000 3.86338 3.66724
# Velocity P-wave (km/s) = 6.82477 7.55093 7.19702
#
# Compressibility (1/GPa) = 0.01715118
#
# Stress axis : x y z
#
# Youngs Moduli (GPa) = 47.47782 106.76720 94.90975
#
# Poissons Ratio (x) = 0.19464 0.67445
# Poissons Ratio (y) = 0.08656 0.28261
# Poissons Ratio (z) = 0.33739 0.31792
#
# Static dielectric constant tensor:
#      x y z
#    x 3.410570 0.000000 0.000000 
#    y 0.000000 3.696130 0.000000 
#    z 0.000000 0.000000 3.514870 
# 
# 
# High freq. dielectric constant tensor:
#      x y z
#    x 1.733860 0.000000 0.000000 
#    y 0.000000 1.735850 0.000000 
#    z 0.000000 0.000000 1.742320 
# 
# From -- ./inp_files/3744.got.cif
#   From: 2010.03.12/outbox.cif.g09.slc.cpg/sg37_2_cif.got.tgz:3744.got - 2010.04.14 02:25:27.
