data_PCOD8176441
_publ_section_title
;
Structure prediction by ZEFSAII (Michael W. Deem and Ramdas Pophale) SiO2 
 PCOD8176441
Probable space group: C C C 2
;
_chemical_formula_sum "Si O2"
_cell_formula_units_Z 64
_cell_length_a 27.679648
_cell_length_b 14.926992
_cell_length_c 8.792930
_cell_angle_alpha 90.000000
_cell_angle_beta 90.000000
_cell_angle_gamma 90.000000
_cell_volume 3633.009042
_symmetry_space_group_name_H-M "C C C 2"
_symmetry_group_IT_number 37
_symmetry_cell_setting 'orthorhombic'
loop_
_space_group_symop_operation_xyz
x,y,z
-x,-y,z
-x,y,1/2+z
x,-y,1/2+z
1/2+x,1/2+y,z
1/2-x,1/2-y,z
1/2-x,1/2+y,1/2+z
1/2+x,1/2-y,1/2+z
loop_
_atom_site_type_symbol
_atom_site_label
_atom_site_fract_x
_atom_site_fract_y
_atom_site_fract_z
Si Si1 0.170079 0.908292 0.794040
Si Si2 0.170079 0.908292 0.435101
Si Si3 0.448888 0.095513 0.932862
Si Si4 0.720076 0.091645 0.794389
Si Si5 0.862492 0.720333 0.934213
Si Si6 0.279924 0.091645 0.934752
Si Si7 0.948888 0.404487 0.796280
Si Si8 0.637508 0.779667 0.294928
O O1 0.167454 0.918120 0.614571
O O2 0.225099 0.890796 0.848195
O O3 0.138402 0.823553 0.852208
O O4 0.149217 0.000000 0.864571
O O5 0.138402 0.823553 0.376934
O O6 0.225099 0.890796 0.380947
O O7 0.410487 0.169884 0.877453
O O8 0.500000 0.125905 0.864571
O O9 0.433120 1.000000 0.864571
O O10 0.452026 0.087826 0.114571
O O11 0.717070 0.083965 0.614571
O O12 0.685653 0.170745 0.855689
O O13 0.700073 1.000000 0.864571
O O14 0.814347 0.670745 0.873452
O O15 0.861025 0.719351 0.114571
O O16 0.910487 0.330116 0.851689
#
# Coordination Sequence:
#
# PCOD8176441 Si02
#       8
#     8   8   8   8   8   8   8   8
#     4   9  17  30  46  65  90 119 151 184 218 257
#     4   9  17  30  46  65  90 119 151 184 218 257
#     4  10  19  32  49  69  93 118 145 179 221 266
#     4   9  16  27  44  66  92 120 148 179 216 260
#     4   9  17  29  47  67  88 119 153 181 215 264
#     4   9  16  27  44  66  92 120 148 179 216 260
#     4  10  19  32  49  69  93 118 145 179 221 266
#     4   9  17  29  47  67  88 119 153 181 215 264
#
# _framework density 17.616250000000001
#
# number of rings (size 3 to 8) (size 9 to 14) (size 15 to 20)
#    0.000    2.750    0.000    3.000    0.000    3.000 
#    0.000    5.000    0.000    6.750    0.000    5.250 
#    0.000    0.000    0.000    0.000    0.000    0.000 
#
# Total GULP energy -396659.242644 kJ/mol
# GULP energy per Si atom -12395.601333 kJ/mol
# Density = 1.757615 g / cm^3
# Si number density = 17.616250 Si / 1000 Ang^3
#
#
#
# Elastic Constant Matrix: (Units=GPa)
#
#
# Indices 1 2 3 4 5 6 
#
# 1 93.4157 84.5475 21.9868 0.0000 0.0000 0.0000
# 2 84.5475 178.0630 25.2256 0.0000 0.0000 0.0000
# 3 21.9868 25.2256 29.4974 0.0000 0.0000 0.0000
# 4 0.0000 0.0000 0.0000 25.7031 0.0000 0.0000
# 5 0.0000 0.0000 0.0000 0.0000 -1.0450 0.0000
# 6 0.0000 0.0000 0.0000 0.0000 0.0000 30.3926
#
#
#
# Elastic Compliance Matrix: (Units=1/GPa)
#
#
# Indices 1 2 3 4 5 6 
#
# 1 0.020240 -0.008503 -0.007815 0.000000 0.000000 0.000000
# 2 -0.008503 0.009963 -0.002182 0.000000 0.000000 0.000000
# 3 -0.007815 -0.002182 0.041592 0.000000 0.000000 0.000000
# 4 0.000000 0.000000 0.000000 0.038906 0.000000 0.000000
# 5 0.000000 0.000000 0.000000 0.000000 -0.956972 0.000000
# 6 0.000000 0.000000 0.000000 0.000000 0.000000 0.032903
#
#
# Mechanical properties :
#
#
# Convention : Reuss Voigt Hill
#
# Bulk Modulus (GPa) = 28.73951 62.72176 45.73064
# Shear Modulus (GPa) = -6.53791 22.29124 7.87667
#
# Velocity S-wave (km/s) = -1.92856 3.56108 2.11683
# Velocity P-wave (km/s) = 3.37498 7.25191 5.65600
#
# Compressibility (1/GPa) = 0.03479530
#
# Stress axis : x y z
#
# Youngs Moduli (GPa) = 49.40645 100.37562 24.04313
#
# Poissons Ratio (x) = 0.85353 0.18789
# Poissons Ratio (y) = 0.42012 0.05245
# Poissons Ratio (z) = 0.38610 0.21898
#
# Static dielectric constant tensor:
#      x y z
#    x 3.290860 0.000000 0.000000 
#    y 0.000000 3.616580 0.000000 
#    z 0.000000 0.000000 3.026010 
# 
# 
# High freq. dielectric constant tensor:
#      x y z
#    x 1.661020 0.000000 0.000000 
#    y 0.000000 1.686370 0.000000 
#    z 0.000000 0.000000 1.656430 
# 
# From -- ./inp_files/3816.got.cif
#   From: 2010.03.12/outbox.cif.g09.slc.cpg/sg37_2_cif.got.tgz:3816.got - 2010.04.14 02:25:27.
