data_PCOD8176861
_publ_section_title
;
Structure prediction by ZEFSAII (Michael W. Deem and Ramdas Pophale) SiO2 
 PCOD8176861
Probable space group: C C C 2
;
_chemical_formula_sum "Si O2"
_cell_formula_units_Z 48
_cell_length_a 8.636704
_cell_length_b 18.483475
_cell_length_c 12.701130
_cell_angle_alpha 90.000000
_cell_angle_beta 90.000000
_cell_angle_gamma 90.000000
_cell_volume 2027.561430
_symmetry_space_group_name_H-M "C C C 2"
_symmetry_group_IT_number 37
_symmetry_cell_setting 'orthorhombic'
loop_
_space_group_symop_operation_xyz
x,y,z
-x,-y,z
-x,y,1/2+z
x,-y,1/2+z
1/2+x,1/2+y,z
1/2-x,1/2-y,z
1/2-x,1/2+y,1/2+z
1/2+x,1/2-y,1/2+z
loop_
_atom_site_type_symbol
_atom_site_label
_atom_site_fract_x
_atom_site_fract_y
_atom_site_fract_z
Si Si1 0.923884 0.893168 0.125000
Si Si2 0.760540 0.397221 0.195858
Si Si3 0.500000 0.500000 0.448070
Si Si4 0.768772 0.457648 0.798644
Si Si5 0.171232 0.638742 0.970170
Si Si6 0.750000 0.250000 0.306953
Si Si7 0.505524 0.281290 0.971202
O O1 0.914981 0.941336 0.020334
O O2 0.773745 0.910593 0.195080
O O3 0.075259 0.909621 0.196018
O O4 0.929052 0.811034 0.080237
O O5 0.832646 0.462691 0.266128
O O6 0.818454 0.408198 0.076550
O O7 0.809004 0.317002 0.235047
O O8 0.376567 0.460974 0.375985
O O9 0.886691 0.410940 0.871231
O O10 0.337555 0.675457 0.944437
O O11 0.039274 0.697436 0.989906
O O12 0.613457 0.286019 0.374663
#
# Coordination Sequence:
#
# PCOD8176861 Si02
#       7
#     8   8   4   8   8   4   8
#     4  11  19  34  58  96 128 154 207 268 324 363
#     4  11  20  35  60  94 119 163 209 262 318 382
#     4  12  16  30  54  96 136 144 206 276 318 354
#     4  12  19  33  62  96 123 163 210 271 315 376
#     4  10  22  41  63  90 126 162 209 263 321 380
#     4  12  24  40  64  88 124 170 212 252 326 396
#     4  10  22  41  61  88 127 166 204 260 320 388
#
# _framework density 23.673756999999998
#
# number of rings (size 3 to 8) (size 9 to 14) (size 15 to 20)
#    0.000    1.000    6.667    4.000    0.000    0.000 
#    0.000    7.500    0.000    2.000    0.000    0.000 
#    0.000    0.000    0.000    0.000    0.000    0.000 
#
# Total GULP energy -297509.107677 kJ/mol
# GULP energy per Si atom -12396.212820 kJ/mol
# Density = 2.361987 g / cm^3
# Si number density = 23.673757 Si / 1000 Ang^3
#
#
#
# Elastic Constant Matrix: (Units=GPa)
#
#
# Indices 1 2 3 4 5 6 
#
# 1 16.4495 14.3796 13.9418 0.0000 0.0000 0.0000
# 2 14.3796 181.8675 82.5911 0.0000 0.0000 0.0000
# 3 13.9418 82.5911 137.9284 0.0000 0.0000 0.0000
# 4 0.0000 0.0000 0.0000 59.9191 0.0000 0.0000
# 5 0.0000 0.0000 0.0000 0.0000 8.8035 0.0000
# 6 0.0000 0.0000 0.0000 0.0000 0.0000 26.7457
#
#
#
# Elastic Compliance Matrix: (Units=1/GPa)
#
#
# Indices 1 2 3 4 5 6 
#
# 1 0.067725 -0.003085 -0.004998 0.000000 0.000000 0.000000
# 2 -0.003085 0.007693 -0.004295 0.000000 0.000000 0.000000
# 3 -0.004998 -0.004295 0.010327 0.000000 0.000000 0.000000
# 4 0.000000 0.000000 0.000000 0.016689 0.000000 0.000000
# 5 0.000000 0.000000 0.000000 0.000000 0.113591 0.000000
# 6 0.000000 0.000000 0.000000 0.000000 0.000000 0.037389
#
#
# Mechanical properties :
#
#
# Convention : Reuss Voigt Hill
#
# Bulk Modulus (GPa) = 16.39638 62.00782 39.20210
# Shear Modulus (GPa) = 16.75043 34.11586 25.43314
#
# Velocity S-wave (km/s) = 2.66287 3.80028 3.28124
# Velocity P-wave (km/s) = 4.04914 6.74579 5.56333
#
# Compressibility (1/GPa) = 0.06098907
#
# Stress axis : x y z
#
# Youngs Moduli (GPa) = 14.76557 129.99361 96.83409
#
# Poissons Ratio (x) = 0.40101 0.48402
# Poissons Ratio (y) = 0.04555 0.41586
# Poissons Ratio (z) = 0.07381 0.55826
#
# Static dielectric constant tensor:
#      x y z
#    x 3.796250 0.000000 0.000000 
#    y 0.000000 4.705880 0.000000 
#    z 0.000000 0.000000 4.399390 
# 
# 
# High freq. dielectric constant tensor:
#      x y z
#    x 1.880910 0.000000 0.000000 
#    y 0.000000 1.949370 0.000000 
#    z 0.000000 0.000000 1.950410 
# 
# From -- ./inp_files/7220.got.cif
#   From: 2010.03.12/outbox.cif.g09.slc.cpg/sg37_4_cif.got.tgz:7220.got - 2010.04.14 02:25:27.
