data_PCOD8176697
_publ_section_title
;
Structure prediction by ZEFSAII (Michael W. Deem and Ramdas Pophale) SiO2 
 PCOD8176697
Probable space group: C C C 2
;
_chemical_formula_sum "Si O2"
_cell_formula_units_Z 48
_cell_length_a 10.033899
_cell_length_b 29.821035
_cell_length_c 8.493112
_cell_angle_alpha 90.000000
_cell_angle_beta 90.000000
_cell_angle_gamma 90.000000
_cell_volume 2541.319617
_symmetry_space_group_name_H-M "C C C 2"
_symmetry_group_IT_number 37
_symmetry_cell_setting 'orthorhombic'
loop_
_space_group_symop_operation_xyz
x,y,z
-x,-y,z
-x,y,1/2+z
x,-y,1/2+z
1/2+x,1/2+y,z
1/2-x,1/2-y,z
1/2-x,1/2+y,1/2+z
1/2+x,1/2-y,1/2+z
loop_
_atom_site_type_symbol
_atom_site_label
_atom_site_fract_x
_atom_site_fract_y
_atom_site_fract_z
Si Si1 0.854974 0.383333 0.965520
Si Si2 0.640508 0.786959 0.335686
Si Si3 0.356317 0.547977 0.835902
Si Si4 0.856317 0.047977 0.465909
Si Si5 0.854974 0.616667 0.836291
Si Si6 0.359492 0.213041 0.966125
O O1 0.818024 0.332323 0.923876
O O2 0.748965 0.414893 0.883414
O O3 0.000000 0.396029 0.900906
O O4 0.850874 0.390642 0.150905
O O5 0.750000 0.750000 0.374878
O O6 0.628502 0.796982 0.150905
O O7 0.500000 0.768886 0.400905
O O8 0.366692 0.544445 0.650905
O O9 0.500000 0.562185 0.900906
O O10 0.309562 0.500000 0.900905
O O11 0.751035 0.085107 0.418396
O O12 0.818024 0.667677 0.877935
O O13 0.250000 0.250000 0.926933
#
# Coordination Sequence:
#
# PCOD8176697 Si02
#       6
#     8   8   8   8   8   8
#     4  11  22  38  59  84 114 149 188 232 281 332
#     4  10  21  37  57  82 112 146 186 231 279 332
#     4  11  22  39  60  85 115 148 187 230 279 332
#     4  11  22  39  60  85 115 148 187 230 279 332
#     4  11  22  38  59  84 114 149 188 232 281 332
#     4  10  21  37  57  82 112 146 186 231 279 332
#
# _framework density 18.887823999999998
#
# number of rings (size 3 to 8) (size 9 to 14) (size 15 to 20)
#    0.000    1.333    0.000   10.000    0.000    4.667 
#    0.000    6.667    0.000    0.000    0.000    0.000 
#    0.000    0.000    0.000    0.000    0.000    0.000 
#
# Total GULP energy -297720.138720 kJ/mol
# GULP energy per Si atom -12405.005780 kJ/mol
# Density = 1.884483 g / cm^3
# Si number density = 18.887824 Si / 1000 Ang^3
#
#
#
# Elastic Constant Matrix: (Units=GPa)
#
#
# Indices 1 2 3 4 5 6 
#
# 1 125.4965 86.5901 46.0143 0.0000 0.0000 0.0000
# 2 86.5901 94.1519 35.7516 0.0000 0.0000 0.0000
# 3 46.0143 35.7516 154.7891 0.0000 0.0000 0.0000
# 4 0.0000 0.0000 0.0000 38.8424 0.0000 0.0000
# 5 0.0000 0.0000 0.0000 0.0000 37.5988 0.0000
# 6 0.0000 0.0000 0.0000 0.0000 0.0000 35.4440
#
#
#
# Elastic Compliance Matrix: (Units=1/GPa)
#
#
# Indices 1 2 3 4 5 6 
#
# 1 0.022402 -0.019811 -0.002084 0.000000 0.000000 0.000000
# 2 -0.019811 0.029163 -0.000846 0.000000 0.000000 0.000000
# 3 -0.002084 -0.000846 0.007275 0.000000 0.000000 0.000000
# 4 0.000000 0.000000 0.000000 0.025745 0.000000 0.000000
# 5 0.000000 0.000000 0.000000 0.000000 0.026597 0.000000
# 6 0.000000 0.000000 0.000000 0.000000 0.000000 0.028213
#
#
# Mechanical properties :
#
#
# Convention : Reuss Voigt Hill
#
# Bulk Modulus (GPa) = 74.86624 79.01662 76.94143
# Shear Modulus (GPa) = 26.40893 36.11582 31.26238
#
# Velocity S-wave (km/s) = 3.74331 4.37753 4.07278
# Velocity P-wave (km/s) = 7.64241 8.21437 7.93355
#
# Compressibility (1/GPa) = 0.01335715
#
# Stress axis : x y z
#
# Youngs Moduli (GPa) = 44.63933 34.29032 137.45196
#
# Poissons Ratio (x) = 0.67934 0.28639
# Poissons Ratio (y) = 0.88437 0.11633
# Poissons Ratio (z) = 0.09301 0.02902
#
# Static dielectric constant tensor:
#      x y z
#    x 3.545790 0.000000 0.000000 
#    y 0.000000 3.473930 0.000000 
#    z 0.000000 0.000000 3.720640 
# 
# 
# High freq. dielectric constant tensor:
#      x y z
#    x 1.740750 0.000000 0.000000 
#    y 0.000000 1.736660 0.000000 
#    z 0.000000 0.000000 1.760970 
# 
# From -- ./inp_files/2384.got.cif
#   From: 2010.03.12/outbox.cif.g09.slc.cpg/sg37_2_cif.got.tgz:2384.got - 2010.04.14 02:25:27.
