data_PCOD8176436
_publ_section_title
;
Structure prediction by ZEFSAII (Michael W. Deem and Ramdas Pophale) SiO2 
 PCOD8176436
Probable space group: C C C 2
;
_chemical_formula_sum "Si O2"
_cell_formula_units_Z 56
_cell_length_a 5.083905
_cell_length_b 25.812858
_cell_length_c 23.061800
_cell_angle_alpha 90.000000
_cell_angle_beta 90.000000
_cell_angle_gamma 90.000000
_cell_volume 3026.402732
_symmetry_space_group_name_H-M "C C C 2"
_symmetry_group_IT_number 37
_symmetry_cell_setting 'orthorhombic'
loop_
_space_group_symop_operation_xyz
x,y,z
-x,-y,z
-x,y,1/2+z
x,-y,1/2+z
1/2+x,1/2+y,z
1/2-x,1/2-y,z
1/2-x,1/2+y,1/2+z
1/2+x,1/2-y,1/2+z
loop_
_atom_site_type_symbol
_atom_site_label
_atom_site_fract_x
_atom_site_fract_y
_atom_site_fract_z
Si Si1 0.262604 0.192962 0.195550
Si Si2 0.236815 0.306733 0.328876
Si Si3 0.241929 0.465623 0.612162
Si Si4 0.948374 0.061078 0.427728
Si Si5 0.250071 0.871322 0.328996
Si Si6 0.949245 0.559204 0.488336
Si Si7 0.754065 0.372423 0.195589
O O1 0.250000 0.250000 0.165857
O O2 0.346779 0.200487 0.262130
O O3 0.487810 0.155664 0.168880
O O4 0.982171 0.167205 0.187421
O O5 0.250000 0.250000 0.359008
O O6 0.525742 0.328834 0.335293
O O7 0.015650 0.345349 0.355318
O O8 0.500000 0.500000 0.598169
O O9 0.144602 0.435975 0.554510
O O10 0.313269 0.424302 0.660916
O O11 0.000000 0.500000 0.635623
O O12 0.842957 0.078342 0.364830
O O13 0.736595 0.083146 0.475154
O O14 0.228354 0.085616 0.446868
O O15 0.000000 0.000000 0.427904
O O16 0.290061 0.889177 0.262615
O O17 0.000000 0.500000 0.470455
#
# Coordination Sequence:
#
# PCOD8176436 Si02
#       7
#     8   8   8   8   8   8   8
#     4   9  17  31  50  72 100 131 166 207 243 284
#     4   9  17  30  48  70  98 130 164 201 237 282
#     4  11  21  35  53  73 101 133 167 206 243 288
#     4  10  19  32  50  72  98 127 160 201 240 282
#     4  10  19  31  48  75 104 128 158 195 247 305
#     4   9  18  33  51  69  90 124 173 211 232 265
#     4  10  20  32  49  77 105 131 163 197 249 308
#
# _framework density 18.503814999999999
#
# number of rings (size 3 to 8) (size 9 to 14) (size 15 to 20)
#    0.000    2.286    0.000    4.714    0.000    4.000 
#    0.000    2.143    0.000    0.000    0.000   20.000 
#    0.000    0.000    0.000    0.000    0.000    0.000 
#
# Total GULP energy -346972.487955 kJ/mol
# GULP energy per Si atom -12391.874570 kJ/mol
# Density = 1.846170 g / cm^3
# Si number density = 18.503815 Si / 1000 Ang^3
#
#
#
# Elastic Constant Matrix: (Units=GPa)
#
#
# Indices 1 2 3 4 5 6 
#
# 1 104.4081 22.9135 30.0299 0.0000 0.0000 0.0000
# 2 22.9135 56.9011 37.5286 0.0000 0.0000 0.0000
# 3 30.0299 37.5286 71.0884 0.0000 0.0000 0.0000
# 4 0.0000 0.0000 0.0000 4.3735 0.0000 0.0000
# 5 0.0000 0.0000 0.0000 0.0000 20.3150 0.0000
# 6 0.0000 0.0000 0.0000 0.0000 0.0000 27.8244
#
#
#
# Elastic Compliance Matrix: (Units=1/GPa)
#
#
# Indices 1 2 3 4 5 6 
#
# 1 0.011065 -0.002106 -0.003562 0.000000 0.000000 0.000000
# 2 -0.002106 0.027363 -0.013556 0.000000 0.000000 0.000000
# 3 -0.003562 -0.013556 0.022728 0.000000 0.000000 0.000000
# 4 0.000000 0.000000 0.000000 0.228652 0.000000 0.000000
# 5 0.000000 0.000000 0.000000 0.000000 0.049225 0.000000
# 6 0.000000 0.000000 0.000000 0.000000 0.000000 0.035940
#
#
# Mechanical properties :
#
#
# Convention : Reuss Voigt Hill
#
# Bulk Modulus (GPa) = 44.03804 45.92683 44.98243
# Shear Modulus (GPa) = 11.87680 19.96428 15.92054
#
# Velocity S-wave (km/s) = 2.53624 3.28827 2.93643
# Velocity P-wave (km/s) = 5.69454 6.26825 5.98827
#
# Compressibility (1/GPa) = 0.02270764
#
# Stress axis : x y z
#
# Youngs Moduli (GPa) = 90.37861 36.54580 43.99881
#
# Poissons Ratio (x) = 0.07697 0.15673
# Poissons Ratio (y) = 0.19036 0.59643
# Poissons Ratio (z) = 0.32194 0.49540
#
# Static dielectric constant tensor:
#      x y z
#    x 3.854590 0.000000 0.000000 
#    y 0.000000 3.238580 0.000000 
#    z 0.000000 0.000000 3.084900 
# 
# 
# High freq. dielectric constant tensor:
#      x y z
#    x 1.750030 0.000000 0.000000 
#    y 0.000000 1.692580 0.000000 
#    z 0.000000 0.000000 1.674580 
# 
# From -- ./inp_files/18126.got.cif
#   From: 2010.03.12/outbox.cif.g09.slc.cpg/sg37_10_cif.got.tgz:18126.got - 2010.04.14 02:25:27.
