data_PCOD8176505
_publ_section_title
;
Structure prediction by ZEFSAII (Michael W. Deem and Ramdas Pophale) SiO2 
 PCOD8176505
Probable space group: C C C 2
;
_chemical_formula_sum "Si O2"
_cell_formula_units_Z 60
_cell_length_a 5.379484
_cell_length_b 16.554724
_cell_length_c 30.676299
_cell_angle_alpha 90.000000
_cell_angle_beta 90.000000
_cell_angle_gamma 90.000000
_cell_volume 2731.904584
_symmetry_space_group_name_H-M "C C C 2"
_symmetry_group_IT_number 37
_symmetry_cell_setting 'orthorhombic'
loop_
_space_group_symop_operation_xyz
x,y,z
-x,-y,z
-x,y,1/2+z
x,-y,1/2+z
1/2+x,1/2+y,z
1/2-x,1/2-y,z
1/2-x,1/2+y,1/2+z
1/2+x,1/2-y,1/2+z
loop_
_atom_site_type_symbol
_atom_site_label
_atom_site_fract_x
_atom_site_fract_y
_atom_site_fract_z
Si Si1 0.248341 0.154925 0.638710
Si Si2 0.499471 0.300991 0.846392
Si Si3 0.144838 0.079512 0.279032
Si Si4 0.247588 0.655960 0.690109
Si Si5 0.243704 0.091095 0.544668
Si Si6 0.758016 0.408070 0.508907
Si Si7 0.151383 0.078726 0.912438
Si Si8 0.000000 0.500000 0.345266
O O1 0.250000 0.250000 0.626372
O O2 0.504384 0.131007 0.662712
O O3 0.232087 0.098007 0.596612
O O4 0.006808 0.131615 0.667156
O O5 0.250000 0.250000 0.850065
O O6 0.466468 0.355055 0.802406
O O7 0.525119 0.352940 0.891317
O O8 0.750000 0.250000 0.841987
O O9 0.278910 0.112457 0.236293
O O10 0.343201 0.059964 0.315957
O O11 0.000000 0.000000 0.264707
O O12 0.250000 0.750000 0.699564
O O13 0.496867 0.135353 0.528590
O O14 0.997426 0.134498 0.524931
O O15 0.251738 0.999650 0.526985
O O16 0.785449 0.396241 0.457062
O O17 0.347368 0.060853 0.874936
O O18 0.000000 0.000000 0.925554
#
# Coordination Sequence:
#
# PCOD8176505 Si02
#       8
#     8   8   8   8   8   8   8   4
#     4  10  22  43  67  91 130 177 215 264 343 414
#     4  12  27  45  68 101 138 185 232 281 340 408
#     4  12  26  45  68 103 136 180 233 288 339 404
#     4  10  24  44  67  95 133 179 219 273 341 409
#     4  10  19  39  61  97 119 160 220 264 327 402
#     4  10  22  37  65  93 127 166 213 270 338 385
#     4  12  23  43  71  95 139 185 229 282 337 414
#     4  12  22  42  70 102 136 180 232 284 344 388
#
# _framework density 21.962698
#
# number of rings (size 3 to 8) (size 9 to 14) (size 15 to 20)
#    0.000    1.067    4.000    2.800    1.867    1.600 
#    7.200    2.000    0.000    0.000    0.000    0.000 
#    0.000    0.000    0.000    0.000    0.000    0.000 
#
# Total GULP energy -371926.876915 kJ/mol
# GULP energy per Si atom -12397.562564 kJ/mol
# Density = 2.191271 g / cm^3
# Si number density = 21.962698 Si / 1000 Ang^3
#
#
#
# Elastic Constant Matrix: (Units=GPa)
#
#
# Indices 1 2 3 4 5 6 
#
# 1 183.5678 21.0012 66.3775 0.0000 0.0000 0.0000
# 2 21.0012 55.0294 41.0776 0.0000 0.0000 0.0000
# 3 66.3775 41.0776 187.6847 0.0000 0.0000 0.0000
# 4 0.0000 0.0000 0.0000 -2.1280 0.0000 0.0000
# 5 0.0000 0.0000 0.0000 0.0000 56.9016 0.0000
# 6 0.0000 0.0000 0.0000 0.0000 0.0000 17.9920
#
#
#
# Elastic Compliance Matrix: (Units=1/GPa)
#
#
# Indices 1 2 3 4 5 6 
#
# 1 0.006282 -0.000883 -0.002028 0.000000 0.000000 0.000000
# 2 -0.000883 0.021845 -0.004469 0.000000 0.000000 0.000000
# 3 -0.002028 -0.004469 0.007024 0.000000 0.000000 0.000000
# 4 0.000000 0.000000 0.000000 -0.469928 0.000000 0.000000
# 5 0.000000 0.000000 0.000000 0.000000 0.017574 0.000000
# 6 0.000000 0.000000 0.000000 0.000000 0.000000 0.055580
#
#
# Mechanical properties :
#
#
# Convention : Reuss Voigt Hill
#
# Bulk Modulus (GPa) = 49.04447 75.91050 62.47748
# Shear Modulus (GPa) = -14.70307 34.40817 9.85255
#
# Velocity S-wave (km/s) = -2.59019 3.96240 2.12032
# Velocity P-wave (km/s) = 3.66522 7.45470 5.87394
#
# Compressibility (1/GPa) = 0.02038966
#
# Stress axis : x y z
#
# Youngs Moduli (GPa) = 159.18219 45.77723 142.37899
#
# Poissons Ratio (x) = 0.04044 0.28881
# Poissons Ratio (y) = 0.14061 0.63625
# Poissons Ratio (z) = 0.32289 0.20456
#
# Static dielectric constant tensor:
#      x y z
#    x 5.211550 0.000000 0.000000 
#    y 0.000000 3.807630 0.000000 
#    z 0.000000 0.000000 3.898080 
# 
# 
# High freq. dielectric constant tensor:
#      x y z
#    x 1.885000 0.000000 0.000000 
#    y 0.000000 1.836550 0.000000 
#    z 0.000000 0.000000 1.872300 
# 
# From -- ./inp_files/19506.got.cif
#   From: 2010.03.12/outbox.cif.g09.slc.cpg/sg37_10_cif.got.tgz:19506.got - 2010.04.14 02:25:27.
