data_PCOD8176841
_publ_section_title
;
Structure prediction by ZEFSAII (Michael W. Deem and Ramdas Pophale) SiO2 
 PCOD8176841
Probable space group: C C C 2
;
_chemical_formula_sum "Si O2"
_cell_formula_units_Z 64
_cell_length_a 20.621436
_cell_length_b 15.040400
_cell_length_c 9.532499
_cell_angle_alpha 90.000000
_cell_angle_beta 90.000000
_cell_angle_gamma 90.000000
_cell_volume 2956.548853
_symmetry_space_group_name_H-M "C C C 2"
_symmetry_group_IT_number 37
_symmetry_cell_setting 'orthorhombic'
loop_
_space_group_symop_operation_xyz
x,y,z
-x,-y,z
-x,y,1/2+z
x,-y,1/2+z
1/2+x,1/2+y,z
1/2-x,1/2-y,z
1/2-x,1/2+y,1/2+z
1/2+x,1/2-y,1/2+z
loop_
_atom_site_type_symbol
_atom_site_label
_atom_site_fract_x
_atom_site_fract_y
_atom_site_fract_z
Si Si1 0.934876 0.946110 0.295820
Si Si2 0.572663 0.028116 0.545123
Si Si3 0.449399 0.791467 0.705594
Si Si4 0.341389 0.989173 0.281953
Si Si5 0.240162 0.653223 0.417342
Si Si6 0.510796 0.293413 0.435459
Si Si7 0.809860 0.314158 0.713527
Si Si8 0.622020 0.586859 0.988466
O O1 0.953165 0.857619 0.382790
O O2 0.885563 0.997575 0.397625
O O3 0.902034 0.926025 0.147226
O O4 0.000000 0.000000 0.263273
O O5 0.566877 0.115601 0.638072
O O6 0.622280 0.967126 0.635462
O O7 0.500000 0.000000 0.522226
O O8 0.603552 0.033623 0.393887
O O9 0.490654 0.728567 0.600383
O O10 0.495977 0.796066 0.843688
O O11 0.376024 0.757419 0.742643
O O12 0.311545 0.089615 0.293269
O O13 0.283902 0.917289 0.301878
O O14 0.250000 0.750000 0.344694
O O15 0.190556 0.664657 0.546616
O O16 0.304415 0.616599 0.491716
O O17 0.580795 0.336933 0.407431
O O18 0.750000 0.250000 0.759729
#
# Coordination Sequence:
#
# PCOD8176841 Si02
#       8
#     8   8   8   8   8   8   8   8
#     4  10  22  39  60  92 136 173 215 273 334 403
#     4  11  26  42  69  94 136 172 221 280 354 394
#     4  11  24  40  65  97 127 178 213 286 332 406
#     4  11  23  45  67 102 131 177 230 286 336 419
#     4  11  24  43  72  93 136 179 232 278 337 412
#     4  11  22  39  63  95 135 165 228 269 333 401
#     4  10  23  44  70  95 136 184 228 275 349 416
#     4  11  24  38  65  96 130 183 219 272 342 407
#
# _framework density 21.64686
#
# number of rings (size 3 to 8) (size 9 to 14) (size 15 to 20)
#    0.000    1.250    3.750    3.000    8.750    0.000 
#    0.000    0.625    2.750    0.000    0.000    0.000 
#    0.000    0.000    0.000    0.000    0.000    0.000 
#
# Total GULP energy -396454.045426 kJ/mol
# GULP energy per Si atom -12389.188920 kJ/mol
# Density = 2.159759 g / cm^3
# Si number density = 21.646860 Si / 1000 Ang^3
#
#
#
# Elastic Constant Matrix: (Units=GPa)
#
#
# Indices 1 2 3 4 5 6 
#
# 1 67.7308 26.8208 30.2895 0.0000 0.0000 0.0000
# 2 26.8208 95.5259 27.5897 0.0000 0.0000 0.0000
# 3 30.2895 27.5897 67.0750 0.0000 0.0000 0.0000
# 4 0.0000 0.0000 0.0000 42.4492 0.0000 0.0000
# 5 0.0000 0.0000 0.0000 0.0000 682.9747 0.0000
# 6 0.0000 0.0000 0.0000 0.0000 0.0000 29.9370
#
#
#
# Elastic Compliance Matrix: (Units=1/GPa)
#
#
# Indices 1 2 3 4 5 6 
#
# 1 0.019379 -0.003306 -0.007391 0.000000 0.000000 0.000000
# 2 -0.003306 0.012444 -0.003625 0.000000 0.000000 0.000000
# 3 -0.007391 -0.003625 0.019738 0.000000 0.000000 0.000000
# 4 0.000000 0.000000 0.000000 0.023558 0.000000 0.000000
# 5 0.000000 0.000000 0.000000 0.000000 0.001464 0.000000
# 6 0.000000 0.000000 0.000000 0.000000 0.000000 0.033403
#
#
# Mechanical properties :
#
#
# Convention : Reuss Voigt Hill
#
# Bulk Modulus (GPa) = 43.64026 44.41464 44.02745
# Shear Modulus (GPa) = 34.18353 160.78095 97.48224
#
# Velocity S-wave (km/s) = 3.97816 8.62761 6.71794
# Velocity P-wave (km/s) = 6.42688 10.94578 8.97538
#
# Compressibility (1/GPa) = 0.02291462
#
# Stress axis : x y z
#
# Youngs Moduli (GPa) = 51.60243 80.36151 50.66491
#
# Poissons Ratio (x) = 0.26570 0.37447
# Poissons Ratio (y) = 0.17061 0.18368
# Poissons Ratio (z) = 0.38140 0.29134
#
# Static dielectric constant tensor:
#      x y z
#    x -37.556020 0.000000 0.000000 
#    y 0.000000 4.031880 0.000000 
#    z 0.000000 0.000000 4.012450 
# 
# 
# High freq. dielectric constant tensor:
#      x y z
#    x 1.856550 0.000000 0.000000 
#    y 0.000000 1.856200 0.000000 
#    z 0.000000 0.000000 1.833850 
# 
# From -- ./inp_files/4443.got.cif
#   From: 2010.03.12/outbox.cif.g09.slc.cpg/sg37_3_cif.got.tgz:4443.got - 2010.04.14 02:25:27.
