data_PCOD8176246
_publ_section_title
;
Structure prediction by ZEFSAII (Michael W. Deem and Ramdas Pophale) SiO2 
 PCOD8176246
Probable space group: C M C 21
;
_chemical_formula_sum "Si O2"
_cell_formula_units_Z 40
_cell_length_a 20.590912
_cell_length_b 10.202370
_cell_length_c 8.683986
_cell_angle_alpha 90.000000
_cell_angle_beta 90.000000
_cell_angle_gamma 90.000000
_cell_volume 1824.297936
_symmetry_space_group_name_H-M "C M C 21"
_symmetry_group_IT_number 36
_symmetry_cell_setting 'orthorhombic'
loop_
_space_group_symop_operation_xyz
x,y,z
-x,-y,1/2+z
x,-y,1/2+z
-x,y,z
1/2+x,1/2+y,z
1/2-x,1/2-y,1/2+z
1/2+x,1/2-y,1/2+z
1/2-x,1/2+y,z
loop_
_atom_site_type_symbol
_atom_site_label
_atom_site_fract_x
_atom_site_fract_y
_atom_site_fract_z
Si Si1 0.800907 0.121291 0.817150
Si Si2 0.000000 0.811373 0.365146
Si Si3 0.340033 0.115808 0.945407
Si Si4 0.000000 0.980077 0.095657
Si Si5 0.636795 0.604783 0.492097
Si Si6 0.874632 0.361498 0.798961
O O1 0.730936 0.080484 0.879947
O O2 0.810766 0.111655 0.632400
O O3 0.818176 0.269361 0.873844
O O4 0.851977 0.020038 0.886956
O O5 0.000000 0.955135 0.280414
O O6 0.939611 0.722603 0.316015
O O7 0.000000 0.864957 0.543754
O O8 0.385859 0.000804 0.880110
O O9 0.357121 0.262480 0.888733
O O10 0.350606 0.110730 0.126971
O O11 0.936896 0.900181 0.044571
#
# Coordination Sequence:
#
# PCOD8176246 Si02
#       6
#     8   4   8   4   8   8
#     4  11  22  41  66  98 132 179 225 275 334 408
#     4  12  24  47  73  97 139 173 233 284 342 408
#     4  11  24  42  64  97 142 174 223 277 340 409
#     4  12  20  47  71 101 133 171 229 292 326 410
#     4  11  23  40  70  97 130 177 224 283 339 395
#     4  11  25  44  66  98 137 180 223 280 340 403
#
# _framework density 21.926242999999999
#
# number of rings (size 3 to 8) (size 9 to 14) (size 15 to 20)
#    0.000    0.800    6.000    2.400    0.000    6.400 
#    3.600    0.000    0.000    0.000    0.000    0.000 
#    0.000    0.000    0.000    0.000    0.000    0.000 
#
# Total GULP energy -247771.504932 kJ/mol
# GULP energy per Si atom -12388.575247 kJ/mol
# Density = 2.187634 g / cm^3
# Si number density = 21.926243 Si / 1000 Ang^3
#
#
#
# Elastic Constant Matrix: (Units=GPa)
#
#
# Indices 1 2 3 4 5 6 
#
# 1 93.9493 30.4016 32.5040 0.0000 0.0000 0.0000
# 2 30.4016 131.7737 71.6148 0.0000 0.0000 0.0000
# 3 32.5040 71.6148 75.7451 0.0000 0.0000 0.0000
# 4 0.0000 0.0000 0.0000 44.5197 0.0000 0.0000
# 5 0.0000 0.0000 0.0000 0.0000 22.9452 0.0000
# 6 0.0000 0.0000 0.0000 0.0000 0.0000 18.1604
#
#
#
# Elastic Compliance Matrix: (Units=1/GPa)
#
#
# Indices 1 2 3 4 5 6 
#
# 1 0.012500 0.000064 -0.005425 0.000000 0.000000 0.000000
# 2 0.000064 0.015610 -0.014786 0.000000 0.000000 0.000000
# 3 -0.005425 -0.014786 0.029510 0.000000 0.000000 0.000000
# 4 0.000000 0.000000 0.000000 0.022462 0.000000 0.000000
# 5 0.000000 0.000000 0.000000 0.000000 0.043582 0.000000
# 6 0.000000 0.000000 0.000000 0.000000 0.000000 0.055065
#
#
# Mechanical properties :
#
#
# Convention : Reuss Voigt Hill
#
# Bulk Modulus (GPa) = 57.71545 63.38988 60.55266
# Shear Modulus (GPa) = 22.24223 28.25492 25.24857
#
# Velocity S-wave (km/s) = 3.18844 3.59365 3.39709
# Velocity P-wave (km/s) = 6.31938 6.79650 6.56227
#
# Compressibility (1/GPa) = 0.01732638
#
# Stress axis : x y z
#
# Youngs Moduli (GPa) = 79.99944 64.06257 33.88673
#
# Poissons Ratio (x) = -0.00412 0.18383
# Poissons Ratio (y) = -0.00515 0.50106
# Poissons Ratio (z) = 0.43399 0.94724
#
# Static dielectric constant tensor:
#      x y z
#    x 3.879800 0.000000 0.000000 
#    y 0.000000 4.433750 0.000000 
#    z 0.000000 0.000000 3.915650 
# 
# 
# High freq. dielectric constant tensor:
#      x y z
#    x 1.863730 0.000000 0.000000 
#    y 0.000000 1.879760 0.000000 
#    z 0.000000 0.000000 1.847670 
# 
# From -- ./inp_files/5098.got.cif
#   From: 2010.03.12/outbox.cif.g09.slc.cpg/sg36_3_cif.got.tgz:5098.got - 2010.04.14 02:13:53.
