data_PCOD8176462
_publ_section_title
;
Structure prediction by ZEFSAII (Michael W. Deem and Ramdas Pophale) SiO2 
 PCOD8176462
Probable space group: C C C 2
;
_chemical_formula_sum "Si O2"
_cell_formula_units_Z 64
_cell_length_a 15.609332
_cell_length_b 8.939644
_cell_length_c 22.205828
_cell_angle_alpha 90.000000
_cell_angle_beta 90.000000
_cell_angle_gamma 90.000000
_cell_volume 3098.642790
_symmetry_space_group_name_H-M "C C C 2"
_symmetry_group_IT_number 37
_symmetry_cell_setting 'orthorhombic'
loop_
_space_group_symop_operation_xyz
x,y,z
-x,-y,z
-x,y,1/2+z
x,-y,1/2+z
1/2+x,1/2+y,z
1/2-x,1/2-y,z
1/2-x,1/2+y,1/2+z
1/2+x,1/2-y,1/2+z
loop_
_atom_site_type_symbol
_atom_site_label
_atom_site_fract_x
_atom_site_fract_y
_atom_site_fract_z
Si Si1 0.339367 0.834354 0.967990
Si Si2 0.755954 0.412577 0.402877
Si Si3 0.667592 0.927086 0.774754
Si Si4 0.319960 0.878263 0.103009
Si Si5 0.201105 0.982976 0.683559
Si Si6 0.604970 0.741086 0.254734
Si Si7 0.429353 0.730105 0.196422
Si Si8 0.585039 0.404186 0.885684
O O1 0.250000 0.750000 0.964131
O O2 0.411455 0.736077 0.932948
O O3 0.328606 0.993377 0.936540
O O4 0.361477 0.875608 0.036814
O O5 0.750000 0.250000 0.434415
O O6 0.792011 0.388909 0.337347
O O7 0.664216 0.490400 0.401434
O O8 0.600284 0.794760 0.761399
O O9 0.742730 0.911282 0.726429
O O10 0.622155 0.088947 0.772409
O O11 0.250000 0.750000 0.111323
O O12 0.402017 0.853538 0.146325
O O13 0.261566 0.025595 0.122419
O O14 0.186014 0.825039 0.717241
O O15 0.109917 0.069302 0.677171
O O16 0.530634 0.719000 0.205098
O O17 0.589638 0.649527 0.316456
O O18 0.500000 0.500000 0.897151
#
# Coordination Sequence:
#
# PCOD8176462 Si02
#       8
#     8   8   8   8   8   8   8   8
#     4   9  19  40  64  85 116 164 211 252 303 368
#     4  11  22  38  60  86 118 157 204 249 303 369
#     4  11  21  35  53  81 117 157 190 234 303 368
#     4   8  17  37  62  84 114 159 206 246 293 361
#     4  10  19  34  59  83 114 149 198 240 289 358
#     4  12  22  34  53  90 123 150 190 249 315 360
#     4  10  21  36  54  86 115 153 190 242 298 358
#     4  11  23  38  58  89 124 155 199 258 317 366
#
# _framework density 20.654204
#
# number of rings (size 3 to 8) (size 9 to 14) (size 15 to 20)
#    0.000    1.750    2.500    3.750    1.750    0.000 
#    0.000    8.125    0.000    3.000    0.000    0.000 
#    0.000    0.000    0.000    0.000    0.000    0.000 
#
# Total GULP energy -396441.471680 kJ/mol
# GULP energy per Si atom -12388.795990 kJ/mol
# Density = 2.060719 g / cm^3
# Si number density = 20.654204 Si / 1000 Ang^3
#
#
#
# Elastic Constant Matrix: (Units=GPa)
#
#
# Indices 1 2 3 4 5 6 
#
# 1 71.7252 30.9877 42.1394 0.0000 0.0000 0.0000
# 2 30.9877 95.0878 30.9794 0.0000 0.0000 0.0000
# 3 42.1394 30.9794 110.4109 0.0000 0.0000 0.0000
# 4 0.0000 0.0000 0.0000 23.0169 0.0000 0.0000
# 5 0.0000 0.0000 0.0000 0.0000 33.4743 0.0000
# 6 0.0000 0.0000 0.0000 0.0000 0.0000 32.6606
#
#
#
# Elastic Compliance Matrix: (Units=1/GPa)
#
#
# Indices 1 2 3 4 5 6 
#
# 1 0.019459 -0.004316 -0.006215 0.000000 0.000000 0.000000
# 2 -0.004316 0.012532 -0.001869 0.000000 0.000000 0.000000
# 3 -0.006215 -0.001869 0.011954 0.000000 0.000000 0.000000
# 4 0.000000 0.000000 0.000000 0.043446 0.000000 0.000000
# 5 0.000000 0.000000 0.000000 0.000000 0.029874 0.000000
# 6 0.000000 0.000000 0.000000 0.000000 0.000000 0.030618
#
#
# Mechanical properties :
#
#
# Convention : Reuss Voigt Hill
#
# Bulk Modulus (GPa) = 52.23857 53.93743 53.08800
# Shear Modulus (GPa) = 27.92290 29.37153 28.64722
#
# Velocity S-wave (km/s) = 3.68084 3.77511 3.72827
# Velocity P-wave (km/s) = 6.58875 6.72110 6.65525
#
# Compressibility (1/GPa) = 0.01914294
#
# Stress axis : x y z
#
# Youngs Moduli (GPa) = 51.39135 79.79506 83.65637
#
# Poissons Ratio (x) = 0.34442 0.51996
# Poissons Ratio (y) = 0.22182 0.15635
# Poissons Ratio (z) = 0.31942 0.14913
#
# Static dielectric constant tensor:
#      x y z
#    x 3.622570 0.000000 0.000000 
#    y 0.000000 3.777020 0.000000 
#    z 0.000000 0.000000 3.843910 
# 
# 
# High freq. dielectric constant tensor:
#      x y z
#    x 1.796610 0.000000 0.000000 
#    y 0.000000 1.808290 0.000000 
#    z 0.000000 0.000000 1.790060 
# 
# From -- ./inp_files/17343.got.cif
#   From: 2010.03.12/outbox.cif.g09.slc.cpg/sg37_9_cif.got.tgz:17343.got - 2010.04.14 02:25:27.
