data_PCOD8176907
_publ_section_title
;
Structure prediction by ZEFSAII (Michael W. Deem and Ramdas Pophale) SiO2 
 PCOD8176907
Probable space group: C C C 2
;
_chemical_formula_sum "Si O2"
_cell_formula_units_Z 48
_cell_length_a 13.811789
_cell_length_b 6.479359
_cell_length_c 24.631839
_cell_angle_alpha 90.000000
_cell_angle_beta 90.000000
_cell_angle_gamma 90.000000
_cell_volume 2204.341189
_symmetry_space_group_name_H-M "C C C 2"
_symmetry_group_IT_number 37
_symmetry_cell_setting 'orthorhombic'
loop_
_space_group_symop_operation_xyz
x,y,z
-x,-y,z
-x,y,1/2+z
x,-y,1/2+z
1/2+x,1/2+y,z
1/2-x,1/2-y,z
1/2-x,1/2+y,1/2+z
1/2+x,1/2-y,1/2+z
loop_
_atom_site_type_symbol
_atom_site_label
_atom_site_fract_x
_atom_site_fract_y
_atom_site_fract_z
Si Si1 0.000000 0.000000 0.911870
Si Si2 0.807315 0.545171 0.765896
Si Si3 0.847762 0.328254 0.874083
Si Si4 0.750000 0.250000 0.671350
Si Si5 0.500000 0.000000 0.540349
Si Si6 0.000000 0.500000 0.722504
Si Si7 0.447266 0.293809 0.131018
Si Si8 0.139988 0.325782 0.957088
O O1 0.071048 0.126477 0.951657
O O2 0.934022 0.157059 0.875775
O O3 0.750000 0.750000 0.783961
O O4 0.813057 0.374058 0.812963
O O5 0.764152 0.449599 0.710368
O O6 0.918885 0.613232 0.758366
O O7 0.750000 0.250000 0.904685
O O8 0.875156 0.544045 0.902176
O O9 0.668384 0.311296 0.626360
O O10 0.504081 0.801882 0.579744
O O11 0.401930 0.974587 0.504863
O O12 0.051487 0.667881 0.686302
O O13 0.500000 0.500000 0.144682
O O14 0.250000 0.250000 0.967923
#
# Coordination Sequence:
#
# PCOD8176907 Si02
#       8
#     4   8   8   4   4   4   8   8
#     4  12  26  46  70  94 146 186 228 288 338 408
#     4  11  23  39  65  97 135 177 231 277 340 415
#     4  12  25  43  66 102 137 187 232 282 348 414
#     4  10  22  44  66 100 130 182 230 278 354 416
#     4  11  26  43  70 108 124 175 240 279 360 428
#     4   9  22  39  62  94 130 177 220 277 342 404
#     4  10  22  44  66  93 136 171 223 288 346 414
#     4  12  26  47  70  98 138 179 234 289 347 416
#
# _framework density 21.775210999999999
#
# number of rings (size 3 to 8) (size 9 to 14) (size 15 to 20)
#    0.000    1.000    4.167    1.500    4.667    0.000 
#    6.000    1.667    0.000    0.000    0.000    0.000 
#    0.000    0.000    0.000    0.000    0.000    0.000 
#
# Total GULP energy -297349.584284 kJ/mol
# GULP energy per Si atom -12389.566012 kJ/mol
# Density = 2.172565 g / cm^3
# Si number density = 21.775211 Si / 1000 Ang^3
#
#
#
# Elastic Constant Matrix: (Units=GPa)
#
#
# Indices 1 2 3 4 5 6 
#
# 1 183.6787 74.6680 47.0017 0.0000 0.0000 0.0000
# 2 74.6680 91.9213 33.2466 0.0000 0.0000 0.0000
# 3 47.0017 33.2466 84.0366 0.0000 0.0000 0.0000
# 4 0.0000 0.0000 0.0000 22.9926 0.0000 0.0000
# 5 0.0000 0.0000 0.0000 0.0000 16.4397 0.0000
# 6 0.0000 0.0000 0.0000 0.0000 0.0000 51.5557
#
#
#
# Elastic Compliance Matrix: (Units=1/GPa)
#
#
# Indices 1 2 3 4 5 6 
#
# 1 0.008513 -0.006060 -0.002364 0.000000 0.000000 0.000000
# 2 -0.006060 0.017009 -0.003340 0.000000 0.000000 0.000000
# 3 -0.002364 -0.003340 0.014543 0.000000 0.000000 0.000000
# 4 0.000000 0.000000 0.000000 0.043492 0.000000 0.000000
# 5 0.000000 0.000000 0.000000 0.000000 0.060828 0.000000
# 6 0.000000 0.000000 0.000000 0.000000 0.000000 0.019397
#
#
# Mechanical properties :
#
#
# Convention : Reuss Voigt Hill
#
# Bulk Modulus (GPa) = 60.46736 74.38546 67.42641
# Shear Modulus (GPa) = 25.93070 31.84560 28.88815
#
# Velocity S-wave (km/s) = 3.45459 3.82837 3.64628
# Velocity P-wave (km/s) = 6.61373 7.33326 6.98277
#
# Compressibility (1/GPa) = 0.01653785
#
# Stress axis : x y z
#
# Youngs Moduli (GPa) = 117.47340 58.79118 68.76194
#
# Poissons Ratio (x) = 0.35627 0.16253
# Poissons Ratio (y) = 0.71188 0.22966
# Poissons Ratio (z) = 0.27767 0.19636
#
# Static dielectric constant tensor:
#      x y z
#    x 4.446980 0.000000 0.000000 
#    y 0.000000 3.839010 0.000000 
#    z 0.000000 0.000000 3.709490 
# 
# 
# High freq. dielectric constant tensor:
#      x y z
#    x 1.876700 0.000000 0.000000 
#    y 0.000000 1.852950 0.000000 
#    z 0.000000 0.000000 1.840230 
# 
# From -- ./inp_files/19918.got.cif
#   From: 2010.03.12/outbox.cif.g09.slc.cpg/sg37_10_cif.got.tgz:19918.got - 2010.04.14 02:25:27.
