data_PCOD8176012
_publ_section_title
;
Structure prediction by ZEFSAII (Michael W. Deem and Ramdas Pophale) SiO2 
 PCOD8176012
Probable space group: C M C 21
;
_chemical_formula_sum "Si O2"
_cell_formula_units_Z 48
_cell_length_a 8.374953
_cell_length_b 14.959312
_cell_length_c 18.578077
_cell_angle_alpha 90.000000
_cell_angle_beta 90.000000
_cell_angle_gamma 90.000000
_cell_volume 2327.527158
_symmetry_space_group_name_H-M "C M C 21"
_symmetry_group_IT_number 36
_symmetry_cell_setting 'orthorhombic'
loop_
_space_group_symop_operation_xyz
x,y,z
-x,-y,1/2+z
x,-y,1/2+z
-x,y,z
1/2+x,1/2+y,z
1/2-x,1/2-y,1/2+z
1/2+x,1/2-y,1/2+z
1/2-x,1/2+y,z
loop_
_atom_site_type_symbol
_atom_site_label
_atom_site_fract_x
_atom_site_fract_y
_atom_site_fract_z
Si Si1 0.183561 0.014203 0.500000
Si Si2 0.683873 0.868131 0.602287
Si Si3 0.683006 0.036865 0.849489
Si Si4 0.314045 0.795530 0.021322
Si Si5 0.813836 0.738856 0.871037
Si Si6 0.183601 0.887283 0.756340
O O1 0.227910 0.110091 0.532186
O O2 0.000000 0.013185 0.475685
O O3 0.210216 0.940492 0.560809
O O4 0.291428 0.994737 0.430968
O O5 0.500000 0.882548 0.581440
O O6 0.739335 0.769427 0.580750
O O7 0.705517 0.880427 0.687057
O O8 0.500000 0.018792 0.829171
O O9 0.726630 0.140902 0.841083
O O10 0.793351 0.982845 0.794342
O O11 0.500000 0.807155 0.036741
O O12 0.289015 0.755752 0.941987
O O13 0.762615 0.809844 0.811093
O O14 0.000000 0.748157 0.891500
O O15 0.000000 0.875944 0.733509
#
# Coordination Sequence:
#
# PCOD8176012 Si02
#       6
#     8   8   8   8   8   8
#     4  12  24  41  66  97 130 170 220 271 323 385
#     4  12  26  45  66  94 134 174 218 272 329 386
#     4  11  22  39  65  97 130 170 217 266 321 382
#     4  12  24  40  67  98 130 170 219 267 324 389
#     4  10  22  40  65  94 131 170 213 264 320 383
#     4  11  24  43  65  94 133 174 217 268 325 385
#
# _framework density 20.622744999999998
#
# number of rings (size 3 to 8) (size 9 to 14) (size 15 to 20)
#    0.000    0.667    3.333    5.500    0.000    2.667 
#    0.000    5.000    0.000    0.000    0.000    0.000 
#    0.000    0.000    0.000    0.000    0.000    0.000 
#
# Total GULP energy -297827.053515 kJ/mol
# GULP energy per Si atom -12409.460563 kJ/mol
# Density = 2.057581 g / cm^3
# Si number density = 20.622745 Si / 1000 Ang^3
#
#
#
# Elastic Constant Matrix: (Units=GPa)
#
#
# Indices 1 2 3 4 5 6 
#
# 1 75.1817 16.6620 3.3820 0.0000 0.0000 0.0000
# 2 16.6620 98.8615 1.5214 0.0000 0.0000 0.0000
# 3 3.3820 1.5214 68.2757 0.0000 0.0000 0.0000
# 4 0.0000 0.0000 0.0000 26.7060 0.0000 0.0000
# 5 0.0000 0.0000 0.0000 0.0000 34.8456 0.0000
# 6 0.0000 0.0000 0.0000 0.0000 0.0000 30.2199
#
#
#
# Elastic Compliance Matrix: (Units=1/GPa)
#
#
# Indices 1 2 3 4 5 6 
#
# 1 0.013845 -0.002324 -0.000634 0.000000 0.000000 0.000000
# 2 -0.002324 0.010509 -0.000119 0.000000 0.000000 0.000000
# 3 -0.000634 -0.000119 0.014681 0.000000 0.000000 0.000000
# 4 0.000000 0.000000 0.000000 0.037445 0.000000 0.000000
# 5 0.000000 0.000000 0.000000 0.000000 0.028698 0.000000
# 6 0.000000 0.000000 0.000000 0.000000 0.000000 0.033091
#
#
# Mechanical properties :
#
#
# Convention : Reuss Voigt Hill
#
# Bulk Modulus (GPa) = 30.41324 31.71665 31.06495
# Shear Modulus (GPa) = 32.17899 33.07119 32.62509
#
# Velocity S-wave (km/s) = 3.95443 4.00888 3.98175
# Velocity P-wave (km/s) = 5.96904 6.06967 6.01957
#
# Compressibility (1/GPa) = 0.03288041
#
# Stress axis : x y z
#
# Youngs Moduli (GPa) = 72.23041 95.16008 68.11729
#
# Poissons Ratio (x) = 0.22111 0.04319
# Poissons Ratio (y) = 0.16783 0.00811
# Poissons Ratio (z) = 0.04579 0.01133
#
# Static dielectric constant tensor:
#      x y z
#    x 3.696450 0.000000 0.000000 
#    y 0.000000 4.071900 0.000000 
#    z 0.000000 0.000000 3.574110 
# 
# 
# High freq. dielectric constant tensor:
#      x y z
#    x 1.814580 0.000000 0.000000 
#    y 0.000000 1.824620 0.000000 
#    z 0.000000 0.000000 1.796840 
# 
# From -- ./inp_files/13493.got.cif
#   From: 2010.03.12/outbox.cif.g09.slc.cpg/sg36_7_cif.got.tgz:13493.got - 2010.04.14 02:13:53.
