data_PCOD8176459
_publ_section_title
;
Structure prediction by ZEFSAII (Michael W. Deem and Ramdas Pophale) SiO2 
 PCOD8176459
Probable space group: C C C 2
;
_chemical_formula_sum "Si O2"
_cell_formula_units_Z 64
_cell_length_a 20.087668
_cell_length_b 12.797293
_cell_length_c 14.095846
_cell_angle_alpha 90.000000
_cell_angle_beta 90.000000
_cell_angle_gamma 90.000000
_cell_volume 3623.587741
_symmetry_space_group_name_H-M "C C C 2"
_symmetry_group_IT_number 37
_symmetry_cell_setting 'orthorhombic'
loop_
_space_group_symop_operation_xyz
x,y,z
-x,-y,z
-x,y,1/2+z
x,-y,1/2+z
1/2+x,1/2+y,z
1/2-x,1/2-y,z
1/2-x,1/2+y,1/2+z
1/2+x,1/2-y,1/2+z
loop_
_atom_site_type_symbol
_atom_site_label
_atom_site_fract_x
_atom_site_fract_y
_atom_site_fract_z
Si Si1 0.424308 0.170554 0.455120
Si Si2 0.191180 0.828922 0.476771
Si Si3 0.924308 0.670554 0.964058
Si Si4 0.881164 0.493804 0.318411
Si Si5 0.775192 0.983553 0.818443
Si Si6 0.191180 0.171078 0.442408
Si Si7 0.724808 0.516447 0.600735
Si Si8 0.881164 0.493804 0.100767
O O1 0.500000 0.209196 0.459589
O O2 0.416419 0.092418 0.366631
O O3 0.379530 0.272404 0.442231
O O4 0.404458 0.113179 0.552382
O O5 0.250000 0.750000 0.503688
O O6 0.120470 0.772404 0.476948
O O7 0.186348 0.917744 0.557100
O O8 0.205228 0.878230 0.373522
O O9 0.904458 0.613179 0.866796
O O10 0.916419 0.592418 0.052547
O O11 0.802571 0.505788 0.331348
O O12 0.903044 0.490186 0.209589
O O13 0.813652 0.082256 0.862078
O O14 0.795923 0.968715 0.709589
O O15 0.250000 0.250000 0.415490
O O16 0.205228 0.121770 0.545656
O O17 0.802571 0.494212 0.587830
#
# Coordination Sequence:
#
# PCOD8176459 Si02
#       8
#     8   8   8   8   8   8   8   8
#     4  11  22  35  53  80 112 145 175 214 267 319
#     4  11  19  37  57  78 109 140 180 219 258 317
#     4  11  22  35  53  80 112 145 175 214 267 319
#     4  10  19  34  56  83 111 137 170 221 275 321
#     4  10  21  35  57  84 107 135 178 228 266 302
#     4  11  19  37  57  78 109 140 180 219 258 317
#     4  10  21  35  57  84 107 135 178 228 266 302
#     4  10  19  34  56  83 111 137 170 221 275 321
#
# _framework density 17.662053
#
# number of rings (size 3 to 8) (size 9 to 14) (size 15 to 20)
#    0.000    1.500    5.000    3.000    0.000    5.000 
#    0.000    2.500    0.000    1.500    0.000    0.000 
#    0.000    0.000    0.000    0.000    0.000    0.000 
#
# Total GULP energy -396947.434757 kJ/mol
# GULP energy per Si atom -12404.607336 kJ/mol
# Density = 1.762185 g / cm^3
# Si number density = 17.662053 Si / 1000 Ang^3
#
#
#
# Elastic Constant Matrix: (Units=GPa)
#
#
# Indices 1 2 3 4 5 6 
#
# 1 105.4592 23.0107 9.1147 0.0000 0.0000 0.0000
# 2 23.0107 52.4202 0.6479 0.0000 0.0000 0.0000
# 3 9.1147 0.6479 104.3233 0.0000 0.0000 0.0000
# 4 0.0000 0.0000 0.0000 10.6363 0.0000 0.0000
# 5 0.0000 0.0000 0.0000 0.0000 13.2727 0.0000
# 6 0.0000 0.0000 0.0000 0.0000 0.0000 24.8998
#
#
#
# Elastic Compliance Matrix: (Units=1/GPa)
#
#
# Indices 1 2 3 4 5 6 
#
# 1 0.010570 -0.004629 -0.000895 0.000000 0.000000 0.000000
# 2 -0.004629 0.021105 0.000273 0.000000 0.000000 0.000000
# 3 -0.000895 0.000273 0.009662 0.000000 0.000000 0.000000
# 4 0.000000 0.000000 0.000000 0.094018 0.000000 0.000000
# 5 0.000000 0.000000 0.000000 0.000000 0.075342 0.000000
# 6 0.000000 0.000000 0.000000 0.000000 0.000000 0.040161
#
#
# Mechanical properties :
#
#
# Convention : Reuss Voigt Hill
#
# Bulk Modulus (GPa) = 32.42892 36.41659 34.42275
# Shear Modulus (GPa) = 18.40693 25.05705 21.73199
#
# Velocity S-wave (km/s) = 3.23177 3.77064 3.51156
# Velocity P-wave (km/s) = 5.68564 6.29447 5.99778
#
# Compressibility (1/GPa) = 0.03083668
#
# Stress axis : x y z
#
# Youngs Moduli (GPa) = 94.61080 47.38198 103.49757
#
# Poissons Ratio (x) = 0.21931 0.09260
# Poissons Ratio (y) = 0.43792 -0.02829
# Poissons Ratio (z) = 0.08465 -0.01295
#
# Static dielectric constant tensor:
#      x y z
#    x 3.165720 0.000000 0.000000 
#    y 0.000000 3.214010 0.000000 
#    z 0.000000 0.000000 3.449170 
# 
# 
# High freq. dielectric constant tensor:
#      x y z
#    x 1.670890 0.000000 0.000000 
#    y 0.000000 1.678340 0.000000 
#    z 0.000000 0.000000 1.689060 
# 
# From -- ./inp_files/12719.got.cif
#   From: 2010.03.12/outbox.cif.g09.slc.cpg/sg37_7_cif.got.tgz:12719.got - 2010.04.14 02:25:27.
