data_PCOD8176761
_publ_section_title
;
Structure prediction by ZEFSAII (Michael W. Deem and Ramdas Pophale) SiO2 
 PCOD8176761
Probable space group: C C C 2
;
_chemical_formula_sum "Si O2"
_cell_formula_units_Z 32
_cell_length_a 8.292485
_cell_length_b 15.014867
_cell_length_c 10.400084
_cell_angle_alpha 90.000000
_cell_angle_beta 90.000000
_cell_angle_gamma 90.000000
_cell_volume 1294.920276
_symmetry_space_group_name_H-M "C C C 2"
_symmetry_group_IT_number 37
_symmetry_cell_setting 'orthorhombic'
loop_
_space_group_symop_operation_xyz
x,y,z
-x,-y,z
-x,y,1/2+z
x,-y,1/2+z
1/2+x,1/2+y,z
1/2-x,1/2-y,z
1/2-x,1/2+y,1/2+z
1/2+x,1/2-y,1/2+z
loop_
_atom_site_type_symbol
_atom_site_label
_atom_site_fract_x
_atom_site_fract_y
_atom_site_fract_z
Si Si1 0.323680 0.154554 0.745920
Si Si2 0.190792 0.851333 0.984972
Si Si3 0.309208 0.648667 0.506868
Si Si4 0.635528 0.919856 0.245920
O O1 0.250000 0.250000 0.745919
O O2 0.263262 0.105426 0.616358
O O3 0.517651 0.166238 0.745920
O O4 0.263260 0.105426 0.875482
O O5 0.250000 0.750000 0.964671
O O6 0.251077 0.915457 0.870700
O O7 0.000000 0.853767 0.995921
O O8 0.250000 0.750000 0.527169
O O9 0.248922 0.584543 0.621140
O O10 0.500000 0.000000 0.245920
#
# Coordination Sequence:
#
# PCOD8176761 Si02
#       4
#     8   8   8   8
#     4  10  21  40  66  97 130 176 231 280 335 407
#     4  11  22  42  72 104 136 182 238 291 344 415
#     4  11  22  42  72 104 136 182 238 291 344 415
#     4  12  26  44  67 101 144 186 227 288 358 419
#
# _framework density 24.711945
#
# number of rings (size 3 to 8) (size 9 to 14) (size 15 to 20)
#    0.000    1.000    0.000    9.750    0.000    4.000 
#    0.000    7.500    0.000    0.000    0.000    0.000 
#    0.000    0.000    0.000    0.000    0.000    0.000 
#
# Total GULP energy -198248.152845 kJ/mol
# GULP energy per Si atom -12390.509553 kJ/mol
# Density = 2.465570 g / cm^3
# Si number density = 24.711945 Si / 1000 Ang^3
#
#
#
# Elastic Constant Matrix: (Units=GPa)
#
#
# Indices 1 2 3 4 5 6 
#
# 1 239.3930 35.6694 90.4338 0.0000 0.0000 0.0000
# 2 35.6694 89.9218 32.8981 0.0000 0.0000 0.0000
# 3 90.4338 32.8981 268.7692 0.0000 0.0000 0.0000
# 4 0.0000 0.0000 0.0000 -20.9427 0.0000 0.0000
# 5 0.0000 0.0000 0.0000 0.0000 48.0064 0.0000
# 6 0.0000 0.0000 0.0000 0.0000 0.0000 33.3165
#
#
#
# Elastic Compliance Matrix: (Units=1/GPa)
#
#
# Indices 1 2 3 4 5 6 
#
# 1 0.004952 -0.001418 -0.001493 0.000000 0.000000 0.000000
# 2 -0.001418 0.012048 -0.000998 0.000000 0.000000 0.000000
# 3 -0.001493 -0.000998 0.004345 0.000000 0.000000 0.000000
# 4 0.000000 0.000000 0.000000 -0.047749 0.000000 0.000000
# 5 0.000000 0.000000 0.000000 0.000000 0.020831 0.000000
# 6 0.000000 0.000000 0.000000 0.000000 0.000000 0.030015
#
#
# Mechanical properties :
#
#
# Convention : Reuss Voigt Hill
#
# Bulk Modulus (GPa) = 73.91766 101.78740 87.85253
# Shear Modulus (GPa) = 135.98428 41.34824 88.66626
#
# Velocity S-wave (km/s) = 7.42612 4.09492 5.99648
# Velocity P-wave (km/s) = 10.17380 7.97727 9.14175
#
# Compressibility (1/GPa) = 0.01352857
#
# Stress axis : x y z
#
# Youngs Moduli (GPa) = 201.91898 82.99903 230.14757
#
# Poissons Ratio (x) = 0.11772 0.34356
# Poissons Ratio (y) = 0.28640 0.22957
# Poissons Ratio (z) = 0.30142 0.08279
#
# Static dielectric constant tensor:
#      x y z
#    x 4.466720 0.000000 0.000000 
#    y 0.000000 4.781900 0.000000 
#    z 0.000000 0.000000 7.083970 
# 
# 
# High freq. dielectric constant tensor:
#      x y z
#    x 2.002150 0.000000 0.000000 
#    y 0.000000 1.968640 0.000000 
#    z 0.000000 0.000000 2.008620 
# 
# From -- ./inp_files/6083.got.cif
#   From: 2010.03.12/outbox.cif.g09.slc.cpg/sg37_4_cif.got.tgz:6083.got - 2010.04.14 02:25:27.
