data_PCOD8176590
_publ_section_title
;
Structure prediction by ZEFSAII (Michael W. Deem and Ramdas Pophale) SiO2 
 PCOD8176590
Probable space group: C C C 2
;
_chemical_formula_sum "Si O2"
_cell_formula_units_Z 60
_cell_length_a 7.752470
_cell_length_b 23.183147
_cell_length_c 15.360772
_cell_angle_alpha 90.000000
_cell_angle_beta 90.000000
_cell_angle_gamma 90.000000
_cell_volume 2760.740118
_symmetry_space_group_name_H-M "C C C 2"
_symmetry_group_IT_number 37
_symmetry_cell_setting 'orthorhombic'
loop_
_space_group_symop_operation_xyz
x,y,z
-x,-y,z
-x,y,1/2+z
x,-y,1/2+z
1/2+x,1/2+y,z
1/2-x,1/2-y,z
1/2-x,1/2+y,1/2+z
1/2+x,1/2-y,1/2+z
loop_
_atom_site_type_symbol
_atom_site_label
_atom_site_fract_x
_atom_site_fract_y
_atom_site_fract_z
Si Si1 0.358785 0.870138 0.693900
Si Si2 0.750000 0.250000 0.768143
Si Si3 0.046599 0.747642 0.408139
Si Si4 0.943005 0.367221 0.507941
Si Si5 0.461254 0.365225 0.984737
Si Si6 0.421148 0.436807 0.830314
Si Si7 0.977504 0.932942 0.145819
Si Si8 0.970764 0.434778 0.351829
O O1 0.268512 0.807499 0.708307
O O2 0.491428 0.867552 0.610890
O O3 0.220126 0.919574 0.671351
O O4 0.458947 0.890275 0.780175
O O5 0.573965 0.254067 0.823711
O O6 0.250000 0.750000 0.380204
O O7 0.997832 0.691116 0.461158
O O8 0.997976 0.798104 0.475908
O O9 0.738492 0.374196 0.505193
O O10 0.037468 0.417229 0.449386
O O11 0.528763 0.395764 0.895566
O O12 0.555907 0.394538 0.067296
O O13 0.500000 0.500000 0.836912
O O14 0.416241 0.415566 0.731375
O O15 0.230941 0.429397 0.864094
O O16 0.000000 0.000000 0.120847
O O17 0.000000 0.500000 0.323619
#
# Coordination Sequence:
#
# PCOD8176590 Si02
#       8
#     8   4   8   8   8   8   8   8
#     4  11  24  41  66  99 131 176 224 283 348 402
#     4  12  24  42  74 100 134 180 238 278 340 424
#     4  10  21  42  67  95 135 175 225 280 335 402
#     4   9  21  41  63  90 131 174 213 275 346 396
#     4   9  19  35  63  86 122 170 207 265 335 387
#     4  10  20  37  58  89 122 162 212 267 326 398
#     4  10  20  37  60  92 126 164 218 269 331 406
#     4  11  22  41  64  91 130 173 218 275 339 412
#
# _framework density 21.733301000000001
#
# number of rings (size 3 to 8) (size 9 to 14) (size 15 to 20)
#    0.000    1.867    1.333    2.800    4.667    0.533 
#    2.400    2.667    1.467    0.000    0.000    0.000 
#    0.000    0.000    0.000    0.000    0.000    0.000 
#
# Total GULP energy -371681.516635 kJ/mol
# GULP energy per Si atom -12389.383888 kJ/mol
# Density = 2.168384 g / cm^3
# Si number density = 21.733301 Si / 1000 Ang^3
#
#
#
# Elastic Constant Matrix: (Units=GPa)
#
#
# Indices 1 2 3 4 5 6 
#
# 1 44.7376 24.8117 15.0092 0.0000 0.0000 0.0000
# 2 24.8117 123.6631 64.6515 0.0000 0.0000 0.0000
# 3 15.0092 64.6515 157.9083 0.0000 0.0000 0.0000
# 4 0.0000 0.0000 0.0000 28.1185 0.0000 0.0000
# 5 0.0000 0.0000 0.0000 0.0000 26.6427 0.0000
# 6 0.0000 0.0000 0.0000 0.0000 0.0000 18.3512
#
#
#
# Elastic Compliance Matrix: (Units=1/GPa)
#
#
# Indices 1 2 3 4 5 6 
#
# 1 0.025172 -0.004835 -0.000413 0.000000 0.000000 0.000000
# 2 -0.004835 0.011217 -0.004133 0.000000 0.000000 0.000000
# 3 -0.000413 -0.004133 0.008064 0.000000 0.000000 0.000000
# 4 0.000000 0.000000 0.000000 0.035564 0.000000 0.000000
# 5 0.000000 0.000000 0.000000 0.000000 0.037534 0.000000
# 6 0.000000 0.000000 0.000000 0.000000 0.000000 0.054492
#
#
# Mechanical properties :
#
#
# Convention : Reuss Voigt Hill
#
# Bulk Modulus (GPa) = 38.92230 59.47263 49.19747
# Shear Modulus (GPa) = 25.07903 29.41158 27.24531
#
# Velocity S-wave (km/s) = 3.40066 3.68271 3.54449
# Velocity P-wave (km/s) = 5.77644 6.74591 6.27991
#
# Compressibility (1/GPa) = 0.02569221
#
# Stress axis : x y z
#
# Youngs Moduli (GPa) = 39.72594 89.14808 124.00378
#
# Poissons Ratio (x) = 0.43099 0.05125
# Poissons Ratio (y) = 0.19206 0.51252
# Poissons Ratio (z) = 0.01642 0.36846
#
# Static dielectric constant tensor:
#      x y z
#    x 3.600050 0.000000 0.000000 
#    y 0.000000 3.954680 0.000000 
#    z 0.000000 0.000000 4.524140 
# 
# 
# High freq. dielectric constant tensor:
#      x y z
#    x 1.821180 0.000000 0.000000 
#    y 0.000000 1.862940 0.000000 
#    z 0.000000 0.000000 1.870140 
# 
# From -- ./inp_files/10935.got.cif
#   From: 2010.03.12/outbox.cif.g09.slc.cpg/sg37_6_cif.got.tgz:10935.got - 2010.04.14 02:25:27.
