data_PCOD8176838
_publ_section_title
;
Structure prediction by ZEFSAII (Michael W. Deem and Ramdas Pophale) SiO2 
 PCOD8176838
Probable space group: C C C 2
;
_chemical_formula_sum "Si O2"
_cell_formula_units_Z 40
_cell_length_a 8.962601
_cell_length_b 14.378344
_cell_length_c 14.939478
_cell_angle_alpha 90.000000
_cell_angle_beta 90.000000
_cell_angle_gamma 90.000000
_cell_volume 1925.211094
_symmetry_space_group_name_H-M "C C C 2"
_symmetry_group_IT_number 37
_symmetry_cell_setting 'orthorhombic'
loop_
_space_group_symop_operation_xyz
x,y,z
-x,-y,z
-x,y,1/2+z
x,-y,1/2+z
1/2+x,1/2+y,z
1/2-x,1/2-y,z
1/2-x,1/2+y,1/2+z
1/2+x,1/2-y,1/2+z
loop_
_atom_site_type_symbol
_atom_site_label
_atom_site_fract_x
_atom_site_fract_y
_atom_site_fract_z
Si Si1 0.842602 0.340783 0.681320
Si Si2 0.427614 0.098756 0.823300
Si Si3 0.010391 0.687937 0.002143
Si Si4 0.340242 0.477460 0.724713
Si Si5 0.810829 0.158899 0.070224
O O1 0.750000 0.250000 0.709391
O O2 0.892450 0.337659 0.578682
O O3 0.740685 0.429394 0.696021
O O4 0.988826 0.349395 0.742518
O O5 0.431575 0.165946 0.908700
O O6 0.500000 0.000000 0.847330
O O7 0.256391 0.082621 0.794169
O O8 0.054796 0.798802 0.007917
O O9 0.165163 0.626658 0.011628
O O10 0.500000 0.500000 0.769352
O O11 0.372889 0.420282 0.633860
O O12 0.750000 0.250000 0.126624
#
# Coordination Sequence:
#
# PCOD8176838 Si02
#       5
#     8   8   8   8   8
#     4  11  23  40  63  95 128 173 221 268 325 395
#     4  10  22  38  66  97 129 175 216 273 328 398
#     4   9  20  38  64  90 128 165 219 256 338 379
#     4  11  22  40  65  95 132 174 218 268 335 389
#     4   8  19  36  66  91 122 170 212 269 322 379
#
# _framework density 20.776941999999998
#
# number of rings (size 3 to 8) (size 9 to 14) (size 15 to 20)
#    1.200    0.800    2.000    1.200    5.600    0.000 
#    0.000    6.000    0.000    0.000    0.000    0.000 
#    0.000    0.000    0.000    0.000    0.000    0.000 
#
# Total GULP energy -247794.891677 kJ/mol
# GULP energy per Si atom -12389.744584 kJ/mol
# Density = 2.072965 g / cm^3
# Si number density = 20.776942 Si / 1000 Ang^3
#
#
#
# Elastic Constant Matrix: (Units=GPa)
#
#
# Indices 1 2 3 4 5 6 
#
# 1 158.1595 46.2030 64.9101 0.0000 0.0000 0.0000
# 2 46.2030 92.7688 49.8936 0.0000 0.0000 0.0000
# 3 64.9101 49.8936 117.1540 0.0000 0.0000 0.0000
# 4 0.0000 0.0000 0.0000 24.4614 0.0000 0.0000
# 5 0.0000 0.0000 0.0000 0.0000 8.4618 0.0000
# 6 0.0000 0.0000 0.0000 0.0000 0.0000 30.0846
#
#
#
# Elastic Compliance Matrix: (Units=1/GPa)
#
#
# Indices 1 2 3 4 5 6 
#
# 1 0.008519 -0.002211 -0.003779 0.000000 0.000000 0.000000
# 2 -0.002211 0.014556 -0.004974 0.000000 0.000000 0.000000
# 3 -0.003779 -0.004974 0.012748 0.000000 0.000000 0.000000
# 4 0.000000 0.000000 0.000000 0.040881 0.000000 0.000000
# 5 0.000000 0.000000 0.000000 0.000000 0.118178 0.000000
# 6 0.000000 0.000000 0.000000 0.000000 0.000000 0.033240
#
#
# Mechanical properties :
#
#
# Convention : Reuss Voigt Hill
#
# Bulk Modulus (GPa) = 71.96447 76.67730 74.32088
# Shear Modulus (GPa) = 19.63243 26.40660 23.01952
#
# Velocity S-wave (km/s) = 3.07728 3.56892 3.33218
# Velocity P-wave (km/s) = 6.88027 7.34629 7.11710
#
# Compressibility (1/GPa) = 0.01389575
#
# Stress axis : x y z
#
# Youngs Moduli (GPa) = 117.37959 68.70132 78.44496
#
# Poissons Ratio (x) = 0.15188 0.29642
# Poissons Ratio (y) = 0.25949 0.39020
# Poissons Ratio (z) = 0.44354 0.34173
#
# Static dielectric constant tensor:
#      x y z
#    x 3.925280 0.000000 0.000000 
#    y 0.000000 3.714610 0.000000 
#    z 0.000000 0.000000 3.355580 
# 
# 
# High freq. dielectric constant tensor:
#      x y z
#    x 1.819790 0.000000 0.000000 
#    y 0.000000 1.804990 0.000000 
#    z 0.000000 0.000000 1.782600 
# 
# From -- ./inp_files/10333.got.cif
#   From: 2010.03.12/outbox.cif.g09.slc.cpg/sg37_6_cif.got.tgz:10333.got - 2010.04.14 02:25:27.
