data_PCOD8176261
_publ_section_title
;
Structure prediction by ZEFSAII (Michael W. Deem and Ramdas Pophale) SiO2 
 PCOD8176261
Probable space group: C M C 21
;
_chemical_formula_sum "Si O2"
_cell_formula_units_Z 48
_cell_length_a 12.794468
_cell_length_b 13.952039
_cell_length_c 13.452861
_cell_angle_alpha 90.000000
_cell_angle_beta 90.000000
_cell_angle_gamma 90.000000
_cell_volume 2401.455641
_symmetry_space_group_name_H-M "C M C 21"
_symmetry_group_IT_number 36
_symmetry_cell_setting 'orthorhombic'
loop_
_space_group_symop_operation_xyz
x,y,z
-x,-y,1/2+z
x,-y,1/2+z
-x,y,z
1/2+x,1/2+y,z
1/2-x,1/2-y,1/2+z
1/2+x,1/2-y,1/2+z
1/2-x,1/2+y,z
loop_
_atom_site_type_symbol
_atom_site_label
_atom_site_fract_x
_atom_site_fract_y
_atom_site_fract_z
Si Si1 0.775754 0.018452 0.006420
Si Si2 0.500000 0.572025 0.055459
Si Si3 0.204223 0.647575 0.171880
Si Si4 0.275754 0.518452 0.789329
Si Si5 0.000000 0.288229 0.019657
Si Si6 0.295777 0.852425 0.123869
Si Si7 0.000000 0.927975 0.240290
Si Si8 0.500000 0.211771 0.276092
O O1 0.894120 0.055571 0.994373
O O2 0.698267 0.088671 0.068293
O O3 0.784099 0.913111 0.055592
O O4 0.725035 0.012358 0.897874
O O5 0.500000 0.686067 0.076315
O O6 0.500000 0.500000 0.147874
O O7 0.284099 0.586889 0.240157
O O8 0.250000 0.750000 0.147874
O O9 0.098052 0.652609 0.234382
O O10 0.198267 0.588671 0.727455
O O11 0.394120 0.555571 0.801376
O O12 0.901948 0.347391 0.061367
O O13 0.000000 0.281035 0.897874
O O14 0.000000 0.813933 0.219434
#
# Coordination Sequence:
#
# PCOD8176261 Si02
#       8
#     8   4   8   8   4   8   4   4
#     4  11  23  39  64  94 129 170 215 263 321 378
#     4  12  20  40  63  95 127 166 215 267 314 377
#     4  11  23  41  63  93 129 163 213 268 312 375
#     4  11  23  39  64  94 129 170 215 263 321 378
#     4  12  24  41  68  94 126 176 215 253 327 396
#     4  11  23  41  63  93 129 163 213 268 312 375
#     4  12  20  40  63  95 127 166 215 267 314 377
#     4  12  24  41  68  94 126 176 215 253 327 396
#
# _framework density 19.987877000000001
#
# number of rings (size 3 to 8) (size 9 to 14) (size 15 to 20)
#    0.000    0.667    6.667    2.500    0.000    4.000 
#    0.000    2.500    0.000    0.000    0.000    0.000 
#    0.000    0.000    0.000    0.000    0.000    0.000 
#
# Total GULP energy -297352.914721 kJ/mol
# GULP energy per Si atom -12389.704780 kJ/mol
# Density = 1.994238 g / cm^3
# Si number density = 19.987877 Si / 1000 Ang^3
#
#
#
# Elastic Constant Matrix: (Units=GPa)
#
#
# Indices 1 2 3 4 5 6 
#
# 1 95.1950 34.5708 20.5261 0.0000 0.0000 0.0000
# 2 34.5708 138.2621 58.8434 0.0000 0.0000 0.0000
# 3 20.5261 58.8434 163.7835 0.0000 0.0000 0.0000
# 4 0.0000 0.0000 0.0000 18.6646 0.0000 0.0000
# 5 0.0000 0.0000 0.0000 0.0000 16.4117 0.0000
# 6 0.0000 0.0000 0.0000 0.0000 0.0000 36.8830
#
#
#
# Elastic Compliance Matrix: (Units=1/GPa)
#
#
# Indices 1 2 3 4 5 6 
#
# 1 0.011586 -0.002690 -0.000485 0.000000 0.000000 0.000000
# 2 -0.002690 0.009163 -0.002955 0.000000 0.000000 0.000000
# 3 -0.000485 -0.002955 0.007228 0.000000 0.000000 0.000000
# 4 0.000000 0.000000 0.000000 0.053577 0.000000 0.000000
# 5 0.000000 0.000000 0.000000 0.000000 0.060932 0.000000
# 6 0.000000 0.000000 0.000000 0.000000 0.000000 0.027113
#
#
# Mechanical properties :
#
#
# Convention : Reuss Voigt Hill
#
# Bulk Modulus (GPa) = 63.62954 69.45791 66.54372
# Shear Modulus (GPa) = 26.72372 33.27856 30.00114
#
# Velocity S-wave (km/s) = 3.66046 4.08479 3.87843
# Velocity P-wave (km/s) = 7.05468 7.55465 7.30894
#
# Compressibility (1/GPa) = 0.01571597
#
# Stress axis : x y z
#
# Youngs Moduli (GPa) = 86.30743 109.13564 138.34977
#
# Poissons Ratio (x) = 0.29363 0.06716
# Poissons Ratio (y) = 0.23221 0.40880
# Poissons Ratio (z) = 0.04190 0.32248
#
# Static dielectric constant tensor:
#      x y z
#    x -1.977680 0.000000 0.000000 
#    y 0.000000 3.865730 0.000000 
#    z 0.000000 0.000000 3.705170 
# 
# 
# High freq. dielectric constant tensor:
#      x y z
#    x 1.767450 0.000000 0.000000 
#    y 0.000000 1.794120 0.000000 
#    z 0.000000 0.000000 1.784880 
# 
# From -- ./inp_files/12118.got.cif
#   From: 2010.03.12/outbox.cif.g09.slc.cpg/sg36_7_cif.got.tgz:12118.got - 2010.04.14 02:13:53.
