data_PCOD8176128
_publ_section_title
;
Structure prediction by ZEFSAII (Michael W. Deem and Ramdas Pophale) SiO2 
 PCOD8176128
Probable space group: C M C 21
;
_chemical_formula_sum "Si O2"
_cell_formula_units_Z 40
_cell_length_a 21.879401
_cell_length_b 8.983874
_cell_length_c 7.541384
_cell_angle_alpha 90.000000
_cell_angle_beta 90.000000
_cell_angle_gamma 90.000000
_cell_volume 1482.347876
_symmetry_space_group_name_H-M "C M C 21"
_symmetry_group_IT_number 36
_symmetry_cell_setting 'orthorhombic'
loop_
_space_group_symop_operation_xyz
x,y,z
-x,-y,1/2+z
x,-y,1/2+z
-x,y,z
1/2+x,1/2+y,z
1/2-x,1/2-y,1/2+z
1/2+x,1/2-y,1/2+z
1/2-x,1/2+y,z
loop_
_atom_site_type_symbol
_atom_site_label
_atom_site_fract_x
_atom_site_fract_y
_atom_site_fract_z
Si Si1 0.110027 0.143549 0.743940
Si Si2 0.301507 0.039389 0.932803
Si Si3 0.762178 0.267592 0.731037
Si Si4 0.931183 0.166855 0.129837
Si Si5 0.932946 0.636745 0.961907
O O1 0.179341 0.168443 0.686644
O O2 0.066874 0.230841 0.605633
O O3 0.100335 0.967825 0.735139
O O4 0.100262 0.203871 0.942929
O O5 0.295041 0.154367 0.762439
O O6 0.373046 0.032294 0.993902
O O7 0.276218 0.873853 0.901978
O O8 0.254012 0.115427 0.070587
O O9 0.928561 0.307513 0.260041
O O10 0.000000 0.118842 0.086806
O O11 0.000000 0.555176 0.983291
#
# Coordination Sequence:
#
# PCOD8176128 Si02
#       5
#     8   8   8   8   8
#     4  11  23  38  66 100 141 183 230 290 342 414
#     4  11  26  48  71 105 134 188 228 295 350 425
#     4  11  27  45  74 100 142 179 237 291 356 420
#     4  11  21  36  65  98 138 184 228 280 339 408
#     4  10  23  43  66  97 139 184 231 282 343 419
#
# _framework density 26.984219
#
# number of rings (size 3 to 8) (size 9 to 14) (size 15 to 20)
#    0.000    1.200    2.000    3.000    8.400    0.000 
#    0.000    6.000    0.000    0.000    0.000    0.000 
#    0.000    0.000    0.000    0.000    0.000    0.000 
#
# Total GULP energy -247928.716263 kJ/mol
# GULP energy per Si atom -12396.435813 kJ/mol
# Density = 2.692280 g / cm^3
# Si number density = 26.984219 Si / 1000 Ang^3
#
#
#
# Elastic Constant Matrix: (Units=GPa)
#
#
# Indices 1 2 3 4 5 6 
#
# 1 126.6908 25.4706 -20.8153 0.0000 0.0000 0.0000
# 2 25.4706 56.6423 -40.7166 0.0000 0.0000 0.0000
# 3 -20.8153 -40.7166 88.2847 0.0000 0.0000 0.0000
# 4 0.0000 0.0000 0.0000 30.2722 0.0000 0.0000
# 5 0.0000 0.0000 0.0000 0.0000 29.9867 0.0000
# 6 0.0000 0.0000 0.0000 0.0000 0.0000 21.9691
#
#
#
# Elastic Compliance Matrix: (Units=1/GPa)
#
#
# Indices 1 2 3 4 5 6 
#
# 1 0.008686 -0.003641 0.000369 0.000000 0.000000 0.000000
# 2 -0.003641 0.027936 0.012026 0.000000 0.000000 0.000000
# 3 0.000369 0.012026 0.016960 0.000000 0.000000 0.000000
# 4 0.000000 0.000000 0.000000 0.033034 0.000000 0.000000
# 5 0.000000 0.000000 0.000000 0.000000 0.033348 0.000000
# 6 0.000000 0.000000 0.000000 0.000000 0.000000 0.045518
#
#
# Mechanical properties :
#
#
# Convention : Reuss Voigt Hill
#
# Bulk Modulus (GPa) = 14.06663 22.16614 18.11638
# Shear Modulus (GPa) = 29.12542 36.95753 33.04147
#
# Velocity S-wave (km/s) = 3.28891 3.70482 3.50304
# Velocity P-wave (km/s) = 4.43247 5.15104 4.80521
#
# Compressibility (1/GPa) = 0.07109025
#
# Stress axis : x y z
#
# Youngs Moduli (GPa) = 115.13085 35.79568 58.96154
#
# Poissons Ratio (x) = 0.13032 -0.02175
# Poissons Ratio (y) = 0.41915 -0.70906
# Poissons Ratio (z) = -0.04246 -0.43047
#
# Static dielectric constant tensor:
#      x y z
#    x 4.814630 0.000000 0.000000 
#    y 0.000000 4.574080 0.000000 
#    z 0.000000 0.000000 5.182720 
# 
# 
# High freq. dielectric constant tensor:
#      x y z
#    x 2.080950 0.000000 0.000000 
#    y 0.000000 2.069000 0.000000 
#    z 0.000000 0.000000 2.103250 
# 
# From -- ./inp_files/5471.got.cif
#   From: 2010.03.12/outbox.cif.g09.slc.cpg/sg36_3_cif.got.tgz:5471.got - 2010.04.14 02:13:53.
