data_PCOD8176191
_publ_section_title
;
Structure prediction by ZEFSAII (Michael W. Deem and Ramdas Pophale) SiO2 
 PCOD8176191
Probable space group: C M C 21
;
_chemical_formula_sum "Si O2"
_cell_formula_units_Z 64
_cell_length_a 8.486426
_cell_length_b 20.123898
_cell_length_c 19.565905
_cell_angle_alpha 90.000000
_cell_angle_beta 90.000000
_cell_angle_gamma 90.000000
_cell_volume 3341.464693
_symmetry_space_group_name_H-M "C M C 21"
_symmetry_group_IT_number 36
_symmetry_cell_setting 'orthorhombic'
loop_
_space_group_symop_operation_xyz
x,y,z
-x,-y,1/2+z
x,-y,1/2+z
-x,y,z
1/2+x,1/2+y,z
1/2-x,1/2-y,1/2+z
1/2+x,1/2-y,1/2+z
1/2-x,1/2+y,z
loop_
_atom_site_type_symbol
_atom_site_label
_atom_site_fract_x
_atom_site_fract_y
_atom_site_fract_z
Si Si1 0.816496 0.832556 0.970560
Si Si2 0.816535 0.310479 0.500868
Si Si3 0.681465 0.982806 0.355369
Si Si4 0.318335 0.581453 0.248354
Si Si5 0.317757 0.654778 0.856353
Si Si6 0.315768 0.523993 0.497382
Si Si7 0.184479 0.210692 0.324367
Si Si8 0.817738 0.577176 0.102460
O O1 0.747124 0.820475 0.894776
O O2 0.000000 0.845693 0.961614
O O3 0.749228 0.900153 0.003567
O O4 0.781059 0.767415 0.016898
O O5 0.716331 0.334278 0.436398
O O6 0.769211 0.353286 0.566752
O O7 0.000000 0.320730 0.482008
O O8 0.500000 0.987239 0.377251
O O9 0.721829 0.908813 0.329086
O O10 0.789735 0.998696 0.420509
O O11 0.712477 0.033547 0.294038
O O12 0.500000 0.566928 0.265581
O O13 0.277061 0.658625 0.264236
O O14 0.287089 0.567898 0.169216
O O15 0.500000 0.640355 0.845309
O O16 0.269166 0.718914 0.811147
O O17 0.500000 0.517305 0.515491
O O18 0.213989 0.482588 0.550718
O O19 0.000000 0.225557 0.331574
O O20 0.000000 0.577413 0.123480
#
# Coordination Sequence:
#
# PCOD8176191 Si02
#       8
#     8   8   8   8   8   8   8   8
#     4   8  15  31  56  83 109 143 187 236 285 335
#     4   9  18  35  56  80 113 152 189 232 289 343
#     4  12  23  37  58  86 120 155 195 248 303 351
#     4  11  23  41  62  84 115 158 202 246 296 360
#     4  11  21  33  56  88 117 147 192 241 288 343
#     4  11  20  35  59  87 117 154 199 245 293 349
#     4   9  18  36  58  82 114 150 188 236 296 347
#     4  11  23  38  57  84 119 159 198 244 298 354
#
# _framework density 19.153278
#
# number of rings (size 3 to 8) (size 9 to 14) (size 15 to 20)
#    0.000    1.750    2.500    4.125    0.000    1.500 
#    0.000    1.875    0.000    4.500    0.000    0.000 
#    0.000    0.000    0.000    0.000    0.000    0.000 
#
# Total GULP energy -396810.072956 kJ/mol
# GULP energy per Si atom -12400.314780 kJ/mol
# Density = 1.910968 g / cm^3
# Si number density = 19.153278 Si / 1000 Ang^3
#
#
#
# Elastic Constant Matrix: (Units=GPa)
#
#
# Indices 1 2 3 4 5 6 
#
# 1 57.8647 28.1295 9.8146 0.0000 0.0000 0.0000
# 2 28.1295 134.5593 33.1486 0.0000 0.0000 0.0000
# 3 9.8146 33.1486 73.4147 0.0000 0.0000 0.0000
# 4 0.0000 0.0000 0.0000 25.9439 0.0000 0.0000
# 5 0.0000 0.0000 0.0000 0.0000 25.3457 0.0000
# 6 0.0000 0.0000 0.0000 0.0000 0.0000 27.1326
#
#
#
# Elastic Compliance Matrix: (Units=1/GPa)
#
#
# Indices 1 2 3 4 5 6 
#
# 1 0.019284 -0.003821 -0.000853 0.000000 0.000000 0.000000
# 2 -0.003821 0.009119 -0.003607 0.000000 0.000000 0.000000
# 3 -0.000853 -0.003607 0.015364 0.000000 0.000000 0.000000
# 4 0.000000 0.000000 0.000000 0.038545 0.000000 0.000000
# 5 0.000000 0.000000 0.000000 0.000000 0.039454 0.000000
# 6 0.000000 0.000000 0.000000 0.000000 0.000000 0.036856
#
#
# Mechanical properties :
#
#
# Convention : Reuss Voigt Hill
#
# Bulk Modulus (GPa) = 36.75703 45.33600 41.04652
# Shear Modulus (GPa) = 27.13685 28.66750 27.90218
#
# Velocity S-wave (km/s) = 3.76816 3.87297 3.82092
# Velocity P-wave (km/s) = 6.17776 6.61221 6.39867
#
# Compressibility (1/GPa) = 0.02720568
#
# Stress axis : x y z
#
# Youngs Moduli (GPa) = 51.85666 109.66141 65.08846
#
# Poissons Ratio (x) = 0.41904 0.05550
# Poissons Ratio (y) = 0.19816 0.23475
# Poissons Ratio (z) = 0.04421 0.39550
#
# Static dielectric constant tensor:
#      x y z
#    x 3.316770 0.000000 0.000000 
#    y 0.000000 3.967050 0.000000 
#    z 0.000000 0.000000 3.206090 
# 
# 
# High freq. dielectric constant tensor:
#      x y z
#    x 1.736930 0.000000 0.000000 
#    y 0.000000 1.765730 0.000000 
#    z 0.000000 0.000000 1.705710 
# 
# From -- ./inp_files/13953.got.cif
#   From: 2010.03.12/outbox.cif.g09.slc.cpg/sg36_7_cif.got.tgz:13953.got - 2010.04.14 02:13:53.
