data_PCOD8176059
_publ_section_title
;
Structure prediction by ZEFSAII (Michael W. Deem and Ramdas Pophale) SiO2 
 PCOD8176059
Probable space group: C M C 21
;
_chemical_formula_sum "Si O2"
_cell_formula_units_Z 24
_cell_length_a 7.687288
_cell_length_b 18.798343
_cell_length_c 8.431956
_cell_angle_alpha 90.000000
_cell_angle_beta 90.000000
_cell_angle_gamma 90.000000
_cell_volume 1218.487430
_symmetry_space_group_name_H-M "C M C 21"
_symmetry_group_IT_number 36
_symmetry_cell_setting 'orthorhombic'
loop_
_space_group_symop_operation_xyz
x,y,z
-x,-y,1/2+z
x,-y,1/2+z
-x,y,z
1/2+x,1/2+y,z
1/2-x,1/2-y,1/2+z
1/2+x,1/2-y,1/2+z
1/2-x,1/2+y,z
loop_
_atom_site_type_symbol
_atom_site_label
_atom_site_fract_x
_atom_site_fract_y
_atom_site_fract_z
Si Si1 0.304042 0.340559 0.054310
Si Si2 0.500000 0.064248 0.670194
Si Si3 0.192158 0.699013 0.224173
Si Si4 0.000000 0.408962 0.541300
O O1 0.500000 0.360577 0.108540
O O2 0.173794 0.404569 0.091014
O O3 0.233199 0.270098 0.142917
O O4 0.315285 0.325813 0.866127
O O5 0.500000 0.077833 0.856078
O O6 0.500000 0.980768 0.641662
O O7 0.000000 0.714658 0.296381
O O8 0.172273 0.636620 0.090743
#
# Coordination Sequence:
#
# PCOD8176059 Si02
#       4
#     8   4   8   4
#     4  11  22  37  64  94 123 160 210 254 307 364
#     4  12  22  42  66  86 129 164 205 262 304 380
#     4   9  20  38  59  92 118 164 203 243 311 363
#     4  10  22  42  66  86 125 174 199 250 330 358
#
# _framework density 19.696550999999999
#
# number of rings (size 3 to 8) (size 9 to 14) (size 15 to 20)
#    1.000    0.667    1.667    4.000    2.333    0.000 
#    0.000    8.333    0.000    0.000    0.000    0.000 
#    0.000    0.000    0.000    0.000    0.000    0.000 
#
# Total GULP energy -148749.277801 kJ/mol
# GULP energy per Si atom -12395.773150 kJ/mol
# Density = 1.965172 g / cm^3
# Si number density = 19.696551 Si / 1000 Ang^3
#
#
#
# Elastic Constant Matrix: (Units=GPa)
#
#
# Indices 1 2 3 4 5 6 
#
# 1 76.4148 20.7568 7.6562 0.0000 0.0000 0.0000
# 2 20.7568 81.9366 -11.4964 0.0000 0.0000 0.0000
# 3 7.6562 -11.4964 79.9962 0.0000 0.0000 0.0000
# 4 0.0000 0.0000 0.0000 39.0120 0.0000 0.0000
# 5 0.0000 0.0000 0.0000 0.0000 23.6562 0.0000
# 6 0.0000 0.0000 0.0000 0.0000 0.0000 11.7343
#
#
#
# Elastic Compliance Matrix: (Units=1/GPa)
#
#
# Indices 1 2 3 4 5 6 
#
# 1 0.014341 -0.003904 -0.001934 0.000000 0.000000 0.000000
# 2 -0.003904 0.013519 0.002316 0.000000 0.000000 0.000000
# 3 -0.001934 0.002316 0.013019 0.000000 0.000000 0.000000
# 4 0.000000 0.000000 0.000000 0.025633 0.000000 0.000000
# 5 0.000000 0.000000 0.000000 0.000000 0.042272 0.000000
# 6 0.000000 0.000000 0.000000 0.000000 0.000000 0.085220
#
#
# Mechanical properties :
#
#
# Convention : Reuss Voigt Hill
#
# Bulk Modulus (GPa) = 29.55504 30.24233 29.89868
# Shear Modulus (GPa) = 23.54886 29.64257 26.59571
#
# Velocity S-wave (km/s) = 3.46147 3.88359 3.67859
# Velocity P-wave (km/s) = 5.56897 5.95795 5.76674
#
# Compressibility (1/GPa) = 0.03383518
#
# Stress axis : x y z
#
# Youngs Moduli (GPa) = 69.73158 73.97205 76.81350
#
# Poissons Ratio (x) = 0.28880 0.14852
# Poissons Ratio (y) = 0.27225 -0.17793
# Poissons Ratio (z) = 0.13483 -0.17135
#
# Static dielectric constant tensor:
#      x y z
#    x 3.382530 0.000000 0.000000 
#    y 0.000000 3.601270 0.000000 
#    z 0.000000 0.000000 3.490700 
# 
# 
# High freq. dielectric constant tensor:
#      x y z
#    x 1.746700 0.000000 0.000000 
#    y 0.000000 1.763090 0.000000 
#    z 0.000000 0.000000 1.773900 
# 
# From -- ./inp_files/2159.got.cif
#   From: 2010.03.12/outbox.cif.g09.slc.cpg/sg36_2_cif.got.tgz:2159.got - 2010.04.14 02:13:53.
