data_PCOD8176917
_publ_section_title
;
Structure prediction by ZEFSAII (Michael W. Deem and Ramdas Pophale) SiO2 
 PCOD8176917
Probable space group: C C C 2
;
_chemical_formula_sum "Si O2"
_cell_formula_units_Z 60
_cell_length_a 11.471368
_cell_length_b 25.193138
_cell_length_c 9.466845
_cell_angle_alpha 90.000000
_cell_angle_beta 90.000000
_cell_angle_gamma 90.000000
_cell_volume 2735.915905
_symmetry_space_group_name_H-M "C C C 2"
_symmetry_group_IT_number 37
_symmetry_cell_setting 'orthorhombic'
loop_
_space_group_symop_operation_xyz
x,y,z
-x,-y,z
-x,y,1/2+z
x,-y,1/2+z
1/2+x,1/2+y,z
1/2-x,1/2-y,z
1/2-x,1/2+y,1/2+z
1/2+x,1/2-y,1/2+z
loop_
_atom_site_type_symbol
_atom_site_label
_atom_site_fract_x
_atom_site_fract_y
_atom_site_fract_z
Si Si1 0.481338 0.854843 0.335020
Si Si2 0.235008 0.691851 0.467652
Si Si3 0.774140 0.307061 0.793631
Si Si4 0.000000 0.500000 0.271130
Si Si5 0.768305 0.507667 0.432484
Si Si6 0.113374 0.904903 0.484135
Si Si7 0.120173 0.903901 0.809344
Si Si8 0.423810 0.081923 0.582194
O O1 0.397453 0.824373 0.441290
O O2 0.588840 0.817122 0.301881
O O3 0.531157 0.905328 0.423999
O O4 0.409674 0.868050 0.189582
O O5 0.250000 0.750000 0.395658
O O6 0.262943 0.696028 0.631921
O O7 0.321718 0.645670 0.411729
O O8 0.750000 0.250000 0.867383
O O9 0.697286 0.353708 0.866110
O O10 0.887201 0.486449 0.363602
O O11 0.024547 0.450581 0.165358
O O12 0.693735 0.457087 0.478182
O O13 0.695523 0.542668 0.321872
O O14 0.805913 0.546108 0.565761
O O15 0.083497 0.895109 0.647786
O O16 0.993321 0.912463 0.403400
#
# Coordination Sequence:
#
# PCOD8176917 Si02
#       8
#     8   8   8   4   8   8   8   8
#     4  12  23  43  71 103 140 176 228 286 355 413
#     4  10  24  45  69 100 139 180 224 284 349 408
#     4  10  22  44  74  98 137 184 228 288 349 412
#     4  12  24  38  66 104 138 174 224 278 342 408
#     4  12  25  43  70  98 138 184 227 281 338 420
#     4  11  27  45  70  98 134 183 231 278 343 416
#     4  11  25  47  68  96 136 180 230 277 344 412
#     4  12  24  39  65 103 140 175 219 284 345 410
#
# _framework density 21.930499000000001
#
# number of rings (size 3 to 8) (size 9 to 14) (size 15 to 20)
#    0.000    0.800    4.000    2.400    5.600    4.267 
#    0.000    0.667    0.000    0.000    0.000    0.000 
#    0.000    0.000    0.000    0.000    0.000    0.000 
#
# Total GULP energy -371863.847654 kJ/mol
# GULP energy per Si atom -12395.461588 kJ/mol
# Density = 2.188058 g / cm^3
# Si number density = 21.930499 Si / 1000 Ang^3
#
#
#
# Elastic Constant Matrix: (Units=GPa)
#
#
# Indices 1 2 3 4 5 6 
#
# 1 124.3980 53.4625 27.2655 0.0000 0.0000 0.0000
# 2 53.4625 136.8456 26.2383 0.0000 0.0000 0.0000
# 3 27.2655 26.2383 76.6638 0.0000 0.0000 0.0000
# 4 0.0000 0.0000 0.0000 23.4575 0.0000 0.0000
# 5 0.0000 0.0000 0.0000 0.0000 32.2496 0.0000
# 6 0.0000 0.0000 0.0000 0.0000 0.0000 21.5795
#
#
#
# Elastic Compliance Matrix: (Units=1/GPa)
#
#
# Indices 1 2 3 4 5 6 
#
# 1 0.010053 -0.003470 -0.002388 0.000000 0.000000 0.000000
# 2 -0.003470 0.009018 -0.001853 0.000000 0.000000 0.000000
# 3 -0.002388 -0.001853 0.014527 0.000000 0.000000 0.000000
# 4 0.000000 0.000000 0.000000 0.042630 0.000000 0.000000
# 5 0.000000 0.000000 0.000000 0.000000 0.031008 0.000000
# 6 0.000000 0.000000 0.000000 0.000000 0.000000 0.046340
#
#
# Mechanical properties :
#
#
# Convention : Reuss Voigt Hill
#
# Bulk Modulus (GPa) = 55.01017 61.31557 58.16287
# Shear Modulus (GPa) = 28.56207 30.85338 29.70773
#
# Velocity S-wave (km/s) = 3.61278 3.75490 3.68452
# Velocity P-wave (km/s) = 6.52236 6.84242 6.68431
#
# Compressibility (1/GPa) = 0.01817846
#
# Stress axis : x y z
#
# Youngs Moduli (GPa) = 99.46988 110.88627 68.83608
#
# Poissons Ratio (x) = 0.38475 0.16438
# Poissons Ratio (y) = 0.34513 0.12752
# Poissons Ratio (z) = 0.23753 0.20542
#
# Static dielectric constant tensor:
#      x y z
#    x 3.777580 0.000000 0.000000 
#    y 0.000000 4.374630 0.000000 
#    z 0.000000 0.000000 3.887290 
# 
# 
# High freq. dielectric constant tensor:
#      x y z
#    x 1.851800 0.000000 0.000000 
#    y 0.000000 1.872500 0.000000 
#    z 0.000000 0.000000 1.853220 
# 
# From -- ./inp_files/3071.got.cif
#   From: 2010.03.12/outbox.cif.g09.slc.cpg/sg37_2_cif.got.tgz:3071.got - 2010.04.14 02:25:27.
