data_PCOD8176658
_publ_section_title
;
Structure prediction by ZEFSAII (Michael W. Deem and Ramdas Pophale) SiO2 
 PCOD8176658
Probable space group: C C C 2
;
_chemical_formula_sum "Si O2"
_cell_formula_units_Z 36
_cell_length_a 11.434507
_cell_length_b 10.524024
_cell_length_c 13.370517
_cell_angle_alpha 90.000000
_cell_angle_beta 90.000000
_cell_angle_gamma 90.000000
_cell_volume 1608.968253
_symmetry_space_group_name_H-M "C C C 2"
_symmetry_group_IT_number 37
_symmetry_cell_setting 'orthorhombic'
loop_
_space_group_symop_operation_xyz
x,y,z
-x,-y,z
-x,y,1/2+z
x,-y,1/2+z
1/2+x,1/2+y,z
1/2-x,1/2-y,z
1/2-x,1/2+y,1/2+z
1/2+x,1/2-y,1/2+z
loop_
_atom_site_type_symbol
_atom_site_label
_atom_site_fract_x
_atom_site_fract_y
_atom_site_fract_z
Si Si1 0.826049 0.638358 0.407080
Si Si2 0.874330 0.778185 0.203698
Si Si3 0.750000 0.250000 0.231066
Si Si4 0.872120 0.978988 0.824013
Si Si5 0.560390 0.125176 0.106989
O O1 0.750000 0.750000 0.456954
O O2 0.883483 0.691105 0.304644
O O3 0.738546 0.519616 0.391365
O O4 0.923703 0.602929 0.488267
O O5 0.750000 0.750000 0.151242
O O6 0.975742 0.744987 0.125708
O O7 0.881734 0.927424 0.228055
O O8 0.845944 0.168185 0.294383
O O9 0.682099 0.146617 0.164241
O O10 0.000000 0.000000 0.877959
O O11 0.500000 0.000000 0.152732
#
# Coordination Sequence:
#
# PCOD8176658 Si02
#       5
#     8   8   4   8   8
#     4   9  21  42  66  97 137 180 233 287 349 415
#     4   9  20  42  69  92 132 184 228 288 354 415
#     4  12  24  40  72 110 132 186 238 286 360 432
#     4  10  20  42  68  95 135 185 229 287 356 420
#     4  12  23  40  68 101 140 182 236 293 349 423
#
# _framework density 22.374586000000001
#
# number of rings (size 3 to 8) (size 9 to 14) (size 15 to 20)
#    0.000    2.222    3.333    2.667    0.000    2.667 
#    0.000   10.000    2.444    0.000    0.000    0.000 
#    0.000    0.000    0.000    0.000    0.000    0.000 
#
# Total GULP energy -223056.541114 kJ/mol
# GULP energy per Si atom -12392.030062 kJ/mol
# Density = 2.232366 g / cm^3
# Si number density = 22.374586 Si / 1000 Ang^3
#
#
#
# Elastic Constant Matrix: (Units=GPa)
#
#
# Indices 1 2 3 4 5 6 
#
# 1 118.3681 35.0108 52.7736 0.0000 0.0000 0.0000
# 2 35.0108 110.3415 27.9596 0.0000 0.0000 0.0000
# 3 52.7736 27.9596 70.9681 0.0000 0.0000 0.0000
# 4 0.0000 0.0000 0.0000 11.3298 0.0000 0.0000
# 5 0.0000 0.0000 0.0000 0.0000 38.8075 0.0000
# 6 0.0000 0.0000 0.0000 0.0000 0.0000 49.6953
#
#
#
# Elastic Compliance Matrix: (Units=1/GPa)
#
#
# Indices 1 2 3 4 5 6 
#
# 1 0.012972 -0.001857 -0.008915 0.000000 0.000000 0.000000
# 2 -0.001857 0.010334 -0.002690 0.000000 0.000000 0.000000
# 3 -0.008915 -0.002690 0.021780 0.000000 0.000000 0.000000
# 4 0.000000 0.000000 0.000000 0.088263 0.000000 0.000000
# 5 0.000000 0.000000 0.000000 0.000000 0.025768 0.000000
# 6 0.000000 0.000000 0.000000 0.000000 0.000000 0.020123
#
#
# Mechanical properties :
#
#
# Convention : Reuss Voigt Hill
#
# Bulk Modulus (GPa) = 55.06110 59.01840 57.03975
# Shear Modulus (GPa) = 23.56073 32.22876 27.89474
#
# Velocity S-wave (km/s) = 3.24854 3.79940 3.53472
# Velocity P-wave (km/s) = 6.22357 6.75884 6.49672
#
# Compressibility (1/GPa) = 0.01816164
#
# Stress axis : x y z
#
# Youngs Moduli (GPa) = 77.08871 96.77082 45.91387
#
# Poissons Ratio (x) = 0.17971 0.40931
# Poissons Ratio (y) = 0.14316 0.12352
# Poissons Ratio (z) = 0.68722 0.26034
#
# Static dielectric constant tensor:
#      x y z
#    x 4.268340 0.000000 0.000000 
#    y 0.000000 3.966960 0.000000 
#    z 0.000000 0.000000 3.447500 
# 
# 
# High freq. dielectric constant tensor:
#      x y z
#    x 1.897820 0.000000 0.000000 
#    y 0.000000 1.881130 0.000000 
#    z 0.000000 0.000000 1.827650 
# 
# From -- ./inp_files/11281.got.cif
#   From: 2010.03.12/outbox.cif.g09.slc.cpg/sg37_6_cif.got.tgz:11281.got - 2010.04.14 02:25:27.
