data_PCOD8176402
_publ_section_title
;
Structure prediction by ZEFSAII (Michael W. Deem and Ramdas Pophale) SiO2 
 PCOD8176402
Probable space group: C C C 2
;
_chemical_formula_sum "Si O2"
_cell_formula_units_Z 64
_cell_length_a 17.176335
_cell_length_b 20.455040
_cell_length_c 9.055222
_cell_angle_alpha 90.000000
_cell_angle_beta 90.000000
_cell_angle_gamma 90.000000
_cell_volume 3181.485417
_symmetry_space_group_name_H-M "C C C 2"
_symmetry_group_IT_number 37
_symmetry_cell_setting 'orthorhombic'
loop_
_space_group_symop_operation_xyz
x,y,z
-x,-y,z
-x,y,1/2+z
x,-y,1/2+z
1/2+x,1/2+y,z
1/2-x,1/2-y,z
1/2-x,1/2+y,1/2+z
1/2+x,1/2-y,1/2+z
loop_
_atom_site_type_symbol
_atom_site_label
_atom_site_fract_x
_atom_site_fract_y
_atom_site_fract_z
Si Si1 0.924874 0.835867 0.767940
Si Si2 0.908307 0.921537 0.299731
Si Si3 0.254061 0.179047 0.784985
Si Si4 0.767430 0.442007 0.470477
Si Si5 0.045550 0.792861 0.949976
Si Si6 0.315336 0.801436 0.964663
Si Si7 0.724692 0.067902 0.800183
Si Si8 0.417932 0.454150 0.972803
O O1 0.833759 0.838737 0.740622
O O2 0.964324 0.824598 0.610381
O O3 0.953418 0.904315 0.846771
O O4 0.958365 0.779694 0.881181
O O5 0.918017 0.845607 0.337081
O O6 0.816843 0.933405 0.299312
O O7 0.941669 0.971161 0.427732
O O8 0.945063 0.938272 0.139031
O O9 0.250000 0.250000 0.864847
O O10 0.292600 0.124954 0.888620
O O11 0.304252 0.182794 0.636704
O O12 0.804721 0.438471 0.632564
O O13 0.805149 0.504749 0.390562
O O14 0.674654 0.445320 0.469014
O O15 0.098310 0.728315 0.947276
O O16 0.250000 0.750000 0.910365
O O17 0.310996 0.866872 0.870018
#
# Coordination Sequence:
#
# PCOD8176402 Si02
#       8
#     8   8   8   8   8   8   8   8
#     4  11  22  38  54  80 115 150 195 241 292 345
#     4  10  18  33  53  79 112 156 204 241 280 342
#     4  10  19  39  61  84 114 154 194 234 292 353
#     4   9  19  31  55  85 116 149 187 248 292 346
#     4  12  23  37  56  81 117 157 197 244 291 348
#     4  11  20  37  60  82 114 161 202 238 290 343
#     4  10  18  33  53  84 119 148 197 244 291 339
#     4   9  19  33  53  78 110 158 199 239 286 338
#
# _framework density 20.116389999999999
#
# number of rings (size 3 to 8) (size 9 to 14) (size 15 to 20)
#    0.000    1.750    3.750    2.250    0.000    5.000 
#    4.500    2.500    0.000    0.000    0.000    0.875 
#    0.000    0.000    0.000    0.000    0.000    0.000 
#
# Total GULP energy -396684.311229 kJ/mol
# GULP energy per Si atom -12396.384726 kJ/mol
# Density = 2.007060 g / cm^3
# Si number density = 20.116390 Si / 1000 Ang^3
#
#
#
# Elastic Constant Matrix: (Units=GPa)
#
#
# Indices 1 2 3 4 5 6 
#
# 1 30.0953 19.2032 18.7685 0.0000 0.0000 0.0000
# 2 19.2032 159.0990 83.1870 0.0000 0.0000 0.0000
# 3 18.7685 83.1870 161.2570 0.0000 0.0000 0.0000
# 4 0.0000 0.0000 0.0000 34.5034 0.0000 0.0000
# 5 0.0000 0.0000 0.0000 0.0000 14.9612 0.0000
# 6 0.0000 0.0000 0.0000 0.0000 0.0000 34.6994
#
#
#
# Elastic Compliance Matrix: (Units=1/GPa)
#
#
# Indices 1 2 3 4 5 6 
#
# 1 0.036859 -0.003020 -0.002732 0.000000 0.000000 0.000000
# 2 -0.003020 0.008854 -0.004216 0.000000 0.000000 0.000000
# 3 -0.002732 -0.004216 0.008694 0.000000 0.000000 0.000000
# 4 0.000000 0.000000 0.000000 0.028983 0.000000 0.000000
# 5 0.000000 0.000000 0.000000 0.000000 0.066840 0.000000
# 6 0.000000 0.000000 0.000000 0.000000 0.000000 0.028819
#
#
# Mechanical properties :
#
#
# Convention : Reuss Voigt Hill
#
# Bulk Modulus (GPa) = 29.01030 65.86319 47.43674
# Shear Modulus (GPa) = 23.75574 32.11899 27.93736
#
# Velocity S-wave (km/s) = 3.44017 4.00015 3.73068
# Velocity P-wave (km/s) = 5.49839 7.35847 6.49536
#
# Compressibility (1/GPa) = 0.03447052
#
# Stress axis : x y z
#
# Youngs Moduli (GPa) = 27.13062 112.93773 115.01925
#
# Poissons Ratio (x) = 0.34113 0.31421
# Poissons Ratio (y) = 0.08195 0.48494
# Poissons Ratio (z) = 0.07411 0.47616
#
# Static dielectric constant tensor:
#      x y z
#    x 3.532140 0.000000 0.000000 
#    y 0.000000 3.782550 0.000000 
#    z 0.000000 0.000000 3.901740 
# 
# 
# High freq. dielectric constant tensor:
#      x y z
#    x 1.749910 0.000000 0.000000 
#    y 0.000000 1.779700 0.000000 
#    z 0.000000 0.000000 1.798220 
# 
# From -- ./inp_files/4147.got.cif
#   From: 2010.03.12/outbox.cif.g09.slc.cpg/sg37_3_cif.got.tgz:4147.got - 2010.04.14 02:25:27.
