data_PCOD8176166
_publ_section_title
;
Structure prediction by ZEFSAII (Michael W. Deem and Ramdas Pophale) SiO2 
 PCOD8176166
Probable space group: C M C 21
;
_chemical_formula_sum "Si O2"
_cell_formula_units_Z 64
_cell_length_a 9.091842
_cell_length_b 15.352250
_cell_length_c 23.578908
_cell_angle_alpha 90.000000
_cell_angle_beta 90.000000
_cell_angle_gamma 90.000000
_cell_volume 3291.149433
_symmetry_space_group_name_H-M "C M C 21"
_symmetry_group_IT_number 36
_symmetry_cell_setting 'orthorhombic'
loop_
_space_group_symop_operation_xyz
x,y,z
-x,-y,1/2+z
x,-y,1/2+z
-x,y,z
1/2+x,1/2+y,z
1/2-x,1/2-y,1/2+z
1/2+x,1/2-y,1/2+z
1/2-x,1/2+y,z
loop_
_atom_site_type_symbol
_atom_site_label
_atom_site_fract_x
_atom_site_fract_y
_atom_site_fract_z
Si Si1 0.673095 0.210471 0.891230
Si Si2 0.671237 0.217654 0.156523
Si Si3 0.325227 0.141431 0.460168
Si Si4 0.168010 0.517186 0.756356
Si Si5 0.828643 0.880051 0.078215
Si Si6 0.174516 0.515480 0.882464
Si Si7 0.166067 0.721195 0.761892
Si Si8 0.172549 0.048497 0.148782
O O1 0.500000 0.218798 0.903610
O O2 0.761644 0.270417 0.934225
O O3 0.729429 0.111373 0.901401
O O4 0.709536 0.239365 0.826997
O O5 0.500000 0.198158 0.156936
O O6 0.710566 0.304444 0.122403
O O7 0.724966 0.225698 0.221435
O O8 0.752103 0.136768 0.126042
O O9 0.500000 0.145934 0.458657
O O10 0.271476 0.132447 0.523869
O O11 0.265918 0.057709 0.425296
O O12 0.227988 0.492347 0.818931
O O13 0.180095 0.619948 0.747940
O O14 0.271837 0.469502 0.712063
O O15 0.000000 0.486111 0.747372
O O16 0.000000 0.877669 0.061295
O O17 0.783482 0.971114 0.106521
O O18 0.000000 0.519430 0.880747
O O19 0.000000 0.752869 0.750158
O O20 0.000000 0.061662 0.151017
#
# Coordination Sequence:
#
# PCOD8176166 Si02
#       8
#     8   8   8   8   8   8   8   8
#     4   9  19  38  60  84 119 159 193 233 292 351
#     4  11  23  39  60  86 116 156 199 242 300 358
#     4  11  23  38  61  89 116 152 202 248 287 344
#     4   9  17  34  60  87 120 158 192 234 293 353
#     4  10  24  45  61  79 117 160 198 244 297 352
#     4   8  18  37  58  84 118 155 191 233 287 349
#     4   9  18  34  59  89 122 156 194 241 293 349
#     4  11  23  39  59  88 120 152 197 247 297 352
#
# _framework density 19.446093000000001
#
# number of rings (size 3 to 8) (size 9 to 14) (size 15 to 20)
#    0.000    2.250    1.250    2.625    1.750    3.500 
#    0.000    7.500    0.000    0.000    0.000    0.000 
#    0.000    0.000    0.000    0.000    0.000    0.000 
#
# Total GULP energy -396848.594098 kJ/mol
# GULP energy per Si atom -12401.518566 kJ/mol
# Density = 1.940183 g / cm^3
# Si number density = 19.446093 Si / 1000 Ang^3
#
#
#
# Elastic Constant Matrix: (Units=GPa)
#
#
# Indices 1 2 3 4 5 6 
#
# 1 68.2856 31.2543 35.6798 0.0000 0.0000 0.0000
# 2 31.2543 66.1206 16.2785 0.0000 0.0000 0.0000
# 3 35.6798 16.2785 75.7919 0.0000 0.0000 0.0000
# 4 0.0000 0.0000 0.0000 19.2664 0.0000 0.0000
# 5 0.0000 0.0000 0.0000 0.0000 32.4946 0.0000
# 6 0.0000 0.0000 0.0000 0.0000 0.0000 31.2467
#
#
#
# Elastic Compliance Matrix: (Units=1/GPa)
#
#
# Indices 1 2 3 4 5 6 
#
# 1 0.023473 -0.008842 -0.009151 0.000000 0.000000 0.000000
# 2 -0.008842 0.019299 0.000018 0.000000 0.000000 0.000000
# 3 -0.009151 0.000018 0.017498 0.000000 0.000000 0.000000
# 4 0.000000 0.000000 0.000000 0.051904 0.000000 0.000000
# 5 0.000000 0.000000 0.000000 0.000000 0.030774 0.000000
# 6 0.000000 0.000000 0.000000 0.000000 0.000000 0.032003
#
#
# Mechanical properties :
#
#
# Convention : Reuss Voigt Hill
#
# Bulk Modulus (GPa) = 41.12054 41.84705 41.48379
# Shear Modulus (GPa) = 22.83001 25.06724 23.94862
#
# Velocity S-wave (km/s) = 3.43011 3.59425 3.51314
# Velocity P-wave (km/s) = 6.07284 6.22825 6.15103
#
# Compressibility (1/GPa) = 0.02431875
#
# Stress axis : x y z
#
# Youngs Moduli (GPa) = 42.60212 51.81545 57.14891
#
# Poissons Ratio (x) = 0.45818 0.52297
# Poissons Ratio (y) = 0.37671 -0.00101
# Poissons Ratio (z) = 0.38985 -0.00091
#
# Static dielectric constant tensor:
#      x y z
#    x 3.349910 0.000000 0.000000 
#    y 0.000000 3.788510 0.000000 
#    z 0.000000 0.000000 3.516580 
# 
# 
# High freq. dielectric constant tensor:
#      x y z
#    x 1.742970 0.000000 0.000000 
#    y 0.000000 1.769340 0.000000 
#    z 0.000000 0.000000 1.752380 
# 
# From -- ./inp_files/16676.got.cif
#   From: 2010.03.12/outbox.cif.g09.slc.cpg/sg36_9_cif.got.tgz:16676.got - 2010.04.14 02:13:53.
