data_PCOD8176957
_publ_section_title
;
Structure prediction by ZEFSAII (Michael W. Deem and Ramdas Pophale) SiO2 
 PCOD8176957
Probable space group: C C C 2
;
_chemical_formula_sum "Si O2"
_cell_formula_units_Z 48
_cell_length_a 12.104826
_cell_length_b 13.754290
_cell_length_c 12.729655
_cell_angle_alpha 90.000000
_cell_angle_beta 90.000000
_cell_angle_gamma 90.000000
_cell_volume 2119.402106
_symmetry_space_group_name_H-M "C C C 2"
_symmetry_group_IT_number 37
_symmetry_cell_setting 'orthorhombic'
loop_
_space_group_symop_operation_xyz
x,y,z
-x,-y,z
-x,y,1/2+z
x,-y,1/2+z
1/2+x,1/2+y,z
1/2-x,1/2-y,z
1/2-x,1/2+y,1/2+z
1/2+x,1/2-y,1/2+z
loop_
_atom_site_type_symbol
_atom_site_label
_atom_site_fract_x
_atom_site_fract_y
_atom_site_fract_z
Si Si1 0.027895 0.167681 0.086020
Si Si2 0.750000 0.250000 0.670121
Si Si3 0.680420 0.053341 0.677572
Si Si4 0.500000 0.000000 0.829512
Si Si5 0.138188 0.077852 0.745481
Si Si6 0.750000 0.750000 0.859805
Si Si7 0.938119 0.648137 0.989357
Si Si8 0.500000 0.500000 0.421284
O O1 0.159688 0.186411 0.103144
O O2 0.969963 0.123420 0.189276
O O3 0.983616 0.276790 0.055426
O O4 0.997593 0.096717 0.990632
O O5 0.691581 0.161839 0.732040
O O6 0.622554 0.068668 0.564348
O O7 0.606768 0.990281 0.756445
O O8 0.794791 0.993000 0.665163
O O9 0.489321 0.905662 0.902753
O O10 0.215147 0.164028 0.782977
O O11 0.105649 0.010322 0.844603
O O12 0.848788 0.716095 0.933453
#
# Coordination Sequence:
#
# PCOD8176957 Si02
#       8
#     8   4   8   4   8   4   8   4
#     4  11  25  43  69 103 143 184 234 294 361 421
#     4  10  23  42  68  95 138 186 219 284 362 421
#     4  11  25  44  70 100 144 182 239 298 355 425
#     4  12  26  44  70 104 136 186 240 290 366 432
#     4  12  27  43  71 107 140 186 243 297 354 425
#     4  12  25  46  70 101 142 190 237 286 360 435
#     4  11  25  45  69  99 140 189 233 293 365 427
#     4  12  24  40  70 104 140 178 234 292 356 434
#
# _framework density 22.647897
#
# number of rings (size 3 to 8) (size 9 to 14) (size 15 to 20)
#    0.000    0.667    3.333    5.000    7.000    2.667 
#    0.000    0.000    0.000    1.000    0.000    0.000 
#    0.000    0.000    0.000    0.000    0.000    0.000 
#
# Total GULP energy -297328.069324 kJ/mol
# GULP energy per Si atom -12388.669555 kJ/mol
# Density = 2.259635 g / cm^3
# Si number density = 22.647897 Si / 1000 Ang^3
#
#
#
# Elastic Constant Matrix: (Units=GPa)
#
#
# Indices 1 2 3 4 5 6 
#
# 1 80.9418 46.1779 27.4511 0.0000 0.0000 0.0000
# 2 46.1779 121.4934 55.4649 0.0000 0.0000 0.0000
# 3 27.4511 55.4649 89.3427 0.0000 0.0000 0.0000
# 4 0.0000 0.0000 0.0000 25.9338 0.0000 0.0000
# 5 0.0000 0.0000 0.0000 0.0000 19.3493 0.0000
# 6 0.0000 0.0000 0.0000 0.0000 0.0000 48.5091
#
#
#
# Elastic Compliance Matrix: (Units=1/GPa)
#
#
# Indices 1 2 3 4 5 6 
#
# 1 0.015935 -0.005333 -0.001585 0.000000 0.000000 0.000000
# 2 -0.005333 0.013271 -0.006600 0.000000 0.000000 0.000000
# 3 -0.001585 -0.006600 0.015777 0.000000 0.000000 0.000000
# 4 0.000000 0.000000 0.000000 0.038560 0.000000 0.000000
# 5 0.000000 0.000000 0.000000 0.000000 0.051682 0.000000
# 6 0.000000 0.000000 0.000000 0.000000 0.000000 0.020615
#
#
# Mechanical properties :
#
#
# Convention : Reuss Voigt Hill
#
# Bulk Modulus (GPa) = 55.72176 61.10731 58.41453
# Shear Modulus (GPa) = 26.47494 29.60404 28.03949
#
# Velocity S-wave (km/s) = 3.42274 3.61937 3.52243
# Velocity P-wave (km/s) = 6.34643 6.67131 6.51090
#
# Compressibility (1/GPa) = 0.01794631
#
# Stress axis : x y z
#
# Youngs Moduli (GPa) = 62.75654 75.35240 63.38152
#
# Poissons Ratio (x) = 0.40183 0.10048
# Poissons Ratio (y) = 0.33466 0.41833
# Poissons Ratio (z) = 0.09949 0.49734
#
# Static dielectric constant tensor:
#      x y z
#    x 4.087900 0.000000 0.000000 
#    y 0.000000 6.096200 0.000000 
#    z 0.000000 0.000000 4.118110 
# 
# 
# High freq. dielectric constant tensor:
#      x y z
#    x 1.876280 0.000000 0.000000 
#    y 0.000000 1.917740 0.000000 
#    z 0.000000 0.000000 1.885150 
# 
# From -- ./inp_files/11562.got.cif
#   From: 2010.03.12/outbox.cif.g09.slc.cpg/sg37_6_cif.got.tgz:11562.got - 2010.04.14 02:25:27.
