data_PCOD8176624
_publ_section_title
;
Structure prediction by ZEFSAII (Michael W. Deem and Ramdas Pophale) SiO2 
 PCOD8176624
Probable space group: C C C 2
;
_chemical_formula_sum "Si O2"
_cell_formula_units_Z 48
_cell_length_a 25.710367
_cell_length_b 8.558866
_cell_length_c 9.746176
_cell_angle_alpha 90.000000
_cell_angle_beta 90.000000
_cell_angle_gamma 90.000000
_cell_volume 2144.661486
_symmetry_space_group_name_H-M "C C C 2"
_symmetry_group_IT_number 37
_symmetry_cell_setting 'orthorhombic'
loop_
_space_group_symop_operation_xyz
x,y,z
-x,-y,z
-x,y,1/2+z
x,-y,1/2+z
1/2+x,1/2+y,z
1/2-x,1/2-y,z
1/2-x,1/2+y,1/2+z
1/2+x,1/2-y,1/2+z
loop_
_atom_site_type_symbol
_atom_site_label
_atom_site_fract_x
_atom_site_fract_y
_atom_site_fract_z
Si Si1 0.961667 0.648980 0.795750
Si Si2 0.517859 0.329254 0.015094
Si Si3 0.354629 0.747035 0.361186
Si Si4 0.804851 0.811835 0.135517
Si Si5 0.800260 0.168873 0.097499
Si Si6 0.378584 0.384615 0.375356
O O1 0.967155 0.741309 0.654019
O O2 0.899337 0.624355 0.821294
O O3 0.000000 0.500000 0.791427
O O4 0.972169 0.743944 0.935131
O O5 0.500000 0.500000 0.062795
O O6 0.562381 0.332512 0.897832
O O7 0.325241 0.786259 0.503674
O O8 0.310679 0.748667 0.244264
O O9 0.378162 0.572045 0.368296
O O10 0.750000 0.750000 0.195146
O O11 0.852977 0.808075 0.241056
O O12 0.789496 0.986357 0.098572
O O13 0.750000 0.250000 0.031266
O O14 0.850040 0.193771 0.003466
#
# Coordination Sequence:
#
# PCOD8176624 Si02
#       6
#     8   8   8   8   8   8
#     4  12  27  46  66 102 143 177 224 297 359 406
#     4  12  25  44  75  99 129 185 241 279 337 423
#     4  10  21  40  66  91 133 178 222 273 339 406
#     4  10  22  40  65  99 133 172 225 279 333 402
#     4  10  20  39  64  90 130 174 224 279 336 401
#     4  10  21  40  66  97 126 174 235 279 318 407
#
# _framework density 22.381153000000001
#
# number of rings (size 3 to 8) (size 9 to 14) (size 15 to 20)
#    0.000    1.333    3.333    2.000    2.333    0.000 
#    6.000    0.000    0.000    0.000    0.000    0.000 
#    0.000    0.000    0.000    0.000    0.000    0.000 
#
# Total GULP energy -297427.584152 kJ/mol
# GULP energy per Si atom -12392.816006 kJ/mol
# Density = 2.233021 g / cm^3
# Si number density = 22.381153 Si / 1000 Ang^3
#
#
#
# Elastic Constant Matrix: (Units=GPa)
#
#
# Indices 1 2 3 4 5 6 
#
# 1 108.9289 33.1456 16.5832 0.0000 0.0000 0.0000
# 2 33.1456 60.9909 16.9138 0.0000 0.0000 0.0000
# 3 16.5832 16.9138 100.7846 0.0000 0.0000 0.0000
# 4 0.0000 0.0000 0.0000 -20.0336 0.0000 0.0000
# 5 0.0000 0.0000 0.0000 0.0000 -246.3216 0.0000
# 6 0.0000 0.0000 0.0000 0.0000 0.0000 39.7389
#
#
#
# Elastic Compliance Matrix: (Units=1/GPa)
#
#
# Indices 1 2 3 4 5 6 
#
# 1 0.011068 -0.005779 -0.000851 0.000000 0.000000 0.000000
# 2 -0.005779 0.020214 -0.002441 0.000000 0.000000 0.000000
# 3 -0.000851 -0.002441 0.010472 0.000000 0.000000 0.000000
# 4 0.000000 0.000000 0.000000 -0.049916 0.000000 0.000000
# 5 0.000000 0.000000 0.000000 0.000000 -0.004060 0.000000
# 6 0.000000 0.000000 0.000000 0.000000 0.000000 0.025164
#
#
# Mechanical properties :
#
#
# Convention : Reuss Voigt Hill
#
# Bulk Modulus (GPa) = 42.35432 44.88774 43.62103
# Shear Modulus (GPa) = 128.34969 -31.71916 48.31527
#
# Velocity S-wave (km/s) = 7.58101 -3.76869 4.65127
# Velocity P-wave (km/s) = 9.77723 1.07806 6.95544
#
# Compressibility (1/GPa) = 0.02361034
#
# Stress axis : x y z
#
# Youngs Moduli (GPa) = 90.34728 49.47171 95.49316
#
# Poissons Ratio (x) = 0.28590 0.08130
# Poissons Ratio (y) = 0.52212 0.23314
# Poissons Ratio (z) = 0.07692 0.12078
#
# Static dielectric constant tensor:
#      x y z
#    x 4.166380 0.000000 0.000000 
#    y 0.000000 3.759340 0.000000 
#    z 0.000000 0.000000 4.108570 
# 
# 
# High freq. dielectric constant tensor:
#      x y z
#    x 1.896920 0.000000 0.000000 
#    y 0.000000 1.846920 0.000000 
#    z 0.000000 0.000000 1.893620 
# 
# From -- ./inp_files/4946.got.cif
#   From: 2010.03.12/outbox.cif.g09.slc.cpg/sg37_3_cif.got.tgz:4946.got - 2010.04.14 02:25:27.
