data_PCOD8176542
_publ_section_title
;
Structure prediction by ZEFSAII (Michael W. Deem and Ramdas Pophale) SiO2 
 PCOD8176542
Probable space group: C C C 2
;
_chemical_formula_sum "Si O2"
_cell_formula_units_Z 52
_cell_length_a 11.675608
_cell_length_b 16.119197
_cell_length_c 13.508652
_cell_angle_alpha 90.000000
_cell_angle_beta 90.000000
_cell_angle_gamma 90.000000
_cell_volume 2542.347562
_symmetry_space_group_name_H-M "C C C 2"
_symmetry_group_IT_number 37
_symmetry_cell_setting 'orthorhombic'
loop_
_space_group_symop_operation_xyz
x,y,z
-x,-y,z
-x,y,1/2+z
x,-y,1/2+z
1/2+x,1/2+y,z
1/2-x,1/2-y,z
1/2-x,1/2+y,1/2+z
1/2+x,1/2-y,1/2+z
loop_
_atom_site_type_symbol
_atom_site_label
_atom_site_fract_x
_atom_site_fract_y
_atom_site_fract_z
Si Si1 0.769590 0.347501 0.173300
Si Si2 0.277700 0.623298 0.952208
Si Si3 0.660669 0.184858 0.501567
Si Si4 0.466345 0.852605 0.693397
Si Si5 0.500000 0.000000 0.316367
Si Si6 0.067014 0.268368 0.386568
Si Si7 0.734549 0.947052 0.867953
O O1 0.750000 0.250000 0.197986
O O2 0.726394 0.410096 0.260806
O O3 0.903751 0.358519 0.158465
O O4 0.708301 0.376572 0.071692
O O5 0.153161 0.660476 0.926296
O O6 0.381268 0.678400 0.909789
O O7 0.294697 0.532725 0.901644
O O8 0.750000 0.250000 0.542631
O O9 0.610699 0.143910 0.598314
O O10 0.558868 0.221613 0.433330
O O11 0.751618 0.124293 0.447742
O O12 0.445430 0.774885 0.767250
O O13 0.428843 0.935154 0.750892
O O14 0.595775 0.046212 0.379714
#
# Coordination Sequence:
#
# PCOD8176542 Si02
#       7
#     8   8   8   8   4   8   8
#     4  11  21  40  67  91 125 177 222 255 332 407
#     4  11  22  40  67  94 126 168 218 266 330 401
#     4  12  25  40  61  92 128 170 213 268 327 387
#     4  11  23  36  63  93 125 161 205 271 324 390
#     4  10  20  34  58  92 124 152 200 262 332 366
#     4  11  22  42  64  91 126 171 213 262 328 399
#     4  11  23  36  60  96 131 158 217 278 321 378
#
# _framework density 20.453537000000001
#
# number of rings (size 3 to 8) (size 9 to 14) (size 15 to 20)
#    0.000    0.923    7.692    0.462    6.462    0.000 
#    0.000    0.769    0.000    0.000    0.000    0.000 
#    0.000    0.000    0.000    0.000    0.000    0.000 
#
# Total GULP energy -322186.187045 kJ/mol
# GULP energy per Si atom -12391.776425 kJ/mol
# Density = 2.040698 g / cm^3
# Si number density = 20.453537 Si / 1000 Ang^3
#
#
#
# Elastic Constant Matrix: (Units=GPa)
#
#
# Indices 1 2 3 4 5 6 
#
# 1 34.6565 21.7217 4.7212 0.0000 0.0000 0.0000
# 2 21.7217 127.5304 46.9455 0.0000 0.0000 0.0000
# 3 4.7212 46.9455 128.0465 0.0000 0.0000 0.0000
# 4 0.0000 0.0000 0.0000 27.3268 0.0000 0.0000
# 5 0.0000 0.0000 0.0000 0.0000 19.7082 0.0000
# 6 0.0000 0.0000 0.0000 0.0000 0.0000 31.0751
#
#
#
# Elastic Compliance Matrix: (Units=1/GPa)
#
#
# Indices 1 2 3 4 5 6 
#
# 1 0.032405 -0.005872 0.000958 0.000000 0.000000 0.000000
# 2 -0.005872 0.010129 -0.003497 0.000000 0.000000 0.000000
# 3 0.000958 -0.003497 0.009056 0.000000 0.000000 0.000000
# 4 0.000000 0.000000 0.000000 0.036594 0.000000 0.000000
# 5 0.000000 0.000000 0.000000 0.000000 0.050740 0.000000
# 6 0.000000 0.000000 0.000000 0.000000 0.000000 0.032180
#
#
# Mechanical properties :
#
#
# Convention : Reuss Voigt Hill
#
# Bulk Modulus (GPa) = 28.76220 48.55667 38.65943
# Shear Modulus (GPa) = 25.06075 30.07836 27.56956
#
# Velocity S-wave (km/s) = 3.50416 3.83896 3.67537
# Velocity P-wave (km/s) = 5.51950 6.59103 6.07892
#
# Compressibility (1/GPa) = 0.03476786
#
# Stress axis : x y z
#
# Youngs Moduli (GPa) = 30.85988 98.72938 110.41884
#
# Poissons Ratio (x) = 0.57974 -0.10579
# Poissons Ratio (y) = 0.18121 0.38613
# Poissons Ratio (z) = -0.02957 0.34525
#
# Static dielectric constant tensor:
#      x y z
#    x 3.440960 0.000000 0.000000 
#    y 0.000000 3.912480 0.000000 
#    z 0.000000 0.000000 3.841790 
# 
# 
# High freq. dielectric constant tensor:
#      x y z
#    x 1.769160 0.000000 0.000000 
#    y 0.000000 1.802350 0.000000 
#    z 0.000000 0.000000 1.809430 
# 
# From -- ./inp_files/11721.got.cif
#   From: 2010.03.12/outbox.cif.g09.slc.cpg/sg37_6_cif.got.tgz:11721.got - 2010.04.14 02:25:27.
