data_PCOD8176765
_publ_section_title
;
Structure prediction by ZEFSAII (Michael W. Deem and Ramdas Pophale) SiO2 
 PCOD8176765
Probable space group: C C C 2
;
_chemical_formula_sum "Si O2"
_cell_formula_units_Z 48
_cell_length_a 5.038380
_cell_length_b 22.301937
_cell_length_c 19.069637
_cell_angle_alpha 90.000000
_cell_angle_beta 90.000000
_cell_angle_gamma 90.000000
_cell_volume 2142.771839
_symmetry_space_group_name_H-M "C C C 2"
_symmetry_group_IT_number 37
_symmetry_cell_setting 'orthorhombic'
loop_
_space_group_symop_operation_xyz
x,y,z
-x,-y,z
-x,y,1/2+z
x,-y,1/2+z
1/2+x,1/2+y,z
1/2-x,1/2-y,z
1/2-x,1/2+y,1/2+z
1/2+x,1/2-y,1/2+z
loop_
_atom_site_type_symbol
_atom_site_label
_atom_site_fract_x
_atom_site_fract_y
_atom_site_fract_z
Si Si1 0.750000 0.750000 0.691471
Si Si2 0.586353 0.068087 0.988497
Si Si3 0.500000 0.500000 0.298000
Si Si4 0.779175 0.404804 0.714787
Si Si5 0.107823 0.805108 0.809413
Si Si6 0.260060 0.374923 0.632048
Si Si7 0.403432 0.403334 0.902029
O O1 0.523537 0.725927 0.742275
O O2 0.828989 0.694832 0.640434
O O3 0.815635 0.071753 0.930578
O O4 0.323330 0.101643 0.960738
O O5 0.500000 0.000000 0.006965
O O6 0.709934 0.103580 0.053498
O O7 0.288716 0.467904 0.248548
O O8 0.671999 0.452130 0.343016
O O9 0.802516 0.355343 0.776912
O O10 0.563076 0.386570 0.655025
O O11 0.067698 0.413431 0.681748
O O12 0.250000 0.750000 0.849900
O O13 0.920020 0.837459 0.866367
#
# Coordination Sequence:
#
# PCOD8176765 Si02
#       7
#     4   8   4   8   8   8   8
#     4  10  22  44  66  98 134 168 216 292 336 386
#     4  12  25  45  65  93 138 182 223 270 320 407
#     4  10  22  40  64  96 132 162 216 282 328 398
#     4  10  23  37  66  99 126 163 217 271 343 386
#     4  10  21  40  69  95 131 166 216 280 340 395
#     4  11  24  42  66  95 130 176 217 271 333 395
#     4  11  25  43  66  95 131 180 219 269 339 388
#
# _framework density 22.40089
#
# number of rings (size 3 to 8) (size 9 to 14) (size 15 to 20)
#    0.000    1.333    3.333    1.000    4.667    5.333 
#    1.500    0.000    0.000    0.000    0.000    0.000 
#    0.000    0.000    0.000    0.000    0.000    0.000 
#
# Total GULP energy -297526.937259 kJ/mol
# GULP energy per Si atom -12396.955719 kJ/mol
# Density = 2.234990 g / cm^3
# Si number density = 22.400890 Si / 1000 Ang^3
#
#
#
# Elastic Constant Matrix: (Units=GPa)
#
#
# Indices 1 2 3 4 5 6 
#
# 1 69.9337 19.9536 10.5034 0.0000 0.0000 0.0000
# 2 19.9536 157.6975 57.4512 0.0000 0.0000 0.0000
# 3 10.5034 57.4512 89.7050 0.0000 0.0000 0.0000
# 4 0.0000 0.0000 0.0000 24.9420 0.0000 0.0000
# 5 0.0000 0.0000 0.0000 0.0000 3.9787 0.0000
# 6 0.0000 0.0000 0.0000 0.0000 0.0000 28.0801
#
#
#
# Elastic Compliance Matrix: (Units=1/GPa)
#
#
# Indices 1 2 3 4 5 6 
#
# 1 0.014868 -0.001627 -0.000699 0.000000 0.000000 0.000000
# 2 -0.001627 0.008449 -0.005221 0.000000 0.000000 0.000000
# 3 -0.000699 -0.005221 0.014573 0.000000 0.000000 0.000000
# 4 0.000000 0.000000 0.000000 0.040093 0.000000 0.000000
# 5 0.000000 0.000000 0.000000 0.000000 0.251339 0.000000
# 6 0.000000 0.000000 0.000000 0.000000 0.000000 0.035612
#
#
# Mechanical properties :
#
#
# Convention : Reuss Voigt Hill
#
# Bulk Modulus (GPa) = 43.86433 54.79475 49.32954
# Shear Modulus (GPa) = 12.89900 26.69537 19.79719
#
# Velocity S-wave (km/s) = 2.40224 3.45586 2.97605
# Velocity P-wave (km/s) = 5.22670 6.35909 5.82050
#
# Compressibility (1/GPa) = 0.02279757
#
# Stress axis : x y z
#
# Youngs Moduli (GPa) = 67.25690 118.35682 68.61971
#
# Poissons Ratio (x) = 0.19252 0.04798
# Poissons Ratio (y) = 0.10940 0.35824
# Poissons Ratio (z) = 0.04702 0.61790
#
# Static dielectric constant tensor:
#      x y z
#    x 3.899350 0.000000 0.000000 
#    y 0.000000 4.545180 0.000000 
#    z 0.000000 0.000000 3.959390 
# 
# 
# High freq. dielectric constant tensor:
#      x y z
#    x 1.877530 0.000000 0.000000 
#    y 0.000000 1.894050 0.000000 
#    z 0.000000 0.000000 1.868040 
# 
# From -- ./inp_files/13917.got.cif
#   From: 2010.03.12/outbox.cif.g09.slc.cpg/sg37_7_cif.got.tgz:13917.got - 2010.04.14 02:25:27.
