data_PCOD8176094
_publ_section_title
;
Structure prediction by ZEFSAII (Michael W. Deem and Ramdas Pophale) SiO2 
 PCOD8176094
Probable space group: C M C 21
;
_chemical_formula_sum "Si O2"
_cell_formula_units_Z 48
_cell_length_a 31.581857
_cell_length_b 4.954360
_cell_length_c 12.375068
_cell_angle_alpha 90.000000
_cell_angle_beta 90.000000
_cell_angle_gamma 90.000000
_cell_volume 1936.300767
_symmetry_space_group_name_H-M "C M C 21"
_symmetry_group_IT_number 36
_symmetry_cell_setting 'orthorhombic'
loop_
_space_group_symop_operation_xyz
x,y,z
-x,-y,1/2+z
x,-y,1/2+z
-x,y,z
1/2+x,1/2+y,z
1/2-x,1/2-y,1/2+z
1/2+x,1/2-y,1/2+z
1/2-x,1/2+y,z
loop_
_atom_site_type_symbol
_atom_site_label
_atom_site_fract_x
_atom_site_fract_y
_atom_site_fract_z
Si Si1 0.591839 0.956991 0.944030
Si Si2 0.775264 0.801655 0.140612
Si Si3 0.650847 0.662199 0.781889
Si Si4 0.721998 0.338935 0.888383
Si Si5 0.000000 0.847219 0.077227
Si Si6 0.500000 0.852003 0.940620
Si Si7 0.910395 0.038227 0.594922
O O1 0.629296 0.882565 0.860411
O O2 0.545217 0.933722 0.884124
O O3 0.593511 0.755508 0.044584
O O4 0.600031 0.250482 0.997348
O O5 0.735081 0.613043 0.170812
O O6 0.815574 0.686898 0.204675
O O7 0.785248 0.799024 0.014913
O O8 0.675584 0.422463 0.845000
O O9 0.617318 0.529932 0.701901
O O10 0.742645 0.058360 0.849912
O O11 0.042454 0.913341 0.142961
O O12 0.000000 0.530495 0.050201
O O13 0.000000 0.033588 0.967833
#
# Coordination Sequence:
#
# PCOD8176094 Si02
#       7
#     8   8   8   8   4   4   8
#     4  10  23  40  61  91 125 161 203 252 304 365
#     4  10  23  42  62  85 118 160 202 246 301 366
#     4  12  24  39  66  94 124 158 206 261 312 362
#     4  10  23  42  62  85 118 160 202 246 301 366
#     4   8  16  37  60  81 120 164 198 241 300 363
#     4   8  16  37  60  81 120 164 198 241 300 363
#     4  10  23  40  61  91 125 161 203 252 304 365
#
# _framework density 24.789535999999998
#
# number of rings (size 3 to 8) (size 9 to 14) (size 15 to 20)
#    0.000    2.000    0.000    2.000    0.000   11.333 
#    0.000    0.000    0.000   12.000    0.000    0.000 
#    0.000    0.000    0.000    0.000    0.000    0.000 
#
# Total GULP energy -297341.167498 kJ/mol
# GULP energy per Si atom -12389.215312 kJ/mol
# Density = 2.473311 g / cm^3
# Si number density = 24.789536 Si / 1000 Ang^3
#
#
#
# Elastic Constant Matrix: (Units=GPa)
#
#
# Indices 1 2 3 4 5 6 
#
# 1 169.7286 14.9764 65.7970 0.0000 0.0000 0.0000
# 2 14.9764 70.8324 26.7208 0.0000 0.0000 0.0000
# 3 65.7970 26.7208 74.7679 0.0000 0.0000 0.0000
# 4 0.0000 0.0000 0.0000 21.7311 0.0000 0.0000
# 5 0.0000 0.0000 0.0000 0.0000 33.5902 0.0000
# 6 0.0000 0.0000 0.0000 0.0000 0.0000 66.5440
#
#
#
# Elastic Compliance Matrix: (Units=1/GPa)
#
#
# Indices 1 2 3 4 5 6 
#
# 1 0.009039 0.001259 -0.008404 0.000000 0.000000 0.000000
# 2 0.001259 0.016493 -0.007003 0.000000 0.000000 0.000000
# 3 -0.008404 -0.007003 0.023273 0.000000 0.000000 0.000000
# 4 0.000000 0.000000 0.000000 0.046017 0.000000 0.000000
# 5 0.000000 0.000000 0.000000 0.000000 0.029771 0.000000
# 6 0.000000 0.000000 0.000000 0.000000 0.000000 0.015028
#
#
# Mechanical properties :
#
#
# Convention : Reuss Voigt Hill
#
# Bulk Modulus (GPa) = 48.75662 58.92414 53.84038
# Shear Modulus (GPa) = 28.61200 38.22872 33.42036
#
# Velocity S-wave (km/s) = 3.40103 3.93126 3.67572
# Velocity P-wave (km/s) = 5.92736 6.66541 6.30719
#
# Compressibility (1/GPa) = 0.02051003
#
# Stress axis : x y z
#
# Youngs Moduli (GPa) = 110.63651 60.63090 42.96791
#
# Poissons Ratio (x) = -0.07635 0.36111
# Poissons Ratio (y) = -0.13933 0.30089
# Poissons Ratio (z) = 0.92981 0.42458
#
# Static dielectric constant tensor:
#      x y z
#    x 4.951290 0.000000 0.000000 
#    y 0.000000 4.358570 0.000000 
#    z 0.000000 0.000000 4.360230 
# 
# 
# High freq. dielectric constant tensor:
#      x y z
#    x 2.004240 0.000000 0.000000 
#    y 0.000000 1.987800 0.000000 
#    z 0.000000 0.000000 1.973570 
# 
# From -- ./inp_files/13138.got.cif
#   From: 2010.03.12/outbox.cif.g09.slc.cpg/sg36_7_cif.got.tgz:13138.got - 2010.04.14 02:13:53.
