data_PCOD8176203
_publ_section_title
;
Structure prediction by ZEFSAII (Michael W. Deem and Ramdas Pophale) SiO2 
 PCOD8176203
Probable space group: C M C 21
;
_chemical_formula_sum "Si O2"
_cell_formula_units_Z 64
_cell_length_a 8.967472
_cell_length_b 23.183105
_cell_length_c 17.460004
_cell_angle_alpha 90.000000
_cell_angle_beta 90.000000
_cell_angle_gamma 90.000000
_cell_volume 3629.827365
_symmetry_space_group_name_H-M "C M C 21"
_symmetry_group_IT_number 36
_symmetry_cell_setting 'orthorhombic'
loop_
_space_group_symop_operation_xyz
x,y,z
-x,-y,1/2+z
x,-y,1/2+z
-x,y,z
1/2+x,1/2+y,z
1/2-x,1/2-y,1/2+z
1/2+x,1/2-y,1/2+z
1/2-x,1/2+y,z
loop_
_atom_site_type_symbol
_atom_site_label
_atom_site_fract_x
_atom_site_fract_y
_atom_site_fract_z
Si Si1 0.664146 0.576831 0.666100
Si Si2 0.164146 0.423169 0.555134
Si Si3 0.824266 0.186885 0.582327
Si Si4 0.177001 0.868265 0.782602
Si Si5 0.822999 0.368265 0.938632
Si Si6 0.334908 0.023653 0.222337
Si Si7 0.834908 0.023653 0.498897
Si Si8 0.324266 0.813115 0.638907
O O1 0.500000 0.578318 0.703705
O O2 0.721522 0.641968 0.649865
O O3 0.771969 0.541930 0.723563
O O4 0.655755 0.544630 0.585435
O O5 0.155755 0.455370 0.635799
O O6 0.271969 0.458070 0.497671
O O7 0.221522 0.358032 0.571369
O O8 0.000000 0.421682 0.517529
O O9 0.732819 0.173476 0.505920
O O10 0.780407 0.250000 0.610617
O O11 0.000000 0.180511 0.564082
O O12 0.250000 0.844811 0.860617
O O13 0.227791 0.934373 0.770040
O O14 0.232819 0.826524 0.715314
O O15 0.000000 0.865748 0.787727
O O16 0.000000 0.365748 0.933507
O O17 0.772209 0.434373 0.951194
O O18 0.500000 0.023717 0.259461
O O19 0.000000 0.023717 0.461773
O O20 0.500000 0.819489 0.657152
#
# Coordination Sequence:
#
# PCOD8176203 Si02
#       8
#     8   8   8   8   8   8   8   8
#     4   8  14  25  43  68  95 122 152 189 234 281
#     4   8  14  25  43  68  95 122 152 189 234 281
#     4   9  18  33  52  74 101 133 170 210 249 292
#     4  11  21  33  50  72  99 129 164 206 254 305
#     4  11  21  33  50  72  99 129 164 206 254 305
#     4   9  16  27  44  67  94 122 153 190 236 286
#     4   9  16  27  44  67  94 122 153 190 236 286
#     4   9  18  33  52  74 101 133 170 210 249 292
#
# _framework density 17.631692999999999
#
# number of rings (size 3 to 8) (size 9 to 14) (size 15 to 20)
#    0.000    2.750    0.000    4.500    0.000    6.500 
#    0.000    0.000    0.000    1.500    0.000    7.000 
#    0.000    0.000    0.000    0.000    0.000    0.000 
#
# Total GULP energy -396648.321629 kJ/mol
# GULP energy per Si atom -12395.260051 kJ/mol
# Density = 1.759156 g / cm^3
# Si number density = 17.631693 Si / 1000 Ang^3
#
#
#
# Elastic Constant Matrix: (Units=GPa)
#
#
# Indices 1 2 3 4 5 6 
#
# 1 129.1482 57.0143 47.1302 0.0000 0.0000 0.0000
# 2 57.0143 146.2685 39.3587 0.0000 0.0000 0.0000
# 3 47.1302 39.3587 55.5935 0.0000 0.0000 0.0000
# 4 0.0000 0.0000 0.0000 10.9680 0.0000 0.0000
# 5 0.0000 0.0000 0.0000 0.0000 22.2573 0.0000
# 6 0.0000 0.0000 0.0000 0.0000 0.0000 25.1321
#
#
#
# Elastic Compliance Matrix: (Units=1/GPa)
#
#
# Indices 1 2 3 4 5 6 
#
# 1 0.011839 -0.002364 -0.008362 0.000000 0.000000 0.000000
# 2 -0.002364 0.008918 -0.004309 0.000000 0.000000 0.000000
# 3 -0.008362 -0.004309 0.028128 0.000000 0.000000 0.000000
# 4 0.000000 0.000000 0.000000 0.091175 0.000000 0.000000
# 5 0.000000 0.000000 0.000000 0.000000 0.044929 0.000000
# 6 0.000000 0.000000 0.000000 0.000000 0.000000 0.039790
#
#
# Mechanical properties :
#
#
# Convention : Reuss Voigt Hill
#
# Bulk Modulus (GPa) = 53.15653 68.66852 60.91252
# Shear Modulus (GPa) = 19.14824 24.17193 21.66008
#
# Velocity S-wave (km/s) = 3.29905 3.70663 3.50876
# Velocity P-wave (km/s) = 6.68770 7.57294 7.14405
#
# Compressibility (1/GPa) = 0.01881237
#
# Stress axis : x y z
#
# Youngs Moduli (GPa) = 84.47002 112.13400 35.55197
#
# Poissons Ratio (x) = 0.26513 0.29730
# Poissons Ratio (y) = 0.19972 0.15320
# Poissons Ratio (z) = 0.70637 0.48321
#
# Static dielectric constant tensor:
#      x y z
#    x 3.447190 0.000000 0.000000 
#    y 0.000000 3.415860 0.000000 
#    z 0.000000 0.000000 2.930010 
# 
# 
# High freq. dielectric constant tensor:
#      x y z
#    x 1.688130 0.000000 0.000000 
#    y 0.000000 1.672580 0.000000 
#    z 0.000000 0.000000 1.638550 
# 
# From -- ./inp_files/14067.got.cif
#   From: 2010.03.12/outbox.cif.g09.slc.cpg/sg36_8_cif.got.tgz:14067.got - 2010.04.14 02:13:53.
