data_PCOD8176888
_publ_section_title
;
Structure prediction by ZEFSAII (Michael W. Deem and Ramdas Pophale) SiO2 
 PCOD8176888
Probable space group: C C C 2
;
_chemical_formula_sum "Si O2"
_cell_formula_units_Z 60
_cell_length_a 18.767203
_cell_length_b 15.939975
_cell_length_c 8.955630
_cell_angle_alpha 90.000000
_cell_angle_beta 90.000000
_cell_angle_gamma 90.000000
_cell_volume 2679.065490
_symmetry_space_group_name_H-M "C C C 2"
_symmetry_group_IT_number 37
_symmetry_cell_setting 'orthorhombic'
loop_
_space_group_symop_operation_xyz
x,y,z
-x,-y,z
-x,y,1/2+z
x,-y,1/2+z
1/2+x,1/2+y,z
1/2-x,1/2-y,z
1/2-x,1/2+y,1/2+z
1/2+x,1/2-y,1/2+z
loop_
_atom_site_type_symbol
_atom_site_label
_atom_site_fract_x
_atom_site_fract_y
_atom_site_fract_z
Si Si1 0.488259 0.310340 0.184600
Si Si2 0.133251 0.690714 0.783450
Si Si3 0.250000 0.250000 0.060366
Si Si4 0.364243 0.258299 0.597637
Si Si5 0.049319 0.920873 0.431261
Si Si6 0.305344 0.618091 0.323599
Si Si7 0.842290 0.415082 0.230498
Si Si8 0.918001 0.477635 0.940820
O O1 0.431030 0.239151 0.207598
O O2 0.550836 0.269068 0.086058
O O3 0.521486 0.340932 0.339482
O O4 0.454077 0.391525 0.102923
O O5 0.197534 0.692876 0.663614
O O6 0.101159 0.598977 0.826944
O O7 0.162656 0.738233 0.931008
O O8 0.292027 0.314960 0.955349
O O9 0.326375 0.339675 0.665046
O O10 0.343967 0.184125 0.710550
O O11 0.130259 0.941592 0.380666
O O12 0.000000 0.000000 0.403126
O O13 0.238296 0.559776 0.279315
O O14 0.891971 0.435937 0.369806
O O15 0.872266 0.464321 0.088905
O O16 0.000000 0.500000 0.977635
#
# Coordination Sequence:
#
# PCOD8176888 Si02
#       8
#     8   8   4   8   8   8   8   8
#     4  11  21  43  69 101 131 184 234 289 352 424
#     4  11  25  42  71 107 139 182 242 301 348 435
#     4  12  24  42  74 104 140 180 248 290 350 436
#     4  10  22  42  72  96 140 184 238 292 358 425
#     4  11  24  45  67 103 139 181 235 291 361 427
#     4  11  24  46  72  99 141 191 232 302 357 433
#     4  11  24  45  67 101 142 187 235 293 374 422
#     4  11  26  46  69 104 144 188 240 301 360 434
#
# _framework density 22.395869000000001
#
# number of rings (size 3 to 8) (size 9 to 14) (size 15 to 20)
#    0.000    1.067    4.000    1.600    5.600    1.067 
#    9.600    0.000    0.000    0.000    0.000    0.000 
#    0.000    0.000    0.000    0.000    0.000    0.000 
#
# Total GULP energy -371899.900415 kJ/mol
# GULP energy per Si atom -12396.663347 kJ/mol
# Density = 2.234490 g / cm^3
# Si number density = 22.395869 Si / 1000 Ang^3
#
#
#
# Elastic Constant Matrix: (Units=GPa)
#
#
# Indices 1 2 3 4 5 6 
#
# 1 156.1121 40.0677 58.5329 0.0000 0.0000 0.0000
# 2 40.0677 37.9868 25.6046 0.0000 0.0000 0.0000
# 3 58.5329 25.6046 86.5662 0.0000 0.0000 0.0000
# 4 0.0000 0.0000 0.0000 24.4242 0.0000 0.0000
# 5 0.0000 0.0000 0.0000 0.0000 16.0794 0.0000
# 6 0.0000 0.0000 0.0000 0.0000 0.0000 38.6838
#
#
#
# Elastic Compliance Matrix: (Units=1/GPa)
#
#
# Indices 1 2 3 4 5 6 
#
# 1 0.010049 -0.007519 -0.004571 0.000000 0.000000 0.000000
# 2 -0.007519 0.038505 -0.006305 0.000000 0.000000 0.000000
# 3 -0.004571 -0.006305 0.016508 0.000000 0.000000 0.000000
# 4 0.000000 0.000000 0.000000 0.040943 0.000000 0.000000
# 5 0.000000 0.000000 0.000000 0.000000 0.062191 0.000000
# 6 0.000000 0.000000 0.000000 0.000000 0.000000 0.025851
#
#
# Mechanical properties :
#
#
# Convention : Reuss Voigt Hill
#
# Bulk Modulus (GPa) = 35.37035 58.78617 47.07826
# Shear Modulus (GPa) = 20.81064 26.26814 23.53939
#
# Velocity S-wave (km/s) = 3.05161 3.42848 3.24552
# Velocity P-wave (km/s) = 5.31451 6.47906 5.92547
#
# Compressibility (1/GPa) = 0.02827227
#
# Stress axis : x y z
#
# Youngs Moduli (GPa) = 99.50959 25.97034 60.57803
#
# Poissons Ratio (x) = 0.19526 0.27691
# Poissons Ratio (y) = 0.74818 0.38196
# Poissons Ratio (z) = 0.45487 0.16375
#
# Static dielectric constant tensor:
#      x y z
#    x 4.243020 0.000000 0.000000 
#    y 0.000000 3.791100 0.000000 
#    z 0.000000 0.000000 4.229160 
# 
# 
# High freq. dielectric constant tensor:
#      x y z
#    x 1.894840 0.000000 0.000000 
#    y 0.000000 1.859150 0.000000 
#    z 0.000000 0.000000 1.897800 
# 
# From -- ./inp_files/4090.got.cif
#   From: 2010.03.12/outbox.cif.g09.slc.cpg/sg37_3_cif.got.tgz:4090.got - 2010.04.14 02:25:27.
