data_PCOD8176574
_publ_section_title
;
Structure prediction by ZEFSAII (Michael W. Deem and Ramdas Pophale) SiO2 
 PCOD8176574
Probable space group: C C C 2
;
_chemical_formula_sum "Si O2"
_cell_formula_units_Z 48
_cell_length_a 17.548381
_cell_length_b 8.690136
_cell_length_c 15.338428
_cell_angle_alpha 90.000000
_cell_angle_beta 90.000000
_cell_angle_gamma 90.000000
_cell_volume 2339.076793
_symmetry_space_group_name_H-M "C C C 2"
_symmetry_group_IT_number 37
_symmetry_cell_setting 'orthorhombic'
loop_
_space_group_symop_operation_xyz
x,y,z
-x,-y,z
-x,y,1/2+z
x,-y,1/2+z
1/2+x,1/2+y,z
1/2-x,1/2-y,z
1/2-x,1/2+y,1/2+z
1/2+x,1/2-y,1/2+z
loop_
_atom_site_type_symbol
_atom_site_label
_atom_site_fract_x
_atom_site_fract_y
_atom_site_fract_z
Si Si1 0.341140 0.422012 0.157270
Si Si2 0.936626 0.212232 0.124043
Si Si3 0.705282 0.897765 0.597148
Si Si4 0.327203 0.808970 0.499800
Si Si5 0.508907 0.821229 0.948774
Si Si6 0.459930 0.658296 0.781591
O O1 0.405420 0.538607 0.121689
O O2 0.259844 0.509827 0.165216
O O3 0.334492 0.279370 0.091926
O O4 0.371294 0.365904 0.252368
O O5 0.870539 0.337099 0.144764
O O6 0.998169 0.236362 0.199509
O O7 0.974437 0.233908 0.030729
O O8 0.750000 0.750000 0.557534
O O9 0.681326 0.008862 0.517929
O O10 0.250000 0.750000 0.451400
O O11 0.401008 0.779537 0.439850
O O12 0.463124 0.772824 0.862833
O O13 0.500000 0.000000 0.965175
O O14 0.500000 0.500000 0.810206
#
# Coordination Sequence:
#
# PCOD8176574 Si02
#       6
#     8   8   8   8   8   8
#     4   9  19  37  63  89 117 163 209 258 323 379
#     4  10  20  39  62  90 120 163 210 261 328 376
#     4   9  18  35  63  85 120 163 208 257 320 389
#     4  10  20  36  60  90 120 163 211 255 324 382
#     4  12  24  37  61  95 127 165 215 267 327 384
#     4  10  23  38  60  93 126 162 215 263 319 388
#
# _framework density 20.520917000000001
#
# number of rings (size 3 to 8) (size 9 to 14) (size 15 to 20)
#    0.000    2.000    3.333    0.000    2.333    2.000 
#    0.000    4.167    0.000    5.000    0.000    0.000 
#    0.000    0.000    0.000    0.000    0.000    0.000 
#
# Total GULP energy -297518.885449 kJ/mol
# GULP energy per Si atom -12396.620227 kJ/mol
# Density = 2.047421 g / cm^3
# Si number density = 20.520917 Si / 1000 Ang^3
#
#
#
# Elastic Constant Matrix: (Units=GPa)
#
#
# Indices 1 2 3 4 5 6 
#
# 1 126.8118 22.4840 39.1490 0.0000 0.0000 0.0000
# 2 22.4840 84.0681 25.4542 0.0000 0.0000 0.0000
# 3 39.1490 25.4542 96.8069 0.0000 0.0000 0.0000
# 4 0.0000 0.0000 0.0000 12.7728 0.0000 0.0000
# 5 0.0000 0.0000 0.0000 0.0000 25.8759 0.0000
# 6 0.0000 0.0000 0.0000 0.0000 0.0000 25.6399
#
#
#
# Elastic Compliance Matrix: (Units=1/GPa)
#
#
# Indices 1 2 3 4 5 6 
#
# 1 0.009169 -0.001445 -0.003328 0.000000 0.000000 0.000000
# 2 -0.001445 0.013152 -0.002874 0.000000 0.000000 0.000000
# 3 -0.003328 -0.002874 0.012431 0.000000 0.000000 0.000000
# 4 0.000000 0.000000 0.000000 0.078291 0.000000 0.000000
# 5 0.000000 0.000000 0.000000 0.000000 0.038646 0.000000
# 6 0.000000 0.000000 0.000000 0.000000 0.000000 0.039002
#
#
# Mechanical properties :
#
#
# Convention : Reuss Voigt Hill
#
# Bulk Modulus (GPa) = 51.39023 53.54014 52.46519
# Shear Modulus (GPa) = 23.53258 27.56434 25.54846
#
# Velocity S-wave (km/s) = 3.39006 3.66899 3.53228
# Velocity P-wave (km/s) = 6.35772 6.64047 6.50063
#
# Compressibility (1/GPa) = 0.01945895
#
# Stress axis : x y z
#
# Youngs Moduli (GPa) = 109.05926 76.03624 80.44110
#
# Poissons Ratio (x) = 0.10984 0.26773
# Poissons Ratio (y) = 0.15755 0.23118
# Poissons Ratio (z) = 0.36298 0.21852
#
# Static dielectric constant tensor:
#      x y z
#    x 4.328450 0.000000 0.000000 
#    y 0.000000 3.880690 0.000000 
#    z 0.000000 0.000000 3.194100 
# 
# 
# High freq. dielectric constant tensor:
#      x y z
#    x 1.822270 0.000000 0.000000 
#    y 0.000000 1.817530 0.000000 
#    z 0.000000 0.000000 1.744310 
# 
# From -- ./inp_files/10578.got.cif
#   From: 2010.03.12/outbox.cif.g09.slc.cpg/sg37_6_cif.got.tgz:10578.got - 2010.04.14 02:25:27.
