data_PCOD8176186
_publ_section_title
;
Structure prediction by ZEFSAII (Michael W. Deem and Ramdas Pophale) SiO2 
 PCOD8176186
Probable space group: C M C 21
;
_chemical_formula_sum "Si O2"
_cell_formula_units_Z 40
_cell_length_a 14.167707
_cell_length_b 34.578809
_cell_length_c 5.062915
_cell_angle_alpha 90.000000
_cell_angle_beta 90.000000
_cell_angle_gamma 90.000000
_cell_volume 2480.334383
_symmetry_space_group_name_H-M "C M C 21"
_symmetry_group_IT_number 36
_symmetry_cell_setting 'orthorhombic'
loop_
_space_group_symop_operation_xyz
x,y,z
-x,-y,1/2+z
x,-y,1/2+z
-x,y,z
1/2+x,1/2+y,z
1/2-x,1/2-y,1/2+z
1/2+x,1/2-y,1/2+z
1/2-x,1/2+y,z
loop_
_atom_site_type_symbol
_atom_site_label
_atom_site_fract_x
_atom_site_fract_y
_atom_site_fract_z
Si Si1 0.112198 0.477422 0.202550
Si Si2 0.386592 0.889799 0.283923
Si Si3 0.210070 0.773051 0.726072
Si Si4 0.329507 0.155142 0.271717
Si Si5 0.000000 0.708381 0.279897
Si Si6 0.500000 0.745382 0.282125
O O1 0.153517 0.502871 0.441048
O O2 0.145480 0.433268 0.219525
O O3 0.000000 0.478952 0.205444
O O4 0.500000 0.886080 0.305165
O O5 0.334507 0.879124 0.557141
O O6 0.345255 0.862005 0.060724
O O7 0.250744 0.753954 0.460115
O O8 0.236402 0.818377 0.759789
O O9 0.096604 0.776729 0.713892
O O10 0.410255 0.184685 0.192299
O O11 0.000000 0.716807 0.592471
O O12 0.000000 0.746119 0.094621
#
# Coordination Sequence:
#
# PCOD8176186 Si02
#       6
#     8   8   8   8   4   4
#     4   9  17  29  43  62  89 123 157 183 219 278
#     4  11  20  30  47  68  94 125 157 196 236 273
#     4  12  23  35  52  70  93 128 165 206 252 288
#     4  12  21  31  46  71  92 121 162 206 238 276
#     4  12  20  32  54  66  92 127 166 207 250 280
#     4  12  22  38  50  70  92 125 168 211 248 292
#
# _framework density 16.126859
#
# number of rings (size 3 to 8) (size 9 to 14) (size 15 to 20)
#    0.000    0.800    6.000    3.600    0.000    3.200 
#    0.000    0.000    0.000    0.000    0.000    0.000 
#    0.000    0.000    0.000   18.000    0.000    0.000 
#
# Total GULP energy -247926.111107 kJ/mol
# GULP energy per Si atom -12396.305555 kJ/mol
# Density = 1.609015 g / cm^3
# Si number density = 16.126859 Si / 1000 Ang^3
#
#
#
# Elastic Constant Matrix: (Units=GPa)
#
#
# Indices 1 2 3 4 5 6 
#
# 1 83.1121 22.8759 4.8913 0.0000 0.0000 0.0000
# 2 22.8759 76.5312 4.5891 0.0000 0.0000 0.0000
# 3 4.8913 4.5891 68.0969 0.0000 0.0000 0.0000
# 4 0.0000 0.0000 0.0000 31.9179 0.0000 0.0000
# 5 0.0000 0.0000 0.0000 0.0000 13.2086 0.0000
# 6 0.0000 0.0000 0.0000 0.0000 0.0000 18.8731
#
#
#
# Elastic Compliance Matrix: (Units=1/GPa)
#
#
# Indices 1 2 3 4 5 6 
#
# 1 0.013142 -0.003887 -0.000682 0.000000 0.000000 0.000000
# 2 -0.003887 0.014269 -0.000682 0.000000 0.000000 0.000000
# 3 -0.000682 -0.000682 0.014780 0.000000 0.000000 0.000000
# 4 0.000000 0.000000 0.000000 0.031330 0.000000 0.000000
# 5 0.000000 0.000000 0.000000 0.000000 0.075708 0.000000
# 6 0.000000 0.000000 0.000000 0.000000 0.000000 0.052985
#
#
# Mechanical properties :
#
#
# Convention : Reuss Voigt Hill
#
# Bulk Modulus (GPa) = 31.55782 32.49474 32.02628
# Shear Modulus (GPa) = 22.39325 25.82552 24.10939
#
# Velocity S-wave (km/s) = 3.73039 4.00609 3.87070
# Velocity P-wave (km/s) = 6.17782 6.44915 6.31494
#
# Compressibility (1/GPa) = 0.03168787
#
# Stress axis : x y z
#
# Youngs Moduli (GPa) = 76.09167 70.07975 67.65930
#
# Poissons Ratio (x) = 0.27243 0.04614
# Poissons Ratio (y) = 0.29580 0.04617
# Poissons Ratio (z) = 0.05189 0.04782
#
# Static dielectric constant tensor:
#      x y z
#    x 2.794730 0.000000 0.000000 
#    y 0.000000 3.087220 0.000000 
#    z 0.000000 0.000000 3.277350 
# 
# 
# High freq. dielectric constant tensor:
#      x y z
#    x 1.567510 0.000000 0.000000 
#    y 0.000000 1.611970 0.000000 
#    z 0.000000 0.000000 1.646540 
# 
# From -- ./inp_files/788.got.cif
#   From: 2010.03.12/outbox.cif.g09.slc.cpg/sg36_1_cif.got.tgz:788.got - 2010.04.14 02:13:53.
