data_PCOD8176187
_publ_section_title
;
Structure prediction by ZEFSAII (Michael W. Deem and Ramdas Pophale) SiO2 
 PCOD8176187
Probable space group: C M C 21
;
_chemical_formula_sum "Si O2"
_cell_formula_units_Z 64
_cell_length_a 31.620602
_cell_length_b 12.436489
_cell_length_c 9.580350
_cell_angle_alpha 90.000000
_cell_angle_beta 90.000000
_cell_angle_gamma 90.000000
_cell_volume 3767.465634
_symmetry_space_group_name_H-M "C M C 21"
_symmetry_group_IT_number 36
_symmetry_cell_setting 'orthorhombic'
loop_
_space_group_symop_operation_xyz
x,y,z
-x,-y,1/2+z
x,-y,1/2+z
-x,y,z
1/2+x,1/2+y,z
1/2-x,1/2-y,1/2+z
1/2+x,1/2-y,1/2+z
1/2-x,1/2+y,z
loop_
_atom_site_type_symbol
_atom_site_label
_atom_site_fract_x
_atom_site_fract_y
_atom_site_fract_z
Si Si1 0.546060 0.070783 0.012060
Si Si2 0.954318 0.631117 0.325730
Si Si3 0.773898 0.914203 0.745621
Si Si4 0.179490 0.294266 0.160038
Si Si5 0.689549 0.816880 0.631488
Si Si6 0.366661 0.174589 0.384702
Si Si7 0.232984 0.106859 0.561616
Si Si8 0.866384 0.582021 0.902792
O O1 0.500000 0.125938 0.978007
O O2 0.553297 0.068188 0.179207
O O3 0.586201 0.127585 0.936424
O O4 0.544603 0.949545 0.956375
O O5 0.915177 0.712366 0.353770
O O6 0.000000 0.691897 0.319938
O O7 0.808373 0.820448 0.726209
O O8 0.730136 0.883065 0.675610
O O9 0.788779 0.022242 0.667033
O O10 0.765139 0.942506 0.906829
O O11 0.220741 0.361668 0.117284
O O12 0.151533 0.361587 0.266786
O O13 0.149725 0.273937 0.027355
O O14 0.663322 0.778877 0.765287
O O15 0.703177 0.710491 0.549307
O O16 0.663010 0.894947 0.534207
O O17 0.366231 0.045314 0.381496
#
# Coordination Sequence:
#
# PCOD8176187 Si02
#       8
#     8   8   8   8   8   8   8   8
#     4   9  18  30  45  68 100 137 170 205 250 300
#     4   9  18  30  45  69 101 136 171 204 248 300
#     4  11  24  38  54  73 100 135 169 215 260 296
#     4  11  24  36  51  76 104 132 177 211 248 305
#     4  11  22  36  51  74 102 132 176 208 249 300
#     4  11  20  32  52  76 100 142 169 209 247 298
#     4  11  24  38  54  72 101 135 168 216 259 299
#     4  11  20  34  50  74 104 139 172 210 245 300
#
# _framework density 16.987546999999999
#
# number of rings (size 3 to 8) (size 9 to 14) (size 15 to 20)
#    0.000    1.500    3.750    2.250    8.750    0.000 
#    0.000    0.000    0.000    0.000    0.000    0.000 
#    0.000    6.000    0.000    0.000    0.000    0.000 
#
# Total GULP energy -396661.284993 kJ/mol
# GULP energy per Si atom -12395.665156 kJ/mol
# Density = 1.694888 g / cm^3
# Si number density = 16.987547 Si / 1000 Ang^3
#
#
#
# Elastic Constant Matrix: (Units=GPa)
#
#
# Indices 1 2 3 4 5 6 
#
# 1 104.9636 10.3551 21.0455 0.0000 0.0000 0.0000
# 2 10.3551 35.3387 8.0188 0.0000 0.0000 0.0000
# 3 21.0455 8.0188 91.3960 0.0000 0.0000 0.0000
# 4 0.0000 0.0000 0.0000 25.1140 0.0000 0.0000
# 5 0.0000 0.0000 0.0000 0.0000 27.4847 0.0000
# 6 0.0000 0.0000 0.0000 0.0000 0.0000 3.6258
#
#
#
# Elastic Compliance Matrix: (Units=1/GPa)
#
#
# Indices 1 2 3 4 5 6 
#
# 1 0.010201 -0.002506 -0.002129 0.000000 0.000000 0.000000
# 2 -0.002506 0.029488 -0.002010 0.000000 0.000000 0.000000
# 3 -0.002129 -0.002010 0.011608 0.000000 0.000000 0.000000
# 4 0.000000 0.000000 0.000000 0.039818 0.000000 0.000000
# 5 0.000000 0.000000 0.000000 0.000000 0.036384 0.000000
# 6 0.000000 0.000000 0.000000 0.000000 0.000000 0.275801
#
#
# Mechanical properties :
#
#
# Convention : Reuss Voigt Hill
#
# Bulk Modulus (GPa) = 26.31120 34.50413 30.40767
# Shear Modulus (GPa) = 11.64795 24.06351 17.85573
#
# Velocity S-wave (km/s) = 2.62138 3.76778 3.24560
# Velocity P-wave (km/s) = 4.96833 6.26767 5.65544
#
# Compressibility (1/GPa) = 0.03800662
#
# Stress axis : x y z
#
# Youngs Moduli (GPa) = 98.02721 33.91206 86.14726
#
# Poissons Ratio (x) = 0.08499 0.18342
# Poissons Ratio (y) = 0.24567 0.17317
# Poissons Ratio (z) = 0.20871 0.06817
#
# Static dielectric constant tensor:
#      x y z
#    x 3.693550 0.000000 0.000000 
#    y 0.000000 2.822470 0.000000 
#    z 0.000000 0.000000 3.537830 
# 
# 
# High freq. dielectric constant tensor:
#      x y z
#    x 1.663660 0.000000 0.000000 
#    y 0.000000 1.595820 0.000000 
#    z 0.000000 0.000000 1.678930 
# 
# From -- ./inp_files/6087.got.cif
#   From: 2010.03.12/outbox.cif.g09.slc.cpg/sg36_4_cif.got.tgz:6087.got - 2010.04.14 02:13:53.
