data_PCOD8176982
_publ_section_title
;
Structure prediction by ZEFSAII (Michael W. Deem and Ramdas Pophale) SiO2 
 PCOD8176982
Probable space group: C C C 2
;
_chemical_formula_sum "Si O2"
_cell_formula_units_Z 40
_cell_length_a 10.919478
_cell_length_b 12.189121
_cell_length_c 13.928683
_cell_angle_alpha 90.000000
_cell_angle_beta 90.000000
_cell_angle_gamma 90.000000
_cell_volume 1853.891531
_symmetry_space_group_name_H-M "C C C 2"
_symmetry_group_IT_number 37
_symmetry_cell_setting 'orthorhombic'
loop_
_space_group_symop_operation_xyz
x,y,z
-x,-y,z
-x,y,1/2+z
x,-y,1/2+z
1/2+x,1/2+y,z
1/2-x,1/2-y,z
1/2-x,1/2+y,1/2+z
1/2+x,1/2-y,1/2+z
loop_
_atom_site_type_symbol
_atom_site_label
_atom_site_fract_x
_atom_site_fract_y
_atom_site_fract_z
Si Si1 0.736435 0.449945 0.031680
Si Si2 0.604150 0.913277 0.348993
Si Si3 0.212261 0.128352 0.184549
Si Si4 0.250000 0.750000 0.172938
Si Si5 0.500000 0.500000 0.423860
Si Si6 0.517307 0.692207 0.791202
O O1 0.739466 0.564968 0.086642
O O2 0.758731 0.356079 0.108115
O O3 0.843945 0.442590 0.953619
O O4 0.603170 0.438147 0.984918
O O5 0.712164 0.925355 0.271726
O O6 0.555320 0.788143 0.347728
O O7 0.500000 0.000000 0.321438
O O8 0.250000 0.250000 0.159686
O O9 0.069726 0.130041 0.214328
O O10 0.368578 0.747164 0.239619
O O11 0.436210 0.597306 0.362856
#
# Coordination Sequence:
#
# PCOD8176982 Si02
#       6
#     8   8   8   4   4   8
#     4  12  25  42  70 104 136 177 235 280 341 414
#     4  11  25  44  70  99 141 182 230 286 347 405
#     4  10  23  46  69  97 138 184 227 285 346 406
#     4  12  26  42  72 104 136 182 234 282 346 414
#     4  12  24  42  72  98 138 180 228 284 344 414
#     4  11  24  44  72  96 140 185 227 280 353 409
#
# _framework density 21.576236000000002
#
# number of rings (size 3 to 8) (size 9 to 14) (size 15 to 20)
#    0.000    0.800    2.000    4.800    4.200    5.600 
#    0.000    0.000    0.000    0.000    0.000    0.000 
#    0.000    0.000    0.000    0.000    0.000    0.000 
#
# Total GULP energy -248095.819374 kJ/mol
# GULP energy per Si atom -12404.790969 kJ/mol
# Density = 2.152713 g / cm^3
# Si number density = 21.576236 Si / 1000 Ang^3
#
#
#
# Elastic Constant Matrix: (Units=GPa)
#
#
# Indices 1 2 3 4 5 6 
#
# 1 141.5355 43.9373 61.3677 0.0000 0.0000 0.0000
# 2 43.9373 116.5767 64.3330 0.0000 0.0000 0.0000
# 3 61.3677 64.3330 129.8812 0.0000 0.0000 0.0000
# 4 0.0000 0.0000 0.0000 44.9077 0.0000 0.0000
# 5 0.0000 0.0000 0.0000 0.0000 27.5645 0.0000
# 6 0.0000 0.0000 0.0000 0.0000 0.0000 35.6933
#
#
#
# Elastic Compliance Matrix: (Units=1/GPa)
#
#
# Indices 1 2 3 4 5 6 
#
# 1 0.009060 -0.001448 -0.003563 0.000000 0.000000 0.000000
# 2 -0.001448 0.012036 -0.005278 0.000000 0.000000 0.000000
# 3 -0.003563 -0.005278 0.011997 0.000000 0.000000 0.000000
# 4 0.000000 0.000000 0.000000 0.022268 0.000000 0.000000
# 5 0.000000 0.000000 0.000000 0.000000 0.036279 0.000000
# 6 0.000000 0.000000 0.000000 0.000000 0.000000 0.028016
#
#
# Mechanical properties :
#
#
# Convention : Reuss Voigt Hill
#
# Bulk Modulus (GPa) = 79.90414 80.80772 80.35593
# Shear Modulus (GPa) = 34.62450 36.19014 35.40732
#
# Velocity S-wave (km/s) = 4.01028 4.09995 4.05536
# Velocity P-wave (km/s) = 7.65225 7.74250 7.69751
#
# Compressibility (1/GPa) = 0.01251500
#
# Stress axis : x y z
#
# Youngs Moduli (GPa) = 110.37543 83.08201 83.35314
#
# Poissons Ratio (x) = 0.12032 0.29702
# Poissons Ratio (y) = 0.15984 0.43990
# Poissons Ratio (z) = 0.39332 0.43847
#
# Static dielectric constant tensor:
#      x y z
#    x 4.157850 0.000000 0.000000 
#    y 0.000000 3.961070 0.000000 
#    z 0.000000 0.000000 3.959190 
# 
# 
# High freq. dielectric constant tensor:
#      x y z
#    x 1.852220 0.000000 0.000000 
#    y 0.000000 1.865280 0.000000 
#    z 0.000000 0.000000 1.848960 
# 
# From -- ./inp_files/7679.got.cif
#   From: 2010.03.12/outbox.cif.g09.slc.cpg/sg37_4_cif.got.tgz:7679.got - 2010.04.14 02:25:27.
