data_PCOD8176578
_publ_section_title
;
Structure prediction by ZEFSAII (Michael W. Deem and Ramdas Pophale) SiO2 
 PCOD8176578
Probable space group: C C C 2
;
_chemical_formula_sum "Si O2"
_cell_formula_units_Z 64
_cell_length_a 11.494824
_cell_length_b 11.103397
_cell_length_c 23.287923
_cell_angle_alpha 90.000000
_cell_angle_beta 90.000000
_cell_angle_gamma 90.000000
_cell_volume 2972.274741
_symmetry_space_group_name_H-M "C C C 2"
_symmetry_group_IT_number 37
_symmetry_cell_setting 'orthorhombic'
loop_
_space_group_symop_operation_xyz
x,y,z
-x,-y,z
-x,y,1/2+z
x,-y,1/2+z
1/2+x,1/2+y,z
1/2-x,1/2-y,z
1/2-x,1/2+y,1/2+z
1/2+x,1/2-y,1/2+z
loop_
_atom_site_type_symbol
_atom_site_label
_atom_site_fract_x
_atom_site_fract_y
_atom_site_fract_z
Si Si1 0.692704 0.993517 0.553970
Si Si2 0.266122 0.558204 0.928630
Si Si3 0.856116 0.173122 0.745808
Si Si4 0.595007 0.407324 0.622777
Si Si5 0.497417 0.810603 0.549728
Si Si6 0.771795 0.940499 0.811270
Si Si7 0.441071 0.236032 0.424099
Si Si8 0.929904 0.280454 0.306974
O O1 0.802860 0.013598 0.594534
O O2 0.602077 0.097861 0.568618
O O3 0.739140 0.004166 0.489144
O O4 0.626759 0.864688 0.564905
O O5 0.281856 0.459142 0.879567
O O6 0.386020 0.632252 0.932968
O O7 0.160092 0.642241 0.909712
O O8 0.750000 0.250000 0.768057
O O9 0.854914 0.162320 0.677325
O O10 0.965517 0.254251 0.763747
O O11 0.837242 0.045740 0.776785
O O12 0.500000 0.500000 0.646113
O O13 0.529681 0.316073 0.579685
O O14 0.489143 0.796793 0.481415
O O15 0.838983 0.822612 0.793741
O O16 0.635015 0.910345 0.795943
O O17 0.531308 0.230016 0.372722
#
# Coordination Sequence:
#
# PCOD8176578 Si02
#       8
#     8   8   8   8   8   8   8   8
#     4  10  22  41  65  95 131 171 218 270 325 391
#     4  10  20  36  61  94 131 169 210 264 326 383
#     4  12  26  46  68  92 126 170 216 271 322 385
#     4  12  26  44  68  94 128 172 218 269 328 385
#     4  10  22  41  65  95 131 171 218 270 325 391
#     4  11  24  41  64  95 129 168 213 266 327 391
#     4  10  20  36  61  94 131 169 210 264 326 383
#     4  11  24  41  64  95 129 168 213 266 327 391
#
# _framework density 21.532330000000002
#
# number of rings (size 3 to 8) (size 9 to 14) (size 15 to 20)
#    0.000    1.250    1.250    4.500    1.750    5.500 
#    0.000    0.000    0.000    0.000    0.000    0.000 
#    0.000    0.000    0.000    0.000    0.000    0.000 
#
# Total GULP energy -396696.019083 kJ/mol
# GULP energy per Si atom -12396.750596 kJ/mol
# Density = 2.148332 g / cm^3
# Si number density = 21.532330 Si / 1000 Ang^3
#
#
#
# Elastic Constant Matrix: (Units=GPa)
#
#
# Indices 1 2 3 4 5 6 
#
# 1 106.6594 18.3900 27.9595 0.0000 0.0000 0.0000
# 2 18.3900 41.4493 3.9800 0.0000 0.0000 0.0000
# 3 27.9595 3.9800 93.1765 0.0000 0.0000 0.0000
# 4 0.0000 0.0000 0.0000 19.8626 0.0000 0.0000
# 5 0.0000 0.0000 0.0000 0.0000 29.2131 0.0000
# 6 0.0000 0.0000 0.0000 0.0000 0.0000 35.2692
#
#
#
# Elastic Compliance Matrix: (Units=1/GPa)
#
#
# Indices 1 2 3 4 5 6 
#
# 1 0.010976 -0.004572 -0.003098 0.000000 0.000000 0.000000
# 2 -0.004572 0.026130 0.000256 0.000000 0.000000 0.000000
# 3 -0.003098 0.000256 0.011651 0.000000 0.000000 0.000000
# 4 0.000000 0.000000 0.000000 0.050346 0.000000 0.000000
# 5 0.000000 0.000000 0.000000 0.000000 0.034231 0.000000
# 6 0.000000 0.000000 0.000000 0.000000 0.000000 0.028353
#
#
# Mechanical properties :
#
#
# Convention : Reuss Voigt Hill
#
# Bulk Modulus (GPa) = 29.47449 37.99379 33.73414
# Shear Modulus (GPa) = 26.62034 29.59936 28.10985
#
# Velocity S-wave (km/s) = 3.51991 3.71165 3.61705
# Velocity P-wave (km/s) = 5.49890 6.00431 5.75715
#
# Compressibility (1/GPa) = 0.03392764
#
# Stress axis : x y z
#
# Youngs Moduli (GPa) = 91.10640 38.27035 85.82882
#
# Poissons Ratio (x) = 0.17498 0.26592
# Poissons Ratio (y) = 0.41657 -0.02196
# Poissons Ratio (z) = 0.28228 -0.00979
#
# Static dielectric constant tensor:
#      x y z
#    x 4.095820 0.000000 0.000000 
#    y 0.000000 3.995480 0.000000 
#    z 0.000000 0.000000 3.667620 
# 
# 
# High freq. dielectric constant tensor:
#      x y z
#    x 1.860920 0.000000 0.000000 
#    y 0.000000 1.847000 0.000000 
#    z 0.000000 0.000000 1.834520 
# 
# From -- ./inp_files/18774.got.cif
#   From: 2010.03.12/outbox.cif.g09.slc.cpg/sg37_10_cif.got.tgz:18774.got - 2010.04.14 02:25:27.
