data_PCOD8176559
_publ_section_title
;
Structure prediction by ZEFSAII (Michael W. Deem and Ramdas Pophale) SiO2 
 PCOD8176559
Probable space group: C C C 2
;
_chemical_formula_sum "Si O2"
_cell_formula_units_Z 64
_cell_length_a 11.732574
_cell_length_b 11.494814
_cell_length_c 22.412448
_cell_angle_alpha 90.000000
_cell_angle_beta 90.000000
_cell_angle_gamma 90.000000
_cell_volume 3022.626916
_symmetry_space_group_name_H-M "C C C 2"
_symmetry_group_IT_number 37
_symmetry_cell_setting 'orthorhombic'
loop_
_space_group_symop_operation_xyz
x,y,z
-x,-y,z
-x,y,1/2+z
x,-y,1/2+z
1/2+x,1/2+y,z
1/2-x,1/2-y,z
1/2-x,1/2+y,1/2+z
1/2+x,1/2-y,1/2+z
loop_
_atom_site_type_symbol
_atom_site_label
_atom_site_fract_x
_atom_site_fract_y
_atom_site_fract_z
Si Si1 0.418609 0.711442 0.064480
Si Si2 0.962787 0.757543 0.238955
Si Si3 0.863880 0.679283 0.120518
Si Si4 0.688727 0.579943 0.318069
Si Si5 0.692126 0.364469 0.239660
Si Si6 0.375074 0.298673 0.431392
Si Si7 0.273753 0.924800 0.114655
Si Si8 0.948197 0.379634 0.846170
O O1 0.547067 0.745578 0.081673
O O2 0.346111 0.826614 0.080738
O O3 0.358601 0.597574 0.094929
O O4 0.425556 0.671636 0.995516
O O5 0.911167 0.675822 0.187742
O O6 0.866957 0.840498 0.267084
O O7 0.016492 0.673908 0.290107
O O8 0.066447 0.835145 0.213164
O O9 0.750000 0.750000 0.117578
O O10 0.833075 0.548261 0.098217
O O11 0.678772 0.448145 0.296423
O O12 0.628638 0.594795 0.383207
O O13 0.818604 0.617760 0.323697
O O14 0.750000 0.250000 0.265997
O O15 0.772685 0.414040 0.186703
O O16 0.250000 0.250000 0.442508
O O17 0.457595 0.200182 0.404272
O O18 0.000000 0.500000 0.866284
#
# Coordination Sequence:
#
# PCOD8176559 Si02
#       8
#     8   8   8   8   8   8   8   8
#     4  11  22  44  67  95 129 175 230 278 342 411
#     4  11  21  38  58  88 133 170 212 259 338 425
#     4  12  25  39  64  98 135 175 219 278 344 417
#     4  10  22  38  62  90 122 175 213 264 336 399
#     4  12  21  36  61  96 134 165 213 277 343 407
#     4   9  19  40  67  86 121 164 222 271 318 404
#     4  11  22  40  67  99 132 172 221 281 348 400
#     4  10  20  35  59  92 119 157 211 273 325 374
#
# _framework density 21.173635999999998
#
# number of rings (size 3 to 8) (size 9 to 14) (size 15 to 20)
#    0.000    1.250    3.750    4.875    0.000    2.500 
#    0.000    0.000   11.000    0.000    0.000    0.000 
#    0.000    0.000    0.000    0.000    0.000    0.000 
#
# Total GULP energy -396525.227916 kJ/mol
# GULP energy per Si atom -12391.413372 kJ/mol
# Density = 2.112544 g / cm^3
# Si number density = 21.173636 Si / 1000 Ang^3
#
#
#
# Elastic Constant Matrix: (Units=GPa)
#
#
# Indices 1 2 3 4 5 6 
#
# 1 41.7463 -4.1630 14.1759 0.0000 0.0000 0.0000
# 2 -4.1630 83.0513 39.9178 0.0000 0.0000 0.0000
# 3 14.1759 39.9178 131.7710 0.0000 0.0000 0.0000
# 4 0.0000 0.0000 0.0000 23.5250 0.0000 0.0000
# 5 0.0000 0.0000 0.0000 0.0000 21.4154 0.0000
# 6 0.0000 0.0000 0.0000 0.0000 0.0000 38.8636
#
#
#
# Elastic Compliance Matrix: (Units=1/GPa)
#
#
# Indices 1 2 3 4 5 6 
#
# 1 0.025502 0.003039 -0.003664 0.000000 0.000000 0.000000
# 2 0.003039 0.014455 -0.004706 0.000000 0.000000 0.000000
# 3 -0.003664 -0.004706 0.009409 0.000000 0.000000 0.000000
# 4 0.000000 0.000000 0.000000 0.042508 0.000000 0.000000
# 5 0.000000 0.000000 0.000000 0.000000 0.046695 0.000000
# 6 0.000000 0.000000 0.000000 0.000000 0.000000 0.025731
#
#
# Mechanical properties :
#
#
# Convention : Reuss Voigt Hill
#
# Bulk Modulus (GPa) = 25.83715 39.60335 32.72025
# Shear Modulus (GPa) = 26.61525 30.53665 28.57595
#
# Velocity S-wave (km/s) = 3.54927 3.80175 3.67768
# Velocity P-wave (km/s) = 5.38752 6.16569 5.78970
#
# Compressibility (1/GPa) = 0.03870395
#
# Stress axis : x y z
#
# Youngs Moduli (GPa) = 39.21322 69.18054 106.28476
#
# Poissons Ratio (x) = -0.21027 0.38945
# Poissons Ratio (y) = -0.11919 0.50016
# Poissons Ratio (z) = 0.14369 0.32555
#
# Static dielectric constant tensor:
#      x y z
#    x 4.025690 0.000000 0.000000 
#    y 0.000000 3.977820 0.000000 
#    z 0.000000 0.000000 3.908460 
# 
# 
# High freq. dielectric constant tensor:
#      x y z
#    x 1.831500 0.000000 0.000000 
#    y 0.000000 1.820270 0.000000 
#    z 0.000000 0.000000 1.819820 
# 
# From -- ./inp_files/18744.got.cif
#   From: 2010.03.12/outbox.cif.g09.slc.cpg/sg37_10_cif.got.tgz:18744.got - 2010.04.14 02:25:27.
