data_PCOD8176900
_publ_section_title
;
Structure prediction by ZEFSAII (Michael W. Deem and Ramdas Pophale) SiO2 
 PCOD8176900
Probable space group: C C C 2
;
_chemical_formula_sum "Si O2"
_cell_formula_units_Z 48
_cell_length_a 17.054572
_cell_length_b 10.322215
_cell_length_c 12.034654
_cell_angle_alpha 90.000000
_cell_angle_beta 90.000000
_cell_angle_gamma 90.000000
_cell_volume 2118.592030
_symmetry_space_group_name_H-M "C C C 2"
_symmetry_group_IT_number 37
_symmetry_cell_setting 'orthorhombic'
loop_
_space_group_symop_operation_xyz
x,y,z
-x,-y,z
-x,y,1/2+z
x,-y,1/2+z
1/2+x,1/2+y,z
1/2-x,1/2-y,z
1/2-x,1/2+y,1/2+z
1/2+x,1/2-y,1/2+z
loop_
_atom_site_type_symbol
_atom_site_label
_atom_site_fract_x
_atom_site_fract_y
_atom_site_fract_z
Si Si1 0.692780 0.027160 0.816540
Si Si2 0.176018 0.097670 0.466788
Si Si3 0.425697 0.209944 0.851503
Si Si4 0.067986 0.108367 0.044911
Si Si5 0.689384 0.352868 0.212840
Si Si6 0.909729 0.755391 0.273170
O O1 0.630493 0.915769 0.850175
O O2 0.767812 0.988418 0.740327
O O3 0.733210 0.088542 0.926857
O O4 0.651203 0.140434 0.747011
O O5 0.172979 0.173412 0.583607
O O6 0.117405 0.167055 0.381874
O O7 0.146473 0.952665 0.492612
O O8 0.390313 0.330946 0.781206
O O9 0.508685 0.180276 0.794671
O O10 0.445972 0.259441 0.976080
O O11 0.083152 0.143605 0.172709
O O12 0.000000 0.000000 0.036593
O O13 0.750000 0.250000 0.261220
#
# Coordination Sequence:
#
# PCOD8176900 Si02
#       6
#     8   8   8   8   8   8
#     4  11  25  46  70 108 145 180 237 297 362 431
#     4  12  24  43  71 102 142 186 238 293 348 426
#     4  11  25  48  71 105 142 191 233 295 363 419
#     4  12  26  44  75 104 141 191 245 297 344 434
#     4  10  22  43  68  98 141 185 227 286 355 414
#     4  12  27  46  72 108 140 189 241 293 359 421
#
# _framework density 22.656555999999998
#
# number of rings (size 3 to 8) (size 9 to 14) (size 15 to 20)
#    0.000    0.667    3.333    4.000    4.667    0.000 
#    0.000    1.667    0.000    0.000    0.000    0.000 
#    0.000    0.000    0.000    0.000    0.000    0.000 
#
# Total GULP energy -297498.512205 kJ/mol
# GULP energy per Si atom -12395.771342 kJ/mol
# Density = 2.260499 g / cm^3
# Si number density = 22.656556 Si / 1000 Ang^3
#
#
#
# Elastic Constant Matrix: (Units=GPa)
#
#
# Indices 1 2 3 4 5 6 
#
# 1 120.5210 31.2745 36.3200 0.0000 0.0000 0.0000
# 2 31.2745 71.9723 28.1156 0.0000 0.0000 0.0000
# 3 36.3200 28.1156 125.6405 0.0000 0.0000 0.0000
# 4 0.0000 0.0000 0.0000 31.2024 0.0000 0.0000
# 5 0.0000 0.0000 0.0000 0.0000 32.6746 0.0000
# 6 0.0000 0.0000 0.0000 0.0000 0.0000 51.5415
#
#
#
# Elastic Compliance Matrix: (Units=1/GPa)
#
#
# Indices 1 2 3 4 5 6 
#
# 1 0.009817 -0.003460 -0.002064 0.000000 0.000000 0.000000
# 2 -0.003460 0.016444 -0.002680 0.000000 0.000000 0.000000
# 3 -0.002064 -0.002680 0.009155 0.000000 0.000000 0.000000
# 4 0.000000 0.000000 0.000000 0.032049 0.000000 0.000000
# 5 0.000000 0.000000 0.000000 0.000000 0.030605 0.000000
# 6 0.000000 0.000000 0.000000 0.000000 0.000000 0.019402
#
#
# Mechanical properties :
#
#
# Convention : Reuss Voigt Hill
#
# Bulk Modulus (GPa) = 52.60221 56.61711 54.60966
# Shear Modulus (GPa) = 35.65939 37.91193 36.78566
#
# Velocity S-wave (km/s) = 3.97156 4.09508 4.03379
# Velocity P-wave (km/s) = 6.65572 6.88499 6.77133
#
# Compressibility (1/GPa) = 0.01901061
#
# Stress axis : x y z
#
# Youngs Moduli (GPa) = 101.86437 60.81087 109.22438
#
# Poissons Ratio (x) = 0.21038 0.22541
# Poissons Ratio (y) = 0.35242 0.29270
# Poissons Ratio (z) = 0.21022 0.16296
#
# Static dielectric constant tensor:
#      x y z
#    x 4.349260 0.000000 0.000000 
#    y 0.000000 4.036000 0.000000 
#    z 0.000000 0.000000 3.978530 
# 
# 
# High freq. dielectric constant tensor:
#      x y z
#    x 1.910430 0.000000 0.000000 
#    y 0.000000 1.888980 0.000000 
#    z 0.000000 0.000000 1.889330 
# 
# From -- ./inp_files/8236.got.cif
#   From: 2010.03.12/outbox.cif.g09.slc.cpg/sg37_5_cif.got.tgz:8236.got - 2010.04.14 02:25:27.
