data_PCOD8176362
_publ_section_title
;
Structure prediction by ZEFSAII (Michael W. Deem and Ramdas Pophale) SiO2 
 PCOD8176362
Probable space group: C C C 2
;
_chemical_formula_sum "Si O2"
_cell_formula_units_Z 24
_cell_length_a 28.918609
_cell_length_b 7.411196
_cell_length_c 5.201588
_cell_angle_alpha 90.000000
_cell_angle_beta 90.000000
_cell_angle_gamma 90.000000
_cell_volume 1114.812035
_symmetry_space_group_name_H-M "C C C 2"
_symmetry_group_IT_number 37
_symmetry_cell_setting 'orthorhombic'
loop_
_space_group_symop_operation_xyz
x,y,z
-x,-y,z
-x,y,1/2+z
x,-y,1/2+z
1/2+x,1/2+y,z
1/2-x,1/2-y,z
1/2-x,1/2+y,1/2+z
1/2+x,1/2-y,1/2+z
loop_
_atom_site_type_symbol
_atom_site_label
_atom_site_fract_x
_atom_site_fract_y
_atom_site_fract_z
Si Si1 0.979996 0.800121 0.600510
Si Si2 0.874578 0.117573 0.076794
Si Si3 0.291953 0.883963 0.019276
O O1 0.925567 0.800741 0.554584
O O2 0.006112 0.699028 0.365652
O O3 0.000000 0.000000 0.651280
O O4 0.840392 0.283918 0.050526
O O5 0.865921 0.025450 0.351110
O O6 0.250000 0.750000 0.068390
O O7 0.288592 0.040007 0.231478
#
# Coordination Sequence:
#
# PCOD8176362 Si02
#       3
#     8   8   8
#     4  10  16  30  52  91 120 154 208 255 276 351
#     4  12  21  36  65  96 123 163 210 259 308 359
#     4  12  26  46  66  92 127 162 208 262 318 378
#
# _framework density 21.528293000000001
#
# number of rings (size 3 to 8) (size 9 to 14) (size 15 to 20)
#    0.000    0.667    6.667    5.000    0.000    0.000 
#    0.000    0.000    0.000    6.000    0.000    0.000 
#    0.000    0.000    0.000    0.000    0.000    0.000 
#
# Total GULP energy -148820.155851 kJ/mol
# GULP energy per Si atom -12401.679654 kJ/mol
# Density = 2.147929 g / cm^3
# Si number density = 21.528293 Si / 1000 Ang^3
#
#
#
# Elastic Constant Matrix: (Units=GPa)
#
#
# Indices 1 2 3 4 5 6 
#
# 1 142.4929 40.0707 2.0551 0.0000 0.0000 0.0000
# 2 40.0707 46.3739 5.7689 0.0000 0.0000 0.0000
# 3 2.0551 5.7689 133.1230 0.0000 0.0000 0.0000
# 4 0.0000 0.0000 0.0000 37.2965 0.0000 0.0000
# 5 0.0000 0.0000 0.0000 0.0000 32.1042 0.0000
# 6 0.0000 0.0000 0.0000 0.0000 0.0000 32.5184
#
#
#
# Elastic Compliance Matrix: (Units=1/GPa)
#
#
# Indices 1 2 3 4 5 6 
#
# 1 0.009276 -0.008041 0.000205 0.000000 0.000000 0.000000
# 2 -0.008041 0.028651 -0.001117 0.000000 0.000000 0.000000
# 3 0.000205 -0.001117 0.007557 0.000000 0.000000 0.000000
# 4 0.000000 0.000000 0.000000 0.026812 0.000000 0.000000
# 5 0.000000 0.000000 0.000000 0.000000 0.031149 0.000000
# 6 0.000000 0.000000 0.000000 0.000000 0.000000 0.030752
#
#
# Mechanical properties :
#
#
# Convention : Reuss Voigt Hill
#
# Bulk Modulus (GPa) = 36.26088 46.41992 41.34040
# Shear Modulus (GPa) = 30.99907 38.65684 34.82796
#
# Velocity S-wave (km/s) = 3.79875 4.24208 4.02652
# Velocity P-wave (km/s) = 6.01004 6.75298 6.39231
#
# Compressibility (1/GPa) = 0.02757793
#
# Stress axis : x y z
#
# Youngs Moduli (GPa) = 107.80383 34.90309 132.32578
#
# Poissons Ratio (x) = 0.28065 -0.02716
# Poissons Ratio (y) = 0.86683 0.14787
# Poissons Ratio (z) = -0.02213 0.03900
#
# Static dielectric constant tensor:
#      x y z
#    x 4.030070 0.000000 0.000000 
#    y 0.000000 3.419920 0.000000 
#    z 0.000000 0.000000 4.858320 
# 
# 
# High freq. dielectric constant tensor:
#      x y z
#    x 1.861130 0.000000 0.000000 
#    y 0.000000 1.807560 0.000000 
#    z 0.000000 0.000000 1.882600 
# 
# From -- ./inp_files/101.got.cif
#   From: 2010.03.12/outbox.cif.g09.slc.cpg/sg37_1_cif.got.tgz:101.got - 2010.04.14 02:25:27.
