data_PCOD8176662
_publ_section_title
;
Structure prediction by ZEFSAII (Michael W. Deem and Ramdas Pophale) SiO2 
 PCOD8176662
Probable space group: C C C 2
;
_chemical_formula_sum "Si O2"
_cell_formula_units_Z 52
_cell_length_a 16.675896
_cell_length_b 16.675662
_cell_length_c 8.894551
_cell_angle_alpha 90.000000
_cell_angle_beta 90.000000
_cell_angle_gamma 90.000000
_cell_volume 2473.411020
_symmetry_space_group_name_H-M "C C C 2"
_symmetry_group_IT_number 37
_symmetry_cell_setting 'orthorhombic'
loop_
_space_group_symop_operation_xyz
x,y,z
-x,-y,z
-x,y,1/2+z
x,-y,1/2+z
1/2+x,1/2+y,z
1/2-x,1/2-y,z
1/2-x,1/2+y,1/2+z
1/2+x,1/2-y,1/2+z
loop_
_atom_site_type_symbol
_atom_site_label
_atom_site_fract_x
_atom_site_fract_y
_atom_site_fract_z
Si Si1 0.581136 0.918862 0.339540
Si Si2 0.000000 0.000000 0.589550
Si Si3 0.654939 0.459298 0.418297
Si Si4 0.246787 0.079261 0.207449
Si Si5 0.500000 0.000000 0.089539
Si Si6 0.079257 0.246793 0.471675
Si Si7 0.750000 0.750000 0.339587
Si Si8 0.959311 0.845057 0.760815
O O1 0.664434 0.941069 0.261615
O O2 0.518498 0.926160 0.201703
O O3 0.573839 0.981503 0.477374
O O4 0.558922 0.835564 0.417467
O O5 0.004854 0.919606 0.686326
O O6 0.080393 0.004853 0.492773
O O7 0.685788 0.524054 0.299516
O O8 0.726843 0.437127 0.532802
O O9 0.622504 0.377485 0.339557
O O10 0.241574 0.174159 0.231460
O O11 0.174159 0.241594 0.447717
O O12 0.062850 0.226856 0.646318
O O13 0.024074 0.185778 0.379595
#
# Coordination Sequence:
#
# PCOD8176662 Si02
#       8
#     8   4   8   8   4   8   4   8
#     4  10  22  42  70  96 134 172 228 288 348 396
#     4  12  22  36  58  92 130 176 222 268 314 392
#     4  12  24  38  66  97 132 176 229 273 329 406
#     4  11  24  42  63  95 136 178 218 276 337 399
#     4  10  20  42  72 102 116 174 232 290 336 406
#     4  11  24  42  63  95 136 178 218 276 337 399
#     4  10  24  42  64  86 140 178 210 268 344 402
#     4  12  24  38  66  97 132 176 229 273 329 406
#
# _framework density 21.023596999999999
#
# number of rings (size 3 to 8) (size 9 to 14) (size 15 to 20)
#    0.000    0.923    3.077    4.154    0.000    0.000 
#    0.000    0.769    0.000    0.000    0.000    0.000 
#    0.000    0.000    0.000    0.000    0.000    0.000 
#
# Total GULP energy -322125.281976 kJ/mol
# GULP energy per Si atom -12389.433922 kJ/mol
# Density = 2.097575 g / cm^3
# Si number density = 21.023597 Si / 1000 Ang^3
#
#
#
# Elastic Constant Matrix: (Units=GPa)
#
#
# Indices 1 2 3 4 5 6 
#
# 1 94.5105 51.9363 56.0049 0.0000 0.0000 0.0000
# 2 51.9363 94.4598 55.9700 0.0000 0.0000 0.0000
# 3 56.0049 55.9700 140.9363 0.0000 0.0000 0.0000
# 4 0.0000 0.0000 0.0000 31.7714 0.0000 0.0000
# 5 0.0000 0.0000 0.0000 0.0000 31.7723 0.0000
# 6 0.0000 0.0000 0.0000 0.0000 0.0000 40.2007
#
#
#
# Elastic Compliance Matrix: (Units=1/GPa)
#
#
# Indices 1 2 3 4 5 6 
#
# 1 0.016653 -0.006846 -0.003899 0.000000 0.000000 0.000000
# 2 -0.006846 0.016659 -0.003895 0.000000 0.000000 0.000000
# 3 -0.003899 -0.003895 0.010192 0.000000 0.000000 0.000000
# 4 0.000000 0.000000 0.000000 0.031475 0.000000 0.000000
# 5 0.000000 0.000000 0.000000 0.000000 0.031474 0.000000
# 6 0.000000 0.000000 0.000000 0.000000 0.000000 0.024875
#
#
# Mechanical properties :
#
#
# Convention : Reuss Voigt Hill
#
# Bulk Modulus (GPa) = 70.30737 73.08101 71.69419
# Shear Modulus (GPa) = 30.23901 31.81524 31.02713
#
# Velocity S-wave (km/s) = 3.79666 3.89435 3.84581
# Velocity P-wave (km/s) = 7.26183 7.42012 7.34140
#
# Compressibility (1/GPa) = 0.01422326
#
# Stress axis : x y z
#
# Youngs Moduli (GPa) = 60.04766 60.02860 98.12026
#
# Poissons Ratio (x) = 0.41097 0.38255
# Poissons Ratio (y) = 0.41110 0.38219
# Poissons Ratio (z) = 0.23412 0.23382
#
# Static dielectric constant tensor:
#      x y z
#    x 4.023480 0.000000 0.000000 
#    y 0.000000 4.023790 0.000000 
#    z 0.000000 0.000000 4.001190 
# 
# 
# High freq. dielectric constant tensor:
#      x y z
#    x 1.823880 0.000000 0.000000 
#    y 0.000000 1.823880 0.000000 
#    z 0.000000 0.000000 1.835770 
# 
# From -- ./inp_files/4068.got.cif
#   From: 2010.03.12/outbox.cif.g09.slc.cpg/sg37_3_cif.got.tgz:4068.got - 2010.04.14 02:25:27.
