data_PCOD8176516
_publ_section_title
;
Structure prediction by ZEFSAII (Michael W. Deem and Ramdas Pophale) SiO2 
 PCOD8176516
Probable space group: C C C 2
;
_chemical_formula_sum "Si O2"
_cell_formula_units_Z 36
_cell_length_a 11.764907
_cell_length_b 8.772667
_cell_length_c 15.126391
_cell_angle_alpha 90.000000
_cell_angle_beta 90.000000
_cell_angle_gamma 90.000000
_cell_volume 1561.188937
_symmetry_space_group_name_H-M "C C C 2"
_symmetry_group_IT_number 37
_symmetry_cell_setting 'orthorhombic'
loop_
_space_group_symop_operation_xyz
x,y,z
-x,-y,z
-x,y,1/2+z
x,-y,1/2+z
1/2+x,1/2+y,z
1/2-x,1/2-y,z
1/2-x,1/2+y,1/2+z
1/2+x,1/2-y,1/2+z
loop_
_atom_site_type_symbol
_atom_site_label
_atom_site_fract_x
_atom_site_fract_y
_atom_site_fract_z
Si Si1 0.752128 0.495807 0.207770
Si Si2 0.572146 0.266146 0.688413
Si Si3 0.250000 0.750000 0.057487
Si Si4 0.491362 0.178491 0.507215
Si Si5 0.582882 0.856587 0.826979
O O1 0.634432 0.582685 0.223129
O O2 0.852444 0.615858 0.193905
O O3 0.740378 0.396864 0.120007
O O4 0.788275 0.402108 0.297232
O O5 0.535732 0.283287 0.587010
O O6 0.459505 0.252937 0.748186
O O7 0.358954 0.773616 0.993082
O O8 0.571328 0.222603 0.422995
O O9 0.500000 0.000000 0.531754
O O10 0.500000 0.000000 0.836956
#
# Coordination Sequence:
#
# PCOD8176516 Si02
#       5
#     8   8   4   8   8
#     4  10  21  38  67  93 127 177 226 268 341 398
#     4  10  19  41  66  91 131 177 218 281 334 398
#     4  12  22  38  68  98 126 186 224 270 344 412
#     4  11  21  38  68  97 140 175 225 285 338 404
#     4   9  19  37  64  95 130 174 221 276 337 398
#
# _framework density 23.059349999999998
#
# number of rings (size 3 to 8) (size 9 to 14) (size 15 to 20)
#    0.000    1.778    4.444    0.667    0.000    6.222 
#    0.000    2.222    4.889    0.000    0.000    0.000 
#    0.000    0.000    0.000    0.000    0.000    0.000 
#
# Total GULP energy -223111.301104 kJ/mol
# GULP energy per Si atom -12395.072284 kJ/mol
# Density = 2.300687 g / cm^3
# Si number density = 23.059350 Si / 1000 Ang^3
#
#
#
# Elastic Constant Matrix: (Units=GPa)
#
#
# Indices 1 2 3 4 5 6 
#
# 1 113.8124 34.3968 58.4873 0.0000 0.0000 0.0000
# 2 34.3968 72.0816 29.9287 0.0000 0.0000 0.0000
# 3 58.4873 29.9287 178.4454 0.0000 0.0000 0.0000
# 4 0.0000 0.0000 0.0000 12.2719 0.0000 0.0000
# 5 0.0000 0.0000 0.0000 0.0000 39.7426 0.0000
# 6 0.0000 0.0000 0.0000 0.0000 0.0000 22.2354
#
#
#
# Elastic Compliance Matrix: (Units=1/GPa)
#
#
# Indices 1 2 3 4 5 6 
#
# 1 0.011678 -0.004282 -0.003110 0.000000 0.000000 0.000000
# 2 -0.004282 0.016481 -0.001361 0.000000 0.000000 0.000000
# 3 -0.003110 -0.001361 0.006851 0.000000 0.000000 0.000000
# 4 0.000000 0.000000 0.000000 0.081487 0.000000 0.000000
# 5 0.000000 0.000000 0.000000 0.000000 0.025162 0.000000
# 6 0.000000 0.000000 0.000000 0.000000 0.000000 0.044973
#
#
# Mechanical properties :
#
#
# Convention : Reuss Voigt Hill
#
# Bulk Modulus (GPa) = 57.12050 67.77390 62.44720
# Shear Modulus (GPa) = 23.81254 30.95176 27.38215
#
# Velocity S-wave (km/s) = 3.21699 3.66767 3.44970
# Velocity P-wave (km/s) = 6.21479 6.88408 6.55798
#
# Compressibility (1/GPa) = 0.01750685
#
# Stress axis : x y z
#
# Youngs Moduli (GPa) = 85.62799 60.67446 145.95547
#
# Poissons Ratio (x) = 0.25979 0.45386
# Poissons Ratio (y) = 0.36664 0.19863
# Poissons Ratio (z) = 0.26627 0.08257
#
# Static dielectric constant tensor:
#      x y z
#    x 4.274990 0.000000 0.000000 
#    y 0.000000 4.044760 0.000000 
#    z 0.000000 0.000000 4.294980 
# 
# 
# High freq. dielectric constant tensor:
#      x y z
#    x 1.912030 0.000000 0.000000 
#    y 0.000000 1.897670 0.000000 
#    z 0.000000 0.000000 1.897450 
# 
# From -- ./inp_files/11940.got.cif
#   From: 2010.03.12/outbox.cif.g09.slc.cpg/sg37_6_cif.got.tgz:11940.got - 2010.04.14 02:25:27.
