data_PCOD8176873
_publ_section_title
;
Structure prediction by ZEFSAII (Michael W. Deem and Ramdas Pophale) SiO2 
 PCOD8176873
Probable space group: C C C 2
;
_chemical_formula_sum "Si O2"
_cell_formula_units_Z 40
_cell_length_a 17.635780
_cell_length_b 9.149625
_cell_length_c 9.596098
_cell_angle_alpha 90.000000
_cell_angle_beta 90.000000
_cell_angle_gamma 90.000000
_cell_volume 1548.433797
_symmetry_space_group_name_H-M "C C C 2"
_symmetry_group_IT_number 37
_symmetry_cell_setting 'orthorhombic'
loop_
_space_group_symop_operation_xyz
x,y,z
-x,-y,z
-x,y,1/2+z
x,-y,1/2+z
1/2+x,1/2+y,z
1/2-x,1/2-y,z
1/2-x,1/2+y,1/2+z
1/2+x,1/2-y,1/2+z
loop_
_atom_site_type_symbol
_atom_site_label
_atom_site_fract_x
_atom_site_fract_y
_atom_site_fract_z
Si Si1 0.413764 0.517637 0.302600
Si Si2 0.927654 0.279407 0.103891
Si Si3 0.951477 0.632653 0.321903
Si Si4 0.327536 0.943514 0.628601
Si Si5 0.162305 0.125304 0.074098
O O1 0.500000 0.500000 0.344700
O O2 0.392762 0.647189 0.191850
O O3 0.393160 0.375012 0.210279
O O4 0.365400 0.534091 0.441866
O O5 0.003675 0.327439 0.181564
O O6 0.867181 0.409829 0.072309
O O7 0.950313 0.239241 0.942281
O O8 0.865934 0.584047 0.279938
O O9 0.000000 0.500000 0.391852
O O10 0.236835 0.957097 0.635466
O O11 0.334872 0.796494 0.531478
#
# Coordination Sequence:
#
# PCOD8176873 Si02
#       5
#     8   8   8   8   8
#     4  12  29  48  77 109 153 204 256 316 390 466
#     4  11  26  43  79 110 149 196 258 311 385 449
#     4  10  22  41  72 114 142 192 242 318 372 443
#     4  10  25  48  77 104 157 188 261 315 375 457
#     4  11  28  49  73 109 152 207 250 320 388 454
#
# _framework density 25.832554999999999
#
# number of rings (size 3 to 8) (size 9 to 14) (size 15 to 20)
#    0.000    1.200    0.000    3.600   19.600    2.400 
#    0.000    0.000    0.000    0.000    0.000    0.000 
#    0.000    0.000    0.000    0.000    0.000    0.000 
#
# Total GULP energy -247797.427810 kJ/mol
# GULP energy per Si atom -12389.871391 kJ/mol
# Density = 2.577376 g / cm^3
# Si number density = 25.832555 Si / 1000 Ang^3
#
#
#
# Elastic Constant Matrix: (Units=GPa)
#
#
# Indices 1 2 3 4 5 6 
#
# 1 159.2126 39.7829 55.0951 0.0000 0.0000 0.0000
# 2 39.7829 75.7236 -1.0032 0.0000 0.0000 0.0000
# 3 55.0951 -1.0032 165.0625 0.0000 0.0000 0.0000
# 4 0.0000 0.0000 0.0000 28.3858 0.0000 0.0000
# 5 0.0000 0.0000 0.0000 0.0000 28.9042 0.0000
# 6 0.0000 0.0000 0.0000 0.0000 0.0000 38.5491
#
#
#
# Elastic Compliance Matrix: (Units=1/GPa)
#
#
# Indices 1 2 3 4 5 6 
#
# 1 0.008364 -0.004431 -0.002819 0.000000 0.000000 0.000000
# 2 -0.004431 0.015555 0.001574 0.000000 0.000000 0.000000
# 3 -0.002819 0.001574 0.007009 0.000000 0.000000 0.000000
# 4 0.000000 0.000000 0.000000 0.035229 0.000000 0.000000
# 5 0.000000 0.000000 0.000000 0.000000 0.034597 0.000000
# 6 0.000000 0.000000 0.000000 0.000000 0.000000 0.025941
#
#
# Mechanical properties :
#
#
# Convention : Reuss Voigt Hill
#
# Bulk Modulus (GPa) = 51.08655 65.30536 58.19596
# Shear Modulus (GPa) = 34.58503 39.57606 37.08054
#
# Velocity S-wave (km/s) = 3.66295 3.91835 3.79280
# Velocity P-wave (km/s) = 6.14073 6.76805 6.46201
#
# Compressibility (1/GPa) = 0.01957462
#
# Stress axis : x y z
#
# Youngs Moduli (GPa) = 119.56699 64.28871 142.68075
#
# Poissons Ratio (x) = 0.28488 0.40215
# Poissons Ratio (y) = 0.52983 -0.22453
# Poissons Ratio (z) = 0.33700 -0.10117
#
# Static dielectric constant tensor:
#      x y z
#    x 4.649960 0.000000 0.000000 
#    y 0.000000 5.249130 0.000000 
#    z 0.000000 0.000000 4.380790 
# 
# 
# High freq. dielectric constant tensor:
#      x y z
#    x 2.026540 0.000000 0.000000 
#    y 0.000000 2.054050 0.000000 
#    z 0.000000 0.000000 2.033770 
# 
# From -- ./inp_files/8154.got.cif
#   From: 2010.03.12/outbox.cif.g09.slc.cpg/sg37_5_cif.got.tgz:8154.got - 2010.04.14 02:25:27.
