data_PCOD8176176
_publ_section_title
;
Structure prediction by ZEFSAII (Michael W. Deem and Ramdas Pophale) SiO2 
 PCOD8176176
Probable space group: C M C 21
;
_chemical_formula_sum "Si O2"
_cell_formula_units_Z 48
_cell_length_a 21.005824
_cell_length_b 8.876215
_cell_length_c 11.797156
_cell_angle_alpha 90.000000
_cell_angle_beta 90.000000
_cell_angle_gamma 90.000000
_cell_volume 2199.605809
_symmetry_space_group_name_H-M "C M C 21"
_symmetry_group_IT_number 36
_symmetry_cell_setting 'orthorhombic'
loop_
_space_group_symop_operation_xyz
x,y,z
-x,-y,1/2+z
x,-y,1/2+z
-x,y,z
1/2+x,1/2+y,z
1/2-x,1/2-y,1/2+z
1/2+x,1/2-y,1/2+z
1/2-x,1/2+y,z
loop_
_atom_site_type_symbol
_atom_site_label
_atom_site_fract_x
_atom_site_fract_y
_atom_site_fract_z
Si Si1 0.344204 0.409401 0.880550
Si Si2 0.929445 0.379394 0.747531
Si Si3 0.924189 0.189694 0.964253
Si Si4 0.118742 0.689289 0.704735
Si Si5 0.322357 0.237607 0.095118
Si Si6 0.750144 0.981764 0.208612
O O1 0.386056 0.535122 0.943973
O O2 0.386784 0.341427 0.778308
O O3 0.276077 0.468855 0.832580
O O4 0.327927 0.267624 0.961713
O O5 0.905464 0.305515 0.864265
O O6 0.927494 0.560799 0.755235
O O7 0.888210 0.326945 0.641331
O O8 0.000000 0.323397 0.721554
O O9 0.000000 0.158433 0.970436
O O10 0.900101 0.271071 0.077095
O O11 0.190483 0.628327 0.717484
O O12 0.265676 0.122948 0.127106
O O13 0.309463 0.398977 0.151293
#
# Coordination Sequence:
#
# PCOD8176176 Si02
#       6
#     8   8   8   8   8   8
#     4  12  26  45  69 109 142 189 241 299 374 427
#     4  10  24  47  73 102 139 187 248 304 363 432
#     4  11  26  48  75 103 143 193 250 305 360 441
#     4  11  26  45  70 105 147 191 237 299 367 434
#     4  11  25  42  70 102 140 186 235 296 356 438
#     4  11  24  43  67 105 142 188 233 291 362 438
#
# _framework density 21.822092000000001
#
# number of rings (size 3 to 8) (size 9 to 14) (size 15 to 20)
#    0.000    1.000    3.333    1.500    7.000    3.333 
#    0.000    0.000    0.000    0.000    0.000    0.000 
#    0.000    0.000    0.000    0.000    0.000    0.000 
#
# Total GULP energy -297593.596469 kJ/mol
# GULP energy per Si atom -12399.733186 kJ/mol
# Density = 2.177242 g / cm^3
# Si number density = 21.822092 Si / 1000 Ang^3
#
#
#
# Elastic Constant Matrix: (Units=GPa)
#
#
# Indices 1 2 3 4 5 6 
#
# 1 93.4776 36.1934 29.6935 0.0000 0.0000 0.0000
# 2 36.1934 118.7706 43.6456 0.0000 0.0000 0.0000
# 3 29.6935 43.6456 93.7873 0.0000 0.0000 0.0000
# 4 0.0000 0.0000 0.0000 51.3170 0.0000 0.0000
# 5 0.0000 0.0000 0.0000 0.0000 31.0589 0.0000
# 6 0.0000 0.0000 0.0000 0.0000 0.0000 34.8686
#
#
#
# Elastic Compliance Matrix: (Units=1/GPa)
#
#
# Indices 1 2 3 4 5 6 
#
# 1 0.012660 -0.002877 -0.002669 0.000000 0.000000 0.000000
# 2 -0.002877 0.010810 -0.004120 0.000000 0.000000 0.000000
# 3 -0.002669 -0.004120 0.013425 0.000000 0.000000 0.000000
# 4 0.000000 0.000000 0.000000 0.019487 0.000000 0.000000
# 5 0.000000 0.000000 0.000000 0.000000 0.032197 0.000000
# 6 0.000000 0.000000 0.000000 0.000000 0.000000 0.028679
#
#
# Mechanical properties :
#
#
# Convention : Reuss Voigt Hill
#
# Bulk Modulus (GPa) = 56.93958 58.34451 57.64205
# Shear Modulus (GPa) = 35.10160 36.54910 35.82535
#
# Velocity S-wave (km/s) = 4.01501 4.09695 4.05619
# Velocity P-wave (km/s) = 6.90239 7.01245 6.95764
#
# Compressibility (1/GPa) = 0.01756247
#
# Stress axis : x y z
#
# Youngs Moduli (GPa) = 78.99173 92.50469 74.48905
#
# Poissons Ratio (x) = 0.26613 0.19883
# Poissons Ratio (y) = 0.22725 0.30689
# Poissons Ratio (z) = 0.21085 0.38111
#
# Static dielectric constant tensor:
#      x y z
#    x 3.893750 0.000000 0.000000 
#    y 0.000000 4.257330 0.000000 
#    z 0.000000 0.000000 3.921550 
# 
# 
# High freq. dielectric constant tensor:
#      x y z
#    x 1.854020 0.000000 0.000000 
#    y 0.000000 1.874720 0.000000 
#    z 0.000000 0.000000 1.858330 
# 
# From -- ./inp_files/9431.got.cif
#   From: 2010.03.12/outbox.cif.g09.slc.cpg/sg36_5_cif.got.tgz:9431.got - 2010.04.14 02:13:53.
