data_PCOD8176086
_publ_section_title
;
Structure prediction by ZEFSAII (Michael W. Deem and Ramdas Pophale) SiO2 
 PCOD8176086
Probable space group: C M C 21
;
_chemical_formula_sum "Si O2"
_cell_formula_units_Z 56
_cell_length_a 27.348807
_cell_length_b 5.078932
_cell_length_c 15.432132
_cell_angle_alpha 90.000000
_cell_angle_beta 90.000000
_cell_angle_gamma 90.000000
_cell_volume 2143.565280
_symmetry_space_group_name_H-M "C M C 21"
_symmetry_group_IT_number 36
_symmetry_cell_setting 'orthorhombic'
loop_
_space_group_symop_operation_xyz
x,y,z
-x,-y,1/2+z
x,-y,1/2+z
-x,y,z
1/2+x,1/2+y,z
1/2-x,1/2-y,1/2+z
1/2+x,1/2-y,1/2+z
1/2-x,1/2+y,z
loop_
_atom_site_type_symbol
_atom_site_label
_atom_site_fract_x
_atom_site_fract_y
_atom_site_fract_z
Si Si1 0.555936 0.005420 0.925370
Si Si2 0.858797 0.152900 0.476100
Si Si3 0.281838 0.009150 0.546308
Si Si4 0.946347 0.603369 0.617781
Si Si5 0.859400 0.238396 0.832835
Si Si6 0.718831 0.039808 0.744827
Si Si7 0.109614 0.085876 0.657051
O O1 0.500000 0.066734 0.894464
O O2 0.585473 0.839246 0.853329
O O3 0.586016 0.274938 0.944826
O O4 0.555267 0.842557 0.014709
O O5 0.826984 0.424607 0.483357
O O6 0.858000 0.016408 0.571739
O O7 0.837086 0.940273 0.409522
O O8 0.238057 0.800344 0.526895
O O9 0.299936 0.993104 0.646245
O O10 0.909088 0.381958 0.647611
O O11 0.000000 0.514493 0.647149
O O12 0.933908 0.876126 0.664830
O O13 0.824564 0.488418 0.813767
O O14 0.859289 0.062802 0.744964
O O15 0.762576 0.833093 0.762407
#
# Coordination Sequence:
#
# PCOD8176086 Si02
#       7
#     8   8   8   8   8   8   8
#     4  10  25  46  69 103 145 192 244 306 360 421
#     4  11  25  46  71 106 145 192 241 298 363 433
#     4  10  23  44  74 106 143 190 238 292 363 436
#     4  10  22  44  69  94 135 185 240 294 355 418
#     4  12  26  44  74 106 144 191 242 299 362 437
#     4  10  24  45  71 105 146 187 237 300 362 428
#     4  11  24  43  68 100 138 187 234 291 359 427
#
# _framework density 26.124701999999999
#
# number of rings (size 3 to 8) (size 9 to 14) (size 15 to 20)
#    0.000    1.429    2.857    0.429    6.000    3.429 
#    0.000    0.000    0.000    0.000    0.000    0.000 
#    0.000    0.000    0.000    0.000    0.000    0.000 
#
# Total GULP energy -347252.370657 kJ/mol
# GULP energy per Si atom -12401.870381 kJ/mol
# Density = 2.606524 g / cm^3
# Si number density = 26.124702 Si / 1000 Ang^3
#
#
#
# Elastic Constant Matrix: (Units=GPa)
#
#
# Indices 1 2 3 4 5 6 
#
# 1 91.9714 -13.6417 14.3529 0.0000 0.0000 0.0000
# 2 -13.6417 54.8264 11.2874 0.0000 0.0000 0.0000
# 3 14.3529 11.2874 111.8787 0.0000 0.0000 0.0000
# 4 0.0000 0.0000 0.0000 28.0953 0.0000 0.0000
# 5 0.0000 0.0000 0.0000 0.0000 29.3130 0.0000
# 6 0.0000 0.0000 0.0000 0.0000 0.0000 33.1748
#
#
#
# Elastic Compliance Matrix: (Units=1/GPa)
#
#
# Indices 1 2 3 4 5 6 
#
# 1 0.011643 0.003272 -0.001824 0.000000 0.000000 0.000000
# 2 0.003272 0.019546 -0.002392 0.000000 0.000000 0.000000
# 3 -0.001824 -0.002392 0.009414 0.000000 0.000000 0.000000
# 4 0.000000 0.000000 0.000000 0.035593 0.000000 0.000000
# 5 0.000000 0.000000 0.000000 0.000000 0.034115 0.000000
# 6 0.000000 0.000000 0.000000 0.000000 0.000000 0.030143
#
#
# Mechanical properties :
#
#
# Convention : Reuss Voigt Hill
#
# Bulk Modulus (GPa) = 25.82901 31.40817 28.61859
# Shear Modulus (GPa) = 32.20708 34.56181 33.38444
#
# Velocity S-wave (km/s) = 3.51496 3.64119 3.57863
# Velocity P-wave (km/s) = 5.13630 5.45217 5.29659
#
# Compressibility (1/GPa) = 0.03871615
#
# Stress axis : x y z
#
# Youngs Moduli (GPa) = 85.88890 51.16121 106.22993
#
# Poissons Ratio (x) = -0.16742 0.19374
# Poissons Ratio (y) = -0.28107 0.25408
# Poissons Ratio (z) = 0.15665 0.12237
#
# Static dielectric constant tensor:
#      x y z
#    x 4.596140 0.000000 0.000000 
#    y 0.000000 4.407790 0.000000 
#    z 0.000000 0.000000 4.830920 
# 
# 
# High freq. dielectric constant tensor:
#      x y z
#    x 2.039470 0.000000 0.000000 
#    y 0.000000 2.041790 0.000000 
#    z 0.000000 0.000000 2.046040 
# 
# From -- ./inp_files/13160.got.cif
#   From: 2010.03.12/outbox.cif.g09.slc.cpg/sg36_7_cif.got.tgz:13160.got - 2010.04.14 02:13:53.
