data_PCOD8176527
_publ_section_title
;
Structure prediction by ZEFSAII (Michael W. Deem and Ramdas Pophale) SiO2 
 PCOD8176527
Probable space group: C C C 2
;
_chemical_formula_sum "Si O2"
_cell_formula_units_Z 44
_cell_length_a 20.056111
_cell_length_b 14.707092
_cell_length_c 8.458286
_cell_angle_alpha 90.000000
_cell_angle_beta 90.000000
_cell_angle_gamma 90.000000
_cell_volume 2494.915836
_symmetry_space_group_name_H-M "C C C 2"
_symmetry_group_IT_number 37
_symmetry_cell_setting 'orthorhombic'
loop_
_space_group_symop_operation_xyz
x,y,z
-x,-y,z
-x,y,1/2+z
x,-y,1/2+z
1/2+x,1/2+y,z
1/2-x,1/2-y,z
1/2-x,1/2+y,1/2+z
1/2+x,1/2-y,1/2+z
loop_
_atom_site_type_symbol
_atom_site_label
_atom_site_fract_x
_atom_site_fract_y
_atom_site_fract_z
Si Si1 0.250000 0.250000 0.922861
Si Si2 0.917201 0.070489 0.138705
Si Si3 0.764615 0.086346 0.200654
Si Si4 0.158976 0.759010 0.710316
Si Si5 0.451418 0.615979 0.779700
Si Si6 0.236172 0.392503 0.349306
O O1 0.263893 0.161956 0.817633
O O2 0.184588 0.234527 0.030424
O O3 0.843285 0.102775 0.179553
O O4 0.968943 0.123364 0.253996
O O5 0.922727 0.962413 0.164760
O O6 0.935271 0.091950 0.959066
O O7 0.747475 0.988680 0.268940
O O8 0.726335 0.095625 0.035552
O O9 0.081881 0.788432 0.725585
O O10 0.170493 0.657030 0.777490
O O11 0.199714 0.830196 0.817800
#
# Coordination Sequence:
#
# PCOD8176527 Si02
#       6
#     4   8   8   8   8   8
#     4  10  24  30  56  76 110 140 182 226 280 328
#     4  11  22  32  53  75 109 154 176 223 264 321
#     4  12  20  36  53  81 111 142 181 225 276 330
#     4  10  20  36  50  79 108 146 182 222 266 331
#     4  11  22  35  52  76 114 146 193 210 268 329
#     4  10  20  33  54  75 110 145 175 224 277 315
#
# _framework density 17.635864000000002
#
# number of rings (size 3 to 8) (size 9 to 14) (size 15 to 20)
#    0.000    1.455    3.636    5.455    5.091    0.000 
#    0.000    0.000    0.000    0.000    0.000    1.273 
#    0.000    0.000    0.000    0.000    0.000    0.000 
#
# Total GULP energy -272786.112560 kJ/mol
# GULP energy per Si atom -12399.368753 kJ/mol
# Density = 1.759572 g / cm^3
# Si number density = 17.635864 Si / 1000 Ang^3
#
#
#
# Elastic Constant Matrix: (Units=GPa)
#
#
# Indices 1 2 3 4 5 6 
#
# 1 72.7125 38.9349 24.0015 0.0000 0.0000 0.0000
# 2 38.9349 105.5980 53.7520 0.0000 0.0000 0.0000
# 3 24.0015 53.7520 137.0904 0.0000 0.0000 0.0000
# 4 0.0000 0.0000 0.0000 34.4326 0.0000 0.0000
# 5 0.0000 0.0000 0.0000 0.0000 17.5219 0.0000
# 6 0.0000 0.0000 0.0000 0.0000 0.0000 32.1507
#
#
#
# Elastic Compliance Matrix: (Units=1/GPa)
#
#
# Indices 1 2 3 4 5 6 
#
# 1 0.017183 -0.006002 -0.000655 0.000000 0.000000 0.000000
# 2 -0.006002 0.013928 -0.004410 0.000000 0.000000 0.000000
# 3 -0.000655 -0.004410 0.009138 0.000000 0.000000 0.000000
# 4 0.000000 0.000000 0.000000 0.029042 0.000000 0.000000
# 5 0.000000 0.000000 0.000000 0.000000 0.057072 0.000000
# 6 0.000000 0.000000 0.000000 0.000000 0.000000 0.031104
#
#
# Mechanical properties :
#
#
# Convention : Reuss Voigt Hill
#
# Bulk Modulus (GPa) = 55.20413 60.97529 58.08971
# Shear Modulus (GPa) = 26.93401 30.06853 28.50127
#
# Velocity S-wave (km/s) = 3.91222 4.13360 4.02443
# Velocity P-wave (km/s) = 7.19565 7.57838 7.38950
#
# Compressibility (1/GPa) = 0.01811459
#
# Stress axis : x y z
#
# Youngs Moduli (GPa) = 58.19741 71.79902 109.42947
#
# Poissons Ratio (x) = 0.43094 0.07167
# Poissons Ratio (y) = 0.34931 0.48260
# Poissons Ratio (z) = 0.03812 0.31664
#
# Static dielectric constant tensor:
#      x y z
#    x 3.295620 0.000000 0.000000 
#    y 0.000000 3.280530 0.000000 
#    z 0.000000 0.000000 3.466670 
# 
# 
# High freq. dielectric constant tensor:
#      x y z
#    x 1.648140 0.000000 0.000000 
#    y 0.000000 1.666580 0.000000 
#    z 0.000000 0.000000 1.704790 
# 
# From -- ./inp_files/4568.got.cif
#   From: 2010.03.12/outbox.cif.g09.slc.cpg/sg37_3_cif.got.tgz:4568.got - 2010.04.14 02:25:27.
