data_PCOD8176955
_publ_section_title
;
Structure prediction by ZEFSAII (Michael W. Deem and Ramdas Pophale) SiO2 
 PCOD8176955
Probable space group: C C C 2
;
_chemical_formula_sum "Si O2"
_cell_formula_units_Z 52
_cell_length_a 23.754745
_cell_length_b 8.585027
_cell_length_c 11.745703
_cell_angle_alpha 90.000000
_cell_angle_beta 90.000000
_cell_angle_gamma 90.000000
_cell_volume 2395.361435
_symmetry_space_group_name_H-M "C C C 2"
_symmetry_group_IT_number 37
_symmetry_cell_setting 'orthorhombic'
loop_
_space_group_symop_operation_xyz
x,y,z
-x,-y,z
-x,y,1/2+z
x,-y,1/2+z
1/2+x,1/2+y,z
1/2-x,1/2-y,z
1/2-x,1/2+y,1/2+z
1/2+x,1/2-y,1/2+z
loop_
_atom_site_type_symbol
_atom_site_label
_atom_site_fract_x
_atom_site_fract_y
_atom_site_fract_z
Si Si1 0.561715 0.013676 0.761300
Si Si2 0.349719 0.564989 0.262045
Si Si3 0.150281 0.564989 0.068526
Si Si4 0.602807 0.296873 0.886338
Si Si5 0.061715 0.013676 0.069270
Si Si6 0.250000 0.250000 0.665285
Si Si7 0.397193 0.203127 0.944232
O O1 0.609385 0.942755 0.678510
O O2 0.560867 0.916519 0.880127
O O3 0.500000 0.000000 0.703895
O O4 0.571465 0.196023 0.789621
O O5 0.348348 0.395705 0.321577
O O6 0.390615 0.557245 0.152060
O O7 0.287855 0.626747 0.233781
O O8 0.370714 0.687994 0.351824
O O9 0.212145 0.626747 0.096789
O O10 0.129286 0.687994 0.978746
O O11 0.151652 0.395705 0.008993
O O12 0.560867 0.416519 0.950444
O O13 0.000000 0.000000 0.126676
O O14 0.071465 0.196023 0.040949
#
# Coordination Sequence:
#
# PCOD8176955 Si02
#       7
#     8   8   8   8   8   4   8
#     4  11  22  41  67 101 141 173 220 273 334 403
#     4  11  24  44  66  96 132 176 225 276 337 392
#     4  11  24  44  66  96 132 176 225 276 337 392
#     4  10  23  42  65 100 132 176 224 266 345 398
#     4  11  22  41  67 101 141 173 220 273 334 403
#     4  12  24  48  70  88 138 172 234 294 328 412
#     4  10  23  42  65 100 132 176 224 266 345 398
#
# _framework density 21.708624
#
# number of rings (size 3 to 8) (size 9 to 14) (size 15 to 20)
#    0.000    1.231    3.077    1.846    0.000   11.077 
#    0.000    1.538    0.000    0.000    0.000    0.000 
#    0.000    0.000    0.000    0.000    0.000    0.000 
#
# Total GULP energy -322204.312842 kJ/mol
# GULP energy per Si atom -12392.473571 kJ/mol
# Density = 2.165921 g / cm^3
# Si number density = 21.708624 Si / 1000 Ang^3
#
#
#
# Elastic Constant Matrix: (Units=GPa)
#
#
# Indices 1 2 3 4 5 6 
#
# 1 116.5388 48.1074 36.2563 0.0000 0.0000 0.0000
# 2 48.1074 152.3680 53.1550 0.0000 0.0000 0.0000
# 3 36.2563 53.1550 99.6726 0.0000 0.0000 0.0000
# 4 0.0000 0.0000 0.0000 148.1155 0.0000 0.0000
# 5 0.0000 0.0000 0.0000 0.0000 14.1090 0.0000
# 6 0.0000 0.0000 0.0000 0.0000 0.0000 29.9026
#
#
#
# Elastic Compliance Matrix: (Units=1/GPa)
#
#
# Indices 1 2 3 4 5 6 
#
# 1 0.010344 -0.002400 -0.002483 0.000000 0.000000 0.000000
# 2 -0.002400 0.008620 -0.003724 0.000000 0.000000 0.000000
# 3 -0.002483 -0.003724 0.012922 0.000000 0.000000 0.000000
# 4 0.000000 0.000000 0.000000 0.006751 0.000000 0.000000
# 5 0.000000 0.000000 0.000000 0.000000 0.070877 0.000000
# 6 0.000000 0.000000 0.000000 0.000000 0.000000 0.033442
#
#
# Mechanical properties :
#
#
# Convention : Reuss Voigt Hill
#
# Bulk Modulus (GPa) = 68.15456 71.51296 69.83376
# Shear Modulus (GPa) = 30.29201 53.82946 42.06073
#
# Velocity S-wave (km/s) = 3.73955 4.98500 4.40649
# Velocity P-wave (km/s) = 7.07876 8.13310 7.62418
#
# Compressibility (1/GPa) = 0.01467253
#
# Stress axis : x y z
#
# Youngs Moduli (GPa) = 96.67546 116.01072 77.38728
#
# Poissons Ratio (x) = 0.27839 0.19214
# Poissons Ratio (y) = 0.23199 0.28819
# Poissons Ratio (z) = 0.24003 0.43203
#
# Static dielectric constant tensor:
#      x y z
#    x 3.599320 0.000000 0.000000 
#    y 0.000000 4.753540 0.000000 
#    z 0.000000 0.000000 4.302120 
# 
# 
# High freq. dielectric constant tensor:
#      x y z
#    x 1.818480 0.000000 0.000000 
#    y 0.000000 1.883450 0.000000 
#    z 0.000000 0.000000 1.863580 
# 
# From -- ./inp_files/9042.got.cif
#   From: 2010.03.12/outbox.cif.g09.slc.cpg/sg37_5_cif.got.tgz:9042.got - 2010.04.14 02:25:27.
