data_PCOD8176744
_publ_section_title
;
Structure prediction by ZEFSAII (Michael W. Deem and Ramdas Pophale) SiO2 
 PCOD8176744
Probable space group: C C C 2
;
_chemical_formula_sum "Si O2"
_cell_formula_units_Z 48
_cell_length_a 14.689505
_cell_length_b 9.180127
_cell_length_c 17.953189
_cell_angle_alpha 90.000000
_cell_angle_beta 90.000000
_cell_angle_gamma 90.000000
_cell_volume 2421.014852
_symmetry_space_group_name_H-M "C C C 2"
_symmetry_group_IT_number 37
_symmetry_cell_setting 'orthorhombic'
loop_
_space_group_symop_operation_xyz
x,y,z
-x,-y,z
-x,y,1/2+z
x,-y,1/2+z
1/2+x,1/2+y,z
1/2-x,1/2-y,z
1/2-x,1/2+y,1/2+z
1/2+x,1/2-y,1/2+z
loop_
_atom_site_type_symbol
_atom_site_label
_atom_site_fract_x
_atom_site_fract_y
_atom_site_fract_z
Si Si1 0.670257 0.856637 0.772290
Si Si2 0.500625 0.664540 0.263399
Si Si3 0.344133 0.167847 0.342831
Si Si4 0.734965 0.090108 0.107612
Si Si5 0.936240 0.885056 0.599589
Si Si6 0.412944 0.101030 0.503332
O O1 0.750000 0.750000 0.798176
O O2 0.579200 0.769126 0.793115
O O3 0.680535 0.899261 0.685376
O O4 0.673472 0.003490 0.818327
O O5 0.500000 0.500000 0.298192
O O6 0.594762 0.743935 0.283812
O O7 0.488908 0.653187 0.175334
O O8 0.250000 0.250000 0.349778
O O9 0.391282 0.161905 0.422477
O O10 0.750000 0.250000 0.074197
O O11 0.838685 0.032459 0.116174
O O12 0.671119 0.012992 0.044497
O O13 0.933287 0.739089 0.553816
O O14 0.000000 0.000000 0.555756
O O15 0.500000 0.000000 0.498915
#
# Coordination Sequence:
#
# PCOD8176744 Si02
#       6
#     8   8   8   8   8   8
#     4  11  20  40  66  96 129 176 216 275 327 389
#     4  11  22  39  64  98 132 171 223 271 329 390
#     4  12  27  41  64  97 137 176 225 273 333 400
#     4   9  18  38  65  88 124 167 208 263 329 378
#     4  10  21  39  67  94 126 170 220 271 325 396
#     4  11  23  43  64  95 128 176 215 270 338 394
#
# _framework density 19.826397
#
# number of rings (size 3 to 8) (size 9 to 14) (size 15 to 20)
#    0.000    1.333    5.000    4.000    4.667    0.667 
#    0.000    5.833    0.000    0.000    0.000    0.000 
#    0.000    0.000    0.000    0.000    0.000    0.000 
#
# Total GULP energy -297370.899428 kJ/mol
# GULP energy per Si atom -12390.454143 kJ/mol
# Density = 1.978127 g / cm^3
# Si number density = 19.826397 Si / 1000 Ang^3
#
#
#
# Elastic Constant Matrix: (Units=GPa)
#
#
# Indices 1 2 3 4 5 6 
#
# 1 157.7891 54.6969 57.8344 0.0000 0.0000 0.0000
# 2 54.6969 114.1848 37.0009 0.0000 0.0000 0.0000
# 3 57.8344 37.0009 89.4072 0.0000 0.0000 0.0000
# 4 0.0000 0.0000 0.0000 11.6873 0.0000 0.0000
# 5 0.0000 0.0000 0.0000 0.0000 27.0237 0.0000
# 6 0.0000 0.0000 0.0000 0.0000 0.0000 -3.0794
#
#
#
# Elastic Compliance Matrix: (Units=1/GPa)
#
#
# Indices 1 2 3 4 5 6 
#
# 1 0.009025 -0.002808 -0.004676 0.000000 0.000000 0.000000
# 2 -0.002808 0.010988 -0.002731 0.000000 0.000000 0.000000
# 3 -0.004676 -0.002731 0.015340 0.000000 0.000000 0.000000
# 4 0.000000 0.000000 0.000000 0.085563 0.000000 0.000000
# 5 0.000000 0.000000 0.000000 0.000000 0.037005 0.000000
# 6 0.000000 0.000000 0.000000 0.000000 0.000000 -0.324739
#
#
# Mechanical properties :
#
#
# Convention : Reuss Voigt Hill
#
# Bulk Modulus (GPa) = 67.01112 73.38282 70.19697
# Shear Modulus (GPa) = -35.35653 21.24959 -7.05347
#
# Velocity S-wave (km/s) = -4.22750 3.27736 -1.88821
# Velocity P-wave (km/s) = 3.16911 7.17039 5.54336
#
# Compressibility (1/GPa) = 0.01492290
#
# Stress axis : x y z
#
# Youngs Moduli (GPa) = 110.80686 91.01090 65.19104
#
# Poissons Ratio (x) = 0.25555 0.30482
# Poissons Ratio (y) = 0.31113 0.17803
# Poissons Ratio (z) = 0.51810 0.24854
#
# Static dielectric constant tensor:
#      x y z
#    x 5.082300 0.000000 0.000000 
#    y 0.000000 3.812820 0.000000 
#    z 0.000000 0.000000 3.604510 
# 
# 
# High freq. dielectric constant tensor:
#      x y z
#    x 1.797140 0.000000 0.000000 
#    y 0.000000 1.760680 0.000000 
#    z 0.000000 0.000000 1.760130 
# 
# From -- ./inp_files/15225.got.cif
#   From: 2010.03.12/outbox.cif.g09.slc.cpg/sg37_8_cif.got.tgz:15225.got - 2010.04.14 02:25:27.
