data_PCOD8176506
_publ_section_title
;
Structure prediction by ZEFSAII (Michael W. Deem and Ramdas Pophale) SiO2 
 PCOD8176506
Probable space group: C C C 2
;
_chemical_formula_sum "Si O2"
_cell_formula_units_Z 40
_cell_length_a 13.764590
_cell_length_b 5.470454
_cell_length_c 24.816643
_cell_angle_alpha 90.000000
_cell_angle_beta 90.000000
_cell_angle_gamma 90.000000
_cell_volume 1868.657393
_symmetry_space_group_name_H-M "C C C 2"
_symmetry_group_IT_number 37
_symmetry_cell_setting 'orthorhombic'
loop_
_space_group_symop_operation_xyz
x,y,z
-x,-y,z
-x,y,1/2+z
x,-y,1/2+z
1/2+x,1/2+y,z
1/2-x,1/2-y,z
1/2-x,1/2+y,1/2+z
1/2+x,1/2-y,1/2+z
loop_
_atom_site_type_symbol
_atom_site_label
_atom_site_fract_x
_atom_site_fract_y
_atom_site_fract_z
Si Si1 0.647985 0.861808 0.463660
Si Si2 0.000000 0.500000 0.042574
Si Si3 0.200547 0.995770 0.166196
Si Si4 0.500000 0.500000 0.921755
Si Si5 0.000000 0.000000 0.609485
Si Si6 0.602894 0.879794 0.858546
Si Si7 0.250000 0.250000 0.769029
O O1 0.750000 0.750000 0.483827
O O2 0.600892 0.043126 0.507980
O O3 0.558516 0.673601 0.461414
O O4 0.663344 0.977393 0.404660
O O5 0.009342 0.749108 0.076298
O O6 0.250000 0.250000 0.148001
O O7 0.250000 0.750000 0.139811
O O8 0.206259 0.965414 0.231410
O O9 0.090407 0.015397 0.149078
O O10 0.581501 0.615437 0.883053
O O11 0.665894 0.867456 0.805143
O O12 0.500000 0.000000 0.844434
#
# Coordination Sequence:
#
# PCOD8176506 Si02
#       7
#     8   4   8   4   4   8   4
#     4  11  23  41  65  98 146 183 230 284 340 426
#     4  12  26  46  74 108 134 196 238 286 368 418
#     4  10  25  48  74 104 138 172 243 298 355 426
#     4  10  19  39  62  94 148 180 227 273 330 418
#     4  12  27  49  78  96 144 182 243 309 354 404
#     4  10  21  39  65 100 142 183 227 280 343 428
#     4  10  24  40  68 106 132 184 232 282 368 420
#
# _framework density 21.405743000000001
#
# number of rings (size 3 to 8) (size 9 to 14) (size 15 to 20)
#    0.600    0.800    3.000    3.000    0.000    8.800 
#    0.000    2.000    0.000    0.000    0.000    0.000 
#    0.000    0.000    0.000    0.000    0.000    0.000 
#
# Total GULP energy -247835.019478 kJ/mol
# GULP energy per Si atom -12391.750974 kJ/mol
# Density = 2.135702 g / cm^3
# Si number density = 21.405743 Si / 1000 Ang^3
#
#
#
# Elastic Constant Matrix: (Units=GPa)
#
#
# Indices 1 2 3 4 5 6 
#
# 1 159.5489 41.5511 68.3464 0.0000 0.0000 0.0000
# 2 41.5511 122.8817 31.4017 0.0000 0.0000 0.0000
# 3 68.3464 31.4017 90.8404 0.0000 0.0000 0.0000
# 4 0.0000 0.0000 0.0000 17.0467 0.0000 0.0000
# 5 0.0000 0.0000 0.0000 0.0000 21.7914 0.0000
# 6 0.0000 0.0000 0.0000 0.0000 0.0000 30.7765
#
#
#
# Elastic Compliance Matrix: (Units=1/GPa)
#
#
# Indices 1 2 3 4 5 6 
#
# 1 0.009500 -0.001520 -0.006622 0.000000 0.000000 0.000000
# 2 -0.001520 0.009170 -0.002026 0.000000 0.000000 0.000000
# 3 -0.006622 -0.002026 0.016691 0.000000 0.000000 0.000000
# 4 0.000000 0.000000 0.000000 0.058662 0.000000 0.000000
# 5 0.000000 0.000000 0.000000 0.000000 0.045890 0.000000
# 6 0.000000 0.000000 0.000000 0.000000 0.000000 0.032492
#
#
# Mechanical properties :
#
#
# Convention : Reuss Voigt Hill
#
# Bulk Modulus (GPa) = 66.55968 72.87437 69.71703
# Shear Modulus (GPa) = 25.28432 29.38771 27.33602
#
# Velocity S-wave (km/s) = 3.44058 3.70927 3.57745
# Velocity P-wave (km/s) = 6.85166 7.24314 7.05012
#
# Compressibility (1/GPa) = 0.01502411
#
# Stress axis : x y z
#
# Youngs Moduli (GPa) = 105.25832 109.05510 59.91151
#
# Poissons Ratio (x) = 0.16578 0.39676
# Poissons Ratio (y) = 0.16001 0.12138
# Poissons Ratio (z) = 0.69707 0.22095
#
# Static dielectric constant tensor:
#      x y z
#    x 3.776770 0.000000 0.000000 
#    y 0.000000 4.270820 0.000000 
#    z 0.000000 0.000000 3.689630 
# 
# 
# High freq. dielectric constant tensor:
#      x y z
#    x 1.844850 0.000000 0.000000 
#    y 0.000000 1.846660 0.000000 
#    z 0.000000 0.000000 1.830160 
# 
# From -- ./inp_files/18828.got.cif
#   From: 2010.03.12/outbox.cif.g09.slc.cpg/sg37_10_cif.got.tgz:18828.got - 2010.04.14 02:25:27.
