data_PCOD8176948
_publ_section_title
;
Structure prediction by ZEFSAII (Michael W. Deem and Ramdas Pophale) SiO2 
 PCOD8176948
Probable space group: C C C 2
;
_chemical_formula_sum "Si O2"
_cell_formula_units_Z 56
_cell_length_a 12.521210
_cell_length_b 13.767104
_cell_length_c 15.064086
_cell_angle_alpha 90.000000
_cell_angle_beta 90.000000
_cell_angle_gamma 90.000000
_cell_volume 2596.759200
_symmetry_space_group_name_H-M "C C C 2"
_symmetry_group_IT_number 37
_symmetry_cell_setting 'orthorhombic'
loop_
_space_group_symop_operation_xyz
x,y,z
-x,-y,z
-x,y,1/2+z
x,-y,1/2+z
1/2+x,1/2+y,z
1/2-x,1/2-y,z
1/2-x,1/2+y,1/2+z
1/2+x,1/2-y,1/2+z
loop_
_atom_site_type_symbol
_atom_site_label
_atom_site_fract_x
_atom_site_fract_y
_atom_site_fract_z
Si Si1 0.396639 0.438835 0.258640
Si Si2 0.095607 0.570210 0.132743
Si Si3 0.627603 0.271282 0.045903
Si Si4 0.498648 0.287557 0.866902
Si Si5 0.808847 0.931074 0.896232
Si Si6 0.823474 0.019517 0.081866
Si Si7 0.918961 0.581874 0.837427
O O1 0.500000 0.500000 0.282571
O O2 0.422567 0.330374 0.291052
O O3 0.305583 0.486111 0.320198
O O4 0.365898 0.443666 0.155292
O O5 0.078433 0.683303 0.104416
O O6 0.196570 0.526743 0.082277
O O7 0.117471 0.561098 0.237084
O O8 0.000000 0.500000 0.102513
O O9 0.750000 0.250000 0.017966
O O10 0.625335 0.373506 0.100604
O O11 0.555876 0.290156 0.961049
O O12 0.382886 0.339636 0.871233
O O13 0.486944 0.178706 0.836064
O O14 0.683685 0.902387 0.901582
O O15 0.855557 0.976613 0.986695
O O16 0.000000 0.500000 0.874243
#
# Coordination Sequence:
#
# PCOD8176948 Si02
#       7
#     8   8   8   8   8   8   8
#     4  10  23  40  67  98 138 175 218 281 334 403
#     4  10  24  44  66  99 135 181 233 276 341 412
#     4  10  24  40  67 101 134 178 229 275 343 416
#     4  11  25  42  68 103 138 174 227 286 338 415
#     4  11  24  43  67 102 135 173 230 280 344 404
#     4  11  23  41  71  96 138 181 224 286 339 407
#     4  11  26  45  70  95 135 185 224 284 344 415
#
# _framework density 21.565342999999999
#
# number of rings (size 3 to 8) (size 9 to 14) (size 15 to 20)
#    0.000    1.429    2.857    0.429   12.000    1.143 
#    0.000    0.000    0.000    0.000    0.000    0.000 
#    0.000    0.000    0.000    0.000    0.000    0.000 
#
# Total GULP energy -347174.343858 kJ/mol
# GULP energy per Si atom -12399.083709 kJ/mol
# Density = 2.151626 g / cm^3
# Si number density = 21.565343 Si / 1000 Ang^3
#
#
#
# Elastic Constant Matrix: (Units=GPa)
#
#
# Indices 1 2 3 4 5 6 
#
# 1 79.8263 46.8966 24.7909 0.0000 0.0000 0.0000
# 2 46.8966 141.2511 33.0356 0.0000 0.0000 0.0000
# 3 24.7909 33.0356 93.1481 0.0000 0.0000 0.0000
# 4 0.0000 0.0000 0.0000 34.0321 0.0000 0.0000
# 5 0.0000 0.0000 0.0000 0.0000 31.3308 0.0000
# 6 0.0000 0.0000 0.0000 0.0000 0.0000 37.0701
#
#
#
# Elastic Compliance Matrix: (Units=1/GPa)
#
#
# Indices 1 2 3 4 5 6 
#
# 1 0.016124 -0.004743 -0.002609 0.000000 0.000000 0.000000
# 2 -0.004743 0.009115 -0.001970 0.000000 0.000000 0.000000
# 3 -0.002609 -0.001970 0.012129 0.000000 0.000000 0.000000
# 4 0.000000 0.000000 0.000000 0.029384 0.000000 0.000000
# 5 0.000000 0.000000 0.000000 0.000000 0.031917 0.000000
# 6 0.000000 0.000000 0.000000 0.000000 0.000000 0.026976
#
#
# Mechanical properties :
#
#
# Convention : Reuss Voigt Hill
#
# Bulk Modulus (GPa) = 53.41109 58.18572 55.79841
# Shear Modulus (GPa) = 33.21562 34.45342 33.83452
#
# Velocity S-wave (km/s) = 3.92884 4.00137 3.96527
# Velocity P-wave (km/s) = 6.73809 6.95612 6.84798
#
# Compressibility (1/GPa) = 0.01872270
#
# Stress axis : x y z
#
# Youngs Moduli (GPa) = 62.01941 109.70727 82.44821
#
# Poissons Ratio (x) = 0.52035 0.21512
# Poissons Ratio (y) = 0.29416 0.16246
# Poissons Ratio (z) = 0.16182 0.21617
#
# Static dielectric constant tensor:
#      x y z
#    x 3.895610 0.000000 0.000000 
#    y 0.000000 4.232780 0.000000 
#    z 0.000000 0.000000 3.767960 
# 
# 
# High freq. dielectric constant tensor:
#      x y z
#    x 1.849470 0.000000 0.000000 
#    y 0.000000 1.844430 0.000000 
#    z 0.000000 0.000000 1.843450 
# 
# From -- ./inp_files/11570.got.cif
#   From: 2010.03.12/outbox.cif.g09.slc.cpg/sg37_6_cif.got.tgz:11570.got - 2010.04.14 02:25:27.
