data_PCOD8176725
_publ_section_title
;
Structure prediction by ZEFSAII (Michael W. Deem and Ramdas Pophale) SiO2 
 PCOD8176725
Probable space group: C C C 2
;
_chemical_formula_sum "Si O2"
_cell_formula_units_Z 48
_cell_length_a 8.694908
_cell_length_b 13.429191
_cell_length_c 18.847072
_cell_angle_alpha 90.000000
_cell_angle_beta 90.000000
_cell_angle_gamma 90.000000
_cell_volume 2200.689298
_symmetry_space_group_name_H-M "C C C 2"
_symmetry_group_IT_number 37
_symmetry_cell_setting 'orthorhombic'
loop_
_space_group_symop_operation_xyz
x,y,z
-x,-y,z
-x,y,1/2+z
x,-y,1/2+z
1/2+x,1/2+y,z
1/2-x,1/2-y,z
1/2-x,1/2+y,1/2+z
1/2+x,1/2-y,1/2+z
loop_
_atom_site_type_symbol
_atom_site_label
_atom_site_fract_x
_atom_site_fract_y
_atom_site_fract_z
Si Si1 0.424272 0.774073 0.325730
Si Si2 0.501407 0.788522 0.169679
Si Si3 0.158805 0.352208 0.425925
Si Si4 0.117445 0.077614 0.316975
Si Si5 0.316986 0.403174 0.161737
Si Si6 0.348288 0.939067 0.078716
O O1 0.250000 0.750000 0.345464
O O2 0.436543 0.820801 0.247311
O O3 0.487661 0.835501 0.393666
O O4 0.539113 0.683448 0.316279
O O5 0.532870 0.670171 0.152099
O O6 0.665249 0.838040 0.157839
O O7 0.369249 0.831789 0.117508
O O8 0.250000 0.250000 0.440740
O O9 0.235292 0.420765 0.366434
O O10 0.159189 0.419314 0.495503
O O11 0.168835 0.044614 0.238439
O O12 0.000000 0.000000 0.350612
O O13 0.300280 0.495063 0.105167
O O14 0.500000 0.000000 0.098495
#
# Coordination Sequence:
#
# PCOD8176725 Si02
#       6
#     8   8   8   8   8   8
#     4  10  21  38  65  93 118 165 216 260 323 380
#     4   9  18  38  65  88 124 167 210 270 318 381
#     4  10  22  45  62  86 135 172 199 262 334 388
#     4  10  21  39  63  92 122 161 214 262 311 378
#     4   9  18  39  64  88 125 167 210 266 321 379
#     4  10  22  39  61  96 126 166 215 258 331 387
#
# _framework density 21.811349
#
# number of rings (size 3 to 8) (size 9 to 14) (size 15 to 20)
#    0.000    2.333    1.667    0.000    2.333    2.000 
#   15.000    0.000    0.000    0.000    0.000    0.000 
#    0.000    0.000    0.000    0.000    0.000    0.000 
#
# Total GULP energy -297336.071611 kJ/mol
# GULP energy per Si atom -12389.002984 kJ/mol
# Density = 2.176170 g / cm^3
# Si number density = 21.811349 Si / 1000 Ang^3
#
#
#
# Elastic Constant Matrix: (Units=GPa)
#
#
# Indices 1 2 3 4 5 6 
#
# 1 83.8679 34.6059 47.0968 0.0000 0.0000 0.0000
# 2 34.6059 76.9655 57.5616 0.0000 0.0000 0.0000
# 3 47.0968 57.5616 158.8518 0.0000 0.0000 0.0000
# 4 0.0000 0.0000 0.0000 38.7973 0.0000 0.0000
# 5 0.0000 0.0000 0.0000 0.0000 -3.8038 0.0000
# 6 0.0000 0.0000 0.0000 0.0000 0.0000 26.8605
#
#
#
# Elastic Compliance Matrix: (Units=1/GPa)
#
#
# Indices 1 2 3 4 5 6 
#
# 1 0.015523 -0.004853 -0.002844 0.000000 0.000000 0.000000
# 2 -0.004853 0.019340 -0.005569 0.000000 0.000000 0.000000
# 3 -0.002844 -0.005569 0.009156 0.000000 0.000000 0.000000
# 4 0.000000 0.000000 0.000000 0.025775 0.000000 0.000000
# 5 0.000000 0.000000 0.000000 0.000000 -0.262895 0.000000
# 6 0.000000 0.000000 0.000000 0.000000 0.000000 0.037229
#
#
# Mechanical properties :
#
#
# Convention : Reuss Voigt Hill
#
# Bulk Modulus (GPa) = 57.18334 66.46821 61.82577
# Shear Modulus (GPa) = -40.48244 24.39886 -8.04179
#
# Velocity S-wave (km/s) = -4.31284 3.34822 -1.92223
# Velocity P-wave (km/s) = 1.21384 6.74446 4.84568
#
# Compressibility (1/GPa) = 0.01748761
#
# Stress axis : x y z
#
# Youngs Moduli (GPa) = 64.42127 51.70653 109.21293
#
# Poissons Ratio (x) = 0.25091 0.31059
# Poissons Ratio (y) = 0.31261 0.60824
# Poissons Ratio (z) = 0.18320 0.28797
#
# Static dielectric constant tensor:
#      x y z
#    x 3.889090 0.000000 0.000000 
#    y 0.000000 4.146570 0.000000 
#    z 0.000000 0.000000 3.908940 
# 
# 
# High freq. dielectric constant tensor:
#      x y z
#    x 1.852060 0.000000 0.000000 
#    y 0.000000 1.853690 0.000000 
#    z 0.000000 0.000000 1.845970 
# 
# From -- ./inp_files/14501.got.cif
#   From: 2010.03.12/outbox.cif.g09.slc.cpg/sg37_8_cif.got.tgz:14501.got - 2010.04.14 02:25:27.
