data_PCOD8176714
_publ_section_title
;
Structure prediction by ZEFSAII (Michael W. Deem and Ramdas Pophale) SiO2 
 PCOD8176714
Probable space group: C C C 2
;
_chemical_formula_sum "Si O2"
_cell_formula_units_Z 48
_cell_length_a 9.616377
_cell_length_b 16.777804
_cell_length_c 14.477202
_cell_angle_alpha 90.000000
_cell_angle_beta 90.000000
_cell_angle_gamma 90.000000
_cell_volume 2335.776215
_symmetry_space_group_name_H-M "C C C 2"
_symmetry_group_IT_number 37
_symmetry_cell_setting 'orthorhombic'
loop_
_space_group_symop_operation_xyz
x,y,z
-x,-y,z
-x,y,1/2+z
x,-y,1/2+z
1/2+x,1/2+y,z
1/2-x,1/2-y,z
1/2-x,1/2+y,1/2+z
1/2+x,1/2-y,1/2+z
loop_
_atom_site_type_symbol
_atom_site_label
_atom_site_fract_x
_atom_site_fract_y
_atom_site_fract_z
Si Si1 0.532421 0.909819 0.727940
Si Si2 0.597137 0.429870 0.076175
Si Si3 0.032421 0.909819 0.873352
Si Si4 0.685809 0.837242 0.354244
Si Si5 0.314192 0.337242 0.747050
Si Si6 0.097135 0.429870 0.525120
O O1 0.424083 0.846963 0.771572
O O2 0.686633 0.896210 0.766930
O O3 0.525710 0.895344 0.617737
O O4 0.500000 0.000000 0.756068
O O5 0.500000 0.500000 0.117243
O O6 0.609348 0.359291 0.150805
O O7 0.750003 0.464409 0.050651
O O8 0.525719 0.395346 0.983555
O O9 0.186630 0.896208 0.834357
O O10 0.924077 0.846965 0.829726
O O11 0.000000 0.000000 0.845227
O O12 0.750000 0.750000 0.361183
O O13 0.609355 0.859292 0.450489
O O14 0.250000 0.250000 0.740112
O O15 0.000000 0.500000 0.484050
#
# Coordination Sequence:
#
# PCOD8176714 Si02
#       6
#     8   8   8   8   8   8
#     4  10  21  38  60  85 116 156 197 235 283 346
#     4   9  20  37  59  85 115 155 198 237 283 343
#     4  10  21  38  60  85 116 156 197 235 283 346
#     4  11  22  38  60  88 119 152 190 242 296 343
#     4  11  22  38  60  88 119 152 190 242 296 343
#     4   9  20  37  59  85 115 155 198 237 283 343
#
# _framework density 20.549913
#
# number of rings (size 3 to 8) (size 9 to 14) (size 15 to 20)
#    0.000    2.000    0.000    3.000    0.000   11.333 
#    0.000    0.000    0.000    2.000    0.000    0.000 
#    0.000    0.000    0.000    0.000    0.000    0.000 
#
# Total GULP energy -297596.902720 kJ/mol
# GULP energy per Si atom -12399.870947 kJ/mol
# Density = 2.050314 g / cm^3
# Si number density = 20.549913 Si / 1000 Ang^3
#
#
#
# Elastic Constant Matrix: (Units=GPa)
#
#
# Indices 1 2 3 4 5 6 
#
# 1 91.4990 38.2885 72.1069 0.0000 0.0000 0.0000
# 2 38.2885 97.7539 57.5785 0.0000 0.0000 0.0000
# 3 72.1069 57.5785 120.5602 0.0000 0.0000 0.0000
# 4 0.0000 0.0000 0.0000 15.3499 0.0000 0.0000
# 5 0.0000 0.0000 0.0000 0.0000 36.5795 0.0000
# 6 0.0000 0.0000 0.0000 0.0000 0.0000 42.9316
#
#
#
# Elastic Compliance Matrix: (Units=1/GPa)
#
#
# Indices 1 2 3 4 5 6 
#
# 1 0.020764 -0.001138 -0.011875 0.000000 0.000000 0.000000
# 2 -0.001138 0.014296 -0.006147 0.000000 0.000000 0.000000
# 3 -0.011875 -0.006147 0.018333 0.000000 0.000000 0.000000
# 4 0.000000 0.000000 0.000000 0.065147 0.000000 0.000000
# 5 0.000000 0.000000 0.000000 0.000000 0.027338 0.000000
# 6 0.000000 0.000000 0.000000 0.000000 0.000000 0.023293
#
#
# Mechanical properties :
#
#
# Convention : Reuss Voigt Hill
#
# Bulk Modulus (GPa) = 66.34748 71.75121 69.04935
# Shear Modulus (GPa) = 23.52773 28.42815 25.97794
#
# Velocity S-wave (km/s) = 3.38732 3.72340 3.55933
# Velocity P-wave (km/s) = 6.90324 7.31275 7.11094
#
# Compressibility (1/GPa) = 0.01507216
#
# Stress axis : x y z
#
# Youngs Moduli (GPa) = 48.16089 69.94832 54.54663
#
# Poissons Ratio (x) = 0.07961 0.64775
# Poissons Ratio (y) = 0.05481 0.33530
# Poissons Ratio (z) = 0.57192 0.42998
#
# Static dielectric constant tensor:
#      x y z
#    x 4.050560 0.000000 0.000000 
#    y 0.000000 3.512420 0.000000 
#    z 0.000000 0.000000 3.759230 
# 
# 
# High freq. dielectric constant tensor:
#      x y z
#    x 1.816660 0.000000 0.000000 
#    y 0.000000 1.782620 0.000000 
#    z 0.000000 0.000000 1.805630 
# 
# From -- ./inp_files/10574.got.cif
#   From: 2010.03.12/outbox.cif.g09.slc.cpg/sg37_6_cif.got.tgz:10574.got - 2010.04.14 02:25:27.
