data_PCOD8176597
_publ_section_title
;
Structure prediction by ZEFSAII (Michael W. Deem and Ramdas Pophale) SiO2 
 PCOD8176597
Probable space group: C C C 2
;
_chemical_formula_sum "Si O2"
_cell_formula_units_Z 64
_cell_length_a 10.098658
_cell_length_b 21.336334
_cell_length_c 14.225556
_cell_angle_alpha 90.000000
_cell_angle_beta 90.000000
_cell_angle_gamma 90.000000
_cell_volume 3065.156937
_symmetry_space_group_name_H-M "C C C 2"
_symmetry_group_IT_number 37
_symmetry_cell_setting 'orthorhombic'
loop_
_space_group_symop_operation_xyz
x,y,z
-x,-y,z
-x,y,1/2+z
x,-y,1/2+z
1/2+x,1/2+y,z
1/2-x,1/2-y,z
1/2-x,1/2+y,1/2+z
1/2+x,1/2-y,1/2+z
loop_
_atom_site_type_symbol
_atom_site_label
_atom_site_fract_x
_atom_site_fract_y
_atom_site_fract_z
Si Si1 0.023889 0.325391 0.985090
Si Si2 0.212530 0.558637 0.180755
Si Si3 0.545141 0.138227 0.688272
Si Si4 0.104884 0.264050 0.805875
Si Si5 0.780782 0.928770 0.272923
Si Si6 0.627176 0.711021 0.556986
Si Si7 0.229614 0.401212 0.474438
Si Si8 0.047522 0.859421 0.235066
O O1 0.118982 0.309569 0.897145
O O2 0.920810 0.379280 0.955691
O O3 0.093379 0.349346 0.080669
O O4 0.960105 0.257745 0.997448
O O5 0.231373 0.488775 0.216605
O O6 0.313673 0.602878 0.237880
O O7 0.062125 0.582023 0.196088
O O8 0.242557 0.557837 0.069106
O O9 0.476920 0.201533 0.724003
O O10 0.675914 0.125724 0.748845
O O11 0.250000 0.250000 0.766831
O O12 0.040359 0.193875 0.817385
O O13 0.777862 0.941739 0.385038
O O14 0.927654 0.908578 0.242610
O O15 0.750000 0.750000 0.602022
O O16 0.680094 0.660027 0.483169
O O17 0.540192 0.677547 0.636633
#
# Coordination Sequence:
#
# PCOD8176597 Si02
#       8
#     8   8   8   8   8   8   8   8
#     4  10  20  37  61  94 130 158 211 259 320 380
#     4  10  23  46  66  86 124 181 220 253 314 396
#     4  11  23  43  66  93 126 172 206 263 322 384
#     4  12  22  39  66  96 129 172 210 261 324 395
#     4  12  24  42  64  98 129 163 219 277 311 368
#     4   9  17  35  63  89 126 176 205 245 317 412
#     4   9  20  39  65  88 120 174 219 245 318 396
#     4  11  22  38  65  95 129 166 211 264 322 374
#
# _framework density 20.879843000000001
#
# number of rings (size 3 to 8) (size 9 to 14) (size 15 to 20)
#    0.000    1.500    3.750    2.625    0.000    1.500 
#    2.250    7.500    0.000    0.000    0.000    0.000 
#    0.000    0.000    0.000    0.000    0.000    0.000 
#
# Total GULP energy -396599.871827 kJ/mol
# GULP energy per Si atom -12393.745995 kJ/mol
# Density = 2.083232 g / cm^3
# Si number density = 20.879843 Si / 1000 Ang^3
#
#
#
# Elastic Constant Matrix: (Units=GPa)
#
#
# Indices 1 2 3 4 5 6 
#
# 1 59.2545 9.9059 20.2063 0.0000 0.0000 0.0000
# 2 9.9059 79.7337 26.7799 0.0000 0.0000 0.0000
# 3 20.2063 26.7799 110.0837 0.0000 0.0000 0.0000
# 4 0.0000 0.0000 0.0000 33.1629 0.0000 0.0000
# 5 0.0000 0.0000 0.0000 0.0000 17.0564 0.0000
# 6 0.0000 0.0000 0.0000 0.0000 0.0000 29.1680
#
#
#
# Elastic Compliance Matrix: (Units=1/GPa)
#
#
# Indices 1 2 3 4 5 6 
#
# 1 0.018114 -0.001235 -0.003025 0.000000 0.000000 0.000000
# 2 -0.001235 0.013742 -0.003116 0.000000 0.000000 0.000000
# 3 -0.003025 -0.003116 0.010397 0.000000 0.000000 0.000000
# 4 0.000000 0.000000 0.000000 0.030154 0.000000 0.000000
# 5 0.000000 0.000000 0.000000 0.000000 0.058629 0.000000
# 6 0.000000 0.000000 0.000000 0.000000 0.000000 0.034284
#
#
# Mechanical properties :
#
#
# Convention : Reuss Voigt Hill
#
# Bulk Modulus (GPa) = 36.36074 40.31736 38.33905
# Shear Modulus (GPa) = 26.42161 28.68944 27.55553
#
# Velocity S-wave (km/s) = 3.56112 3.71081 3.63673
# Velocity P-wave (km/s) = 5.86181 6.14095 6.00300
#
# Compressibility (1/GPa) = 0.02750219
#
# Stress axis : x y z
#
# Youngs Moduli (GPa) = 55.20544 72.77065 96.17902
#
# Poissons Ratio (x) = 0.08984 0.29090
# Poissons Ratio (y) = 0.06816 0.29973
# Poissons Ratio (z) = 0.16697 0.22678
#
# Static dielectric constant tensor:
#      x y z
#    x 3.624960 0.000000 0.000000 
#    y 0.000000 3.706190 0.000000 
#    z 0.000000 0.000000 3.716030 
# 
# 
# High freq. dielectric constant tensor:
#      x y z
#    x 1.798380 0.000000 0.000000 
#    y 0.000000 1.811920 0.000000 
#    z 0.000000 0.000000 1.821110 
# 
# From -- ./inp_files/10988.got.cif
#   From: 2010.03.12/outbox.cif.g09.slc.cpg/sg37_6_cif.got.tgz:10988.got - 2010.04.14 02:25:27.
