data_PCOD8176305
_publ_section_title
;
Structure prediction by ZEFSAII (Michael W. Deem and Ramdas Pophale) SiO2 
 PCOD8176305
Probable space group: C M C 21
;
_chemical_formula_sum "Si O2"
_cell_formula_units_Z 48
_cell_length_a 27.046921
_cell_length_b 8.739168
_cell_length_c 8.703210
_cell_angle_alpha 90.000000
_cell_angle_beta 90.000000
_cell_angle_gamma 90.000000
_cell_volume 2057.156743
_symmetry_space_group_name_H-M "C M C 21"
_symmetry_group_IT_number 36
_symmetry_cell_setting 'orthorhombic'
loop_
_space_group_symop_operation_xyz
x,y,z
-x,-y,1/2+z
x,-y,1/2+z
-x,y,z
1/2+x,1/2+y,z
1/2-x,1/2-y,1/2+z
1/2+x,1/2-y,1/2+z
1/2-x,1/2+y,z
loop_
_atom_site_type_symbol
_atom_site_label
_atom_site_fract_x
_atom_site_fract_y
_atom_site_fract_z
Si Si1 0.209556 0.706698 0.606620
Si Si2 0.890404 0.328804 0.559735
Si Si3 0.055445 0.126301 0.769986
Si Si4 0.297291 0.114339 0.251449
Si Si5 0.884016 0.823112 0.755219
Si Si6 0.556054 0.862837 0.041742
O O1 0.258214 0.802203 0.642111
O O2 0.208183 0.566085 0.725028
O O3 0.210110 0.650813 0.430610
O O4 0.161713 0.814629 0.636108
O O5 0.937354 0.232779 0.620567
O O6 0.851687 0.335611 0.699047
O O7 0.865517 0.239021 0.419051
O O8 0.907646 0.496373 0.504112
O O9 0.000000 0.057150 0.763693
O O10 0.096622 0.995167 0.770568
O O11 0.062776 0.229519 0.918908
O O12 0.928690 0.712032 0.703357
O O13 0.500000 0.922808 0.051426
#
# Coordination Sequence:
#
# PCOD8176305 Si02
#       6
#     8   8   8   8   8   8
#     4  12  27  50  77 109 149 195 249 313 378 451
#     4  12  25  44  72 106 145 195 250 313 371 454
#     4  11  26  46  70 105 148 197 253 310 375 450
#     4  12  27  50  77 110 147 195 253 310 378 453
#     4  12  25  44  71 105 147 195 245 311 376 447
#     4  11  24  44  71 103 144 195 250 309 372 447
#
# _framework density 23.333176999999999
#
# number of rings (size 3 to 8) (size 9 to 14) (size 15 to 20)
#    0.000    0.333    1.667    7.000    2.333    5.333 
#    3.000    0.000    0.000    0.000    0.000    0.000 
#    0.000    0.000    0.000    0.000    0.000    0.000 
#
# Total GULP energy -297719.412107 kJ/mol
# GULP energy per Si atom -12404.975504 kJ/mol
# Density = 2.328007 g / cm^3
# Si number density = 23.333177 Si / 1000 Ang^3
#
#
#
# Elastic Constant Matrix: (Units=GPa)
#
#
# Indices 1 2 3 4 5 6 
#
# 1 135.9098 58.8448 44.3667 0.0000 0.0000 0.0000
# 2 58.8448 129.7931 34.7664 0.0000 0.0000 0.0000
# 3 44.3667 34.7664 112.8198 0.0000 0.0000 0.0000
# 4 0.0000 0.0000 0.0000 38.3945 0.0000 0.0000
# 5 0.0000 0.0000 0.0000 0.0000 36.1528 0.0000
# 6 0.0000 0.0000 0.0000 0.0000 0.0000 42.6445
#
#
#
# Elastic Compliance Matrix: (Units=1/GPa)
#
#
# Indices 1 2 3 4 5 6 
#
# 1 0.009869 -0.003744 -0.002727 0.000000 0.000000 0.000000
# 2 -0.003744 0.009818 -0.001553 0.000000 0.000000 0.000000
# 3 -0.002727 -0.001553 0.010415 0.000000 0.000000 0.000000
# 4 0.000000 0.000000 0.000000 0.026045 0.000000 0.000000
# 5 0.000000 0.000000 0.000000 0.000000 0.027660 0.000000
# 6 0.000000 0.000000 0.000000 0.000000 0.000000 0.023450
#
#
# Mechanical properties :
#
#
# Convention : Reuss Voigt Hill
#
# Bulk Modulus (GPa) = 71.15858 72.71982 71.93920
# Shear Modulus (GPa) = 39.06534 39.47467 39.27000
#
# Velocity S-wave (km/s) = 4.09619 4.11759 4.10690
# Velocity P-wave (km/s) = 7.27562 7.33755 7.30665
#
# Compressibility (1/GPa) = 0.01405312
#
# Stress axis : x y z
#
# Youngs Moduli (GPa) = 101.32615 101.85397 96.01651
#
# Poissons Ratio (x) = 0.38133 0.26187
# Poissons Ratio (y) = 0.37935 0.14913
# Poissons Ratio (z) = 0.27635 0.15820
#
# Static dielectric constant tensor:
#      x y z
#    x 4.277580 0.000000 0.000000 
#    y 0.000000 4.234690 0.000000 
#    z 0.000000 0.000000 4.240610 
# 
# 
# High freq. dielectric constant tensor:
#      x y z
#    x 1.929510 0.000000 0.000000 
#    y 0.000000 1.930010 0.000000 
#    z 0.000000 0.000000 1.932920 
# 
# From -- ./inp_files/5984.got.cif
#   From: 2010.03.12/outbox.cif.g09.slc.cpg/sg36_3_cif.got.tgz:5984.got - 2010.04.14 02:13:53.
