data_PCOD8176813
_publ_section_title
;
Structure prediction by ZEFSAII (Michael W. Deem and Ramdas Pophale) SiO2 
 PCOD8176813
Probable space group: C C C 2
;
_chemical_formula_sum "Si O2"
_cell_formula_units_Z 64
_cell_length_a 10.577360
_cell_length_b 10.649464
_cell_length_c 27.532611
_cell_angle_alpha 90.000000
_cell_angle_beta 90.000000
_cell_angle_gamma 90.000000
_cell_volume 3101.361808
_symmetry_space_group_name_H-M "C C C 2"
_symmetry_group_IT_number 37
_symmetry_cell_setting 'orthorhombic'
loop_
_space_group_symop_operation_xyz
x,y,z
-x,-y,z
-x,y,1/2+z
x,-y,1/2+z
1/2+x,1/2+y,z
1/2-x,1/2-y,z
1/2-x,1/2+y,1/2+z
1/2+x,1/2-y,1/2+z
loop_
_atom_site_type_symbol
_atom_site_label
_atom_site_fract_x
_atom_site_fract_y
_atom_site_fract_z
Si Si1 0.195056 0.968177 0.191310
Si Si2 0.142063 0.645356 0.864286
Si Si3 0.532532 0.304883 0.684658
Si Si4 0.504420 0.298044 0.435749
Si Si5 0.889500 0.410511 0.753755
Si Si6 0.396729 0.106067 0.509614
Si Si7 0.203829 0.000355 0.935601
Si Si8 0.907582 0.616107 0.618293
O O1 0.287922 0.905402 0.152717
O O2 0.091853 0.867235 0.208896
O O3 0.129251 0.088742 0.166229
O O4 0.261273 0.016980 0.240417
O O5 0.250000 0.750000 0.863814
O O6 0.100384 0.609684 0.810756
O O7 0.194903 0.520429 0.891809
O O8 0.016550 0.697999 0.891829
O O9 0.599863 0.220481 0.725441
O O10 0.491380 0.232061 0.636540
O O11 0.458664 0.228505 0.484647
O O12 0.415163 0.414318 0.425412
O O13 0.648964 0.355160 0.438855
O O14 0.000000 0.500000 0.734581
O O15 0.271839 0.048451 0.484522
O O16 0.358018 0.144860 0.564182
O O17 0.500000 0.000000 0.510261
O O18 0.000000 0.500000 0.619545
#
# Coordination Sequence:
#
# PCOD8176813 Si02
#       8
#     8   8   8   8   8   8   8   8
#     4  11  23  39  61  85 114 156 200 248 305 361
#     4   9  19  35  57  85 117 156 196 242 298 360
#     4  11  23  39  61  85 114 156 200 248 305 361
#     4   9  19  38  61  85 117 157 200 245 295 351
#     4  12  23  39  60  86 122 155 194 251 307 358
#     4  10  22  36  57  87 120 156 194 239 301 353
#     4   9  19  38  61  85 117 157 200 245 295 351
#     4  11  22  40  60  84 119 159 198 249 303 362
#
# _framework density 20.636095999999998
#
# number of rings (size 3 to 8) (size 9 to 14) (size 15 to 20)
#    0.000    1.750    2.500    2.625    0.000    6.500 
#    0.000    7.500    0.000    0.000    0.000    0.000 
#    0.000    0.000    0.000    0.000    0.000    0.000 
#
# Total GULP energy -396621.495150 kJ/mol
# GULP energy per Si atom -12394.421723 kJ/mol
# Density = 2.058913 g / cm^3
# Si number density = 20.636096 Si / 1000 Ang^3
#
#
#
# Elastic Constant Matrix: (Units=GPa)
#
#
# Indices 1 2 3 4 5 6 
#
# 1 65.7117 34.2682 21.4133 0.0000 0.0000 0.0000
# 2 34.2682 78.3232 24.2152 0.0000 0.0000 0.0000
# 3 21.4133 24.2152 123.9746 0.0000 0.0000 0.0000
# 4 0.0000 0.0000 0.0000 41.7962 0.0000 0.0000
# 5 0.0000 0.0000 0.0000 0.0000 16.7199 0.0000
# 6 0.0000 0.0000 0.0000 0.0000 0.0000 48.9145
#
#
#
# Elastic Compliance Matrix: (Units=1/GPa)
#
#
# Indices 1 2 3 4 5 6 
#
# 1 0.020115 -0.008223 -0.001868 0.000000 0.000000 0.000000
# 2 -0.008223 0.016950 -0.001890 0.000000 0.000000 0.000000
# 3 -0.001868 -0.001890 0.008758 0.000000 0.000000 0.000000
# 4 0.000000 0.000000 0.000000 0.023926 0.000000 0.000000
# 5 0.000000 0.000000 0.000000 0.000000 0.059809 0.000000
# 6 0.000000 0.000000 0.000000 0.000000 0.000000 0.020444
#
#
# Mechanical properties :
#
#
# Convention : Reuss Voigt Hill
#
# Bulk Modulus (GPa) = 45.74658 47.53366 46.64012
# Shear Modulus (GPa) = 27.58598 34.02699 30.80648
#
# Velocity S-wave (km/s) = 3.66017 4.06508 3.86793
# Velocity P-wave (km/s) = 6.33078 6.71695 6.52672
#
# Compressibility (1/GPa) = 0.02185956
#
# Stress axis : x y z
#
# Youngs Moduli (GPa) = 49.71387 58.99740 114.18037
#
# Poissons Ratio (x) = 0.48515 0.21331
# Poissons Ratio (y) = 0.40881 0.21584
# Poissons Ratio (z) = 0.09287 0.11153
#
# Static dielectric constant tensor:
#      x y z
#    x 4.264100 0.000000 0.000000 
#    y 0.000000 3.931100 0.000000 
#    z 0.000000 0.000000 3.797830 
# 
# 
# High freq. dielectric constant tensor:
#      x y z
#    x 1.814890 0.000000 0.000000 
#    y 0.000000 1.818260 0.000000 
#    z 0.000000 0.000000 1.789320 
# 
# From -- ./inp_files/20439.got.cif
#   From: 2010.03.12/outbox.cif.g09.slc.cpg/sg37_11_cif.got.tgz:20439.got - 2010.04.14 02:25:27.
