data_PCOD8176003
_publ_section_title
;
Structure prediction by ZEFSAII (Michael W. Deem and Ramdas Pophale) SiO2 
 PCOD8176003
Probable space group: C M C 21
;
_chemical_formula_sum "Si O2"
_cell_formula_units_Z 48
_cell_length_a 15.055126
_cell_length_b 11.739102
_cell_length_c 12.583811
_cell_angle_alpha 90.000000
_cell_angle_beta 90.000000
_cell_angle_gamma 90.000000
_cell_volume 2223.982971
_symmetry_space_group_name_H-M "C M C 21"
_symmetry_group_IT_number 36
_symmetry_cell_setting 'orthorhombic'
loop_
_space_group_symop_operation_xyz
x,y,z
-x,-y,1/2+z
x,-y,1/2+z
-x,y,z
1/2+x,1/2+y,z
1/2-x,1/2-y,1/2+z
1/2+x,1/2-y,1/2+z
1/2-x,1/2+y,z
loop_
_atom_site_type_symbol
_atom_site_label
_atom_site_fract_x
_atom_site_fract_y
_atom_site_fract_z
Si Si1 0.500000 0.616713 0.372241
Si Si2 0.000000 0.519601 0.540066
Si Si3 0.500000 0.250551 0.660056
Si Si4 0.000000 0.742905 0.083892
Si Si5 0.839751 0.389669 0.913819
Si Si6 0.813953 0.803409 0.569788
Si Si7 0.322549 0.466122 0.377326
Si Si8 0.162000 0.760734 0.225258
O O1 0.500000 0.714101 0.282205
O O2 0.500000 0.700921 0.470272
O O3 0.414812 0.534329 0.369196
O O4 0.000000 0.613766 0.635483
O O5 0.914004 0.530502 0.465313
O O6 0.000000 0.394162 0.587790
O O7 0.414844 0.307948 0.607910
O O8 0.912463 0.789388 0.139958
O O9 0.760145 0.453686 0.857241
O O10 0.881937 0.316802 0.817654
O O11 0.795833 0.310365 0.003225
O O12 0.805469 0.912830 0.493978
O O13 0.745532 0.801905 0.668322
O O14 0.311310 0.378133 0.280931
#
# Coordination Sequence:
#
# PCOD8176003 Si02
#       8
#     4   4   4   4   8   8   8   8
#     4  12  26  41  64  97 128 163 212 262 318 382
#     4  10  23  43  66  89 126 165 205 264 312 364
#     4  10  23  42  65  94 125 166 211 256 312 376
#     4  12  26  42  63  92 123 162 212 260 314 382
#     4  10  22  40  63  91 122 163 209 255 311 373
#     4  10  22  41  63  92 128 166 210 254 311 380
#     4  11  24  42  64  93 130 165 205 266 316 366
#     4  11  24  41  63  91 125 166 211 255 312 382
#
# _framework density 21.582899000000001
#
# number of rings (size 3 to 8) (size 9 to 14) (size 15 to 20)
#    0.000    1.333    0.000    4.500    0.000   17.333 
#    0.000    0.000    0.000    0.000    0.000    0.000 
#    0.000    0.000    0.000    0.000    0.000    0.000 
#
# Total GULP energy -297561.565058 kJ/mol
# GULP energy per Si atom -12398.398544 kJ/mol
# Density = 2.153378 g / cm^3
# Si number density = 21.582899 Si / 1000 Ang^3
#
#
#
# Elastic Constant Matrix: (Units=GPa)
#
#
# Indices 1 2 3 4 5 6 
#
# 1 125.4312 28.0488 37.4635 0.0000 0.0000 0.0000
# 2 28.0488 66.5438 43.0019 0.0000 0.0000 0.0000
# 3 37.4635 43.0019 133.6962 0.0000 0.0000 0.0000
# 4 0.0000 0.0000 0.0000 34.3915 0.0000 0.0000
# 5 0.0000 0.0000 0.0000 0.0000 47.8481 0.0000
# 6 0.0000 0.0000 0.0000 0.0000 0.0000 27.7679
#
#
#
# Elastic Compliance Matrix: (Units=1/GPa)
#
#
# Indices 1 2 3 4 5 6 
#
# 1 0.009085 -0.002757 -0.001659 0.000000 0.000000 0.000000
# 2 -0.002757 0.019808 -0.005598 0.000000 0.000000 0.000000
# 3 -0.001659 -0.005598 0.009745 0.000000 0.000000 0.000000
# 4 0.000000 0.000000 0.000000 0.029077 0.000000 0.000000
# 5 0.000000 0.000000 0.000000 0.000000 0.020899 0.000000
# 6 0.000000 0.000000 0.000000 0.000000 0.000000 0.036013
#
#
# Mechanical properties :
#
#
# Convention : Reuss Voigt Hill
#
# Bulk Modulus (GPa) = 53.73865 60.29997 57.01931
# Shear Modulus (GPa) = 33.14376 36.47863 34.81120
#
# Velocity S-wave (km/s) = 3.92299 4.11562 4.02046
# Velocity P-wave (km/s) = 6.74333 7.11223 6.93024
#
# Compressibility (1/GPa) = 0.01860858
#
# Stress axis : x y z
#
# Youngs Moduli (GPa) = 110.07747 50.48556 102.61587
#
# Poissons Ratio (x) = 0.13920 0.17021
# Poissons Ratio (y) = 0.30352 0.57447
# Poissons Ratio (z) = 0.18259 0.28263
#
# Static dielectric constant tensor:
#      x y z
#    x 3.881850 0.000000 0.000000 
#    y 0.000000 3.867420 0.000000 
#    z 0.000000 0.000000 4.042320 
# 
# 
# High freq. dielectric constant tensor:
#      x y z
#    x 1.856040 0.000000 0.000000 
#    y 0.000000 1.848340 0.000000 
#    z 0.000000 0.000000 1.862220 
# 
# From -- ./inp_files/8908.got.cif
#   From: 2010.03.12/outbox.cif.g09.slc.cpg/sg36_5_cif.got.tgz:8908.got - 2010.04.14 02:13:53.
