data_PCOD8176502
_publ_section_title
;
Structure prediction by ZEFSAII (Michael W. Deem and Ramdas Pophale) SiO2 
 PCOD8176502
Probable space group: C C C 2
;
_chemical_formula_sum "Si O2"
_cell_formula_units_Z 60
_cell_length_a 6.430827
_cell_length_b 25.468350
_cell_length_c 17.388370
_cell_angle_alpha 90.000000
_cell_angle_beta 90.000000
_cell_angle_gamma 90.000000
_cell_volume 2847.911628
_symmetry_space_group_name_H-M "C C C 2"
_symmetry_group_IT_number 37
_symmetry_cell_setting 'orthorhombic'
loop_
_space_group_symop_operation_xyz
x,y,z
-x,-y,z
-x,y,1/2+z
x,-y,1/2+z
1/2+x,1/2+y,z
1/2-x,1/2-y,z
1/2-x,1/2+y,1/2+z
1/2+x,1/2-y,1/2+z
loop_
_atom_site_type_symbol
_atom_site_label
_atom_site_fract_x
_atom_site_fract_y
_atom_site_fract_z
Si Si1 0.344486 0.379189 0.305400
Si Si2 0.036037 0.439169 0.399969
Si Si3 0.730825 0.347987 0.579224
Si Si4 0.250000 0.250000 0.800686
Si Si5 0.352036 0.378635 0.672452
Si Si6 0.953570 0.439736 0.074389
Si Si7 0.706576 0.349102 0.402533
Si Si8 0.466189 0.808493 0.712683
O O1 0.208781 0.426874 0.336642
O O2 0.505281 0.400599 0.241582
O O3 0.466689 0.356996 0.379610
O O4 0.196350 0.334813 0.270494
O O5 0.117661 0.429730 0.486636
O O6 0.000000 0.500000 0.386549
O O7 0.834019 0.402657 0.385829
O O8 0.495581 0.349967 0.609281
O O9 0.727434 0.331562 0.490786
O O10 0.863516 0.304716 0.627875
O O11 0.843163 0.404479 0.592877
O O12 0.211554 0.301005 0.852182
O O13 0.460383 0.248747 0.746185
O O14 0.235856 0.426276 0.630643
O O15 0.185564 0.339298 0.709094
O O16 0.000000 0.500000 0.089904
#
# Coordination Sequence:
#
# PCOD8176502 Si02
#       8
#     8   8   8   4   8   8   8   8
#     4  11  20  39  64  90 127 167 212 264 332 379
#     4  10  21  40  63  91 133 171 213 275 332 384
#     4   9  21  40  64  87 128 165 212 269 317 386
#     4  12  22  44  68  92 128 164 214 262 318 398
#     4  10  19  39  60  87 127 168 216 265 319 394
#     4   9  19  36  61  88 122 171 217 268 325 383
#     4  11  23  42  64  98 126 165 223 268 320 394
#     4  10  22  42  64  90 127 173 204 264 325 384
#
# _framework density 21.068068
#
# number of rings (size 3 to 8) (size 9 to 14) (size 15 to 20)
#    0.000    1.867    2.667    0.800    0.000    1.600 
#    2.400   20.000    0.000    0.000    0.000    0.000 
#    0.000    0.000    0.000    0.000    0.000    0.000 
#
# Total GULP energy -371823.774246 kJ/mol
# GULP energy per Si atom -12394.125808 kJ/mol
# Density = 2.102012 g / cm^3
# Si number density = 21.068068 Si / 1000 Ang^3
#
#
#
# Elastic Constant Matrix: (Units=GPa)
#
#
# Indices 1 2 3 4 5 6 
#
# 1 131.5330 40.6298 78.9289 0.0000 0.0000 0.0000
# 2 40.6298 80.6192 53.5624 0.0000 0.0000 0.0000
# 3 78.9289 53.5624 150.1683 0.0000 0.0000 0.0000
# 4 0.0000 0.0000 0.0000 25.0507 0.0000 0.0000
# 5 0.0000 0.0000 0.0000 0.0000 42.6352 0.0000
# 6 0.0000 0.0000 0.0000 0.0000 0.0000 24.8301
#
#
#
# Elastic Compliance Matrix: (Units=1/GPa)
#
#
# Indices 1 2 3 4 5 6 
#
# 1 0.011426 -0.002318 -0.005179 0.000000 0.000000 0.000000
# 2 -0.002318 0.016726 -0.004748 0.000000 0.000000 0.000000
# 3 -0.005179 -0.004748 0.011075 0.000000 0.000000 0.000000
# 4 0.000000 0.000000 0.000000 0.039919 0.000000 0.000000
# 5 0.000000 0.000000 0.000000 0.000000 0.023455 0.000000
# 6 0.000000 0.000000 0.000000 0.000000 0.000000 0.040274
#
#
# Mechanical properties :
#
#
# Convention : Reuss Voigt Hill
#
# Bulk Modulus (GPa) = 67.84975 78.72919 73.28947
# Shear Modulus (GPa) = 29.02301 31.11650 30.06976
#
# Velocity S-wave (km/s) = 3.71561 3.84728 3.78202
# Velocity P-wave (km/s) = 7.11917 7.56211 7.34398
#
# Compressibility (1/GPa) = 0.01473845
#
# Stress axis : x y z
#
# Youngs Moduli (GPa) = 87.51697 59.78560 90.29501
#
# Poissons Ratio (x) = 0.13856 0.46764
# Poissons Ratio (y) = 0.20283 0.42871
# Poissons Ratio (z) = 0.45326 0.28385
#
# Static dielectric constant tensor:
#      x y z
#    x 4.015020 0.000000 0.000000 
#    y 0.000000 3.577360 0.000000 
#    z 0.000000 0.000000 4.173520 
# 
# 
# High freq. dielectric constant tensor:
#      x y z
#    x 1.834090 0.000000 0.000000 
#    y 0.000000 1.799200 0.000000 
#    z 0.000000 0.000000 1.846730 
# 
# From -- ./inp_files/14038.got.cif
#   From: 2010.03.12/outbox.cif.g09.slc.cpg/sg37_8_cif.got.tgz:14038.got - 2010.04.14 02:25:27.
