data_PCOD8176871
_publ_section_title
;
Structure prediction by ZEFSAII (Michael W. Deem and Ramdas Pophale) SiO2 
 PCOD8176871
Probable space group: C C C 2
;
_chemical_formula_sum "Si O2"
_cell_formula_units_Z 64
_cell_length_a 12.237819
_cell_length_b 26.393937
_cell_length_c 9.321677
_cell_angle_alpha 90.000000
_cell_angle_beta 90.000000
_cell_angle_gamma 90.000000
_cell_volume 3010.941043
_symmetry_space_group_name_H-M "C C C 2"
_symmetry_group_IT_number 37
_symmetry_cell_setting 'orthorhombic'
loop_
_space_group_symop_operation_xyz
x,y,z
-x,-y,z
-x,y,1/2+z
x,-y,1/2+z
1/2+x,1/2+y,z
1/2-x,1/2-y,z
1/2-x,1/2+y,1/2+z
1/2+x,1/2-y,1/2+z
loop_
_atom_site_type_symbol
_atom_site_label
_atom_site_fract_x
_atom_site_fract_y
_atom_site_fract_z
Si Si1 0.902437 0.710832 0.267320
Si Si2 0.291172 0.099686 0.933086
Si Si3 0.830162 0.185907 0.866975
Si Si4 0.664525 0.504605 0.859476
Si Si5 0.735646 0.136683 0.126522
Si Si6 0.585717 0.557430 0.605473
Si Si7 0.501227 0.153501 0.516356
Si Si8 0.637854 0.406238 0.685980
O O1 0.912421 0.768275 0.328881
O O2 0.777744 0.693404 0.272324
O O3 0.979073 0.675799 0.361688
O O4 0.948120 0.700368 0.108090
O O5 0.259905 0.137879 0.800278
O O6 0.415175 0.107313 0.987398
O O7 0.271052 0.040132 0.892252
O O8 0.219281 0.116139 0.068527
O O9 0.886209 0.134121 0.812650
O O10 0.793143 0.183503 0.037222
O O11 0.580392 0.539246 0.770342
O O12 0.691922 0.455402 0.762711
O O13 0.599408 0.491754 0.004617
O O14 0.805042 0.088899 0.071619
O O15 0.609389 0.130370 0.083056
O O16 0.471952 0.586569 0.591056
#
# Coordination Sequence:
#
# PCOD8176871 Si02
#       8
#     8   8   8   8   8   8   8   8
#     4  10  22  41  71  97 130 175 225 272 346 403
#     4  11  24  41  69 101 131 182 229 279 346 408
#     4  10  22  43  67  97 133 177 220 274 341 408
#     4  11  24  41  61  96 135 179 226 278 340 409
#     4  10  23  42  69  97 135 177 224 279 344 408
#     4  11  25  39  64  97 137 179 224 278 345 407
#     4  11  21  45  72  96 133 178 221 289 341 403
#     4  12  24  39  69  95 140 183 222 287 340 411
#
# _framework density 21.255813
#
# number of rings (size 3 to 8) (size 9 to 14) (size 15 to 20)
#    0.000    1.250    5.000    0.375    5.250    1.000 
#    0.000    1.875    5.500    0.000    0.000    0.000 
#    0.000    0.000    0.000    0.000    0.000    0.000 
#
# Total GULP energy -396446.177040 kJ/mol
# GULP energy per Si atom -12388.943032 kJ/mol
# Density = 2.120743 g / cm^3
# Si number density = 21.255813 Si / 1000 Ang^3
#
#
#
# Elastic Constant Matrix: (Units=GPa)
#
#
# Indices 1 2 3 4 5 6 
#
# 1 110.2307 47.7512 33.5821 0.0000 0.0000 0.0000
# 2 47.7512 99.3496 27.4048 0.0000 0.0000 0.0000
# 3 33.5821 27.4048 101.8690 0.0000 0.0000 0.0000
# 4 0.0000 0.0000 0.0000 29.9240 0.0000 0.0000
# 5 0.0000 0.0000 0.0000 0.0000 19.2550 0.0000
# 6 0.0000 0.0000 0.0000 0.0000 0.0000 35.2608
#
#
#
# Elastic Compliance Matrix: (Units=1/GPa)
#
#
# Indices 1 2 3 4 5 6 
#
# 1 0.012068 -0.005080 -0.002612 0.000000 0.000000 0.000000
# 2 -0.005080 0.013011 -0.001825 0.000000 0.000000 0.000000
# 3 -0.002612 -0.001825 0.011169 0.000000 0.000000 0.000000
# 4 0.000000 0.000000 0.000000 0.033418 0.000000 0.000000
# 5 0.000000 0.000000 0.000000 0.000000 0.051935 0.000000
# 6 0.000000 0.000000 0.000000 0.000000 0.000000 0.028360
#
#
# Mechanical properties :
#
#
# Convention : Reuss Voigt Hill
#
# Bulk Modulus (GPa) = 58.09566 58.76951 58.43259
# Shear Modulus (GPa) = 28.61520 30.40203 29.50862
#
# Velocity S-wave (km/s) = 3.67308 3.78602 3.72998
# Velocity P-wave (km/s) = 6.73644 6.84256 6.78971
#
# Compressibility (1/GPa) = 0.01721299
#
# Stress axis : x y z
#
# Youngs Moduli (GPa) = 82.86245 76.86016 89.53667
#
# Poissons Ratio (x) = 0.39045 0.23385
# Poissons Ratio (y) = 0.42094 0.16345
# Poissons Ratio (z) = 0.21642 0.14030
#
# Static dielectric constant tensor:
#      x y z
#    x 3.718090 0.000000 0.000000 
#    y 0.000000 3.852580 0.000000 
#    z 0.000000 0.000000 4.106040 
# 
# 
# High freq. dielectric constant tensor:
#      x y z
#    x 1.821660 0.000000 0.000000 
#    y 0.000000 1.813010 0.000000 
#    z 0.000000 0.000000 1.855510 
# 
# From -- ./inp_files/3124.got.cif
#   From: 2010.03.12/outbox.cif.g09.slc.cpg/sg37_2_cif.got.tgz:3124.got - 2010.04.14 02:25:27.
