data_PCOD8176426
_publ_section_title
;
Structure prediction by ZEFSAII (Michael W. Deem and Ramdas Pophale) SiO2 
 PCOD8176426
Probable space group: C C C 2
;
_chemical_formula_sum "Si O2"
_cell_formula_units_Z 60
_cell_length_a 9.480669
_cell_length_b 20.741847
_cell_length_c 14.745162
_cell_angle_alpha 90.000000
_cell_angle_beta 90.000000
_cell_angle_gamma 90.000000
_cell_volume 2899.585765
_symmetry_space_group_name_H-M "C C C 2"
_symmetry_group_IT_number 37
_symmetry_cell_setting 'orthorhombic'
loop_
_space_group_symop_operation_xyz
x,y,z
-x,-y,z
-x,y,1/2+z
x,-y,1/2+z
1/2+x,1/2+y,z
1/2-x,1/2-y,z
1/2-x,1/2+y,1/2+z
1/2+x,1/2-y,1/2+z
loop_
_atom_site_type_symbol
_atom_site_label
_atom_site_fract_x
_atom_site_fract_y
_atom_site_fract_z
Si Si1 0.624571 0.953890 0.075170
Si Si2 0.538019 0.192341 0.615734
Si Si3 0.357284 0.032782 0.278730
Si Si4 0.250000 0.750000 0.086586
Si Si5 0.363832 0.658695 0.939191
Si Si6 0.372328 0.819089 0.809507
Si Si7 0.835110 0.988569 0.436334
Si Si8 0.593750 0.253871 0.429718
O O1 0.563769 0.881475 0.083024
O O2 0.679179 0.977830 0.173186
O O3 0.500000 0.000000 0.039366
O O4 0.756636 0.963572 0.006783
O O5 0.372763 0.209805 0.639324
O O6 0.620820 0.210049 0.708182
O O7 0.599522 0.236017 0.535806
O O8 0.391742 0.105414 0.301885
O O9 0.228533 0.002146 0.335833
O O10 0.500000 0.000000 0.309251
O O11 0.332020 0.697770 0.028831
O O12 0.282131 0.691516 0.853688
O O13 0.318207 0.586551 0.961464
O O14 0.530062 0.673070 0.918568
O O15 0.493923 0.795561 0.877009
O O16 0.000000 0.000000 0.434249
O O17 0.750000 0.250000 0.387914
#
# Coordination Sequence:
#
# PCOD8176426 Si02
#       8
#     8   8   8   4   8   8   8   8
#     4  10  21  39  63  90 121 163 213 254 312 377
#     4  10  22  37  63  89 124 158 208 255 306 377
#     4   9  21  38  61  90 118 162 213 251 299 382
#     4  10  18  38  64  90 118 156 208 258 302 364
#     4  10  20  41  61  83 120 166 199 243 315 370
#     4  10  20  39  62  85 119 165 199 246 317 366
#     4  11  24  36  64  90 127 164 200 260 324 363
#     4  11  24  37  60  89 123 152 210 260 297 365
#
# _framework density 20.692609999999998
#
# number of rings (size 3 to 8) (size 9 to 14) (size 15 to 20)
#    0.000    1.867    2.667    1.200    6.533    1.600 
#    0.000    0.000    5.867    0.000    0.000    0.000 
#    0.000    0.000    0.000    0.000    0.000    0.000 
#
# Total GULP energy -371708.164566 kJ/mol
# GULP energy per Si atom -12390.272152 kJ/mol
# Density = 2.064551 g / cm^3
# Si number density = 20.692610 Si / 1000 Ang^3
#
#
#
# Elastic Constant Matrix: (Units=GPa)
#
#
# Indices 1 2 3 4 5 6 
#
# 1 158.0667 37.1020 50.7902 0.0000 0.0000 0.0000
# 2 37.1020 53.9586 25.0912 0.0000 0.0000 0.0000
# 3 50.7902 25.0912 109.5693 0.0000 0.0000 0.0000
# 4 0.0000 0.0000 0.0000 27.1359 0.0000 0.0000
# 5 0.0000 0.0000 0.0000 0.0000 27.6548 0.0000
# 6 0.0000 0.0000 0.0000 0.0000 0.0000 32.3044
#
#
#
# Elastic Compliance Matrix: (Units=1/GPa)
#
#
# Indices 1 2 3 4 5 6 
#
# 1 0.008260 -0.004364 -0.002830 0.000000 0.000000 0.000000
# 2 -0.004364 0.023047 -0.003255 0.000000 0.000000 0.000000
# 3 -0.002830 -0.003255 0.011184 0.000000 0.000000 0.000000
# 4 0.000000 0.000000 0.000000 0.036851 0.000000 0.000000
# 5 0.000000 0.000000 0.000000 0.000000 0.036160 0.000000
# 6 0.000000 0.000000 0.000000 0.000000 0.000000 0.030956
#
#
# Mechanical properties :
#
#
# Convention : Reuss Voigt Hill
#
# Bulk Modulus (GPa) = 46.30924 60.84015 53.57470
# Shear Modulus (GPa) = 28.64479 31.32644 29.98561
#
# Velocity S-wave (km/s) = 3.72465 3.89510 3.81083
# Velocity P-wave (km/s) = 6.39731 7.04945 6.73128
#
# Compressibility (1/GPa) = 0.02159396
#
# Stress axis : x y z
#
# Youngs Moduli (GPa) = 121.06662 43.38997 89.41645
#
# Poissons Ratio (x) = 0.18934 0.25301
# Poissons Ratio (y) = 0.52831 0.29104
# Poissons Ratio (z) = 0.34256 0.14123
#
# Static dielectric constant tensor:
#      x y z
#    x 3.968660 0.000000 0.000000 
#    y 0.000000 3.987250 0.000000 
#    z 0.000000 0.000000 3.898870 
# 
# 
# High freq. dielectric constant tensor:
#      x y z
#    x 1.809580 0.000000 0.000000 
#    y 0.000000 1.812300 0.000000 
#    z 0.000000 0.000000 1.805120 
# 
# From -- ./inp_files/10929.got.cif
#   From: 2010.03.12/outbox.cif.g09.slc.cpg/sg37_6_cif.got.tgz:10929.got - 2010.04.14 02:25:27.
