data_PCOD8176066
_publ_section_title
;
Structure prediction by ZEFSAII (Michael W. Deem and Ramdas Pophale) SiO2 
 PCOD8176066
Probable space group: C M C 21
;
_chemical_formula_sum "Si O2"
_cell_formula_units_Z 64
_cell_length_a 15.349024
_cell_length_b 9.121709
_cell_length_c 22.129416
_cell_angle_alpha 90.000000
_cell_angle_beta 90.000000
_cell_angle_gamma 90.000000
_cell_volume 3098.324715
_symmetry_space_group_name_H-M "C M C 21"
_symmetry_group_IT_number 36
_symmetry_cell_setting 'orthorhombic'
loop_
_space_group_symop_operation_xyz
x,y,z
-x,-y,1/2+z
x,-y,1/2+z
-x,y,z
1/2+x,1/2+y,z
1/2-x,1/2-y,1/2+z
1/2+x,1/2-y,1/2+z
1/2-x,1/2+y,z
loop_
_atom_site_type_symbol
_atom_site_label
_atom_site_fract_x
_atom_site_fract_y
_atom_site_fract_z
Si Si1 0.750794 0.404946 0.397950
Si Si2 0.659877 0.301321 0.612536
Si Si3 0.597470 0.953089 0.481756
Si Si4 0.247307 0.845314 0.812102
Si Si5 0.901065 0.203337 0.979705
Si Si6 0.402921 0.203998 0.227933
Si Si7 0.655575 0.046356 0.114356
Si Si8 0.597848 0.458841 0.726277
O O1 0.832570 0.366906 0.441077
O O2 0.757744 0.322244 0.333773
O O3 0.752596 0.572497 0.376461
O O4 0.660736 0.379656 0.432928
O O5 0.620490 0.344514 0.547893
O O6 0.753092 0.373650 0.620234
O O7 0.598627 0.369935 0.663677
O O8 0.666706 0.127385 0.621558
O O9 0.500000 0.906523 0.462377
O O10 0.612769 0.124532 0.472268
O O11 0.611011 0.911400 0.551343
O O12 0.334825 0.870190 0.773602
O O13 0.162426 0.885756 0.774126
O O14 0.000000 0.157700 0.964790
O O15 0.500000 0.196502 0.256358
O O16 0.405374 0.110229 0.166617
O O17 0.375689 0.372106 0.214697
O O18 0.500000 0.448997 0.752600
#
# Coordination Sequence:
#
# PCOD8176066 Si02
#       8
#     8   8   8   8   8   8   8   8
#     4  12  24  43  67  92 128 168 222 264 309 378
#     4  11  22  39  69 100 131 167 209 264 329 384
#     4  10  22  42  67  97 130 166 210 264 320 383
#     4  12  26  43  65  94 126 172 220 265 314 372
#     4  10  22  42  68  96 129 170 211 258 322 387
#     4  11  25  45  68  96 129 171 215 266 326 386
#     4  11  22  39  69  99 131 167 210 263 326 390
#     4  11  25  45  67  96 132 167 213 270 326 384
#
# _framework density 20.656324999999999
#
# number of rings (size 3 to 8) (size 9 to 14) (size 15 to 20)
#    0.000    1.000    5.000    1.500    1.750    3.500 
#    2.250    0.000    0.000    0.000    0.000    0.000 
#    0.000    0.000    0.000    0.000    0.000    0.000 
#
# Total GULP energy -396903.029722 kJ/mol
# GULP energy per Si atom -12403.219679 kJ/mol
# Density = 2.060931 g / cm^3
# Si number density = 20.656325 Si / 1000 Ang^3
#
#
#
# Elastic Constant Matrix: (Units=GPa)
#
#
# Indices 1 2 3 4 5 6 
#
# 1 146.5827 26.2867 59.3849 0.0000 0.0000 0.0000
# 2 26.2867 57.8812 33.0370 0.0000 0.0000 0.0000
# 3 59.3849 33.0370 120.4914 0.0000 0.0000 0.0000
# 4 0.0000 0.0000 0.0000 40.7539 0.0000 0.0000
# 5 0.0000 0.0000 0.0000 0.0000 13.4674 0.0000
# 6 0.0000 0.0000 0.0000 0.0000 0.0000 29.4670
#
#
#
# Elastic Compliance Matrix: (Units=1/GPa)
#
#
# Indices 1 2 3 4 5 6 
#
# 1 0.008676 -0.001778 -0.003788 0.000000 0.000000 0.000000
# 2 -0.001778 0.020846 -0.004840 0.000000 0.000000 0.000000
# 3 -0.003788 -0.004840 0.011493 0.000000 0.000000 0.000000
# 4 0.000000 0.000000 0.000000 0.024538 0.000000 0.000000
# 5 0.000000 0.000000 0.000000 0.000000 0.074253 0.000000
# 6 0.000000 0.000000 0.000000 0.000000 0.000000 0.033936
#
#
# Mechanical properties :
#
#
# Convention : Reuss Voigt Hill
#
# Bulk Modulus (GPa) = 49.49511 62.48582 55.99047
# Shear Modulus (GPa) = 24.83992 30.48745 27.66369
#
# Velocity S-wave (km/s) = 3.47152 3.84596 3.66353
# Velocity P-wave (km/s) = 6.33102 7.07374 6.71266
#
# Compressibility (1/GPa) = 0.02020402
#
# Stress axis : x y z
#
# Youngs Moduli (GPa) = 115.26458 47.96979 87.00609
#
# Poissons Ratio (x) = 0.08528 0.32962
# Poissons Ratio (y) = 0.20491 0.42108
# Poissons Ratio (z) = 0.43667 0.23216
#
# Static dielectric constant tensor:
#      x y z
#    x 3.818010 0.000000 0.000000 
#    y 0.000000 3.691450 0.000000 
#    z 0.000000 0.000000 3.773400 
# 
# 
# High freq. dielectric constant tensor:
#      x y z
#    x 1.819310 0.000000 0.000000 
#    y 0.000000 1.803650 0.000000 
#    z 0.000000 0.000000 1.813440 
# 
# From -- ./inp_files/16961.got.cif
#   From: 2010.03.12/outbox.cif.g09.slc.cpg/sg36_9_cif.got.tgz:16961.got - 2010.04.14 02:13:53.
