data_PCOD8176709
_publ_section_title
;
Structure prediction by ZEFSAII (Michael W. Deem and Ramdas Pophale) SiO2 
 PCOD8176709
Probable space group: C C C 2
;
_chemical_formula_sum "Si O2"
_cell_formula_units_Z 64
_cell_length_a 30.843073
_cell_length_b 8.496445
_cell_length_c 12.018445
_cell_angle_alpha 90.000000
_cell_angle_beta 90.000000
_cell_angle_gamma 90.000000
_cell_volume 3149.511312
_symmetry_space_group_name_H-M "C C C 2"
_symmetry_group_IT_number 37
_symmetry_cell_setting 'orthorhombic'
loop_
_space_group_symop_operation_xyz
x,y,z
-x,-y,z
-x,y,1/2+z
x,-y,1/2+z
1/2+x,1/2+y,z
1/2-x,1/2-y,z
1/2-x,1/2+y,1/2+z
1/2+x,1/2-y,1/2+z
loop_
_atom_site_type_symbol
_atom_site_label
_atom_site_fract_x
_atom_site_fract_y
_atom_site_fract_z
Si Si1 0.084365 0.927836 0.796040
Si Si2 0.199755 0.286999 0.217527
Si Si3 0.846725 0.216401 0.942167
Si Si4 0.490552 0.679558 0.657475
Si Si5 0.926034 0.276211 0.272509
Si Si6 0.078544 0.687585 0.508526
Si Si7 0.139740 0.546457 0.128455
Si Si8 0.142768 0.074864 0.082702
O O1 0.105628 0.824296 0.893822
O O2 0.042794 0.825562 0.760714
O O3 0.116215 0.964967 0.693418
O O4 0.071371 0.103554 0.830016
O O5 0.250000 0.250000 0.211822
O O6 0.186169 0.231982 0.340411
O O7 0.180632 0.463747 0.192385
O O8 0.182352 0.184623 0.116151
O O9 0.844774 0.376497 0.012918
O O10 0.834561 0.074551 0.024824
O O11 0.500000 0.500000 0.620043
O O12 0.532610 0.783583 0.690272
O O13 0.468856 0.768222 0.553946
O O14 0.927926 0.385666 0.384182
O O15 0.882078 0.320647 0.206982
O O16 0.101508 0.575016 0.599012
O O17 0.110396 0.839054 0.497150
#
# Coordination Sequence:
#
# PCOD8176709 Si02
#       8
#     8   8   8   8   8   8   8   8
#     4   9  18  35  58  91 118 159 213 266 294 363
#     4  10  24  43  61  93 133 154 199 266 324 390
#     4  11  20  38  71  90 117 169 216 249 325 384
#     4   9  21  35  55  88 127 165 217 269 311 357
#     4  11  20  36  60  85 122 165 218 260 310 370
#     4  10  21  38  56  85 123 165 211 260 322 365
#     4  11  24  40  63  92 124 168 204 264 326 391
#     4   9  18  37  63  86 116 159 207 251 303 381
#
# _framework density 20.320613999999999
#
# number of rings (size 3 to 8) (size 9 to 14) (size 15 to 20)
#    0.000    2.000    2.500    1.500    0.000    4.000 
#    0.000    1.250    0.000    0.000    0.000    0.000 
#    0.000    0.000    0.000    0.000    0.000    0.000 
#
# Total GULP energy -396495.181986 kJ/mol
# GULP energy per Si atom -12390.474437 kJ/mol
# Density = 2.027436 g / cm^3
# Si number density = 20.320614 Si / 1000 Ang^3
#
#
#
# Elastic Constant Matrix: (Units=GPa)
#
#
# Indices 1 2 3 4 5 6 
#
# 1 125.5853 31.3284 38.7057 0.0000 0.0000 0.0000
# 2 31.3284 63.6485 22.5762 0.0000 0.0000 0.0000
# 3 38.7057 22.5762 100.9274 0.0000 0.0000 0.0000
# 4 0.0000 0.0000 0.0000 31.7897 0.0000 0.0000
# 5 0.0000 0.0000 0.0000 0.0000 21.3601 0.0000
# 6 0.0000 0.0000 0.0000 0.0000 0.0000 26.0858
#
#
#
# Elastic Compliance Matrix: (Units=1/GPa)
#
#
# Indices 1 2 3 4 5 6 
#
# 1 0.009807 -0.003794 -0.002912 0.000000 0.000000 0.000000
# 2 -0.003794 0.018533 -0.002691 0.000000 0.000000 0.000000
# 3 -0.002912 -0.002691 0.011627 0.000000 0.000000 0.000000
# 4 0.000000 0.000000 0.000000 0.031457 0.000000 0.000000
# 5 0.000000 0.000000 0.000000 0.000000 0.046816 0.000000
# 6 0.000000 0.000000 0.000000 0.000000 0.000000 0.038335
#
#
# Mechanical properties :
#
#
# Convention : Reuss Voigt Hill
#
# Bulk Modulus (GPa) = 47.23004 52.82019 50.02511
# Shear Modulus (GPa) = 27.40840 29.01720 28.21280
#
# Velocity S-wave (km/s) = 3.67658 3.78295 3.73014
# Velocity P-wave (km/s) = 6.42774 6.71794 6.57444
#
# Compressibility (1/GPa) = 0.02117296
#
# Stress axis : x y z
#
# Youngs Moduli (GPa) = 101.97105 53.95759 86.00820
#
# Poissons Ratio (x) = 0.20471 0.25047
# Poissons Ratio (y) = 0.38688 0.23142
# Poissons Ratio (z) = 0.29696 0.14518
#
# Static dielectric constant tensor:
#      x y z
#    x 3.461570 0.000000 0.000000 
#    y 0.000000 3.668200 0.000000 
#    z 0.000000 0.000000 3.679130 
# 
# 
# High freq. dielectric constant tensor:
#      x y z
#    x 1.766070 0.000000 0.000000 
#    y 0.000000 1.785030 0.000000 
#    z 0.000000 0.000000 1.804760 
# 
# From -- ./inp_files/6622.got.cif
#   From: 2010.03.12/outbox.cif.g09.slc.cpg/sg37_4_cif.got.tgz:6622.got - 2010.04.14 02:25:27.
