data_PCOD8176738
_publ_section_title
;
Structure prediction by ZEFSAII (Michael W. Deem and Ramdas Pophale) SiO2 
 PCOD8176738
Probable space group: C C C 2
;
_chemical_formula_sum "Si O2"
_cell_formula_units_Z 64
_cell_length_a 13.790828
_cell_length_b 16.285925
_cell_length_c 13.440698
_cell_angle_alpha 90.000000
_cell_angle_beta 90.000000
_cell_angle_gamma 90.000000
_cell_volume 3018.732257
_symmetry_space_group_name_H-M "C C C 2"
_symmetry_group_IT_number 37
_symmetry_cell_setting 'orthorhombic'
loop_
_space_group_symop_operation_xyz
x,y,z
-x,-y,z
-x,y,1/2+z
x,-y,1/2+z
1/2+x,1/2+y,z
1/2-x,1/2-y,z
1/2-x,1/2+y,1/2+z
1/2+x,1/2-y,1/2+z
loop_
_atom_site_type_symbol
_atom_site_label
_atom_site_fract_x
_atom_site_fract_y
_atom_site_fract_z
Si Si1 0.135857 0.463999 0.646890
Si Si2 0.438671 0.832083 0.417601
Si Si3 0.721569 0.962042 0.967803
Si Si4 0.546200 0.883759 0.236918
Si Si5 0.910364 0.058207 0.602865
Si Si6 0.855411 0.786988 0.760512
Si Si7 0.811442 0.964699 0.768098
Si Si8 0.514544 0.740688 0.114194
O O1 0.147514 0.479192 0.528521
O O2 0.046469 0.405063 0.666155
O O3 0.234076 0.426382 0.689890
O O4 0.127289 0.549730 0.710086
O O5 0.339253 0.879457 0.444893
O O6 0.515330 0.888181 0.353640
O O7 0.414091 0.758265 0.345508
O O8 0.490020 0.793536 0.513291
O O9 0.758563 0.003235 0.865155
O O10 0.816943 0.947742 0.033186
O O11 0.575876 0.793256 0.197223
O O12 0.935983 0.153263 0.600426
O O13 0.881125 0.030973 0.715402
O O14 0.000000 0.000000 0.566362
O O15 0.750000 0.750000 0.751993
O O16 0.867100 0.881376 0.796851
O O17 0.905646 0.774377 0.653172
#
# Coordination Sequence:
#
# PCOD8176738 Si02
#       8
#     8   8   8   8   8   8   8   8
#     4  10  21  39  63  97 133 165 208 272 330 387
#     4  11  22  40  69 100 121 176 225 269 321 403
#     4  11  22  41  69  96 127 170 227 262 327 404
#     4  10  21  40  65  95 133 168 210 266 335 387
#     4  11  25  43  63  95 132 173 215 278 325 384
#     4  11  21  39  68  91 127 171 222 271 320 391
#     4  11  21  41  60  94 128 171 218 266 323 382
#     4  11  23  41  63  96 131 166 222 273 325 383
#
# _framework density 21.200952999999998
#
# number of rings (size 3 to 8) (size 9 to 14) (size 15 to 20)
#    0.000    1.250    5.000    1.500    0.000    1.500 
#    4.500    0.000    0.000    0.000    0.000    0.000 
#    0.000    0.000    0.000    0.000    0.000    0.000 
#
# Total GULP energy -396551.913319 kJ/mol
# GULP energy per Si atom -12392.247291 kJ/mol
# Density = 2.115270 g / cm^3
# Si number density = 21.200953 Si / 1000 Ang^3
#
#
#
# Elastic Constant Matrix: (Units=GPa)
#
#
# Indices 1 2 3 4 5 6 
#
# 1 31.9819 -14.4284 26.7912 0.0000 0.0000 0.0000
# 2 -14.4284 61.5642 19.3170 0.0000 0.0000 0.0000
# 3 26.7912 19.3170 137.4558 0.0000 0.0000 0.0000
# 4 0.0000 0.0000 0.0000 29.6870 0.0000 0.0000
# 5 0.0000 0.0000 0.0000 0.0000 43.3684 0.0000
# 6 0.0000 0.0000 0.0000 0.0000 0.0000 13.2907
#
#
#
# Elastic Compliance Matrix: (Units=1/GPa)
#
#
# Indices 1 2 3 4 5 6 
#
# 1 0.047314 0.014627 -0.011277 0.000000 0.000000 0.000000
# 2 0.014627 0.021514 -0.005874 0.000000 0.000000 0.000000
# 3 -0.011277 -0.005874 0.010299 0.000000 0.000000 0.000000
# 4 0.000000 0.000000 0.000000 0.033685 0.000000 0.000000
# 5 0.000000 0.000000 0.000000 0.000000 0.023058 0.000000
# 6 0.000000 0.000000 0.000000 0.000000 0.000000 0.075241
#
#
# Mechanical properties :
#
#
# Convention : Reuss Voigt Hill
#
# Bulk Modulus (GPa) = 13.49941 32.70683 23.10312
# Shear Modulus (GPa) = 20.75960 30.55734 25.65847
#
# Velocity S-wave (km/s) = 3.13258 3.80059 3.48264
# Velocity P-wave (km/s) = 4.41195 5.89236 5.20505
#
# Compressibility (1/GPa) = 0.07407733
#
# Stress axis : x y z
#
# Youngs Moduli (GPa) = 21.13555 46.48037 97.10002
#
# Poissons Ratio (x) = -0.67987 1.09503
# Poissons Ratio (y) = -0.30915 0.57040
# Poissons Ratio (z) = 0.23835 0.27304
#
# Static dielectric constant tensor:
#      x y z
#    x 3.868710 0.000000 0.000000 
#    y 0.000000 3.951520 0.000000 
#    z 0.000000 0.000000 4.099800 
# 
# 
# High freq. dielectric constant tensor:
#      x y z
#    x 1.821110 0.000000 0.000000 
#    y 0.000000 1.829380 0.000000 
#    z 0.000000 0.000000 1.835990 
# 
# From -- ./inp_files/7985.got.cif
#   From: 2010.03.12/outbox.cif.g09.slc.cpg/sg37_4_cif.got.tgz:7985.got - 2010.04.14 02:25:27.
