data_PCOD8176790
_publ_section_title
;
Structure prediction by ZEFSAII (Michael W. Deem and Ramdas Pophale) SiO2 
 PCOD8176790
Probable space group: C C C 2
;
_chemical_formula_sum "Si O2"
_cell_formula_units_Z 52
_cell_length_a 11.448810
_cell_length_b 24.505507
_cell_length_c 8.681449
_cell_angle_alpha 90.000000
_cell_angle_beta 90.000000
_cell_angle_gamma 90.000000
_cell_volume 2435.657726
_symmetry_space_group_name_H-M "C C C 2"
_symmetry_group_IT_number 37
_symmetry_cell_setting 'orthorhombic'
loop_
_space_group_symop_operation_xyz
x,y,z
-x,-y,z
-x,y,1/2+z
x,-y,1/2+z
1/2+x,1/2+y,z
1/2-x,1/2-y,z
1/2-x,1/2+y,1/2+z
1/2+x,1/2-y,1/2+z
loop_
_atom_site_type_symbol
_atom_site_label
_atom_site_fract_x
_atom_site_fract_y
_atom_site_fract_z
Si Si1 0.000000 0.500000 0.573220
Si Si2 0.838368 0.679889 0.387343
Si Si3 0.593037 0.230313 0.409053
Si Si4 0.132870 0.555297 0.818216
Si Si5 0.290738 0.678161 0.580407
Si Si6 0.136383 0.942950 0.649199
Si Si7 0.500000 0.500000 0.893031
Si Si8 0.250000 0.250000 0.640672
O O1 0.033649 0.550574 0.685189
O O2 0.108088 0.483047 0.464711
O O3 0.861945 0.615973 0.382318
O O4 0.763261 0.697840 0.241298
O O5 0.760172 0.695799 0.534819
O O6 0.961029 0.711302 0.397596
O O7 0.607661 0.279479 0.532426
O O8 0.682347 0.181019 0.457813
O O9 0.633016 0.253571 0.243372
O O10 0.248528 0.534514 0.732898
O O11 0.347977 0.618892 0.593106
O O12 0.106190 0.979290 0.500152
O O13 0.037719 0.949508 0.782278
#
# Coordination Sequence:
#
# PCOD8176790 Si02
#       8
#     4   8   8   8   8   8   4   4
#     4  10  22  42  60 106 122 166 206 250 326 378
#     4  11  22  40  67  90 127 173 203 258 324 371
#     4  10  22  42  62  92 126 166 207 268 310 379
#     4  10  23  39  68  92 133 160 208 262 312 385
#     4   9  21  42  61  91 129 160 212 259 312 377
#     4  10  21  43  63  94 123 169 210 263 316 372
#     4  10  22  42  68  88 130 170 214 264 318 370
#     4  10  22  38  58  96 118 156 218 246 304 384
#
# _framework density 21.349471000000001
#
# number of rings (size 3 to 8) (size 9 to 14) (size 15 to 20)
#    0.000    2.154    0.000    2.769    6.462    0.000 
#   16.615    6.154    0.000    0.000    0.000    0.000 
#    0.000    0.000    0.000    0.000    0.000    0.000 
#
# Total GULP energy -322194.798212 kJ/mol
# GULP energy per Si atom -12392.107624 kJ/mol
# Density = 2.130088 g / cm^3
# Si number density = 21.349471 Si / 1000 Ang^3
#
#
#
# Elastic Constant Matrix: (Units=GPa)
#
#
# Indices 1 2 3 4 5 6 
#
# 1 82.0518 46.5875 48.6622 0.0000 0.0000 0.0000
# 2 46.5875 137.3350 71.7599 0.0000 0.0000 0.0000
# 3 48.6622 71.7599 149.2923 0.0000 0.0000 0.0000
# 4 0.0000 0.0000 0.0000 24.0664 0.0000 0.0000
# 5 0.0000 0.0000 0.0000 0.0000 27.8722 0.0000
# 6 0.0000 0.0000 0.0000 0.0000 0.0000 36.6797
#
#
#
# Elastic Compliance Matrix: (Units=1/GPa)
#
#
# Indices 1 2 3 4 5 6 
#
# 1 0.016405 -0.003700 -0.003569 0.000000 0.000000 0.000000
# 2 -0.003700 0.010558 -0.003869 0.000000 0.000000 0.000000
# 3 -0.003569 -0.003869 0.009721 0.000000 0.000000 0.000000
# 4 0.000000 0.000000 0.000000 0.041552 0.000000 0.000000
# 5 0.000000 0.000000 0.000000 0.000000 0.035878 0.000000
# 6 0.000000 0.000000 0.000000 0.000000 0.000000 0.027263
#
#
# Mechanical properties :
#
#
# Convention : Reuss Voigt Hill
#
# Bulk Modulus (GPa) = 69.40275 78.07759 73.74017
# Shear Modulus (GPa) = 29.68145 31.16828 30.42486
#
# Velocity S-wave (km/s) = 3.73267 3.82502 3.77913
# Velocity P-wave (km/s) = 7.15232 7.49388 7.32509
#
# Compressibility (1/GPa) = 0.01440865
#
# Stress axis : x y z
#
# Youngs Moduli (GPa) = 60.95780 94.71263 102.86896
#
# Poissons Ratio (x) = 0.35046 0.36710
# Poissons Ratio (y) = 0.22556 0.39799
# Poissons Ratio (z) = 0.21753 0.36643
#
# Static dielectric constant tensor:
#      x y z
#    x 3.831640 0.000000 0.000000 
#    y 0.000000 3.614600 0.000000 
#    z 0.000000 0.000000 4.230580 
# 
# 
# High freq. dielectric constant tensor:
#      x y z
#    x 1.831560 0.000000 0.000000 
#    y 0.000000 1.818060 0.000000 
#    z 0.000000 0.000000 1.861660 
# 
# From -- ./inp_files/3025.got.cif
#   From: 2010.03.12/outbox.cif.g09.slc.cpg/sg37_2_cif.got.tgz:3025.got - 2010.04.14 02:25:27.
