data_PCOD8176391
_publ_section_title
;
Structure prediction by ZEFSAII (Michael W. Deem and Ramdas Pophale) SiO2 
 PCOD8176391
Probable space group: C C C 2
;
_chemical_formula_sum "Si O2"
_cell_formula_units_Z 56
_cell_length_a 23.957256
_cell_length_b 27.534192
_cell_length_c 5.207454
_cell_angle_alpha 90.000000
_cell_angle_beta 90.000000
_cell_angle_gamma 90.000000
_cell_volume 3435.064154
_symmetry_space_group_name_H-M "C C C 2"
_symmetry_group_IT_number 37
_symmetry_cell_setting 'orthorhombic'
loop_
_space_group_symop_operation_xyz
x,y,z
-x,-y,z
-x,y,1/2+z
x,-y,1/2+z
1/2+x,1/2+y,z
1/2-x,1/2-y,z
1/2-x,1/2+y,1/2+z
1/2+x,1/2-y,1/2+z
loop_
_atom_site_type_symbol
_atom_site_label
_atom_site_fract_x
_atom_site_fract_y
_atom_site_fract_z
Si Si1 0.763645 0.171241 0.612320
Si Si2 0.788796 0.517934 0.756220
Si Si3 0.411808 0.978283 0.884648
Si Si4 0.340985 0.757432 0.610544
Si Si5 0.223723 0.627129 0.117800
Si Si6 0.464479 0.883699 0.056447
Si Si7 0.619511 0.198382 0.106949
O O1 0.712192 0.207896 0.609815
O O2 0.821163 0.201559 0.611011
O O3 0.764059 0.139822 0.354201
O O4 0.758885 0.135535 0.857273
O O5 0.757031 0.486591 0.532037
O O6 0.847299 0.493254 0.850560
O O7 0.796111 0.572173 0.653944
O O8 0.416901 0.923136 0.984547
O O9 0.440663 0.987751 0.607351
O O10 0.380663 0.769966 0.368180
O O11 0.375234 0.764739 0.871080
O O12 0.169309 0.660083 0.118656
O O13 0.512393 0.890511 0.843659
O O14 0.437769 0.830327 0.057915
#
# Coordination Sequence:
#
# PCOD8176391 Si02
#       7
#     8   8   8   8   8   8   8
#     4   9  17  28  44  69  89 103 126 161 216 274
#     4  10  19  30  44  60  80 109 146 180 214 260
#     4  10  21  35  48  59  77 104 146 194 239 283
#     4   9  17  29  47  66  86 105 126 160 211 287
#     4  10  18  29  46  64  86 110 135 175 222 271
#     4  12  25  37  48  63  83 110 152 204 248 279
#     4  10  19  32  47  62  81 109 137 170 228 283
#
# _framework density 16.302461000000001
#
# number of rings (size 3 to 8) (size 9 to 14) (size 15 to 20)
#    0.000    2.000    0.000    5.143    0.000   12.000 
#    0.000    0.000    0.000    0.000    0.000    0.000 
#    0.000    0.000    0.000    0.000    0.000    0.000 
#
# Total GULP energy -346923.667822 kJ/mol
# GULP energy per Si atom -12390.130994 kJ/mol
# Density = 1.626536 g / cm^3
# Si number density = 16.302461 Si / 1000 Ang^3
#
#
#
# Elastic Constant Matrix: (Units=GPa)
#
#
# Indices 1 2 3 4 5 6 
#
# 1 21.8589 29.7831 18.8026 0.0000 0.0000 0.0000
# 2 29.7831 67.7562 37.0728 0.0000 0.0000 0.0000
# 3 18.8026 37.0728 158.8124 0.0000 0.0000 0.0000
# 4 0.0000 0.0000 0.0000 30.3530 0.0000 0.0000
# 5 0.0000 0.0000 0.0000 0.0000 11.8115 0.0000
# 6 0.0000 0.0000 0.0000 0.0000 0.0000 27.2411
#
#
#
# Elastic Compliance Matrix: (Units=1/GPa)
#
#
# Indices 1 2 3 4 5 6 
#
# 1 0.114652 -0.049261 -0.002075 0.000000 0.000000 0.000000
# 2 -0.049261 0.038086 -0.003058 0.000000 0.000000 0.000000
# 3 -0.002075 -0.003058 0.007256 0.000000 0.000000 0.000000
# 4 0.000000 0.000000 0.000000 0.032946 0.000000 0.000000
# 5 0.000000 0.000000 0.000000 0.000000 0.084663 0.000000
# 6 0.000000 0.000000 0.000000 0.000000 0.000000 0.036709
#
#
# Mechanical properties :
#
#
# Convention : Reuss Voigt Hill
#
# Bulk Modulus (GPa) = 19.52944 46.63826 33.08385
# Shear Modulus (GPa) = 11.35928 24.73240 18.04584
#
# Velocity S-wave (km/s) = 2.64253 3.89922 3.33068
# Velocity P-wave (km/s) = 4.61693 6.99586 5.92698
#
# Compressibility (1/GPa) = 0.05120475
#
# Stress axis : x y z
#
# Youngs Moduli (GPa) = 8.72208 26.25665 137.81127
#
# Poissons Ratio (x) = 1.29344 0.28592
# Poissons Ratio (y) = 0.42966 0.42147
# Poissons Ratio (z) = 0.01810 0.08030
#
# Static dielectric constant tensor:
#      x y z
#    x 2.607580 0.000000 0.000000 
#    y 0.000000 3.030460 0.000000 
#    z 0.000000 0.000000 4.140220 
# 
# 
# High freq. dielectric constant tensor:
#      x y z
#    x 1.548640 0.000000 0.000000 
#    y 0.000000 1.607420 0.000000 
#    z 0.000000 0.000000 1.668130 
# 
# From -- ./inp_files/1251.got.cif
#   From: 2010.03.12/outbox.cif.g09.slc.cpg/sg37_1_cif.got.tgz:1251.got - 2010.04.14 02:25:27.
