data_PCOD8176017
_publ_section_title
;
Structure prediction by ZEFSAII (Michael W. Deem and Ramdas Pophale) SiO2 
 PCOD8176017
Probable space group: C M C 21
;
_chemical_formula_sum "Si O2"
_cell_formula_units_Z 64
_cell_length_a 15.051872
_cell_length_b 18.440441
_cell_length_c 11.175038
_cell_angle_alpha 90.000000
_cell_angle_beta 90.000000
_cell_angle_gamma 90.000000
_cell_volume 3101.778833
_symmetry_space_group_name_H-M "C M C 21"
_symmetry_group_IT_number 36
_symmetry_cell_setting 'orthorhombic'
loop_
_space_group_symop_operation_xyz
x,y,z
-x,-y,1/2+z
x,-y,1/2+z
-x,y,z
1/2+x,1/2+y,z
1/2-x,1/2-y,1/2+z
1/2+x,1/2-y,1/2+z
1/2-x,1/2+y,z
loop_
_atom_site_type_symbol
_atom_site_label
_atom_site_fract_x
_atom_site_fract_y
_atom_site_fract_z
Si Si1 0.838811 0.804235 0.775140
Si Si2 0.804322 0.583069 0.313302
Si Si3 0.245596 0.668031 0.675931
Si Si4 0.756685 0.427107 0.399390
Si Si5 0.600347 0.657143 0.020426
Si Si6 0.101574 0.318197 0.989134
Si Si7 0.101614 0.383827 0.577763
Si Si8 0.096949 0.780107 0.031217
O O1 0.787922 0.875489 0.814421
O O2 0.764830 0.744836 0.741308
O O3 0.899571 0.826026 0.662383
O O4 0.895069 0.774343 0.887143
O O5 0.775281 0.511808 0.384780
O O6 0.881071 0.629331 0.378151
O O7 0.844707 0.572035 0.180398
O O8 0.261114 0.603952 0.768412
O O9 0.157338 0.651845 0.600623
O O10 0.329251 0.667627 0.586606
O O11 0.671214 0.404901 0.482017
O O12 0.847682 0.396489 0.453440
O O13 0.500000 0.632441 0.985364
O O14 0.626054 0.734026 0.956602
O O15 0.000000 0.322732 0.028354
O O16 0.104585 0.297616 0.596304
O O17 0.000000 0.412145 0.569717
O O18 0.000000 0.812938 0.060083
#
# Coordination Sequence:
#
# PCOD8176017 Si02
#       8
#     8   8   8   8   8   8   8   8
#     4  11  20  41  69  92 125 169 219 278 326 389
#     4  12  24  40  66  90 130 176 221 258 333 390
#     4  11  22  39  64  94 131 169 212 271 331 392
#     4  12  26  42  64  94 135 181 212 265 330 401
#     4  10  22  43  71  97 127 168 220 277 332 388
#     4  10  22  40  68  99 126 165 221 275 325 390
#     4  11  24  42  63  95 133 173 218 273 332 391
#     4  11  22  39  69 101 127 165 221 283 335 387
#
# _framework density 20.633322
#
# number of rings (size 3 to 8) (size 9 to 14) (size 15 to 20)
#    0.000    1.000    5.000    2.250    1.750    2.500 
#    0.000    1.250    0.000    0.000    0.000    0.000 
#    0.000    0.000    0.000    0.000    0.000    0.000 
#
# Total GULP energy -396731.801277 kJ/mol
# GULP energy per Si atom -12397.868790 kJ/mol
# Density = 2.058636 g / cm^3
# Si number density = 20.633322 Si / 1000 Ang^3
#
#
#
# Elastic Constant Matrix: (Units=GPa)
#
#
# Indices 1 2 3 4 5 6 
#
# 1 129.2439 46.4240 42.5052 0.0000 0.0000 0.0000
# 2 46.4240 72.1416 29.7748 0.0000 0.0000 0.0000
# 3 42.5052 29.7748 90.7165 0.0000 0.0000 0.0000
# 4 0.0000 0.0000 0.0000 25.3606 0.0000 0.0000
# 5 0.0000 0.0000 0.0000 0.0000 20.3782 0.0000
# 6 0.0000 0.0000 0.0000 0.0000 0.0000 20.3142
#
#
#
# Elastic Compliance Matrix: (Units=1/GPa)
#
#
# Indices 1 2 3 4 5 6 
#
# 1 0.010820 -0.005634 -0.003221 0.000000 0.000000 0.000000
# 2 -0.005634 0.018967 -0.003586 0.000000 0.000000 0.000000
# 3 -0.003221 -0.003586 0.013709 0.000000 0.000000 0.000000
# 4 0.000000 0.000000 0.000000 0.039431 0.000000 0.000000
# 5 0.000000 0.000000 0.000000 0.000000 0.049072 0.000000
# 6 0.000000 0.000000 0.000000 0.000000 0.000000 0.049227
#
#
# Mechanical properties :
#
#
# Convention : Reuss Voigt Hill
#
# Bulk Modulus (GPa) = 53.71630 58.83445 56.27537
# Shear Modulus (GPa) = 23.55031 24.77047 24.16039
#
# Velocity S-wave (km/s) = 3.38209 3.46859 3.42561
# Velocity P-wave (km/s) = 6.42975 6.67965 6.55589
#
# Compressibility (1/GPa) = 0.01861632
#
# Stress axis : x y z
#
# Youngs Moduli (GPa) = 92.42072 52.72370 72.94328
#
# Poissons Ratio (x) = 0.29702 0.23493
# Poissons Ratio (y) = 0.52066 0.26155
# Poissons Ratio (z) = 0.29766 0.18905
#
# Static dielectric constant tensor:
#      x y z
#    x 3.763060 0.000000 0.000000 
#    y 0.000000 3.517480 0.000000 
#    z 0.000000 0.000000 3.850980 
# 
# 
# High freq. dielectric constant tensor:
#      x y z
#    x 1.813360 0.000000 0.000000 
#    y 0.000000 1.776460 0.000000 
#    z 0.000000 0.000000 1.814940 
# 
# From -- ./inp_files/8625.got.cif
#   From: 2010.03.12/outbox.cif.g09.slc.cpg/sg36_5_cif.got.tgz:8625.got - 2010.04.14 02:13:53.
