data_PCOD8176008
_publ_section_title
;
Structure prediction by ZEFSAII (Michael W. Deem and Ramdas Pophale) SiO2 
 PCOD8176008
Probable space group: C M C 21
;
_chemical_formula_sum "Si O2"
_cell_formula_units_Z 64
_cell_length_a 8.795922
_cell_length_b 19.620353
_cell_length_c 18.568677
_cell_angle_alpha 90.000000
_cell_angle_beta 90.000000
_cell_angle_gamma 90.000000
_cell_volume 3204.565465
_symmetry_space_group_name_H-M "C M C 21"
_symmetry_group_IT_number 36
_symmetry_cell_setting 'orthorhombic'
loop_
_space_group_symop_operation_xyz
x,y,z
-x,-y,1/2+z
x,-y,1/2+z
-x,y,z
1/2+x,1/2+y,z
1/2-x,1/2-y,1/2+z
1/2+x,1/2-y,1/2+z
1/2-x,1/2+y,z
loop_
_atom_site_type_symbol
_atom_site_label
_atom_site_fract_x
_atom_site_fract_y
_atom_site_fract_z
Si Si1 0.178495 0.082378 0.383810
Si Si2 0.320433 0.811924 0.992963
Si Si3 0.176842 0.623988 0.236969
Si Si4 0.175565 0.222391 0.758669
Si Si5 0.179680 0.626735 0.643810
Si Si6 0.321442 0.044599 0.951534
Si Si7 0.179978 0.523744 0.113047
Si Si8 0.677270 0.802412 0.409378
O O1 0.269687 0.131644 0.436329
O O2 0.220238 0.098760 0.302131
O O3 0.000000 0.092333 0.395587
O O4 0.227642 0.005365 0.400338
O O5 0.500000 0.804151 0.987739
O O6 0.242323 0.739744 0.976818
O O7 0.267303 0.834246 0.072143
O O8 0.202088 0.704091 0.221861
O O9 0.233991 0.583511 0.166428
O O10 0.000000 0.608598 0.254242
O O11 0.252855 0.163158 0.713147
O O12 0.245001 0.225260 0.837761
O O13 0.000000 0.204594 0.765494
O O14 0.241603 0.549242 0.640728
O O15 0.000000 0.627298 0.651482
O O16 0.500000 0.026944 0.947469
O O17 0.258458 0.038642 0.032986
O O18 0.286079 0.119095 0.921760
O O19 0.000000 0.521784 0.109375
O O20 0.500000 0.788112 0.403093
#
# Coordination Sequence:
#
# PCOD8176008 Si02
#       8
#     8   8   8   8   8   8   8   8
#     4  12  24  39  63  92 123 159 204 257 304 364
#     4  11  22  41  66  90 122 163 204 253 313 368
#     4  10  22  40  64  88 119 166 208 249 303 368
#     4  11  24  40  61  89 128 166 204 255 308 365
#     4  10  22  40  64  89 120 160 205 256 308 371
#     4  10  22  42  66  90 121 161 205 254 307 369
#     4   9  19  40  65  88 115 156 209 251 299 367
#     4  11  24  40  65  94 124 163 211 259 306 366
#
# _framework density 19.971506999999999
#
# number of rings (size 3 to 8) (size 9 to 14) (size 15 to 20)
#    0.000    1.500    2.500    2.250    3.500    2.500 
#    0.000    0.625    0.000    0.000    0.000    0.000 
#    0.000    0.000    0.000    0.000    0.000    0.000 
#
# Total GULP energy -396949.704923 kJ/mol
# GULP energy per Si atom -12404.678279 kJ/mol
# Density = 1.992605 g / cm^3
# Si number density = 19.971507 Si / 1000 Ang^3
#
#
#
# Elastic Constant Matrix: (Units=GPa)
#
#
# Indices 1 2 3 4 5 6 
#
# 1 323.7169 99.1795 -26.2508 0.0000 0.0000 0.0000
# 2 99.1795 110.8649 15.7651 0.0000 0.0000 0.0000
# 3 -26.2508 15.7651 71.9221 0.0000 0.0000 0.0000
# 4 0.0000 0.0000 0.0000 45.6299 0.0000 0.0000
# 5 0.0000 0.0000 0.0000 0.0000 25.0876 0.0000
# 6 0.0000 0.0000 0.0000 0.0000 0.0000 24.9088
#
#
#
# Elastic Compliance Matrix: (Units=1/GPa)
#
#
# Indices 1 2 3 4 5 6 
#
# 1 0.004725 -0.004617 0.002737 0.000000 0.000000 0.000000
# 2 -0.004617 0.013820 -0.004714 0.000000 0.000000 0.000000
# 3 0.002737 -0.004714 0.015936 0.000000 0.000000 0.000000
# 4 0.000000 0.000000 0.000000 0.021915 0.000000 0.000000
# 5 0.000000 0.000000 0.000000 0.000000 0.039860 0.000000
# 6 0.000000 0.000000 0.000000 0.000000 0.000000 0.040146
#
#
# Mechanical properties :
#
#
# Convention : Reuss Voigt Hill
#
# Bulk Modulus (GPa) = 46.96275 75.98794 61.47534
# Shear Modulus (GPa) = 31.91008 46.97928 39.44468
#
# Velocity S-wave (km/s) = 4.00156 4.85533 4.44897
# Velocity P-wave (km/s) = 6.70193 8.34045 7.56568
#
# Compressibility (1/GPa) = 0.02129347
#
# Stress axis : x y z
#
# Youngs Moduli (GPa) = 211.62065 72.35731 62.75045
#
# Poissons Ratio (x) = 0.33404 -0.17173
# Poissons Ratio (y) = 0.97695 0.29583
# Poissons Ratio (z) = -0.57913 0.34112
#
# Static dielectric constant tensor:
#      x y z
#    x 3.469350 0.000000 0.000000 
#    y 0.000000 3.822520 0.000000 
#    z 0.000000 0.000000 3.759320 
# 
# 
# High freq. dielectric constant tensor:
#      x y z
#    x 1.764410 0.000000 0.000000 
#    y 0.000000 1.795490 0.000000 
#    z 0.000000 0.000000 1.784680 
# 
# From -- ./inp_files/13806.got.cif
#   From: 2010.03.12/outbox.cif.g09.slc.cpg/sg36_7_cif.got.tgz:13806.got - 2010.04.14 02:13:53.
