data_PCOD8176556
_publ_section_title
;
Structure prediction by ZEFSAII (Michael W. Deem and Ramdas Pophale) SiO2 
 PCOD8176556
Probable space group: C C C 2
;
_chemical_formula_sum "Si O2"
_cell_formula_units_Z 64
_cell_length_a 23.808794
_cell_length_b 13.987029
_cell_length_c 9.586102
_cell_angle_alpha 90.000000
_cell_angle_beta 90.000000
_cell_angle_gamma 90.000000
_cell_volume 3192.308972
_symmetry_space_group_name_H-M "C C C 2"
_symmetry_group_IT_number 37
_symmetry_cell_setting 'orthorhombic'
loop_
_space_group_symop_operation_xyz
x,y,z
-x,-y,z
-x,y,1/2+z
x,-y,1/2+z
1/2+x,1/2+y,z
1/2-x,1/2-y,z
1/2-x,1/2+y,1/2+z
1/2+x,1/2-y,1/2+z
loop_
_atom_site_type_symbol
_atom_site_label
_atom_site_fract_x
_atom_site_fract_y
_atom_site_fract_z
Si Si1 0.879422 0.706249 0.596090
Si Si2 0.722375 0.089269 0.039133
Si Si3 0.938901 0.393037 0.854569
Si Si4 0.722265 0.092570 0.715591
Si Si5 0.069061 0.613794 0.360079
Si Si6 0.379963 0.796863 0.619209
Si Si7 0.647170 0.595932 0.213665
Si Si8 0.147396 0.089301 0.539937
O O1 0.813676 0.677219 0.600529
O O2 0.900983 0.676469 0.445037
O O3 0.917624 0.650734 0.705949
O O4 0.885348 0.820769 0.607064
O O5 0.787266 0.111210 0.063854
O O6 0.702866 0.997230 0.124848
O O7 0.710069 0.070317 0.876798
O O8 0.918066 0.501604 0.875909
O O9 0.926090 0.362664 0.696269
O O10 0.003382 0.373906 0.890600
O O11 0.683938 0.180001 0.664100
O O12 0.787115 0.117701 0.690450
O O13 0.108162 0.679699 0.457880
O O14 0.388439 0.684749 0.653085
O O15 0.633609 0.577011 0.376095
O O16 0.628156 0.504190 0.124010
#
# Coordination Sequence:
#
# PCOD8176556 Si02
#       8
#     8   8   8   8   8   8   8   8
#     4  12  22  38  63  89 119 161 196 240 298 356
#     4  10  20  35  58  89 123 158 194 237 292 356
#     4  11  22  44  62  87 121 155 192 248 302 355
#     4  10  20  35  58  89 123 158 194 237 292 356
#     4  11  26  38  62  93 121 149 198 246 300 359
#     4  12  22  38  63  89 119 161 196 240 298 356
#     4  10  22  40  61  88 122 160 200 243 289 345
#     4  10  22  40  61  88 122 160 200 243 289 345
#
# _framework density 20.048185
#
# number of rings (size 3 to 8) (size 9 to 14) (size 15 to 20)
#    0.000    1.250    2.500    3.750    3.500    4.000 
#    0.000    1.250    0.000    4.500    0.000    0.000 
#    0.000    0.000    0.000    0.000    0.000    0.000 
#
# Total GULP energy -396858.169892 kJ/mol
# GULP energy per Si atom -12401.817809 kJ/mol
# Density = 2.000255 g / cm^3
# Si number density = 20.048185 Si / 1000 Ang^3
#
#
#
# Elastic Constant Matrix: (Units=GPa)
#
#
# Indices 1 2 3 4 5 6 
#
# 1 45.3359 34.3401 15.4136 0.0000 0.0000 0.0000
# 2 34.3401 149.2929 43.6569 0.0000 0.0000 0.0000
# 3 15.4136 43.6569 76.8529 0.0000 0.0000 0.0000
# 4 0.0000 0.0000 0.0000 33.6062 0.0000 0.0000
# 5 0.0000 0.0000 0.0000 0.0000 17.6453 0.0000
# 6 0.0000 0.0000 0.0000 0.0000 0.0000 21.6159
#
#
#
# Elastic Compliance Matrix: (Units=1/GPa)
#
#
# Indices 1 2 3 4 5 6 
#
# 1 0.027037 -0.005556 -0.002266 0.000000 0.000000 0.000000
# 2 -0.005556 0.009174 -0.004097 0.000000 0.000000 0.000000
# 3 -0.002266 -0.004097 0.015794 0.000000 0.000000 0.000000
# 4 0.000000 0.000000 0.000000 0.029756 0.000000 0.000000
# 5 0.000000 0.000000 0.000000 0.000000 0.056672 0.000000
# 6 0.000000 0.000000 0.000000 0.000000 0.000000 0.046262
#
#
# Mechanical properties :
#
#
# Convention : Reuss Voigt Hill
#
# Bulk Modulus (GPa) = 35.50432 50.92254 43.21343
# Shear Modulus (GPa) = 22.94380 26.44488 24.69434
#
# Velocity S-wave (km/s) = 3.38662 3.63584 3.51344
# Velocity P-wave (km/s) = 5.74806 6.56361 6.16932
#
# Compressibility (1/GPa) = 0.02816559
#
# Stress axis : x y z
#
# Youngs Moduli (GPa) = 36.98679 108.99870 63.31574
#
# Poissons Ratio (x) = 0.60562 0.14349
# Poissons Ratio (y) = 0.20551 0.25942
# Poissons Ratio (z) = 0.08382 0.44659
#
# Static dielectric constant tensor:
#      x y z
#    x 3.403410 0.000000 0.000000 
#    y 0.000000 3.725990 0.000000 
#    z 0.000000 0.000000 3.628550 
# 
# 
# High freq. dielectric constant tensor:
#      x y z
#    x 1.764500 0.000000 0.000000 
#    y 0.000000 1.782340 0.000000 
#    z 0.000000 0.000000 1.788740 
# 
# From -- ./inp_files/4660.got.cif
#   From: 2010.03.12/outbox.cif.g09.slc.cpg/sg37_3_cif.got.tgz:4660.got - 2010.04.14 02:25:27.
