data_PCOD8176927
_publ_section_title
;
Structure prediction by ZEFSAII (Michael W. Deem and Ramdas Pophale) SiO2 
 PCOD8176927
Probable space group: C C C 2
;
_chemical_formula_sum "Si O2"
_cell_formula_units_Z 36
_cell_length_a 12.921336
_cell_length_b 13.238124
_cell_length_c 9.380635
_cell_angle_alpha 90.000000
_cell_angle_beta 90.000000
_cell_angle_gamma 90.000000
_cell_volume 1604.597468
_symmetry_space_group_name_H-M "C C C 2"
_symmetry_group_IT_number 37
_symmetry_cell_setting 'orthorhombic'
loop_
_space_group_symop_operation_xyz
x,y,z
-x,-y,z
-x,y,1/2+z
x,-y,1/2+z
1/2+x,1/2+y,z
1/2-x,1/2-y,z
1/2-x,1/2+y,1/2+z
1/2+x,1/2-y,1/2+z
loop_
_atom_site_type_symbol
_atom_site_label
_atom_site_fract_x
_atom_site_fract_y
_atom_site_fract_z
Si Si1 0.024799 0.218293 0.847300
Si Si2 0.086013 0.422149 0.332793
Si Si3 0.296029 0.064773 0.622792
Si Si4 0.432787 0.408810 0.577516
Si Si5 0.750000 0.750000 0.822901
O O1 0.974639 0.320924 0.783409
O O2 0.029795 0.132398 0.728540
O O3 0.144420 0.226033 0.910856
O O4 0.944504 0.183345 0.967536
O O5 0.150877 0.404028 0.475182
O O6 0.152780 0.467137 0.200430
O O7 0.000000 0.500000 0.380609
O O8 0.179148 0.040087 0.582247
O O9 0.294493 0.161037 0.724793
O O10 0.500000 0.500000 0.520588
#
# Coordination Sequence:
#
# PCOD8176927 Si02
#       5
#     8   8   8   8   4
#     4  11  25  45  73 103 142 192 236 296 363 427
#     4  12  25  43  74 105 143 185 237 294 354 426
#     4  11  26  44  71 103 145 182 239 291 356 419
#     4  11  27  48  71 101 146 187 241 298 361 433
#     4  10  22  46  68 104 144 190 228 304 350 420
#
# _framework density 22.435534000000001
#
# number of rings (size 3 to 8) (size 9 to 14) (size 15 to 20)
#    0.000    0.889    2.222    4.000   12.444    0.000 
#    0.000    0.000    0.000    0.000    0.000    0.000 
#    0.000    0.000    0.000    0.000    0.000    0.000 
#
# Total GULP energy -223057.127389 kJ/mol
# GULP energy per Si atom -12392.062633 kJ/mol
# Density = 2.238447 g / cm^3
# Si number density = 22.435534 Si / 1000 Ang^3
#
#
#
# Elastic Constant Matrix: (Units=GPa)
#
#
# Indices 1 2 3 4 5 6 
#
# 1 149.7322 54.9271 51.9276 0.0000 0.0000 0.0000
# 2 54.9271 102.8515 6.8721 0.0000 0.0000 0.0000
# 3 51.9276 6.8721 59.1381 0.0000 0.0000 0.0000
# 4 0.0000 0.0000 0.0000 28.0821 0.0000 0.0000
# 5 0.0000 0.0000 0.0000 0.0000 32.2861 0.0000
# 6 0.0000 0.0000 0.0000 0.0000 0.0000 45.1875
#
#
#
# Elastic Compliance Matrix: (Units=1/GPa)
#
#
# Indices 1 2 3 4 5 6 
#
# 1 0.012390 -0.005936 -0.010189 0.000000 0.000000 0.000000
# 2 -0.005936 0.012643 0.003743 0.000000 0.000000 0.000000
# 3 -0.010189 0.003743 0.025422 0.000000 0.000000 0.000000
# 4 0.000000 0.000000 0.000000 0.035610 0.000000 0.000000
# 5 0.000000 0.000000 0.000000 0.000000 0.030973 0.000000
# 6 0.000000 0.000000 0.000000 0.000000 0.000000 0.022130
#
#
# Mechanical properties :
#
#
# Convention : Reuss Voigt Hill
#
# Bulk Modulus (GPa) = 38.92627 59.90839 49.41733
# Shear Modulus (GPa) = 28.98639 34.31079 31.64859
#
# Velocity S-wave (km/s) = 3.59832 3.91488 3.75993
# Velocity P-wave (km/s) = 5.88658 6.86989 6.39716
#
# Compressibility (1/GPa) = 0.02568959
#
# Stress axis : x y z
#
# Youngs Moduli (GPa) = 80.71167 79.09727 39.33657
#
# Poissons Ratio (x) = 0.46951 0.40081
# Poissons Ratio (y) = 0.47909 -0.14724
# Poissons Ratio (z) = 0.82240 -0.29606
#
# Static dielectric constant tensor:
#      x y z
#    x 4.668460 0.000000 0.000000 
#    y 0.000000 3.957530 0.000000 
#    z 0.000000 0.000000 3.749590 
# 
# 
# High freq. dielectric constant tensor:
#      x y z
#    x 1.905910 0.000000 0.000000 
#    y 0.000000 1.893140 0.000000 
#    z 0.000000 0.000000 1.864800 
# 
# From -- ./inp_files/3281.got.cif
#   From: 2010.03.12/outbox.cif.g09.slc.cpg/sg37_2_cif.got.tgz:3281.got - 2010.04.14 02:25:27.
