data_PCOD8176831
_publ_section_title
;
Structure prediction by ZEFSAII (Michael W. Deem and Ramdas Pophale) SiO2 
 PCOD8176831
Probable space group: C C C 2
;
_chemical_formula_sum "Si O2"
_cell_formula_units_Z 48
_cell_length_a 21.495175
_cell_length_b 10.749630
_cell_length_c 8.985754
_cell_angle_alpha 90.000000
_cell_angle_beta 90.000000
_cell_angle_gamma 90.000000
_cell_volume 2076.294848
_symmetry_space_group_name_H-M "C C C 2"
_symmetry_group_IT_number 37
_symmetry_cell_setting 'orthorhombic'
loop_
_space_group_symop_operation_xyz
x,y,z
-x,-y,z
-x,y,1/2+z
x,-y,1/2+z
1/2+x,1/2+y,z
1/2-x,1/2-y,z
1/2-x,1/2+y,1/2+z
1/2+x,1/2-y,1/2+z
loop_
_atom_site_type_symbol
_atom_site_label
_atom_site_fract_x
_atom_site_fract_y
_atom_site_fract_z
Si Si1 0.750000 0.750000 0.632290
Si Si2 0.250000 0.250000 0.124780
Si Si3 0.000000 0.500000 0.128530
Si Si4 0.500000 0.500000 0.628543
Si Si5 0.960547 0.164382 0.878544
Si Si6 0.663244 0.798945 0.378536
Si Si7 0.700964 0.088076 0.378533
Si Si8 0.435361 0.848271 0.378534
O O1 0.690307 0.731693 0.525129
O O2 0.740871 0.873590 0.733202
O O3 0.309694 0.268307 0.231941
O O4 0.259131 0.126411 0.023868
O O5 0.045873 0.581036 0.228437
O O6 0.045887 0.418999 0.028617
O O7 0.453598 0.581787 0.730622
O O8 0.546404 0.581784 0.526464
O O9 0.911208 0.278591 0.878539
O O10 0.030797 0.216066 0.878555
O O11 0.682082 0.943933 0.378533
O O12 0.638479 0.171725 0.378524
#
# Coordination Sequence:
#
# PCOD8176831 Si02
#       8
#     4   4   4   4   8   8   8   8
#     4  10  26  46  64 106 142 190 228 290 348 404
#     4  10  26  46  64 106 142 190 228 290 348 404
#     4  10  22  38  60 122 136 170 206 282 382 396
#     4  10  26  50  64 106 144 182 226 282 364 434
#     4  11  25  47  73 102 139 183 231 285 359 422
#     4  11  24  49  74  99 141 181 239 290 341 423
#     4  11  25  45  73 103 143 177 237 293 343 413
#     4  11  24  38  74 104 141 171 223 287 352 418
#
# _framework density 23.118105
#
# number of rings (size 3 to 8) (size 9 to 14) (size 15 to 20)
#    0.000    1.333    0.000    4.000   14.000    0.000 
#   12.000    0.000    0.000    0.000    0.000    0.000 
#    0.000    0.000    0.000    0.000    0.000    0.000 
#
# Total GULP energy -297612.399774 kJ/mol
# GULP energy per Si atom -12400.516657 kJ/mol
# Density = 2.306549 g / cm^3
# Si number density = 23.118105 Si / 1000 Ang^3
#
#
#
# Elastic Constant Matrix: (Units=GPa)
#
#
# Indices 1 2 3 4 5 6 
#
# 1 107.8699 57.2080 41.3041 0.0000 0.0000 0.0000
# 2 57.2080 138.1462 64.0438 0.0000 0.0000 0.0000
# 3 41.3041 64.0438 183.3978 0.0000 0.0000 0.0000
# 4 0.0000 0.0000 0.0000 26.0915 0.0000 0.0000
# 5 0.0000 0.0000 0.0000 0.0000 6.3993 0.0000
# 6 0.0000 0.0000 0.0000 0.0000 0.0000 41.6523
#
#
#
# Elastic Compliance Matrix: (Units=1/GPa)
#
#
# Indices 1 2 3 4 5 6 
#
# 1 0.012083 -0.004465 -0.001162 0.000000 0.000000 0.000000
# 2 -0.004465 0.010287 -0.002587 0.000000 0.000000 0.000000
# 3 -0.001162 -0.002587 0.006618 0.000000 0.000000 0.000000
# 4 0.000000 0.000000 0.000000 0.038327 0.000000 0.000000
# 5 0.000000 0.000000 0.000000 0.000000 0.156268 0.000000
# 6 0.000000 0.000000 0.000000 0.000000 0.000000 0.024008
#
#
# Mechanical properties :
#
#
# Convention : Reuss Voigt Hill
#
# Bulk Modulus (GPa) = 79.61663 83.83618 81.72641
# Shear Modulus (GPa) = 18.64240 32.61913 25.63077
#
# Velocity S-wave (km/s) = 2.84280 3.76037 3.33331
# Velocity P-wave (km/s) = 6.72972 7.42946 7.08823
#
# Compressibility (1/GPa) = 0.01256019
#
# Stress axis : x y z
#
# Youngs Moduli (GPa) = 82.75765 97.21062 151.11140
#
# Poissons Ratio (x) = 0.43406 0.17561
# Poissons Ratio (y) = 0.36953 0.39087
# Poissons Ratio (z) = 0.09617 0.25145
#
# Static dielectric constant tensor:
#      x y z
#    x 4.005200 0.000000 0.000000 
#    y 0.000000 3.980020 0.000000 
#    z 0.000000 0.000000 4.736550 
# 
# 
# High freq. dielectric constant tensor:
#      x y z
#    x 1.894110 0.000000 0.000000 
#    y 0.000000 1.900440 0.000000 
#    z 0.000000 0.000000 1.945580 
# 
# From -- ./inp_files/2959.got.cif
#   From: 2010.03.12/outbox.cif.g09.slc.cpg/sg37_2_cif.got.tgz:2959.got - 2010.04.14 02:25:27.
