data_PCOD8176952
_publ_section_title
;
Structure prediction by ZEFSAII (Michael W. Deem and Ramdas Pophale) SiO2 
 PCOD8176952
Probable space group: C C C 2
;
_chemical_formula_sum "Si O2"
_cell_formula_units_Z 64
_cell_length_a 12.154626
_cell_length_b 21.360905
_cell_length_c 10.630271
_cell_angle_alpha 90.000000
_cell_angle_beta 90.000000
_cell_angle_gamma 90.000000
_cell_volume 2759.977775
_symmetry_space_group_name_H-M "C C C 2"
_symmetry_group_IT_number 37
_symmetry_cell_setting 'orthorhombic'
loop_
_space_group_symop_operation_xyz
x,y,z
-x,-y,z
-x,y,1/2+z
x,-y,1/2+z
1/2+x,1/2+y,z
1/2-x,1/2-y,z
1/2-x,1/2+y,1/2+z
1/2+x,1/2-y,1/2+z
loop_
_atom_site_type_symbol
_atom_site_label
_atom_site_fract_x
_atom_site_fract_y
_atom_site_fract_z
Si Si1 0.094515 0.868431 0.320410
Si Si2 0.975097 0.636548 0.661139
Si Si3 0.155228 0.878786 0.877696
Si Si4 0.231378 0.918094 0.519956
Si Si5 0.733030 0.319069 0.119657
Si Si6 0.545383 0.067041 0.412638
Si Si7 0.806873 0.312347 0.698116
Si Si8 0.628683 0.498718 0.722703
O O1 0.132510 0.875033 0.465069
O O2 0.152417 0.812927 0.241940
O O3 0.963654 0.858915 0.320881
O O4 0.153123 0.930908 0.262761
O O5 0.850534 0.658358 0.667216
O O6 0.997171 0.612897 0.519685
O O7 0.059704 0.693535 0.699533
O O8 0.992283 0.585483 0.772017
O O9 0.248193 0.830299 0.828955
O O10 0.167966 0.951298 0.835263
O O11 0.169497 0.868068 0.026729
O O12 0.321949 0.937524 0.417024
O O13 0.291417 0.874098 0.617387
O O14 0.185547 0.979465 0.591509
O O15 0.750000 0.250000 0.060533
O O16 0.500000 0.000000 0.446492
O O17 0.750000 0.250000 0.642712
O O18 0.500000 0.500000 0.699310
#
# Coordination Sequence:
#
# PCOD8176952 Si02
#       8
#     8   8   8   8   8   8   8   8
#     4  11  25  41  70 102 144 181 230 299 362 433
#     4  11  25  47  68 105 141 184 250 300 363 442
#     4  10  24  44  71 105 137 185 233 293 365 440
#     4  10  23  41  64 101 135 182 238 285 372 424
#     4  12  28  47  69 106 142 189 242 304 364 432
#     4  11  24  43  70 101 142 191 236 304 367 438
#     4  10  23  44  71  97 131 189 237 291 355 432
#     4   9  22  41  68 102 140 179 231 297 356 441
#
# _framework density 23.188593000000001
#
# number of rings (size 3 to 8) (size 9 to 14) (size 15 to 20)
#    0.000    1.500    1.250    1.500   10.500    4.000 
#    0.000    0.000    0.000    0.000    0.000    0.000 
#    0.000    0.000    0.000    0.000    0.000    0.000 
#
# Total GULP energy -396475.021330 kJ/mol
# GULP energy per Si atom -12389.844417 kJ/mol
# Density = 2.313581 g / cm^3
# Si number density = 23.188593 Si / 1000 Ang^3
#
#
#
# Elastic Constant Matrix: (Units=GPa)
#
#
# Indices 1 2 3 4 5 6 
#
# 1 118.8410 34.7186 39.3228 0.0000 0.0000 0.0000
# 2 34.7186 65.1503 4.7140 0.0000 0.0000 0.0000
# 3 39.3228 4.7140 91.2375 0.0000 0.0000 0.0000
# 4 0.0000 0.0000 0.0000 13.8819 0.0000 0.0000
# 5 0.0000 0.0000 0.0000 0.0000 34.0797 0.0000
# 6 0.0000 0.0000 0.0000 0.0000 0.0000 31.1713
#
#
#
# Elastic Compliance Matrix: (Units=1/GPa)
#
#
# Indices 1 2 3 4 5 6 
#
# 1 0.011705 -0.005895 -0.004740 0.000000 0.000000 0.000000
# 2 -0.005895 0.018375 0.001591 0.000000 0.000000 0.000000
# 3 -0.004740 0.001591 0.012921 0.000000 0.000000 0.000000
# 4 0.000000 0.000000 0.000000 0.072036 0.000000 0.000000
# 5 0.000000 0.000000 0.000000 0.000000 0.029343 0.000000
# 6 0.000000 0.000000 0.000000 0.000000 0.000000 0.032081
#
#
# Mechanical properties :
#
#
# Convention : Reuss Voigt Hill
#
# Bulk Modulus (GPa) = 40.13799 48.08218 44.11009
# Shear Modulus (GPa) = 24.64822 28.92479 26.78651
#
# Velocity S-wave (km/s) = 3.26382 3.53565 3.40245
# Velocity P-wave (km/s) = 5.61697 6.11948 5.87360
#
# Compressibility (1/GPa) = 0.02491405
#
# Stress axis : x y z
#
# Youngs Moduli (GPa) = 85.43200 54.42085 77.39201
#
# Poissons Ratio (x) = 0.32080 0.36686
# Poissons Ratio (y) = 0.50360 -0.12314
# Poissons Ratio (z) = 0.40497 -0.08659
#
# Static dielectric constant tensor:
#      x y z
#    x 4.619300 0.000000 0.000000 
#    y 0.000000 4.252010 0.000000 
#    z 0.000000 0.000000 4.119730 
# 
# 
# High freq. dielectric constant tensor:
#      x y z
#    x 1.934900 0.000000 0.000000 
#    y 0.000000 1.894920 0.000000 
#    z 0.000000 0.000000 1.917850 
# 
# From -- ./inp_files/7406.got.cif
#   From: 2010.03.12/outbox.cif.g09.slc.cpg/sg37_4_cif.got.tgz:7406.got - 2010.04.14 02:25:27.
