data_PCOD8176241
_publ_section_title
;
Structure prediction by ZEFSAII (Michael W. Deem and Ramdas Pophale) SiO2 
 PCOD8176241
Probable space group: C M C 21
;
_chemical_formula_sum "Si O2"
_cell_formula_units_Z 32
_cell_length_a 8.305893
_cell_length_b 35.428555
_cell_length_c 5.061710
_cell_angle_alpha 90.000000
_cell_angle_beta 90.000000
_cell_angle_gamma 90.000000
_cell_volume 1489.488077
_symmetry_space_group_name_H-M "C M C 21"
_symmetry_group_IT_number 36
_symmetry_cell_setting 'orthorhombic'
loop_
_space_group_symop_operation_xyz
x,y,z
-x,-y,1/2+z
x,-y,1/2+z
-x,y,z
1/2+x,1/2+y,z
1/2-x,1/2-y,1/2+z
1/2+x,1/2-y,1/2+z
1/2-x,1/2+y,z
loop_
_atom_site_type_symbol
_atom_site_label
_atom_site_fract_x
_atom_site_fract_y
_atom_site_fract_z
Si Si1 0.313755 0.730019 0.224990
Si Si2 0.812187 0.352229 0.680182
Si Si3 0.688861 0.392670 0.180567
Si Si4 0.691734 0.477649 0.120419
O O1 0.500000 0.730071 0.303342
O O2 0.213677 0.741462 0.483302
O O3 0.258579 0.689037 0.131116
O O4 0.724002 0.380556 0.479875
O O5 0.000000 0.351709 0.618463
O O6 0.780443 0.365264 0.979052
O O7 0.500000 0.390287 0.122220
O O8 0.755869 0.435018 0.142841
O O9 0.759504 0.503390 0.356268
O O10 0.500000 0.477220 0.129744
#
# Coordination Sequence:
#
# PCOD8176241 Si02
#       4
#     8   8   8   8
#     4  12  25  44  67  94 125 160 203 250 303 361
#     4  12  25  42  62  89 126 165 203 248 305 363
#     4  11  22  39  64  92 121 159 208 257 304 359
#     4   9  17  31  55  87 118 150 196 253 304 353
#
# _framework density 21.483892999999998
#
# number of rings (size 3 to 8) (size 9 to 14) (size 15 to 20)
#    0.000    1.000    0.000    8.250    0.000    4.000 
#    0.000    0.000    0.000   15.000    0.000    0.000 
#    0.000    0.000    0.000    0.000    0.000    0.000 
#
# Total GULP energy -198531.352470 kJ/mol
# GULP energy per Si atom -12408.209529 kJ/mol
# Density = 2.143499 g / cm^3
# Si number density = 21.483893 Si / 1000 Ang^3
#
#
#
# Elastic Constant Matrix: (Units=GPa)
#
#
# Indices 1 2 3 4 5 6 
#
# 1 70.5405 33.9864 7.4383 0.0000 0.0000 0.0000
# 2 33.9864 108.7051 12.1754 0.0000 0.0000 0.0000
# 3 7.4383 12.1754 96.0403 0.0000 0.0000 0.0000
# 4 0.0000 0.0000 0.0000 44.5333 0.0000 0.0000
# 5 0.0000 0.0000 0.0000 0.0000 32.8736 0.0000
# 6 0.0000 0.0000 0.0000 0.0000 0.0000 16.2669
#
#
#
# Elastic Compliance Matrix: (Units=1/GPa)
#
#
# Indices 1 2 3 4 5 6 
#
# 1 0.016729 -0.005158 -0.000642 0.000000 0.000000 0.000000
# 2 -0.005158 0.010922 -0.000985 0.000000 0.000000 0.000000
# 3 -0.000642 -0.000985 0.010587 0.000000 0.000000 0.000000
# 4 0.000000 0.000000 0.000000 0.022455 0.000000 0.000000
# 5 0.000000 0.000000 0.000000 0.000000 0.030420 0.000000
# 6 0.000000 0.000000 0.000000 0.000000 0.000000 0.061475
#
#
# Mechanical properties :
#
#
# Convention : Reuss Voigt Hill
#
# Bulk Modulus (GPa) = 40.53871 42.49848 41.51860
# Shear Modulus (GPa) = 28.67284 33.51382 31.09333
#
# Velocity S-wave (km/s) = 3.65721 3.95391 3.80845
# Velocity P-wave (km/s) = 6.06167 6.37722 6.22145
#
# Compressibility (1/GPa) = 0.02466778
#
# Stress axis : x y z
#
# Youngs Moduli (GPa) = 59.77547 91.55558 94.45646
#
# Poissons Ratio (x) = 0.47229 0.06061
# Poissons Ratio (y) = 0.30835 0.09305
# Poissons Ratio (z) = 0.03836 0.09020
#
# Static dielectric constant tensor:
#      x y z
#    x 3.606910 0.000000 0.000000 
#    y 0.000000 4.041810 0.000000 
#    z 0.000000 0.000000 3.878350 
# 
# 
# High freq. dielectric constant tensor:
#      x y z
#    x 1.825480 0.000000 0.000000 
#    y 0.000000 1.859490 0.000000 
#    z 0.000000 0.000000 1.856780 
# 
# From -- ./inp_files/223.got.cif
#   From: 2010.03.12/outbox.cif.g09.slc.cpg/sg36_1_cif.got.tgz:223.got - 2010.04.14 02:13:53.
