data_PCOD8176468
_publ_section_title
;
Structure prediction by ZEFSAII (Michael W. Deem and Ramdas Pophale) SiO2 
 PCOD8176468
Probable space group: C C C 2
;
_chemical_formula_sum "Si O2"
_cell_formula_units_Z 48
_cell_length_a 14.372853
_cell_length_b 18.630302
_cell_length_c 8.584229
_cell_angle_alpha 90.000000
_cell_angle_beta 90.000000
_cell_angle_gamma 90.000000
_cell_volume 2298.604081
_symmetry_space_group_name_H-M "C C C 2"
_symmetry_group_IT_number 37
_symmetry_cell_setting 'orthorhombic'
loop_
_space_group_symop_operation_xyz
x,y,z
-x,-y,z
-x,y,1/2+z
x,-y,1/2+z
1/2+x,1/2+y,z
1/2-x,1/2-y,z
1/2-x,1/2+y,1/2+z
1/2+x,1/2-y,1/2+z
loop_
_atom_site_type_symbol
_atom_site_label
_atom_site_fract_x
_atom_site_fract_y
_atom_site_fract_z
Si Si1 0.375011 0.555128 0.960150
Si Si2 0.250000 0.750000 0.545579
Si Si3 0.000000 0.000000 0.698661
Si Si4 0.389376 0.848851 0.384324
Si Si5 0.696278 0.024511 0.552452
Si Si6 0.088204 0.375670 0.532747
Si Si7 0.764645 0.363133 0.798457
O O1 0.417084 0.532251 0.796013
O O2 0.319440 0.627744 0.922536
O O3 0.456822 0.562893 0.087667
O O4 0.301926 0.496961 0.020733
O O5 0.338635 0.775320 0.443075
O O6 0.275571 0.685338 0.661234
O O7 0.325315 0.917650 0.417432
O O8 0.482562 0.866561 0.479761
O O9 0.404747 0.838580 0.201151
O O10 0.696225 0.061999 0.723927
O O11 0.622588 0.958614 0.547232
O O12 0.150439 0.333024 0.404019
#
# Coordination Sequence:
#
# PCOD8176468 Si02
#       7
#     8   4   4   8   8   8   8
#     4  10  19  35  56  87 120 159 199 257 312 355
#     4  10  24  44  60  82 126 168 210 248 302 368
#     4  10  20  32  56  84 128 152 202 250 298 380
#     4  11  23  39  63  91 129 165 203 254 307 383
#     4  10  20  36  62  94 130 158 199 257 334 365
#     4  11  22  38  66  98 122 156 206 263 315 366
#     4  10  21  40  64  87 127 166 203 259 308 376
#
# _framework density 20.882239999999999
#
# number of rings (size 3 to 8) (size 9 to 14) (size 15 to 20)
#    0.000    1.667    1.667    4.500    2.333    2.000 
#    0.000    3.333    0.000    0.000    0.000    0.000 
#    0.000    0.000    0.000    0.000    0.000    0.000 
#
# Total GULP energy -297351.027648 kJ/mol
# GULP energy per Si atom -12389.626152 kJ/mol
# Density = 2.083471 g / cm^3
# Si number density = 20.882240 Si / 1000 Ang^3
#
#
#
# Elastic Constant Matrix: (Units=GPa)
#
#
# Indices 1 2 3 4 5 6 
#
# 1 125.0876 43.1292 62.1324 0.0000 0.0000 0.0000
# 2 43.1292 73.3336 35.9966 0.0000 0.0000 0.0000
# 3 62.1324 35.9966 150.0829 0.0000 0.0000 0.0000
# 4 0.0000 0.0000 0.0000 29.3988 0.0000 0.0000
# 5 0.0000 0.0000 0.0000 0.0000 39.9401 0.0000
# 6 0.0000 0.0000 0.0000 0.0000 0.0000 23.7615
#
#
#
# Elastic Compliance Matrix: (Units=1/GPa)
#
#
# Indices 1 2 3 4 5 6 
#
# 1 0.011488 -0.005012 -0.003554 0.000000 0.000000 0.000000
# 2 -0.005012 0.017642 -0.002157 0.000000 0.000000 0.000000
# 3 -0.003554 -0.002157 0.008651 0.000000 0.000000 0.000000
# 4 0.000000 0.000000 0.000000 0.034015 0.000000 0.000000
# 5 0.000000 0.000000 0.000000 0.000000 0.025038 0.000000
# 6 0.000000 0.000000 0.000000 0.000000 0.000000 0.042085
#
#
# Mechanical properties :
#
#
# Convention : Reuss Voigt Hill
#
# Bulk Modulus (GPa) = 61.20960 70.11339 65.66149
# Shear Modulus (GPa) = 30.15524 32.43647 31.29586
#
# Velocity S-wave (km/s) = 3.80420 3.94547 3.87548
# Velocity P-wave (km/s) = 6.97649 7.37592 7.17898
#
# Compressibility (1/GPa) = 0.01633731
#
# Stress axis : x y z
#
# Youngs Moduli (GPa) = 87.05088 56.68146 115.58803
#
# Poissons Ratio (x) = 0.28407 0.41076
# Poissons Ratio (y) = 0.43628 0.24928
# Poissons Ratio (z) = 0.30935 0.12224
#
# Static dielectric constant tensor:
#      x y z
#    x 3.869390 0.000000 0.000000 
#    y 0.000000 3.523180 0.000000 
#    z 0.000000 0.000000 4.075910 
# 
# 
# High freq. dielectric constant tensor:
#      x y z
#    x 1.826790 0.000000 0.000000 
#    y 0.000000 1.767470 0.000000 
#    z 0.000000 0.000000 1.846060 
# 
# From -- ./inp_files/3534.got.cif
#   From: 2010.03.12/outbox.cif.g09.slc.cpg/sg37_2_cif.got.tgz:3534.got - 2010.04.14 02:25:27.
