data_PCOD8176825
_publ_section_title
;
Structure prediction by ZEFSAII (Michael W. Deem and Ramdas Pophale) SiO2 
 PCOD8176825
Probable space group: C C C 2
;
_chemical_formula_sum "Si O2"
_cell_formula_units_Z 32
_cell_length_a 5.168335
_cell_length_b 20.540966
_cell_length_c 15.529197
_cell_angle_alpha 90.000000
_cell_angle_beta 90.000000
_cell_angle_gamma 90.000000
_cell_volume 1648.619829
_symmetry_space_group_name_H-M "C C C 2"
_symmetry_group_IT_number 37
_symmetry_cell_setting 'orthorhombic'
loop_
_space_group_symop_operation_xyz
x,y,z
-x,-y,z
-x,y,1/2+z
x,-y,1/2+z
1/2+x,1/2+y,z
1/2-x,1/2-y,z
1/2-x,1/2+y,1/2+z
1/2+x,1/2-y,1/2+z
loop_
_atom_site_type_symbol
_atom_site_label
_atom_site_fract_x
_atom_site_fract_y
_atom_site_fract_z
Si Si1 0.860241 0.321437 0.780870
Si Si2 0.422790 0.116488 0.936569
Si Si3 0.586322 0.431264 0.864957
Si Si4 0.500400 0.794329 0.096198
O O1 0.750000 0.250000 0.789538
O O2 0.631401 0.376404 0.790535
O O3 0.063231 0.330496 0.858793
O O4 0.004534 0.329018 0.689523
O O5 0.645295 0.061885 0.918763
O O6 0.135028 0.087836 0.934044
O O7 0.487695 0.148519 0.027253
O O8 0.500000 0.500000 0.822236
O O9 0.250000 0.750000 0.081826
O O10 0.750000 0.750000 0.085568
#
# Coordination Sequence:
#
# PCOD8176825 Si02
#       4
#     8   8   8   8
#     4   9  23  36  63  92 123 157 203 257 312 367
#     4  10  22  37  64  82 127 158 206 245 316 357
#     4  10  22  40  63  85 121 168 206 249 308 369
#     4  11  23  36  60  96 129 153 204 260 315 373
#
# _framework density 19.410174000000001
#
# number of rings (size 3 to 8) (size 9 to 14) (size 15 to 20)
#    1.500    0.500    0.000    3.000   10.500    0.000 
#    0.000    1.250    5.500    0.000    0.000    0.000 
#    0.000    0.000    0.000    0.000    0.000    0.000 
#
# Total GULP energy -198213.846978 kJ/mol
# GULP energy per Si atom -12388.365436 kJ/mol
# Density = 1.936600 g / cm^3
# Si number density = 19.410174 Si / 1000 Ang^3
#
#
#
# Elastic Constant Matrix: (Units=GPa)
#
#
# Indices 1 2 3 4 5 6 
#
# 1 112.9875 19.1606 4.6469 0.0000 0.0000 0.0000
# 2 19.1606 104.1925 21.2832 0.0000 0.0000 0.0000
# 3 4.6469 21.2832 79.9274 0.0000 0.0000 0.0000
# 4 0.0000 0.0000 0.0000 8.7540 0.0000 0.0000
# 5 0.0000 0.0000 0.0000 0.0000 30.0275 0.0000
# 6 0.0000 0.0000 0.0000 0.0000 0.0000 33.1935
#
#
#
# Elastic Compliance Matrix: (Units=1/GPa)
#
#
# Indices 1 2 3 4 5 6 
#
# 1 0.009136 -0.001662 -0.000089 0.000000 0.000000 0.000000
# 2 -0.001662 0.010452 -0.002687 0.000000 0.000000 0.000000
# 3 -0.000089 -0.002687 0.013232 0.000000 0.000000 0.000000
# 4 0.000000 0.000000 0.000000 0.114234 0.000000 0.000000
# 5 0.000000 0.000000 0.000000 0.000000 0.033303 0.000000
# 6 0.000000 0.000000 0.000000 0.000000 0.000000 0.030126
#
#
# Mechanical properties :
#
#
# Convention : Reuss Voigt Hill
#
# Bulk Modulus (GPa) = 41.76124 43.03209 42.39666
# Shear Modulus (GPa) = 21.99361 31.19612 26.59486
#
# Velocity S-wave (km/s) = 3.36980 4.01334 3.70557
# Velocity P-wave (km/s) = 6.05827 6.61014 6.34021
#
# Compressibility (1/GPa) = 0.02394565
#
# Stress axis : x y z
#
# Youngs Moduli (GPa) = 109.45688 95.67517 75.57506
#
# Poissons Ratio (x) = 0.15901 0.00670
# Poissons Ratio (y) = 0.18192 0.20304
# Poissons Ratio (z) = 0.00970 0.25704
#
# Static dielectric constant tensor:
#      x y z
#    x 3.590110 0.000000 0.000000 
#    y 0.000000 3.375930 0.000000 
#    z 0.000000 0.000000 3.553130 
# 
# 
# High freq. dielectric constant tensor:
#      x y z
#    x 1.768160 0.000000 0.000000 
#    y 0.000000 1.743220 0.000000 
#    z 0.000000 0.000000 1.735870 
# 
# From -- ./inp_files/9472.got.cif
#   From: 2010.03.12/outbox.cif.g09.slc.cpg/sg37_5_cif.got.tgz:9472.got - 2010.04.14 02:25:27.
