data_PCOD8176452
_publ_section_title
;
Structure prediction by ZEFSAII (Michael W. Deem and Ramdas Pophale) SiO2 
 PCOD8176452
Probable space group: C C C 2
;
_chemical_formula_sum "Si O2"
_cell_formula_units_Z 64
_cell_length_a 19.448392
_cell_length_b 13.250765
_cell_length_c 11.644488
_cell_angle_alpha 90.000000
_cell_angle_beta 90.000000
_cell_angle_gamma 90.000000
_cell_volume 3000.855263
_symmetry_space_group_name_H-M "C C C 2"
_symmetry_group_IT_number 37
_symmetry_cell_setting 'orthorhombic'
loop_
_space_group_symop_operation_xyz
x,y,z
-x,-y,z
-x,y,1/2+z
x,-y,1/2+z
1/2+x,1/2+y,z
1/2-x,1/2-y,z
1/2-x,1/2+y,1/2+z
1/2+x,1/2-y,1/2+z
loop_
_atom_site_type_symbol
_atom_site_label
_atom_site_fract_x
_atom_site_fract_y
_atom_site_fract_z
Si Si1 0.423355 0.776614 0.126410
Si Si2 0.566557 0.687882 0.202863
Si Si3 0.665841 0.452590 0.577559
Si Si4 0.163283 0.881002 0.246750
Si Si5 0.270569 0.852785 0.432878
Si Si6 0.064686 0.640173 0.878473
Si Si7 0.073663 0.988239 0.889030
Si Si8 0.586306 0.911265 0.839646
O O1 0.494233 0.712800 0.139961
O O2 0.359698 0.705148 0.159255
O O3 0.419230 0.875656 0.207470
O O4 0.408444 0.813664 0.997592
O O5 0.622470 0.650430 0.107476
O O6 0.588050 0.788430 0.272891
O O7 0.562981 0.598918 0.295789
O O8 0.683737 0.512207 0.691751
O O9 0.739252 0.437203 0.515965
O O10 0.623685 0.531541 0.496579
O O11 0.231454 0.847175 0.311345
O O12 0.100086 0.906174 0.333178
O O13 0.250000 0.750000 0.497938
O O14 0.351470 0.861751 0.410692
O O15 0.096255 0.531419 0.847036
O O16 0.983027 0.628469 0.898929
O O17 0.000000 0.000000 0.948111
#
# Coordination Sequence:
#
# PCOD8176452 Si02
#       8
#     8   8   8   8   8   8   8   8
#     4  11  21  38  67  91 126 168 206 271 333 379
#     4  10  22  37  60  97 130 163 213 266 323 398
#     4  10  24  36  61  94 129 166 207 263 336 391
#     4  10  21  39  58  93 122 162 213 256 320 403
#     4  11  23  44  65  88 129 177 216 263 323 407
#     4  10  24  41  67  97 126 163 222 281 321 380
#     4  10  19  33  58  89 129 162 202 262 326 389
#     4  10  24  45  62  92 125 166 227 269 318 389
#
# _framework density 21.327252000000001
#
# number of rings (size 3 to 8) (size 9 to 14) (size 15 to 20)
#    0.000    1.750    2.500    0.750    5.250    5.000 
#    2.250    0.000    0.000    1.500    0.000    0.000 
#    0.000    0.000    0.000    0.000    0.000    0.000 
#
# Total GULP energy -396529.539811 kJ/mol
# GULP energy per Si atom -12391.548119 kJ/mol
# Density = 2.127871 g / cm^3
# Si number density = 21.327252 Si / 1000 Ang^3
#
#
#
# Elastic Constant Matrix: (Units=GPa)
#
#
# Indices 1 2 3 4 5 6 
#
# 1 76.4099 15.8629 9.9151 0.0000 0.0000 0.0000
# 2 15.8629 90.5771 18.5539 0.0000 0.0000 0.0000
# 3 9.9151 18.5539 71.8730 0.0000 0.0000 0.0000
# 4 0.0000 0.0000 0.0000 37.1905 0.0000 0.0000
# 5 0.0000 0.0000 0.0000 0.0000 16.4481 0.0000
# 6 0.0000 0.0000 0.0000 0.0000 0.0000 24.0536
#
#
#
# Elastic Compliance Matrix: (Units=1/GPa)
#
#
# Indices 1 2 3 4 5 6 
#
# 1 0.013703 -0.002125 -0.001342 0.000000 0.000000 0.000000
# 2 -0.002125 0.011986 -0.002801 0.000000 0.000000 0.000000
# 3 -0.001342 -0.002801 0.014822 0.000000 0.000000 0.000000
# 4 0.000000 0.000000 0.000000 0.026889 0.000000 0.000000
# 5 0.000000 0.000000 0.000000 0.000000 0.060797 0.000000
# 6 0.000000 0.000000 0.000000 0.000000 0.000000 0.041574
#
#
# Mechanical properties :
#
#
# Convention : Reuss Voigt Hill
#
# Bulk Modulus (GPa) = 35.74634 36.39154 36.06894
# Shear Modulus (GPa) = 26.09184 28.50696 27.29940
#
# Velocity S-wave (km/s) = 3.50151 3.65998 3.58162
# Velocity P-wave (km/s) = 5.75715 5.91279 5.83549
#
# Compressibility (1/GPa) = 0.02797489
#
# Stress axis : x y z
#
# Youngs Moduli (GPa) = 72.97903 83.42900 67.46900
#
# Poissons Ratio (x) = 0.17728 0.09053
# Poissons Ratio (y) = 0.15507 0.18899
# Poissons Ratio (z) = 0.09792 0.23369
#
# Static dielectric constant tensor:
#      x y z
#    x 3.671700 0.000000 0.000000 
#    y 0.000000 3.983950 0.000000 
#    z 0.000000 0.000000 3.808840 
# 
# 
# High freq. dielectric constant tensor:
#      x y z
#    x 1.818110 0.000000 0.000000 
#    y 0.000000 1.841040 0.000000 
#    z 0.000000 0.000000 1.835070 
# 
# From -- ./inp_files/7992.got.cif
#   From: 2010.03.12/outbox.cif.g09.slc.cpg/sg37_4_cif.got.tgz:7992.got - 2010.04.14 02:25:27.
