data_PCOD8176869
_publ_section_title
;
Structure prediction by ZEFSAII (Michael W. Deem and Ramdas Pophale) SiO2 
 PCOD8176869
Probable space group: C C C 2
;
_chemical_formula_sum "Si O2"
_cell_formula_units_Z 60
_cell_length_a 8.962553
_cell_length_b 22.316076
_cell_length_c 14.444398
_cell_angle_alpha 90.000000
_cell_angle_beta 90.000000
_cell_angle_gamma 90.000000
_cell_volume 2889.009800
_symmetry_space_group_name_H-M "C C C 2"
_symmetry_group_IT_number 37
_symmetry_cell_setting 'orthorhombic'
loop_
_space_group_symop_operation_xyz
x,y,z
-x,-y,z
-x,y,1/2+z
x,-y,1/2+z
1/2+x,1/2+y,z
1/2-x,1/2-y,z
1/2-x,1/2+y,1/2+z
1/2+x,1/2-y,1/2+z
loop_
_atom_site_type_symbol
_atom_site_label
_atom_site_fract_x
_atom_site_fract_y
_atom_site_fract_z
Si Si1 0.371620 0.045460 0.967050
Si Si2 0.488353 0.330558 0.191784
Si Si3 0.524355 0.826865 0.993771
Si Si4 0.824565 0.660114 0.668329
Si Si5 0.082923 0.254131 0.829378
Si Si6 0.865975 0.958086 0.130152
Si Si7 0.750000 0.250000 0.595058
Si Si8 0.842674 0.529815 0.758100
O O1 0.305747 0.027735 0.867307
O O2 0.500000 0.000000 0.001916
O O3 0.447943 0.108872 0.949505
O O4 0.242242 0.050877 0.043020
O O5 0.652201 0.325322 0.146860
O O6 0.515290 0.311289 0.300410
O O7 0.422424 0.395958 0.174485
O O8 0.379781 0.279709 0.154419
O O9 0.394936 0.833571 0.067809
O O10 0.678522 0.803396 0.036461
O O11 0.477743 0.783078 0.908467
O O12 0.906811 0.705991 0.736491
O O13 0.842332 0.594953 0.712687
O O14 0.250000 0.250000 0.871390
O O15 0.786264 0.990314 0.214476
O O16 0.000000 0.000000 0.094721
O O17 0.000000 0.500000 0.735917
#
# Coordination Sequence:
#
# PCOD8176869 Si02
#       8
#     8   8   8   8   8   8   4   8
#     4  11  25  44  69 106 135 184 241 282 345 427
#     4  11  25  45  69  98 141 182 229 286 348 417
#     4  12  22  41  75  97 136 179 230 284 346 415
#     4  11  22  43  70  98 141 179 221 284 351 412
#     4  10  22  41  68  98 135 182 225 279 346 415
#     4  12  24  44  71 101 141 186 228 293 355 412
#     4  12  24  42  72 102 126 180 234 282 340 408
#     4  11  24  43  72 101 137 185 232 283 350 415
#
# _framework density 20.768362
#
# number of rings (size 3 to 8) (size 9 to 14) (size 15 to 20)
#    0.000    0.800    6.000    2.000    0.000    0.533 
#    0.000    1.333    0.000    0.000    0.000    0.000 
#    0.000    0.000    0.000    0.000    0.000    0.000 
#
# Total GULP energy -371873.556282 kJ/mol
# GULP energy per Si atom -12395.785209 kJ/mol
# Density = 2.072109 g / cm^3
# Si number density = 20.768362 Si / 1000 Ang^3
#
#
#
# Elastic Constant Matrix: (Units=GPa)
#
#
# Indices 1 2 3 4 5 6 
#
# 1 104.4784 48.2057 61.4104 0.0000 0.0000 0.0000
# 2 48.2057 122.4156 53.6674 0.0000 0.0000 0.0000
# 3 61.4104 53.6674 120.3270 0.0000 0.0000 0.0000
# 4 0.0000 0.0000 0.0000 56.8451 0.0000 0.0000
# 5 0.0000 0.0000 0.0000 0.0000 3.3805 0.0000
# 6 0.0000 0.0000 0.0000 0.0000 0.0000 42.0426
#
#
#
# Elastic Compliance Matrix: (Units=1/GPa)
#
#
# Indices 1 2 3 4 5 6 
#
# 1 0.014548 -0.003075 -0.006053 0.000000 0.000000 0.000000
# 2 -0.003075 0.010804 -0.003249 0.000000 0.000000 0.000000
# 3 -0.006053 -0.003249 0.012849 0.000000 0.000000 0.000000
# 4 0.000000 0.000000 0.000000 0.017592 0.000000 0.000000
# 5 0.000000 0.000000 0.000000 0.000000 0.295818 0.000000
# 6 0.000000 0.000000 0.000000 0.000000 0.000000 0.023785
#
#
# Mechanical properties :
#
#
# Convention : Reuss Voigt Hill
#
# Bulk Modulus (GPa) = 74.37056 74.86533 74.61794
# Shear Modulus (GPa) = 12.35680 32.71615 22.53647
#
# Velocity S-wave (km/s) = 2.44187 3.97330 3.29771
# Velocity P-wave (km/s) = 6.62100 7.56145 7.10679
#
# Compressibility (1/GPa) = 0.01344618
#
# Stress axis : x y z
#
# Youngs Moduli (GPa) = 68.73699 92.55478 77.82466
#
# Poissons Ratio (x) = 0.28461 0.47110
# Poissons Ratio (y) = 0.21137 0.25289
# Poissons Ratio (z) = 0.41609 0.30076
#
# Static dielectric constant tensor:
#      x y z
#    x 3.800750 0.000000 0.000000 
#    y 0.000000 4.047170 0.000000 
#    z 0.000000 0.000000 3.757190 
# 
# 
# High freq. dielectric constant tensor:
#      x y z
#    x 1.808670 0.000000 0.000000 
#    y 0.000000 1.832550 0.000000 
#    z 0.000000 0.000000 1.813170 
# 
# From -- ./inp_files/10920.got.cif
#   From: 2010.03.12/outbox.cif.g09.slc.cpg/sg37_6_cif.got.tgz:10920.got - 2010.04.14 02:25:27.
