data_PCOD8176648
_publ_section_title
;
Structure prediction by ZEFSAII (Michael W. Deem and Ramdas Pophale) SiO2 
 PCOD8176648
Probable space group: C C C 2
;
_chemical_formula_sum "Si O2"
_cell_formula_units_Z 36
_cell_length_a 10.397190
_cell_length_b 10.814643
_cell_length_c 13.908252
_cell_angle_alpha 90.000000
_cell_angle_beta 90.000000
_cell_angle_gamma 90.000000
_cell_volume 1563.870253
_symmetry_space_group_name_H-M "C C C 2"
_symmetry_group_IT_number 37
_symmetry_cell_setting 'orthorhombic'
loop_
_space_group_symop_operation_xyz
x,y,z
-x,-y,z
-x,y,1/2+z
x,-y,1/2+z
1/2+x,1/2+y,z
1/2-x,1/2-y,z
1/2-x,1/2+y,1/2+z
1/2+x,1/2-y,1/2+z
loop_
_atom_site_type_symbol
_atom_site_label
_atom_site_fract_x
_atom_site_fract_y
_atom_site_fract_z
Si Si1 0.250000 0.750000 0.480290
Si Si2 0.134043 0.432120 0.115770
Si Si3 0.285828 0.378764 0.508112
Si Si4 0.593965 0.114226 0.831059
Si Si5 0.978011 0.132146 0.386734
O O1 0.140194 0.686665 0.546134
O O2 0.172780 0.850933 0.415798
O O3 0.155806 0.397884 0.226033
O O4 0.000000 0.500000 0.096276
O O5 0.253324 0.517702 0.085776
O O6 0.250000 0.250000 0.559259
O O7 0.206212 0.388102 0.408413
O O8 0.436074 0.383158 0.483149
O O9 0.518709 0.245335 0.828498
O O10 0.500000 0.000000 0.853971
O O11 0.000000 0.000000 0.330150
#
# Coordination Sequence:
#
# PCOD8176648 Si02
#       5
#     4   8   8   8   8
#     4  12  24  42  74 104 146 190 240 304 364 446
#     4  11  23  42  69 103 141 191 239 295 365 433
#     4  10  20  41  71  95 134 184 237 294 361 432
#     4  10  23  42  72 101 139 193 241 295 366 436
#     4  11  23  42  69 103 135 190 239 298 368 431
#
# _framework density 23.01981
#
# number of rings (size 3 to 8) (size 9 to 14) (size 15 to 20)
#    0.000    1.333    2.222    4.667    4.667    0.000 
#    0.000    7.778    0.000    0.000    0.000    0.000 
#    0.000    0.000    0.000    0.000    0.000    0.000 
#
# Total GULP energy -223147.115050 kJ/mol
# GULP energy per Si atom -12397.061947 kJ/mol
# Density = 2.296742 g / cm^3
# Si number density = 23.019810 Si / 1000 Ang^3
#
#
#
# Elastic Constant Matrix: (Units=GPa)
#
#
# Indices 1 2 3 4 5 6 
#
# 1 98.4050 33.1031 27.9618 0.0000 0.0000 0.0000
# 2 33.1031 173.4176 42.4860 0.0000 0.0000 0.0000
# 3 27.9618 42.4860 96.8276 0.0000 0.0000 0.0000
# 4 0.0000 0.0000 0.0000 29.6810 0.0000 0.0000
# 5 0.0000 0.0000 0.0000 0.0000 19.4373 0.0000
# 6 0.0000 0.0000 0.0000 0.0000 0.0000 43.6980
#
#
#
# Elastic Compliance Matrix: (Units=1/GPa)
#
#
# Indices 1 2 3 4 5 6 
#
# 1 0.011425 -0.001538 -0.002625 0.000000 0.000000 0.000000
# 2 -0.001538 0.006668 -0.002482 0.000000 0.000000 0.000000
# 3 -0.002625 -0.002482 0.012174 0.000000 0.000000 0.000000
# 4 0.000000 0.000000 0.000000 0.033692 0.000000 0.000000
# 5 0.000000 0.000000 0.000000 0.000000 0.051447 0.000000
# 6 0.000000 0.000000 0.000000 0.000000 0.000000 0.022884
#
#
# Mechanical properties :
#
#
# Convention : Reuss Voigt Hill
#
# Bulk Modulus (GPa) = 58.89499 63.97246 61.43373
# Shear Modulus (GPa) = 31.79871 36.23655 34.01763
#
# Velocity S-wave (km/s) = 3.72070 3.97186 3.84833
# Velocity P-wave (km/s) = 6.64065 6.99176 6.81846
#
# Compressibility (1/GPa) = 0.01697937
#
# Stress axis : x y z
#
# Youngs Moduli (GPa) = 87.52581 149.97038 82.13918
#
# Poissons Ratio (x) = 0.23064 0.21558
# Poissons Ratio (y) = 0.13461 0.20384
# Poissons Ratio (z) = 0.22972 0.37218
#
# Static dielectric constant tensor:
#      x y z
#    x 4.061910 0.000000 0.000000 
#    y 0.000000 4.843300 0.000000 
#    z 0.000000 0.000000 3.728860 
# 
# 
# High freq. dielectric constant tensor:
#      x y z
#    x 1.911100 0.000000 0.000000 
#    y 0.000000 1.944060 0.000000 
#    z 0.000000 0.000000 1.865100 
# 
# From -- ./inp_files/6888.got.cif
#   From: 2010.03.12/outbox.cif.g09.slc.cpg/sg37_4_cif.got.tgz:6888.got - 2010.04.14 02:25:27.
