data_PCOD8176121
_publ_section_title
;
Structure prediction by ZEFSAII (Michael W. Deem and Ramdas Pophale) SiO2 
 PCOD8176121
Probable space group: C M C 21
;
_chemical_formula_sum "Si O2"
_cell_formula_units_Z 32
_cell_length_a 15.025391
_cell_length_b 9.893710
_cell_length_c 10.155049
_cell_angle_alpha 90.000000
_cell_angle_beta 90.000000
_cell_angle_gamma 90.000000
_cell_volume 1509.617710
_symmetry_space_group_name_H-M "C M C 21"
_symmetry_group_IT_number 36
_symmetry_cell_setting 'orthorhombic'
loop_
_space_group_symop_operation_xyz
x,y,z
-x,-y,1/2+z
x,-y,1/2+z
-x,y,z
1/2+x,1/2+y,z
1/2-x,1/2-y,1/2+z
1/2+x,1/2-y,1/2+z
1/2-x,1/2+y,z
loop_
_atom_site_type_symbol
_atom_site_label
_atom_site_fract_x
_atom_site_fract_y
_atom_site_fract_z
Si Si1 0.500000 0.648157 0.581560
Si Si2 0.353423 0.867754 0.537863
Si Si3 0.500000 0.590559 0.879521
Si Si4 0.685745 0.006857 0.292091
Si Si5 0.310346 0.696731 0.893461
O O1 0.413325 0.741548 0.576183
O O2 0.500000 0.568611 0.720842
O O3 0.500000 0.551325 0.455480
O O4 0.359937 0.985020 0.648949
O O5 0.250001 0.818459 0.525784
O O6 0.381785 0.937543 0.398728
O O7 0.414107 0.676159 0.924696
O O8 0.709813 0.158757 0.332132
O O9 0.776996 0.918874 0.289372
#
# Coordination Sequence:
#
# PCOD8176121 Si02
#       5
#     4   8   4   8   8
#     4  12  26  51  67 113 141 197 245 312 364 448
#     4  10  25  43  70  99 149 181 247 288 366 428
#     4  12  26  43  77 103 149 183 255 300 368 430
#     4  10  23  42  71  99 142 189 231 292 360 426
#     4  10  24  42  71 103 143 186 236 295 359 427
#
# _framework density 21.197417999999999
#
# number of rings (size 3 to 8) (size 9 to 14) (size 15 to 20)
#    1.500    0.000    2.500    1.500    7.000    2.000 
#    4.500    0.000    0.000    0.000    0.000    0.000 
#    0.000    0.000    0.000    0.000    0.000    0.000 
#
# Total GULP energy -198230.004833 kJ/mol
# GULP energy per Si atom -12389.375302 kJ/mol
# Density = 2.114917 g / cm^3
# Si number density = 21.197418 Si / 1000 Ang^3
#
#
#
# Elastic Constant Matrix: (Units=GPa)
#
#
# Indices 1 2 3 4 5 6 
#
# 1 110.6536 39.6980 41.5889 0.0000 0.0000 0.0000
# 2 39.6980 104.1036 16.2291 0.0000 0.0000 0.0000
# 3 41.5889 16.2291 127.7703 0.0000 0.0000 0.0000
# 4 0.0000 0.0000 0.0000 45.0593 0.0000 0.0000
# 5 0.0000 0.0000 0.0000 0.0000 20.0923 0.0000
# 6 0.0000 0.0000 0.0000 0.0000 0.0000 24.6195
#
#
#
# Elastic Compliance Matrix: (Units=1/GPa)
#
#
# Indices 1 2 3 4 5 6 
#
# 1 0.011695 -0.003944 -0.003306 0.000000 0.000000 0.000000
# 2 -0.003944 0.011130 -0.000130 0.000000 0.000000 0.000000
# 3 -0.003306 -0.000130 0.008919 0.000000 0.000000 0.000000
# 4 0.000000 0.000000 0.000000 0.022193 0.000000 0.000000
# 5 0.000000 0.000000 0.000000 0.000000 0.049770 0.000000
# 6 0.000000 0.000000 0.000000 0.000000 0.000000 0.040618
#
#
# Mechanical properties :
#
#
# Convention : Reuss Voigt Hill
#
# Bulk Modulus (GPa) = 58.87767 59.72883 59.30325
# Shear Modulus (GPa) = 30.34973 34.28832 32.31902
#
# Velocity S-wave (km/s) = 3.78797 4.02627 3.90894
# Velocity P-wave (km/s) = 6.85331 7.06067 6.95776
#
# Compressibility (1/GPa) = 0.01698437
#
# Stress axis : x y z
#
# Youngs Moduli (GPa) = 85.50929 89.84636 112.12014
#
# Poissons Ratio (x) = 0.35437 0.37062
# Poissons Ratio (y) = 0.33727 0.01456
# Poissons Ratio (z) = 0.28266 0.01167
#
# Static dielectric constant tensor:
#      x y z
#    x 3.649640 0.000000 0.000000 
#    y 0.000000 3.734860 0.000000 
#    z 0.000000 0.000000 3.990540 
# 
# 
# High freq. dielectric constant tensor:
#      x y z
#    x 1.812780 0.000000 0.000000 
#    y 0.000000 1.832390 0.000000 
#    z 0.000000 0.000000 1.830700 
# 
# From -- ./inp_files/3696.got.cif
#   From: 2010.03.12/outbox.cif.g09.slc.cpg/sg36_2_cif.got.tgz:3696.got - 2010.04.14 02:13:53.
