data_PCOD8176185
_publ_section_title
;
Structure prediction by ZEFSAII (Michael W. Deem and Ramdas Pophale) SiO2 
 PCOD8176185
Probable space group: C M C 21
;
_chemical_formula_sum "Si O2"
_cell_formula_units_Z 56
_cell_length_a 15.139057
_cell_length_b 17.929785
_cell_length_c 8.988036
_cell_angle_alpha 90.000000
_cell_angle_beta 90.000000
_cell_angle_gamma 90.000000
_cell_volume 2439.712825
_symmetry_space_group_name_H-M "C M C 21"
_symmetry_group_IT_number 36
_symmetry_cell_setting 'orthorhombic'
loop_
_space_group_symop_operation_xyz
x,y,z
-x,-y,1/2+z
x,-y,1/2+z
-x,y,z
1/2+x,1/2+y,z
1/2-x,1/2-y,1/2+z
1/2+x,1/2-y,1/2+z
1/2-x,1/2+y,z
loop_
_atom_site_type_symbol
_atom_site_label
_atom_site_fract_x
_atom_site_fract_y
_atom_site_fract_z
Si Si1 0.900421 0.186598 0.216500
Si Si2 0.830324 0.332144 0.283439
Si Si3 0.000000 0.013349 0.058043
Si Si4 0.000000 0.889064 0.265008
Si Si5 0.641659 0.279669 0.376052
Si Si6 0.396998 0.123274 0.472683
Si Si7 0.183653 0.954444 0.716669
Si Si8 0.703344 0.975654 0.441241
O O1 0.900628 0.265018 0.305678
O O2 0.828518 0.128810 0.286330
O O3 0.000000 0.154468 0.215600
O O4 0.868863 0.199734 0.047931
O O5 0.738079 0.292417 0.313504
O O6 0.848149 0.400860 0.393618
O O7 0.836684 0.362595 0.116472
O O8 0.909383 0.038849 0.134449
O O9 0.000000 0.923961 0.096644
O O10 0.000000 0.041248 0.886276
O O11 0.916645 0.835527 0.278824
O O12 0.614613 0.192206 0.357074
O O13 0.500000 0.114405 0.514896
O O14 0.360665 0.045493 0.406560
O O15 0.268340 0.963996 0.610400
O O16 0.204298 0.012867 0.848748
#
# Coordination Sequence:
#
# PCOD8176185 Si02
#       8
#     8   8   4   4   8   8   8   8
#     4  11  21  39  66  92 129 177 222 265 339 422
#     4  11  22  39  68  98 126 170 228 285 334 402
#     4  12  22  36  64 102 139 183 213 281 340 420
#     4  12  22  38  68  98 141 183 223 271 344 424
#     4  11  19  42  65  96 130 178 225 271 338 411
#     4  11  25  45  71  98 134 187 235 278 344 415
#     4  12  22  42  63 100 137 174 222 273 352 411
#     4  12  25  42  67 102 134 173 231 291 337 401
#
# _framework density 22.953520999999999
#
# number of rings (size 3 to 8) (size 9 to 14) (size 15 to 20)
#    0.000    0.571    6.429    3.857    0.000    1.143 
#    0.000    0.000    0.000    0.000    7.429    0.000 
#    0.000    0.000    0.000    0.000    0.000    0.000 
#
# Total GULP energy -346912.969943 kJ/mol
# GULP energy per Si atom -12389.748927 kJ/mol
# Density = 2.290128 g / cm^3
# Si number density = 22.953521 Si / 1000 Ang^3
#
#
#
# Elastic Constant Matrix: (Units=GPa)
#
#
# Indices 1 2 3 4 5 6 
#
# 1 102.6296 40.2781 26.3407 0.0000 0.0000 0.0000
# 2 40.2781 148.8254 28.3114 0.0000 0.0000 0.0000
# 3 26.3407 28.3114 48.7597 0.0000 0.0000 0.0000
# 4 0.0000 0.0000 0.0000 33.3447 0.0000 0.0000
# 5 0.0000 0.0000 0.0000 0.0000 26.0745 0.0000
# 6 0.0000 0.0000 0.0000 0.0000 0.0000 37.0817
#
#
#
# Elastic Compliance Matrix: (Units=1/GPa)
#
#
# Indices 1 2 3 4 5 6 
#
# 1 0.011950 -0.002255 -0.005146 0.000000 0.000000 0.000000
# 2 -0.002255 0.007979 -0.003415 0.000000 0.000000 0.000000
# 3 -0.005146 -0.003415 0.025271 0.000000 0.000000 0.000000
# 4 0.000000 0.000000 0.000000 0.029990 0.000000 0.000000
# 5 0.000000 0.000000 0.000000 0.000000 0.038352 0.000000
# 6 0.000000 0.000000 0.000000 0.000000 0.000000 0.026967
#
#
# Mechanical properties :
#
#
# Convention : Reuss Voigt Hill
#
# Bulk Modulus (GPa) = 42.42942 54.45280 48.44111
# Shear Modulus (GPa) = 29.41232 32.98581 31.19906
#
# Velocity S-wave (km/s) = 3.58353 3.79498 3.69077
# Velocity P-wave (km/s) = 5.97054 6.55569 6.26994
#
# Compressibility (1/GPa) = 0.02356855
#
# Stress axis : x y z
#
# Youngs Moduli (GPa) = 83.68506 125.32597 39.57048
#
# Poissons Ratio (x) = 0.28262 0.20363
# Poissons Ratio (y) = 0.18872 0.13512
# Poissons Ratio (z) = 0.43064 0.42795
#
# Static dielectric constant tensor:
#      x y z
#    x 4.121840 0.000000 0.000000 
#    y 0.000000 4.920610 0.000000 
#    z 0.000000 0.000000 3.796740 
# 
# 
# High freq. dielectric constant tensor:
#      x y z
#    x 1.903610 0.000000 0.000000 
#    y 0.000000 1.935290 0.000000 
#    z 0.000000 0.000000 1.868790 
# 
# From -- ./inp_files/4248.got.cif
#   From: 2010.03.12/outbox.cif.g09.slc.cpg/sg36_3_cif.got.tgz:4248.got - 2010.04.14 02:13:53.
