data_PCOD8176910
_publ_section_title
;
Structure prediction by ZEFSAII (Michael W. Deem and Ramdas Pophale) SiO2 
 PCOD8176910
Probable space group: C C C 2
;
_chemical_formula_sum "Si O2"
_cell_formula_units_Z 44
_cell_length_a 4.944579
_cell_length_b 13.238974
_cell_length_c 28.977418
_cell_angle_alpha 90.000000
_cell_angle_beta 90.000000
_cell_angle_gamma 90.000000
_cell_volume 1896.895188
_symmetry_space_group_name_H-M "C C C 2"
_symmetry_group_IT_number 37
_symmetry_cell_setting 'orthorhombic'
loop_
_space_group_symop_operation_xyz
x,y,z
-x,-y,z
-x,y,1/2+z
x,-y,1/2+z
1/2+x,1/2+y,z
1/2-x,1/2-y,z
1/2-x,1/2+y,1/2+z
1/2+x,1/2-y,1/2+z
loop_
_atom_site_type_symbol
_atom_site_label
_atom_site_fract_x
_atom_site_fract_y
_atom_site_fract_z
Si Si1 0.559671 0.888012 0.265380
Si Si2 0.750000 0.750000 0.628240
Si Si3 0.750000 0.750000 0.188151
Si Si4 0.757737 0.067560 0.063081
Si Si5 0.243370 0.931981 0.961068
Si Si6 0.447101 0.384554 0.827787
Si Si7 0.250000 0.250000 0.396218
O O1 0.564653 0.825252 0.218579
O O2 0.350694 0.861745 0.306991
O O3 0.857259 0.869553 0.284641
O O4 0.500000 0.000000 0.248550
O O5 0.490389 0.706902 0.656372
O O6 0.665351 0.842813 0.596257
O O7 0.500000 0.000000 0.056599
O O8 0.844742 0.108575 0.011914
O O9 0.000000 0.000000 0.084114
O O10 0.347025 0.841358 0.928368
O O11 0.500000 0.000000 0.965899
O O12 0.000000 0.000000 0.939678
O O13 0.500000 0.500000 0.846356
O O14 0.507402 0.298868 0.865917
#
# Coordination Sequence:
#
# PCOD8176910 Si02
#       7
#     8   4   4   8   8   8   4
#     4  10  23  45  63  85 125 169 208 260 323 384
#     4  12  25  40  66 105 130 161 218 272 321 390
#     4  12  25  40  68  99 126 161 218 272 325 390
#     4  10  22  44  68  93 135 179 211 257 323 388
#     4  10  24  43  65  97 134 175 220 260 315 390
#     4  10  23  41  65  91 123 169 218 259 316 386
#     4  12  24  40  68  98 134 170 214 282 324 356
#
# _framework density 23.195798
#
# number of rings (size 3 to 8) (size 9 to 14) (size 15 to 20)
#    0.000    1.455    0.000    3.818    0.000   10.182 
#    0.000    7.273    0.000    0.000    0.000    0.000 
#    0.000    0.000    0.000    0.000    0.000    0.000 
#
# Total GULP energy -272594.946753 kJ/mol
# GULP energy per Si atom -12390.679398 kJ/mol
# Density = 2.314300 g / cm^3
# Si number density = 23.195798 Si / 1000 Ang^3
#
#
#
# Elastic Constant Matrix: (Units=GPa)
#
#
# Indices 1 2 3 4 5 6 
#
# 1 107.0052 35.2782 25.1937 0.0000 0.0000 0.0000
# 2 35.2782 120.5051 80.7256 0.0000 0.0000 0.0000
# 3 25.1937 80.7256 115.0171 0.0000 0.0000 0.0000
# 4 0.0000 0.0000 0.0000 28.5740 0.0000 0.0000
# 5 0.0000 0.0000 0.0000 0.0000 -20.9041 0.0000
# 6 0.0000 0.0000 0.0000 0.0000 0.0000 34.6535
#
#
#
# Elastic Compliance Matrix: (Units=1/GPa)
#
#
# Indices 1 2 3 4 5 6 
#
# 1 0.010348 -0.002852 -0.000265 0.000000 0.000000 0.000000
# 2 -0.002852 0.016448 -0.010920 0.000000 0.000000 0.000000
# 3 -0.000265 -0.010920 0.016416 0.000000 0.000000 0.000000
# 4 0.000000 0.000000 0.000000 0.034997 0.000000 0.000000
# 5 0.000000 0.000000 0.000000 0.000000 -0.047837 0.000000
# 6 0.000000 0.000000 0.000000 0.000000 0.000000 0.028857
#
#
# Mechanical properties :
#
#
# Convention : Reuss Voigt Hill
#
# Bulk Modulus (GPa) = 66.05205 69.43582 67.74394
# Shear Modulus (GPa) = 54.14245 21.88667 38.01456
#
# Velocity S-wave (km/s) = 4.83654 3.07508 4.05267
# Velocity P-wave (km/s) = 7.72834 6.52746 7.15315
#
# Compressibility (1/GPa) = 0.01513958
#
# Stress axis : x y z
#
# Youngs Moduli (GPa) = 96.63736 60.79654 60.91442
#
# Poissons Ratio (x) = 0.17338 0.01615
# Poissons Ratio (y) = 0.27559 0.66517
# Poissons Ratio (z) = 0.02562 0.66388
#
# Static dielectric constant tensor:
#      x y z
#    x 3.946460 0.000000 0.000000 
#    y 0.000000 3.959010 0.000000 
#    z 0.000000 0.000000 4.277440 
# 
# 
# High freq. dielectric constant tensor:
#      x y z
#    x 1.921370 0.000000 0.000000 
#    y 0.000000 1.915730 0.000000 
#    z 0.000000 0.000000 1.923330 
# 
# From -- ./inp_files/19281.got.cif
#   From: 2010.03.12/outbox.cif.g09.slc.cpg/sg37_10_cif.got.tgz:19281.got - 2010.04.14 02:25:27.
