data_PCOD8176320
_publ_section_title
;
Structure prediction by ZEFSAII (Michael W. Deem and Ramdas Pophale) SiO2 
 PCOD8176320
Probable space group: C M C 21
;
_chemical_formula_sum "Si O2"
_cell_formula_units_Z 48
_cell_length_a 26.844467
_cell_length_b 7.659545
_cell_length_c 8.559346
_cell_angle_alpha 90.000000
_cell_angle_beta 90.000000
_cell_angle_gamma 90.000000
_cell_volume 1759.941936
_symmetry_space_group_name_H-M "C M C 21"
_symmetry_group_IT_number 36
_symmetry_cell_setting 'orthorhombic'
loop_
_space_group_symop_operation_xyz
x,y,z
-x,-y,1/2+z
x,-y,1/2+z
-x,y,z
1/2+x,1/2+y,z
1/2-x,1/2-y,1/2+z
1/2+x,1/2-y,1/2+z
1/2-x,1/2+y,z
loop_
_atom_site_type_symbol
_atom_site_label
_atom_site_fract_x
_atom_site_fract_y
_atom_site_fract_z
Si Si1 0.054808 0.863739 0.094270
Si Si2 0.943502 0.568194 0.852361
Si Si3 0.292112 0.361122 0.939239
Si Si4 0.770727 0.560485 0.156065
Si Si5 0.353073 0.231061 0.687380
Si Si6 0.587841 0.318943 0.412647
O O1 0.095790 0.880353 0.232992
O O2 0.000000 0.840822 0.170136
O O3 0.067731 0.690647 0.999373
O O4 0.052567 0.038326 0.992610
O O5 0.903422 0.621322 0.720011
O O6 0.937633 0.370286 0.907094
O O7 0.000000 0.599300 0.789344
O O8 0.243718 0.355346 0.822821
O O9 0.341927 0.371806 0.829291
O O10 0.281404 0.513887 0.065330
O O11 0.300435 0.188878 0.043257
O O12 0.803879 0.388781 0.183431
O O13 0.361009 0.315387 0.514936
#
# Coordination Sequence:
#
# PCOD8176320 Si02
#       6
#     8   8   8   8   8   8
#     4  11  25  47  74 110 154 212 277 327 384 469
#     4  11  26  50  80 114 160 217 270 326 397 478
#     4  12  25  49  77 109 149 198 252 329 393 476
#     4  12  25  49  79 110 150 197 257 322 404 476
#     4  12  27  48  78 115 156 204 261 331 400 488
#     4  12  26  45  74 112 157 210 262 333 398 471
#
# _framework density 27.273627999999999
#
# number of rings (size 3 to 8) (size 9 to 14) (size 15 to 20)
#    0.000    0.333    3.333    4.500    0.000    7.333 
#    0.000    1.667    0.000    0.000    0.000    0.000 
#    0.000    0.000    0.000    0.000    0.000    0.000 
#
# Total GULP energy -297434.924009 kJ/mol
# GULP energy per Si atom -12393.121834 kJ/mol
# Density = 2.721155 g / cm^3
# Si number density = 27.273628 Si / 1000 Ang^3
#
#
#
# Elastic Constant Matrix: (Units=GPa)
#
#
# Indices 1 2 3 4 5 6 
#
# 1 65.5177 -25.0728 -10.0603 0.0000 0.0000 0.0000
# 2 -25.0728 55.9035 7.9704 0.0000 0.0000 0.0000
# 3 -10.0603 7.9704 93.6617 0.0000 0.0000 0.0000
# 4 0.0000 0.0000 0.0000 32.1883 0.0000 0.0000
# 5 0.0000 0.0000 0.0000 0.0000 50.6904 0.0000
# 6 0.0000 0.0000 0.0000 0.0000 0.0000 24.5538
#
#
#
# Elastic Compliance Matrix: (Units=1/GPa)
#
#
# Indices 1 2 3 4 5 6 
#
# 1 0.018581 0.008148 0.001302 0.000000 0.000000 0.000000
# 2 0.008148 0.021681 -0.000970 0.000000 0.000000 0.000000
# 3 0.001302 -0.000970 0.010899 0.000000 0.000000 0.000000
# 4 0.000000 0.000000 0.000000 0.031067 0.000000 0.000000
# 5 0.000000 0.000000 0.000000 0.000000 0.019728 0.000000
# 6 0.000000 0.000000 0.000000 0.000000 0.000000 0.040727
#
#
# Mechanical properties :
#
#
# Convention : Reuss Voigt Hill
#
# Bulk Modulus (GPa) = 14.67950 17.86195 16.27072
# Shear Modulus (GPa) = 33.68618 37.63619 35.66118
#
# Velocity S-wave (km/s) = 3.51824 3.71880 3.61991
# Velocity P-wave (km/s) = 4.67953 5.00026 4.84255
#
# Compressibility (1/GPa) = 0.06812223
#
# Stress axis : x y z
#
# Youngs Moduli (GPa) = 53.81788 46.12415 91.75033
#
# Poissons Ratio (x) = -0.37582 -0.11950
# Poissons Ratio (y) = -0.43851 0.08898
# Poissons Ratio (z) = -0.07009 0.04473
#
# Static dielectric constant tensor:
#      x y z
#    x 2.923500 0.000000 0.000000 
#    y 0.000000 4.977020 0.000000 
#    z 0.000000 0.000000 5.224410 
# 
# 
# High freq. dielectric constant tensor:
#      x y z
#    x 2.083380 0.000000 0.000000 
#    y 0.000000 2.107790 0.000000 
#    z 0.000000 0.000000 2.117720 
# 
# From -- ./inp_files/5957.got.cif
#   From: 2010.03.12/outbox.cif.g09.slc.cpg/sg36_3_cif.got.tgz:5957.got - 2010.04.14 02:13:53.
