data_PCOD8176939
_publ_section_title
;
Structure prediction by ZEFSAII (Michael W. Deem and Ramdas Pophale) SiO2 
 PCOD8176939
Probable space group: C C C 2
;
_chemical_formula_sum "Si O2"
_cell_formula_units_Z 40
_cell_length_a 27.372076
_cell_length_b 12.356775
_cell_length_c 5.257056
_cell_angle_alpha 90.000000
_cell_angle_beta 90.000000
_cell_angle_gamma 90.000000
_cell_volume 1778.097123
_symmetry_space_group_name_H-M "C C C 2"
_symmetry_group_IT_number 37
_symmetry_cell_setting 'orthorhombic'
loop_
_space_group_symop_operation_xyz
x,y,z
-x,-y,z
-x,y,1/2+z
x,-y,1/2+z
1/2+x,1/2+y,z
1/2-x,1/2-y,z
1/2-x,1/2+y,1/2+z
1/2+x,1/2-y,1/2+z
loop_
_atom_site_type_symbol
_atom_site_label
_atom_site_fract_x
_atom_site_fract_y
_atom_site_fract_z
Si Si1 0.944679 0.454050 0.914990
Si Si2 0.249688 0.429376 0.972613
Si Si3 0.020099 0.879531 0.888652
Si Si4 0.607670 0.260515 0.975232
Si Si5 0.329851 0.749372 0.475807
O O1 0.917746 0.489588 0.654625
O O2 0.000000 0.500000 0.895091
O O3 0.936876 0.325988 0.944944
O O4 0.249410 0.482103 0.251145
O O5 0.298233 0.358496 0.947120
O O6 0.202070 0.356158 0.939735
O O7 0.078727 0.874416 0.939180
O O8 0.992208 0.820166 0.121909
O O9 0.000000 0.000000 0.843040
O O10 0.629740 0.252939 0.255813
O O11 0.648202 0.246805 0.759300
#
# Coordination Sequence:
#
# PCOD8176939 Si02
#       5
#     8   8   8   8   8
#     4  10  23  38  59  89 127 175 223 277 329 379
#     4  11  24  48  75 100 146 173 210 281 358 410
#     4  10  23  43  63  90 129 185 222 281 335 382
#     4  12  24  42  70  97 140 175 236 284 316 406
#     4  11  26  45  69 110 132 177 228 276 341 412
#
# _framework density 22.49596
#
# number of rings (size 3 to 8) (size 9 to 14) (size 15 to 20)
#    0.000    1.200    0.000    4.800    5.600    8.000 
#   21.600    0.000    0.000    0.000    0.000    0.000 
#    0.000    0.000    0.000    0.000    0.000    0.000 
#
# Total GULP energy -247863.222931 kJ/mol
# GULP energy per Si atom -12393.161147 kJ/mol
# Density = 2.244476 g / cm^3
# Si number density = 22.495960 Si / 1000 Ang^3
#
#
#
# Elastic Constant Matrix: (Units=GPa)
#
#
# Indices 1 2 3 4 5 6 
#
# 1 81.7067 33.4654 -0.0383 0.0000 0.0000 0.0000
# 2 33.4654 79.8151 -1.4238 0.0000 0.0000 0.0000
# 3 -0.0383 -1.4238 149.9976 0.0000 0.0000 0.0000
# 4 0.0000 0.0000 0.0000 203.0904 0.0000 0.0000
# 5 0.0000 0.0000 0.0000 0.0000 31.1210 0.0000
# 6 0.0000 0.0000 0.0000 0.0000 0.0000 20.1845
#
#
#
# Elastic Compliance Matrix: (Units=1/GPa)
#
#
# Indices 1 2 3 4 5 6 
#
# 1 0.014777 -0.006197 -0.000055 0.000000 0.000000 0.000000
# 2 -0.006197 0.015130 0.000142 0.000000 0.000000 0.000000
# 3 -0.000055 0.000142 0.006668 0.000000 0.000000 0.000000
# 4 0.000000 0.000000 0.000000 0.004924 0.000000 0.000000
# 5 0.000000 0.000000 0.000000 0.000000 0.032133 0.000000
# 6 0.000000 0.000000 0.000000 0.000000 0.000000 0.049543
#
#
# Mechanical properties :
#
#
# Convention : Reuss Voigt Hill
#
# Bulk Modulus (GPa) = 41.05895 41.72509 41.39202
# Shear Modulus (GPa) = 34.84026 69.51360 52.17693
#
# Velocity S-wave (km/s) = 3.93967 5.56485 4.82123
# Velocity P-wave (km/s) = 6.24387 7.73810 7.03079
#
# Compressibility (1/GPa) = 0.02435523
#
# Stress axis : x y z
#
# Youngs Moduli (GPa) = 67.67307 66.09512 149.96758
#
# Poissons Ratio (x) = 0.40957 0.00826
# Poissons Ratio (y) = 0.41935 -0.02130
# Poissons Ratio (z) = 0.00373 -0.00939
#
# Static dielectric constant tensor:
#      x y z
#    x 3.991510 0.000000 0.000000 
#    y 0.000000 4.010870 0.000000 
#    z 0.000000 0.000000 5.223630 
# 
# 
# High freq. dielectric constant tensor:
#      x y z
#    x 1.874410 0.000000 0.000000 
#    y 0.000000 1.882040 0.000000 
#    z 0.000000 0.000000 1.926630 
# 
# From -- ./inp_files/322.got.cif
#   From: 2010.03.12/outbox.cif.g09.slc.cpg/sg37_1_cif.got.tgz:322.got - 2010.04.14 02:25:27.
