data_PCOD8176919
_publ_section_title
;
Structure prediction by ZEFSAII (Michael W. Deem and Ramdas Pophale) SiO2 
 PCOD8176919
Probable space group: C C C 2
;
_chemical_formula_sum "Si O2"
_cell_formula_units_Z 64
_cell_length_a 8.964751
_cell_length_b 14.959529
_cell_length_c 21.606075
_cell_angle_alpha 90.000000
_cell_angle_beta 90.000000
_cell_angle_gamma 90.000000
_cell_volume 2897.557284
_symmetry_space_group_name_H-M "C C C 2"
_symmetry_group_IT_number 37
_symmetry_cell_setting 'orthorhombic'
loop_
_space_group_symop_operation_xyz
x,y,z
-x,-y,z
-x,y,1/2+z
x,-y,1/2+z
1/2+x,1/2+y,z
1/2-x,1/2-y,z
1/2-x,1/2+y,1/2+z
1/2+x,1/2-y,1/2+z
loop_
_atom_site_type_symbol
_atom_site_label
_atom_site_fract_x
_atom_site_fract_y
_atom_site_fract_z
Si Si1 0.883270 0.421833 0.652020
Si Si2 0.606057 0.918235 0.010930
Si Si3 0.094848 0.590521 0.842252
Si Si4 0.088813 0.722448 0.959188
Si Si5 0.663092 0.339744 0.281614
Si Si6 0.325567 0.521535 0.753781
Si Si7 0.581177 0.224436 0.739502
Si Si8 0.839980 0.840982 0.922222
O O1 0.835287 0.427891 0.580759
O O2 0.730377 0.429188 0.692027
O O3 0.944879 0.323297 0.672337
O O4 0.000000 0.500000 0.668607
O O5 0.500000 0.000000 0.990605
O O6 0.505930 0.828535 0.011457
O O7 0.750020 0.912584 0.964994
O O8 0.102622 0.652272 0.902719
O O9 0.259683 0.567328 0.816067
O O10 0.017131 0.653498 0.790482
O O11 0.000000 0.500000 0.854473
O O12 0.250000 0.750000 0.984710
O O13 0.006864 0.816693 0.944485
O O14 0.750000 0.250000 0.271495
O O15 0.743513 0.421130 0.246868
O O16 0.502292 0.319425 0.249075
O O17 0.648736 0.374374 0.352251
O O18 0.500000 0.500000 0.761202
O O19 0.750000 0.250000 0.753210
O O20 0.750000 0.750000 0.923890
#
# Coordination Sequence:
#
# PCOD8176919 Si02
#       8
#     8   8   8   8   8   8   8   8
#     4  10  22  45  66  87 126 178 225 267 320 404
#     4  10  23  45  68  90 122 178 233 267 324 398
#     4  11  22  38  61  89 131 178 211 247 326 405
#     4  11  23  40  64  95 131 164 215 278 333 389
#     4  11  20  34  57  93 128 162 205 259 319 388
#     4  11  24  37  60  99 134 164 212 268 326 379
#     4  11  21  36  62  93 126 169 204 263 329 376
#     4   9  21  37  61  92 131 166 214 266 323 398
#
# _framework density 22.087569999999999
#
# number of rings (size 3 to 8) (size 9 to 14) (size 15 to 20)
#    0.000    1.500    1.250    5.250    7.000    1.500 
#    0.000    6.250    0.000    0.000    0.000    0.000 
#    0.000    0.000    0.000    0.000    0.000    0.000 
#
# Total GULP energy -396454.799982 kJ/mol
# GULP energy per Si atom -12389.212499 kJ/mol
# Density = 2.203730 g / cm^3
# Si number density = 22.087570 Si / 1000 Ang^3
#
#
#
# Elastic Constant Matrix: (Units=GPa)
#
#
# Indices 1 2 3 4 5 6 
#
# 1 108.4729 6.7021 39.8636 0.0000 0.0000 0.0000
# 2 6.7021 74.7278 31.5473 0.0000 0.0000 0.0000
# 3 39.8636 31.5473 93.1139 0.0000 0.0000 0.0000
# 4 0.0000 0.0000 0.0000 27.8941 0.0000 0.0000
# 5 0.0000 0.0000 0.0000 0.0000 23.0232 0.0000
# 6 0.0000 0.0000 0.0000 0.0000 0.0000 39.7718
#
#
#
# Elastic Compliance Matrix: (Units=1/GPa)
#
#
# Indices 1 2 3 4 5 6 
#
# 1 0.011027 0.001172 -0.005118 0.000000 0.000000 0.000000
# 2 0.001172 0.015740 -0.005834 0.000000 0.000000 0.000000
# 3 -0.005118 -0.005834 0.014907 0.000000 0.000000 0.000000
# 4 0.000000 0.000000 0.000000 0.035850 0.000000 0.000000
# 5 0.000000 0.000000 0.000000 0.000000 0.043435 0.000000
# 6 0.000000 0.000000 0.000000 0.000000 0.000000 0.025143
#
#
# Mechanical properties :
#
#
# Convention : Reuss Voigt Hill
#
# Bulk Modulus (GPa) = 45.22185 48.06008 46.64097
# Shear Modulus (GPa) = 28.89596 31.35125 30.12361
#
# Velocity S-wave (km/s) = 3.62089 3.77159 3.69701
# Velocity P-wave (km/s) = 6.16437 6.38535 6.27583
#
# Compressibility (1/GPa) = 0.02211320
#
# Stress axis : x y z
#
# Youngs Moduli (GPa) = 90.68383 63.53304 67.08136
#
# Poissons Ratio (x) = -0.07443 0.34332
# Poissons Ratio (y) = -0.10624 0.39137
# Poissons Ratio (z) = 0.46411 0.37067
#
# Static dielectric constant tensor:
#      x y z
#    x 4.703150 0.000000 0.000000 
#    y 0.000000 4.851660 0.000000 
#    z 0.000000 0.000000 3.730930 
# 
# 
# High freq. dielectric constant tensor:
#      x y z
#    x 1.869390 0.000000 0.000000 
#    y 0.000000 1.888470 0.000000 
#    z 0.000000 0.000000 1.835940 
# 
# From -- ./inp_files/16554.got.cif
#   From: 2010.03.12/outbox.cif.g09.slc.cpg/sg37_9_cif.got.tgz:16554.got - 2010.04.14 02:25:27.
