data_PCOD8176354
_publ_section_title
;
Structure prediction by ZEFSAII (Michael W. Deem and Ramdas Pophale) SiO2 
 PCOD8176354
Probable space group: C C C 2
;
_chemical_formula_sum "Si O2"
_cell_formula_units_Z 56
_cell_length_a 17.176110
_cell_length_b 29.482545
_cell_length_c 5.313065
_cell_angle_alpha 90.000000
_cell_angle_beta 90.000000
_cell_angle_gamma 90.000000
_cell_volume 2690.511867
_symmetry_space_group_name_H-M "C C C 2"
_symmetry_group_IT_number 37
_symmetry_cell_setting 'orthorhombic'
loop_
_space_group_symop_operation_xyz
x,y,z
-x,-y,z
-x,y,1/2+z
x,-y,1/2+z
1/2+x,1/2+y,z
1/2-x,1/2-y,z
1/2-x,1/2+y,1/2+z
1/2+x,1/2-y,1/2+z
loop_
_atom_site_type_symbol
_atom_site_label
_atom_site_fract_x
_atom_site_fract_y
_atom_site_fract_z
Si Si1 0.215141 0.052035 0.900530
Si Si2 0.419882 0.177319 0.388691
Si Si3 0.549991 0.588878 0.886729
Si Si4 0.407090 0.785402 0.388543
Si Si5 0.780458 0.549007 0.400391
Si Si6 0.047907 0.189951 0.927653
Si Si7 0.453369 0.928753 0.892464
O O1 0.121940 0.054570 0.898456
O O2 0.251961 0.075697 0.651310
O O3 0.240397 0.999859 0.904383
O O4 0.250484 0.075790 0.151667
O O5 0.500142 0.205269 0.389646
O O6 0.370816 0.191922 0.636935
O O7 0.436390 0.124381 0.393674
O O8 0.371152 0.190878 0.138247
O O9 0.505105 0.579888 0.625973
O O10 0.585253 0.640062 0.895016
O O11 0.390847 0.731152 0.389622
O O12 0.873180 0.543595 0.396829
O O13 0.982842 0.194932 0.711873
O O14 0.498790 0.942910 0.640146
#
# Coordination Sequence:
#
# PCOD8176354 Si02
#       7
#     8   8   8   8   8   8   8
#     4  10  21  45  59  80 116 149 193 217 292 369
#     4  10  16  25  44  71 113 143 169 222 287 312
#     4  10  21  35  60  92 114 138 186 247 280 320
#     4  10  14  25  41  71 113 145 163 211 298 325
#     4  10  23  40  63  79 109 161 188 222 292 356
#     4  10  16  25  44  76 116 136 172 213 281 328
#     4  12  21  35  55  89 116 138 200 250 273 312
#
# _framework density 20.813884000000002
#
# number of rings (size 3 to 8) (size 9 to 14) (size 15 to 20)
#    0.000    1.714    5.714    1.714    0.000    0.000 
#    0.000   17.143    0.000    0.000    0.000    6.000 
#    0.000    0.000    0.000    0.000    0.000    0.000 
#
# Total GULP energy -346957.458676 kJ/mol
# GULP energy per Si atom -12391.337810 kJ/mol
# Density = 2.076651 g / cm^3
# Si number density = 20.813884 Si / 1000 Ang^3
#
#
#
# Elastic Constant Matrix: (Units=GPa)
#
#
# Indices 1 2 3 4 5 6 
#
# 1 78.5151 27.3542 37.1646 0.0000 0.0000 0.0000
# 2 27.3542 61.8037 10.0694 0.0000 0.0000 0.0000
# 3 37.1646 10.0694 215.1735 0.0000 0.0000 0.0000
# 4 0.0000 0.0000 0.0000 4.5558 0.0000 0.0000
# 5 0.0000 0.0000 0.0000 0.0000 25.7586 0.0000
# 6 0.0000 0.0000 0.0000 0.0000 0.0000 2.7632
#
#
#
# Elastic Compliance Matrix: (Units=1/GPa)
#
#
# Indices 1 2 3 4 5 6 
#
# 1 0.016287 -0.006802 -0.002495 0.000000 0.000000 0.000000
# 2 -0.006802 0.019145 0.000279 0.000000 0.000000 0.000000
# 3 -0.002495 0.000279 0.005065 0.000000 0.000000 0.000000
# 4 0.000000 0.000000 0.000000 0.219501 0.000000 0.000000
# 5 0.000000 0.000000 0.000000 0.000000 0.038822 0.000000
# 6 0.000000 0.000000 0.000000 0.000000 0.000000 0.361903
#
#
# Mechanical properties :
#
#
# Convention : Reuss Voigt Hill
#
# Bulk Modulus (GPa) = 44.52010 56.07428 50.29719
# Shear Modulus (GPa) = 7.28601 25.34246 16.31423
#
# Velocity S-wave (km/s) = 1.87301 3.49316 2.80271
# Velocity P-wave (km/s) = 5.11015 6.57791 5.88993
#
# Compressibility (1/GPa) = 0.02246177
#
# Stress axis : x y z
#
# Youngs Moduli (GPa) = 61.39820 52.23171 197.42332
#
# Poissons Ratio (x) = 0.35529 0.49253
# Poissons Ratio (y) = 0.41764 -0.05507
# Poissons Ratio (z) = 0.15318 -0.01457
#
# Static dielectric constant tensor:
#      x y z
#    x 3.183040 0.000000 0.000000 
#    y 0.000000 3.691710 0.000000 
#    z 0.000000 0.000000 7.556320 
# 
# 
# High freq. dielectric constant tensor:
#      x y z
#    x 1.740390 0.000000 0.000000 
#    y 0.000000 1.801030 0.000000 
#    z 0.000000 0.000000 1.863450 
# 
# From -- ./inp_files/638.got.cif
#   From: 2010.03.12/outbox.cif.g09.slc.cpg/sg37_1_cif.got.tgz:638.got - 2010.04.14 02:25:27.
