data_PCOD8176174
_publ_section_title
;
Structure prediction by ZEFSAII (Michael W. Deem and Ramdas Pophale) SiO2 
 PCOD8176174
Probable space group: C M C 21
;
_chemical_formula_sum "Si O2"
_cell_formula_units_Z 40
_cell_length_a 19.216296
_cell_length_b 8.914433
_cell_length_c 10.535157
_cell_angle_alpha 90.000000
_cell_angle_beta 90.000000
_cell_angle_gamma 90.000000
_cell_volume 1804.697501
_symmetry_space_group_name_H-M "C M C 21"
_symmetry_group_IT_number 36
_symmetry_cell_setting 'orthorhombic'
loop_
_space_group_symop_operation_xyz
x,y,z
-x,-y,1/2+z
x,-y,1/2+z
-x,y,z
1/2+x,1/2+y,z
1/2-x,1/2-y,1/2+z
1/2+x,1/2-y,1/2+z
1/2-x,1/2+y,z
loop_
_atom_site_type_symbol
_atom_site_label
_atom_site_fract_x
_atom_site_fract_y
_atom_site_fract_z
Si Si1 0.193770 0.620729 0.218830
Si Si2 0.581697 0.360884 0.148829
Si Si3 0.151367 0.182521 0.165006
Si Si4 0.649084 0.071336 0.489368
Si Si5 0.576004 0.799733 0.395832
O O1 0.128332 0.735879 0.219354
O O2 0.265745 0.691525 0.174394
O O3 0.199575 0.567675 0.365855
O O4 0.186018 0.487997 0.117139
O O5 0.500000 0.353608 0.192532
O O6 0.615233 0.521622 0.177523
O O7 0.587426 0.330966 0.998813
O O8 0.129235 0.284847 0.282641
O O9 0.127622 0.259196 0.030933
O O10 0.583784 0.963838 0.460180
O O11 0.500000 0.789043 0.336150
#
# Coordination Sequence:
#
# PCOD8176174 Si02
#       5
#     8   8   8   8   8
#     4  11  26  44  73 104 142 183 232 289 346 417
#     4  10  25  46  69 103 144 181 227 291 357 415
#     4  12  25  42  73 102 139 181 237 283 352 410
#     4  11  25  46  68 102 135 188 231 282 342 412
#     4  10  24  46  67  99 141 181 233 287 344 416
#
# _framework density 22.164380000000001
#
# number of rings (size 3 to 8) (size 9 to 14) (size 15 to 20)
#    0.000    1.200    2.000    1.800   11.200    2.400 
#    0.000    0.000    0.000    0.000    0.000    0.000 
#    0.000    0.000    0.000    0.000    0.000    0.000 
#
# Total GULP energy -247846.772199 kJ/mol
# GULP energy per Si atom -12392.338610 kJ/mol
# Density = 2.211393 g / cm^3
# Si number density = 22.164380 Si / 1000 Ang^3
#
#
#
# Elastic Constant Matrix: (Units=GPa)
#
#
# Indices 1 2 3 4 5 6 
#
# 1 130.3707 38.0712 32.9086 0.0000 0.0000 0.0000
# 2 38.0712 97.7472 44.1387 0.0000 0.0000 0.0000
# 3 32.9086 44.1387 132.9356 0.0000 0.0000 0.0000
# 4 0.0000 0.0000 0.0000 33.1875 0.0000 0.0000
# 5 0.0000 0.0000 0.0000 0.0000 25.0843 0.0000
# 6 0.0000 0.0000 0.0000 0.0000 0.0000 27.8522
#
#
#
# Elastic Compliance Matrix: (Units=1/GPa)
#
#
# Indices 1 2 3 4 5 6 
#
# 1 0.008822 -0.002882 -0.001227 0.000000 0.000000 0.000000
# 2 -0.002882 0.012976 -0.003595 0.000000 0.000000 0.000000
# 3 -0.001227 -0.003595 0.009020 0.000000 0.000000 0.000000
# 4 0.000000 0.000000 0.000000 0.030132 0.000000 0.000000
# 5 0.000000 0.000000 0.000000 0.000000 0.039866 0.000000
# 6 0.000000 0.000000 0.000000 0.000000 0.000000 0.035904
#
#
# Mechanical properties :
#
#
# Convention : Reuss Voigt Hill
#
# Bulk Modulus (GPa) = 64.89304 65.69894 65.29599
# Shear Modulus (GPa) = 31.79373 33.62048 32.70710
#
# Velocity S-wave (km/s) = 3.79152 3.89893 3.84560
# Velocity P-wave (km/s) = 6.96485 7.06929 7.01727
#
# Compressibility (1/GPa) = 0.01540997
#
# Stress axis : x y z
#
# Youngs Moduli (GPa) = 113.35650 77.06328 110.86630
#
# Poissons Ratio (x) = 0.22209 0.13603
# Poissons Ratio (y) = 0.32668 0.39858
# Poissons Ratio (z) = 0.13908 0.27705
#
# Static dielectric constant tensor:
#      x y z
#    x 3.850130 0.000000 0.000000 
#    y 0.000000 4.100720 0.000000 
#    z 0.000000 0.000000 4.009860 
# 
# 
# High freq. dielectric constant tensor:
#      x y z
#    x 1.862170 0.000000 0.000000 
#    y 0.000000 1.882620 0.000000 
#    z 0.000000 0.000000 1.880180 
# 
# From -- ./inp_files/8772.got.cif
#   From: 2010.03.12/outbox.cif.g09.slc.cpg/sg36_5_cif.got.tgz:8772.got - 2010.04.14 02:13:53.
