data_PCOD8176090
_publ_section_title
;
Structure prediction by ZEFSAII (Michael W. Deem and Ramdas Pophale) SiO2 
 PCOD8176090
Probable space group: C M C 21
;
_chemical_formula_sum "Si O2"
_cell_formula_units_Z 48
_cell_length_a 26.224876
_cell_length_b 7.655983
_cell_length_c 8.597832
_cell_angle_alpha 90.000000
_cell_angle_beta 90.000000
_cell_angle_gamma 90.000000
_cell_volume 1726.248677
_symmetry_space_group_name_H-M "C M C 21"
_symmetry_group_IT_number 36
_symmetry_cell_setting 'orthorhombic'
loop_
_space_group_symop_operation_xyz
x,y,z
-x,-y,1/2+z
x,-y,1/2+z
-x,y,z
1/2+x,1/2+y,z
1/2-x,1/2-y,1/2+z
1/2+x,1/2-y,1/2+z
1/2-x,1/2+y,z
loop_
_atom_site_type_symbol
_atom_site_label
_atom_site_fract_x
_atom_site_fract_y
_atom_site_fract_z
Si Si1 0.347469 0.616315 0.380630
Si Si2 0.609451 0.082923 0.071765
Si Si3 0.000000 0.752122 0.665956
Si Si4 0.760601 0.099913 0.993865
Si Si5 0.500000 0.088359 0.008176
Si Si6 0.607533 0.322880 0.567978
Si Si7 0.698230 0.894654 0.796218
O O1 0.370029 0.800942 0.432019
O O2 0.291285 0.585682 0.461360
O O3 0.347394 0.623719 0.192093
O O4 0.385271 0.456093 0.426239
O O5 0.641801 0.111648 0.227824
O O6 0.613362 0.880513 0.018432
O O7 0.551188 0.145892 0.100989
O O8 0.000000 0.649257 0.829871
O O9 0.947679 0.861845 0.649035
O O10 0.000000 0.622081 0.517452
O O11 0.799488 0.244542 0.928701
O O12 0.709265 0.077188 0.887541
O O13 0.743467 0.130433 0.169906
#
# Coordination Sequence:
#
# PCOD8176090 Si02
#       7
#     8   8   4   8   4   8   8
#     4  12  26  50  73 113 158 197 263 323 385 480
#     4  11  26  46  79 109 150 209 251 327 386 468
#     4  10  22  49  71 115 146 203 262 325 390 483
#     4  12  28  48  74 115 153 208 259 329 387 483
#     4  10  22  47  77 107 156 191 268 317 388 477
#     4  11  27  46  77 109 154 201 258 321 397 462
#     4  12  27  46  75 110 155 202 265 318 398 466
#
# _framework density 27.805961
#
# number of rings (size 3 to 8) (size 9 to 14) (size 15 to 20)
#    0.000    0.667    1.667    5.000    9.333    2.667 
#    6.000    0.000    0.000    0.000    0.000    0.000 
#    0.000    0.000    0.000    0.000    0.000    0.000 
#
# Total GULP energy -297557.502513 kJ/mol
# GULP energy per Si atom -12398.229271 kJ/mol
# Density = 2.774267 g / cm^3
# Si number density = 27.805961 Si / 1000 Ang^3
#
#
#
# Elastic Constant Matrix: (Units=GPa)
#
#
# Indices 1 2 3 4 5 6 
#
# 1 111.9250 41.2879 -11.3360 0.0000 0.0000 0.0000
# 2 41.2879 97.0173 47.1725 0.0000 0.0000 0.0000
# 3 -11.3360 47.1725 96.7563 0.0000 0.0000 0.0000
# 4 0.0000 0.0000 0.0000 55.9057 0.0000 0.0000
# 5 0.0000 0.0000 0.0000 0.0000 34.4103 0.0000
# 6 0.0000 0.0000 0.0000 0.0000 0.0000 35.9417
#
#
#
# Elastic Compliance Matrix: (Units=1/GPa)
#
#
# Indices 1 2 3 4 5 6 
#
# 1 0.012347 -0.007809 0.005254 0.000000 0.000000 0.000000
# 2 -0.007809 0.018449 -0.009910 0.000000 0.000000 0.000000
# 3 0.005254 -0.009910 0.015782 0.000000 0.000000 0.000000
# 4 0.000000 0.000000 0.000000 0.017887 0.000000 0.000000
# 5 0.000000 0.000000 0.000000 0.000000 0.029061 0.000000
# 6 0.000000 0.000000 0.000000 0.000000 0.000000 0.027823
#
#
# Mechanical properties :
#
#
# Convention : Reuss Voigt Hill
#
# Bulk Modulus (GPa) = 46.19195 51.10527 48.64861
# Shear Modulus (GPa) = 32.57401 40.48981 36.53191
#
# Velocity S-wave (km/s) = 3.42640 3.82010 3.62859
# Velocity P-wave (km/s) = 5.68348 6.15441 5.92362
#
# Compressibility (1/GPa) = 0.02164879
#
# Stress axis : x y z
#
# Youngs Moduli (GPa) = 80.98811 54.20263 63.36255
#
# Poissons Ratio (x) = 0.42329 -0.33291
# Poissons Ratio (y) = 0.63247 0.62790
# Poissons Ratio (z) = -0.42551 0.53713
#
# Static dielectric constant tensor:
#      x y z
#    x 5.920880 0.000000 0.000000 
#    y 0.000000 5.097910 0.000000 
#    z 0.000000 0.000000 4.661460 
# 
# 
# High freq. dielectric constant tensor:
#      x y z
#    x 2.157250 0.000000 0.000000 
#    y 0.000000 2.118660 0.000000 
#    z 0.000000 0.000000 2.116620 
# 
# From -- ./inp_files/6011.got.cif
#   From: 2010.03.12/outbox.cif.g09.slc.cpg/sg36_4_cif.got.tgz:6011.got - 2010.04.14 02:13:53.
