data_PCOD8176978
_publ_section_title
;
Structure prediction by ZEFSAII (Michael W. Deem and Ramdas Pophale) SiO2 
 PCOD8176978
Probable space group: C C C 2
;
_chemical_formula_sum "Si O2"
_cell_formula_units_Z 48
_cell_length_a 8.297922
_cell_length_b 19.258520
_cell_length_c 13.519507
_cell_angle_alpha 90.000000
_cell_angle_beta 90.000000
_cell_angle_gamma 90.000000
_cell_volume 2160.494236
_symmetry_space_group_name_H-M "C C C 2"
_symmetry_group_IT_number 37
_symmetry_cell_setting 'orthorhombic'
loop_
_space_group_symop_operation_xyz
x,y,z
-x,-y,z
-x,y,1/2+z
x,-y,1/2+z
1/2+x,1/2+y,z
1/2-x,1/2-y,z
1/2-x,1/2+y,1/2+z
1/2+x,1/2-y,1/2+z
loop_
_atom_site_type_symbol
_atom_site_label
_atom_site_fract_x
_atom_site_fract_y
_atom_site_fract_z
Si Si1 0.194555 0.447323 0.495330
Si Si2 0.894367 0.876513 0.215695
Si Si3 0.000000 0.500000 0.820603
Si Si4 0.969278 0.397636 0.654810
Si Si5 0.000000 0.000000 0.603211
Si Si6 0.564406 0.747584 0.084912
Si Si7 0.847661 0.815289 0.420155
O O1 0.033410 0.445187 0.564103
O O2 0.338949 0.495731 0.536411
O O3 0.244693 0.366306 0.489348
O O4 0.151817 0.479445 0.388549
O O5 0.721693 0.900378 0.172683
O O6 0.013977 0.934958 0.176710
O O7 0.959839 0.804819 0.173960
O O8 0.907564 0.866251 0.333188
O O9 0.048561 0.432547 0.753419
O O10 0.013337 0.318025 0.629347
O O11 0.750000 0.750000 0.055013
O O12 0.485270 0.720270 0.984601
O O13 0.750000 0.750000 0.374008
#
# Coordination Sequence:
#
# PCOD8176978 Si02
#       7
#     8   8   4   8   4   8   8
#     4  12  26  44  72 103 145 186 235 293 351 422
#     4  11  24  45  71 103 142 189 231 293 356 418
#     4  12  24  44  70 108 136 194 234 282 360 430
#     4  11  23  46  71 102 140 184 240 289 348 426
#     4  12  26  48  66 102 156 184 232 304 352 416
#     4  10  23  45  74 102 142 186 232 295 356 415
#     4  12  23  47  72 102 136 184 239 292 356 419
#
# _framework density 22.217141000000002
#
# number of rings (size 3 to 8) (size 9 to 14) (size 15 to 20)
#    0.000    0.667    5.000    4.000    0.000    0.667 
#    0.000    4.167    0.000    0.000    0.000    0.000 
#    0.000    0.000    0.000    0.000    0.000    0.000 
#
# Total GULP energy -297378.708620 kJ/mol
# GULP energy per Si atom -12390.779526 kJ/mol
# Density = 2.216657 g / cm^3
# Si number density = 22.217141 Si / 1000 Ang^3
#
#
#
# Elastic Constant Matrix: (Units=GPa)
#
#
# Indices 1 2 3 4 5 6 
#
# 1 53.9137 53.5692 55.2658 0.0000 0.0000 0.0000
# 2 53.5692 148.0223 70.9801 0.0000 0.0000 0.0000
# 3 55.2658 70.9801 156.8769 0.0000 0.0000 0.0000
# 4 0.0000 0.0000 0.0000 48.8552 0.0000 0.0000
# 5 0.0000 0.0000 0.0000 0.0000 32.4432 0.0000
# 6 0.0000 0.0000 0.0000 0.0000 0.0000 37.3761
#
#
#
# Elastic Compliance Matrix: (Units=1/GPa)
#
#
# Indices 1 2 3 4 5 6 
#
# 1 0.036490 -0.008992 -0.008786 0.000000 0.000000 0.000000
# 2 -0.008992 0.010844 -0.001738 0.000000 0.000000 0.000000
# 3 -0.008786 -0.001738 0.010256 0.000000 0.000000 0.000000
# 4 0.000000 0.000000 0.000000 0.020469 0.000000 0.000000
# 5 0.000000 0.000000 0.000000 0.000000 0.030823 0.000000
# 6 0.000000 0.000000 0.000000 0.000000 0.000000 0.026755
#
#
# Mechanical properties :
#
#
# Convention : Reuss Voigt Hill
#
# Bulk Modulus (GPa) = 53.89208 79.82700 66.85954
# Shear Modulus (GPa) = 27.64639 35.66809 31.65724
#
# Velocity S-wave (km/s) = 3.53139 4.01113 3.77888
# Velocity P-wave (km/s) = 6.39823 7.58028 7.01420
#
# Compressibility (1/GPa) = 0.01855560
#
# Stress axis : x y z
#
# Youngs Moduli (GPa) = 27.40507 92.21959 97.50169
#
# Poissons Ratio (x) = 0.82928 0.85667
# Poissons Ratio (y) = 0.24644 0.16950
# Poissons Ratio (z) = 0.24079 0.16031
#
# Static dielectric constant tensor:
#      x y z
#    x 3.492820 0.000000 0.000000 
#    y 0.000000 4.314270 0.000000 
#    z 0.000000 0.000000 3.969110 
# 
# 
# High freq. dielectric constant tensor:
#      x y z
#    x 1.852650 0.000000 0.000000 
#    y 0.000000 1.901350 0.000000 
#    z 0.000000 0.000000 1.877840 
# 
# From -- ./inp_files/10650.got.cif
#   From: 2010.03.12/outbox.cif.g09.slc.cpg/sg37_6_cif.got.tgz:10650.got - 2010.04.14 02:25:27.
