data_PCOD8176852
_publ_section_title
;
Structure prediction by ZEFSAII (Michael W. Deem and Ramdas Pophale) SiO2 
 PCOD8176852
Probable space group: C C C 2
;
_chemical_formula_sum "Si O2"
_cell_formula_units_Z 60
_cell_length_a 10.330024
_cell_length_b 30.560760
_cell_length_c 8.841042
_cell_angle_alpha 90.000000
_cell_angle_beta 90.000000
_cell_angle_gamma 90.000000
_cell_volume 2791.058469
_symmetry_space_group_name_H-M "C C C 2"
_symmetry_group_IT_number 37
_symmetry_cell_setting 'orthorhombic'
loop_
_space_group_symop_operation_xyz
x,y,z
-x,-y,z
-x,y,1/2+z
x,-y,1/2+z
1/2+x,1/2+y,z
1/2-x,1/2-y,z
1/2-x,1/2+y,1/2+z
1/2+x,1/2-y,1/2+z
loop_
_atom_site_type_symbol
_atom_site_label
_atom_site_fract_x
_atom_site_fract_y
_atom_site_fract_z
Si Si1 0.486612 0.668164 0.184870
Si Si2 0.753982 0.039035 0.984823
Si Si3 0.147832 0.376259 0.394346
Si Si4 0.500000 0.000000 0.546795
Si Si5 0.609818 0.472766 0.281331
Si Si6 0.320090 0.704018 0.925160
Si Si7 0.626977 0.612591 0.938329
Si Si8 0.901726 0.407239 0.575703
O O1 0.598211 0.694913 0.272561
O O2 0.383482 0.649324 0.306805
O O3 0.412350 0.701252 0.072665
O O4 0.553186 0.628692 0.089174
O O5 0.610435 0.021404 0.944137
O O6 0.775315 0.039680 0.166368
O O7 0.762559 0.088580 0.925292
O O8 0.853677 0.007717 0.907397
O O9 0.203609 0.330033 0.443968
O O10 0.116121 0.376101 0.218163
O O11 0.020381 0.386773 0.487089
O O12 0.569132 0.042108 0.630735
O O13 0.500000 0.500000 0.189764
O O14 0.556282 0.430265 0.370307
O O15 0.250000 0.750000 0.913423
O O16 0.774071 0.597288 0.971249
#
# Coordination Sequence:
#
# PCOD8176852 Si02
#       8
#     8   8   8   4   8   8   8   8
#     4  10  25  47  76 103 141 190 225 297 363 428
#     4  11  25  41  61  90 137 177 243 287 348 397
#     4  11  26  43  68 101 136 183 230 294 352 426
#     4  10  22  40  60  88 132 178 226 284 332 386
#     4  12  27  38  60  96 133 191 239 293 330 409
#     4  11  25  50  76 108 143 175 236 294 366 439
#     4  11  24  45  69  97 144 188 240 284 356 418
#     4  11  24  42  68 101 139 186 237 288 345 414
#
# _framework density 21.497219999999999
#
# number of rings (size 3 to 8) (size 9 to 14) (size 15 to 20)
#    0.000    1.067    2.667    2.000   13.067    3.733 
#    0.000    1.333    0.000    0.000    0.000    0.000 
#    0.000    0.000    0.000    0.000    0.000    0.000 
#
# Total GULP energy -371828.681744 kJ/mol
# GULP energy per Si atom -12394.289391 kJ/mol
# Density = 2.144829 g / cm^3
# Si number density = 21.497220 Si / 1000 Ang^3
#
#
#
# Elastic Constant Matrix: (Units=GPa)
#
#
# Indices 1 2 3 4 5 6 
#
# 1 101.6764 58.2503 45.4851 0.0000 0.0000 0.0000
# 2 58.2503 140.5867 45.3574 0.0000 0.0000 0.0000
# 3 45.4851 45.3574 122.7664 0.0000 0.0000 0.0000
# 4 0.0000 0.0000 0.0000 19.1484 0.0000 0.0000
# 5 0.0000 0.0000 0.0000 0.0000 22.1823 0.0000
# 6 0.0000 0.0000 0.0000 0.0000 0.0000 35.1974
#
#
#
# Elastic Compliance Matrix: (Units=1/GPa)
#
#
# Indices 1 2 3 4 5 6 
#
# 1 0.014094 -0.004717 -0.003479 0.000000 0.000000 0.000000
# 2 -0.004717 0.009655 -0.001819 0.000000 0.000000 0.000000
# 3 -0.003479 -0.001819 0.010107 0.000000 0.000000 0.000000
# 4 0.000000 0.000000 0.000000 0.052224 0.000000 0.000000
# 5 0.000000 0.000000 0.000000 0.000000 0.045081 0.000000
# 6 0.000000 0.000000 0.000000 0.000000 0.000000 0.028411
#
#
# Mechanical properties :
#
#
# Convention : Reuss Voigt Hill
#
# Bulk Modulus (GPa) = 72.33680 73.69057 73.01369
# Shear Modulus (GPa) = 27.14294 29.70140 28.42217
#
# Velocity S-wave (km/s) = 3.55720 3.72107 3.64006
# Velocity P-wave (km/s) = 7.11294 7.26742 7.19060
#
# Compressibility (1/GPa) = 0.01382422
#
# Stress axis : x y z
#
# Youngs Moduli (GPa) = 70.95249 103.57860 98.94474
#
# Poissons Ratio (x) = 0.48860 0.34423
# Poissons Ratio (y) = 0.33470 0.18000
# Poissons Ratio (z) = 0.24684 0.18843
#
# Static dielectric constant tensor:
#      x y z
#    x 4.033200 0.000000 0.000000 
#    y 0.000000 3.850660 0.000000 
#    z 0.000000 0.000000 3.853820 
# 
# 
# High freq. dielectric constant tensor:
#      x y z
#    x 1.855480 0.000000 0.000000 
#    y 0.000000 1.823020 0.000000 
#    z 0.000000 0.000000 1.849840 
# 
# From -- ./inp_files/3049.got.cif
#   From: 2010.03.12/outbox.cif.g09.slc.cpg/sg37_2_cif.got.tgz:3049.got - 2010.04.14 02:25:27.
