data_PCOD8176780
_publ_section_title
;
Structure prediction by ZEFSAII (Michael W. Deem and Ramdas Pophale) SiO2 
 PCOD8176780
Probable space group: C C C 2
;
_chemical_formula_sum "Si O2"
_cell_formula_units_Z 56
_cell_length_a 13.451755
_cell_length_b 20.813493
_cell_length_c 9.325027
_cell_angle_alpha 90.000000
_cell_angle_beta 90.000000
_cell_angle_gamma 90.000000
_cell_volume 2610.802489
_symmetry_space_group_name_H-M "C C C 2"
_symmetry_group_IT_number 37
_symmetry_cell_setting 'orthorhombic'
loop_
_space_group_symop_operation_xyz
x,y,z
-x,-y,z
-x,y,1/2+z
x,-y,1/2+z
1/2+x,1/2+y,z
1/2-x,1/2-y,z
1/2-x,1/2+y,1/2+z
1/2+x,1/2-y,1/2+z
loop_
_atom_site_type_symbol
_atom_site_label
_atom_site_fract_x
_atom_site_fract_y
_atom_site_fract_z
Si Si1 0.138750 0.569279 0.031480
Si Si2 0.736427 0.818619 0.389684
Si Si3 0.948615 0.367298 0.436577
Si Si4 0.945265 0.289534 0.702572
Si Si5 0.933255 0.856919 0.236989
Si Si6 0.933875 0.936831 0.946262
Si Si7 0.712923 0.041621 0.344649
O O1 0.176889 0.540155 0.180055
O O2 0.020300 0.578336 0.008301
O O3 0.187484 0.639143 0.013161
O O4 0.175925 0.525903 0.902156
O O5 0.750000 0.750000 0.468047
O O6 0.665312 0.803305 0.256134
O O7 0.833021 0.853776 0.328860
O O8 0.946005 0.304736 0.535126
O O9 0.840384 0.399058 0.424215
O O10 0.981259 0.339547 0.282438
O O11 0.975279 0.214831 0.711407
O O12 0.014074 0.892869 0.330098
O O13 0.915275 0.896631 0.091114
O O14 0.830457 0.955487 0.869955
O O15 0.000000 0.000000 0.980394
#
# Coordination Sequence:
#
# PCOD8176780 Si02
#       7
#     8   8   8   8   8   8   8
#     4  11  26  43  70 103 136 179 226 285 348 412
#     4   9  21  43  71  97 136 182 229 282 348 403
#     4  11  22  44  69 103 137 172 223 284 352 414
#     4  10  21  41  71  99 137 177 224 286 348 412
#     4  11  24  45  67  99 134 185 233 285 339 403
#     4  12  28  44  70  96 141 184 237 285 337 408
#     4  12  28  44  69 103 141 181 231 284 341 415
#
# _framework density 21.449344
#
# number of rings (size 3 to 8) (size 9 to 14) (size 15 to 20)
#    0.000    1.143    1.429    3.429   12.000    1.143 
#    0.000    2.143    0.000    0.000    0.000    0.000 
#    0.000    0.000    0.000    0.000    0.000    0.000 
#
# Total GULP energy -347180.882355 kJ/mol
# GULP energy per Si atom -12399.317227 kJ/mol
# Density = 2.140052 g / cm^3
# Si number density = 21.449344 Si / 1000 Ang^3
#
#
#
# Elastic Constant Matrix: (Units=GPa)
#
#
# Indices 1 2 3 4 5 6 
#
# 1 107.0540 33.1968 11.9344 0.0000 0.0000 0.0000
# 2 33.1968 112.0448 32.3598 0.0000 0.0000 0.0000
# 3 11.9344 32.3598 102.1945 0.0000 0.0000 0.0000
# 4 0.0000 0.0000 0.0000 40.1465 0.0000 0.0000
# 5 0.0000 0.0000 0.0000 0.0000 16.0233 0.0000
# 6 0.0000 0.0000 0.0000 0.0000 0.0000 35.4850
#
#
#
# Elastic Compliance Matrix: (Units=1/GPa)
#
#
# Indices 1 2 3 4 5 6 
#
# 1 0.010292 -0.002974 -0.000260 0.000000 0.000000 0.000000
# 2 -0.002974 0.010683 -0.003035 0.000000 0.000000 0.000000
# 3 -0.000260 -0.003035 0.010777 0.000000 0.000000 0.000000
# 4 0.000000 0.000000 0.000000 0.024909 0.000000 0.000000
# 5 0.000000 0.000000 0.000000 0.000000 0.062409 0.000000
# 6 0.000000 0.000000 0.000000 0.000000 0.000000 0.028181
#
#
# Mechanical properties :
#
#
# Convention : Reuss Voigt Hill
#
# Bulk Modulus (GPa) = 52.04972 52.91946 52.48459
# Shear Modulus (GPa) = 30.08516 34.58443 32.33480
#
# Velocity S-wave (km/s) = 3.74921 4.01980 3.88686
# Velocity P-wave (km/s) = 6.56210 6.80224 6.68325
#
# Compressibility (1/GPa) = 0.01921240
#
# Stress axis : x y z
#
# Youngs Moduli (GPa) = 97.15904 93.60761 92.79200
#
# Poissons Ratio (x) = 0.27842 0.02414
# Poissons Ratio (y) = 0.28898 0.28166
# Poissons Ratio (z) = 0.02528 0.28413
#
# Static dielectric constant tensor:
#      x y z
#    x 4.025700 0.000000 0.000000 
#    y 0.000000 4.258250 0.000000 
#    z 0.000000 0.000000 3.778520 
# 
# 
# High freq. dielectric constant tensor:
#      x y z
#    x 1.846160 0.000000 0.000000 
#    y 0.000000 1.860400 0.000000 
#    z 0.000000 0.000000 1.841610 
# 
# From -- ./inp_files/3635.got.cif
#   From: 2010.03.12/outbox.cif.g09.slc.cpg/sg37_2_cif.got.tgz:3635.got - 2010.04.14 02:25:27.
