data_PCOD8176758
_publ_section_title
;
Structure prediction by ZEFSAII (Michael W. Deem and Ramdas Pophale) SiO2 
 PCOD8176758
Probable space group: C C C 2
;
_chemical_formula_sum "Si O2"
_cell_formula_units_Z 64
_cell_length_a 14.333468
_cell_length_b 11.276288
_cell_length_c 19.883510
_cell_angle_alpha 90.000000
_cell_angle_beta 90.000000
_cell_angle_gamma 90.000000
_cell_volume 3213.738182
_symmetry_space_group_name_H-M "C C C 2"
_symmetry_group_IT_number 37
_symmetry_cell_setting 'orthorhombic'
loop_
_space_group_symop_operation_xyz
x,y,z
-x,-y,z
-x,y,1/2+z
x,-y,1/2+z
1/2+x,1/2+y,z
1/2-x,1/2-y,z
1/2-x,1/2+y,1/2+z
1/2+x,1/2-y,1/2+z
loop_
_atom_site_type_symbol
_atom_site_label
_atom_site_fract_x
_atom_site_fract_y
_atom_site_fract_z
Si Si1 0.912786 0.240014 0.199660
Si Si2 0.238906 0.432067 0.690362
Si Si3 0.648175 0.983106 0.557201
Si Si4 0.987308 0.693502 0.067020
Si Si5 0.768061 0.112654 0.804757
Si Si6 0.900950 0.214969 0.434776
Si Si7 0.283060 0.938998 0.419893
Si Si8 0.979484 0.870297 0.315692
O O1 0.855774 0.361937 0.211342
O O2 0.834923 0.138176 0.199562
O O3 0.979177 0.236755 0.133742
O O4 0.983857 0.224317 0.261320
O O5 0.227836 0.457544 0.611755
O O6 0.247968 0.551839 0.733070
O O7 0.593473 0.098852 0.583867
O O8 0.704870 0.994842 0.489448
O O9 0.578455 0.875279 0.541290
O O10 0.945173 0.781212 0.010050
O O11 0.750000 0.250000 0.797636
O O12 0.872001 0.120650 0.829234
O O13 0.711949 0.035164 0.860073
O O14 0.814676 0.127236 0.426336
O O15 0.868008 0.345670 0.410817
O O16 0.980188 0.163922 0.387591
O O17 0.000000 0.000000 0.287731
#
# Coordination Sequence:
#
# PCOD8176758 Si02
#       8
#     8   8   8   8   8   8   8   8
#     4  10  21  40  66  87 119 161 204 247 301 373
#     4  10  21  42  62  89 120 166 201 244 310 364
#     4   9  20  38  60  87 126 156 202 249 292 364
#     4   9  20  38  61  90 116 158 205 249 294 354
#     4  12  27  41  59  93 128 161 203 258 307 362
#     4  10  21  40  66  87 119 161 204 247 301 373
#     4  10  21  42  62  89 120 166 201 244 310 364
#     4  12  23  41  59  89 122 154 199 256 304 355
#
# _framework density 19.914504000000001
#
# number of rings (size 3 to 8) (size 9 to 14) (size 15 to 20)
#    0.000    1.750    2.500    0.750    3.500    4.000 
#    4.500    1.250    0.000    0.000    0.000    0.000 
#    0.000    0.000    0.000    0.000    0.000    0.000 
#
# Total GULP energy -396552.179021 kJ/mol
# GULP energy per Si atom -12392.255594 kJ/mol
# Density = 1.986918 g / cm^3
# Si number density = 19.914504 Si / 1000 Ang^3
#
#
#
# Elastic Constant Matrix: (Units=GPa)
#
#
# Indices 1 2 3 4 5 6 
#
# 1 50.8073 7.1464 11.8141 0.0000 0.0000 0.0000
# 2 7.1464 79.9484 21.6335 0.0000 0.0000 0.0000
# 3 11.8141 21.6335 65.1871 0.0000 0.0000 0.0000
# 4 0.0000 0.0000 0.0000 33.8793 0.0000 0.0000
# 5 0.0000 0.0000 0.0000 0.0000 37.8679 0.0000
# 6 0.0000 0.0000 0.0000 0.0000 0.0000 17.1044
#
#
#
# Elastic Compliance Matrix: (Units=1/GPa)
#
#
# Indices 1 2 3 4 5 6 
#
# 1 0.020609 -0.000914 -0.003432 0.000000 0.000000 0.000000
# 2 -0.000914 0.013783 -0.004408 0.000000 0.000000 0.000000
# 3 -0.003432 -0.004408 0.017425 0.000000 0.000000 0.000000
# 4 0.000000 0.000000 0.000000 0.029517 0.000000 0.000000
# 5 0.000000 0.000000 0.000000 0.000000 0.026408 0.000000
# 6 0.000000 0.000000 0.000000 0.000000 0.000000 0.058464
#
#
# Mechanical properties :
#
#
# Convention : Reuss Voigt Hill
#
# Bulk Modulus (GPa) = 29.14673 30.79231 29.96952
# Shear Modulus (GPa) = 25.62138 28.12689 26.87414
#
# Velocity S-wave (km/s) = 3.59077 3.76224 3.67751
# Velocity P-wave (km/s) = 5.64440 5.86246 5.75446
#
# Compressibility (1/GPa) = 0.03430917
#
# Stress axis : x y z
#
# Youngs Moduli (GPa) = 48.52317 72.55506 57.38730
#
# Poissons Ratio (x) = 0.06628 0.19694
# Poissons Ratio (y) = 0.04433 0.25299
# Poissons Ratio (z) = 0.16652 0.31986
#
# Static dielectric constant tensor:
#      x y z
#    x 3.718360 0.000000 0.000000 
#    y 0.000000 3.698470 0.000000 
#    z 0.000000 0.000000 3.589170 
# 
# 
# High freq. dielectric constant tensor:
#      x y z
#    x 1.784280 0.000000 0.000000 
#    y 0.000000 1.773750 0.000000 
#    z 0.000000 0.000000 1.778770 
# 
# From -- ./inp_files/15298.got.cif
#   From: 2010.03.12/outbox.cif.g09.slc.cpg/sg37_8_cif.got.tgz:15298.got - 2010.04.14 02:25:27.
