data_PCOD8176270
_publ_section_title
;
Structure prediction by ZEFSAII (Michael W. Deem and Ramdas Pophale) SiO2 
 PCOD8176270
Probable space group: C M C 21
;
_chemical_formula_sum "Si O2"
_cell_formula_units_Z 48
_cell_length_a 8.470102
_cell_length_b 19.871232
_cell_length_c 13.818134
_cell_angle_alpha 90.000000
_cell_angle_beta 90.000000
_cell_angle_gamma 90.000000
_cell_volume 2325.748953
_symmetry_space_group_name_H-M "C M C 21"
_symmetry_group_IT_number 36
_symmetry_cell_setting 'orthorhombic'
loop_
_space_group_symop_operation_xyz
x,y,z
-x,-y,1/2+z
x,-y,1/2+z
-x,y,z
1/2+x,1/2+y,z
1/2-x,1/2-y,1/2+z
1/2+x,1/2-y,1/2+z
1/2-x,1/2+y,z
loop_
_atom_site_type_symbol
_atom_site_label
_atom_site_fract_x
_atom_site_fract_y
_atom_site_fract_z
Si Si1 0.181115 0.237363 0.920190
Si Si2 0.684474 0.385203 0.907889
Si Si3 0.680925 0.183298 0.109729
Si Si4 0.314348 0.072448 0.605168
Si Si5 0.684282 0.442969 0.700283
Si Si6 0.319243 0.201498 0.727649
O O1 0.221594 0.315486 0.906215
O O2 0.209134 0.196222 0.821582
O O3 0.000000 0.231383 0.952536
O O4 0.291068 0.202220 0.998912
O O5 0.500000 0.368891 0.914411
O O6 0.726661 0.427147 0.811712
O O7 0.737569 0.430513 0.998828
O O8 0.500000 0.198030 0.136678
O O9 0.721452 0.105589 0.127534
O O10 0.794577 0.226488 0.178241
O O11 0.500000 0.060518 0.596462
O O12 0.272523 0.144654 0.650878
O O13 0.238476 0.018050 0.676288
O O14 0.500000 0.434648 0.680415
O O15 0.500000 0.195306 0.760840
#
# Coordination Sequence:
#
# PCOD8176270 Si02
#       6
#     8   8   8   8   8   8
#     4  12  24  39  65  98 132 172 220 271 326 385
#     4  11  23  41  67  94 128 172 218 268 329 390
#     4  12  24  40  66  96 129 169 217 269 324 383
#     4  11  25  43  67  96 133 173 217 269 327 393
#     4  11  25  44  67  95 133 173 217 269 326 392
#     4  11  23  41  64  95 131 169 217 268 322 383
#
# _framework density 20.638513
#
# number of rings (size 3 to 8) (size 9 to 14) (size 15 to 20)
#    0.000    0.667    3.333    5.000    0.000    5.333 
#    0.000    3.333    0.000    0.000    0.000    0.000 
#    0.000    0.000    0.000    0.000    0.000    0.000 
#
# Total GULP energy -297796.537460 kJ/mol
# GULP energy per Si atom -12408.189061 kJ/mol
# Density = 2.059154 g / cm^3
# Si number density = 20.638513 Si / 1000 Ang^3
#
#
#
# Elastic Constant Matrix: (Units=GPa)
#
#
# Indices 1 2 3 4 5 6 
#
# 1 94.8944 32.7245 28.8043 0.0000 0.0000 0.0000
# 2 32.7245 72.6075 25.0961 0.0000 0.0000 0.0000
# 3 28.8043 25.0961 106.2915 0.0000 0.0000 0.0000
# 4 0.0000 0.0000 0.0000 37.9552 0.0000 0.0000
# 5 0.0000 0.0000 0.0000 0.0000 35.4992 0.0000
# 6 0.0000 0.0000 0.0000 0.0000 0.0000 33.5952
#
#
#
# Elastic Compliance Matrix: (Units=1/GPa)
#
#
# Indices 1 2 3 4 5 6 
#
# 1 0.012985 -0.005048 -0.002327 0.000000 0.000000 0.000000
# 2 -0.005048 0.016959 -0.002636 0.000000 0.000000 0.000000
# 3 -0.002327 -0.002636 0.010661 0.000000 0.000000 0.000000
# 4 0.000000 0.000000 0.000000 0.026347 0.000000 0.000000
# 5 0.000000 0.000000 0.000000 0.000000 0.028170 0.000000
# 6 0.000000 0.000000 0.000000 0.000000 0.000000 0.029766
#
#
# Mechanical properties :
#
#
# Convention : Reuss Voigt Hill
#
# Bulk Modulus (GPa) = 48.58431 49.67148 49.12789
# Shear Modulus (GPa) = 32.94422 33.88781 33.41601
#
# Velocity S-wave (km/s) = 3.99964 4.05652 4.02818
# Velocity P-wave (km/s) = 6.70233 6.78676 6.74468
#
# Compressibility (1/GPa) = 0.02058278
#
# Stress axis : x y z
#
# Youngs Moduli (GPa) = 77.01040 58.96549 93.79897
#
# Poissons Ratio (x) = 0.29767 0.21827
# Poissons Ratio (y) = 0.38876 0.24726
# Poissons Ratio (z) = 0.17920 0.15544
#
# Static dielectric constant tensor:
#      x y z
#    x 3.790100 0.000000 0.000000 
#    y 0.000000 3.622170 0.000000 
#    z 0.000000 0.000000 3.917650 
# 
# 
# High freq. dielectric constant tensor:
#      x y z
#    x 1.819680 0.000000 0.000000 
#    y 0.000000 1.798290 0.000000 
#    z 0.000000 0.000000 1.820570 
# 
# From -- ./inp_files/10400.got.cif
#   From: 2010.03.12/outbox.cif.g09.slc.cpg/sg36_6_cif.got.tgz:10400.got - 2010.04.14 02:13:53.
