data_PCOD8176592
_publ_section_title
;
Structure prediction by ZEFSAII (Michael W. Deem and Ramdas Pophale) SiO2 
 PCOD8176592
Probable space group: C C C 2
;
_chemical_formula_sum "Si O2"
_cell_formula_units_Z 48
_cell_length_a 15.318475
_cell_length_b 8.460271
_cell_length_c 18.887557
_cell_angle_alpha 90.000000
_cell_angle_beta 90.000000
_cell_angle_gamma 90.000000
_cell_volume 2447.798108
_symmetry_space_group_name_H-M "C C C 2"
_symmetry_group_IT_number 37
_symmetry_cell_setting 'orthorhombic'
loop_
_space_group_symop_operation_xyz
x,y,z
-x,-y,z
-x,y,1/2+z
x,-y,1/2+z
1/2+x,1/2+y,z
1/2-x,1/2-y,z
1/2-x,1/2+y,1/2+z
1/2+x,1/2-y,1/2+z
loop_
_atom_site_type_symbol
_atom_site_label
_atom_site_fract_x
_atom_site_fract_y
_atom_site_fract_z
Si Si1 0.249155 0.064834 0.236900
Si Si2 0.256363 0.066199 0.401877
Si Si3 0.598043 0.441786 0.145615
Si Si4 0.593588 0.058629 0.492803
Si Si5 0.332224 0.632787 0.513436
Si Si6 0.403869 0.932284 0.144108
O O1 0.250000 0.250000 0.219719
O O2 0.250551 0.028358 0.319651
O O3 0.158629 0.988602 0.211407
O O4 0.334508 0.986375 0.202446
O O5 0.250000 0.250000 0.418514
O O6 0.347703 0.000301 0.428959
O O7 0.180792 0.974852 0.444322
O O8 0.500000 0.500000 0.158208
O O9 0.644141 0.519266 0.077817
O O10 0.593974 0.254984 0.138573
O O11 0.628412 0.994136 0.568010
O O12 0.500000 0.000000 0.472623
O O13 0.587779 0.249462 0.497121
O O14 0.250000 0.750000 0.529971
O O15 0.500000 0.000000 0.162832
#
# Coordination Sequence:
#
# PCOD8176592 Si02
#       6
#     8   8   8   8   8   8
#     4  11  23  41  60  84 121 157 194 240 289 346
#     4  10  22  39  59  83 115 156 194 233 288 346
#     4  12  23  38  62  89 117 152 196 243 291 345
#     4  10  20  37  59  86 117 148 189 239 287 341
#     4  10  21  38  61  85 117 152 191 239 289 345
#     4  11  23  39  62  89 118 153 196 240 290 345
#
# _framework density 19.609461
#
# number of rings (size 3 to 8) (size 9 to 14) (size 15 to 20)
#    0.000    1.333    0.000    8.000    0.000    4.667 
#    0.000    4.167    0.000    0.000    0.000    0.000 
#    0.000    0.000    0.000    0.000    0.000    0.000 
#
# Total GULP energy -297594.102491 kJ/mol
# GULP energy per Si atom -12399.754270 kJ/mol
# Density = 1.956483 g / cm^3
# Si number density = 19.609461 Si / 1000 Ang^3
#
#
#
# Elastic Constant Matrix: (Units=GPa)
#
#
# Indices 1 2 3 4 5 6 
#
# 1 112.2500 63.1454 64.4385 0.0000 0.0000 0.0000
# 2 63.1454 182.0727 83.7065 0.0000 0.0000 0.0000
# 3 64.4385 83.7065 131.5167 0.0000 0.0000 0.0000
# 4 0.0000 0.0000 0.0000 39.1654 0.0000 0.0000
# 5 0.0000 0.0000 0.0000 0.0000 12.6321 0.0000
# 6 0.0000 0.0000 0.0000 0.0000 0.0000 38.4656
#
#
#
# Elastic Compliance Matrix: (Units=1/GPa)
#
#
# Indices 1 2 3 4 5 6 
#
# 1 0.013008 -0.002235 -0.004951 0.000000 0.000000 0.000000
# 2 -0.002235 0.008148 -0.004091 0.000000 0.000000 0.000000
# 3 -0.004951 -0.004091 0.012633 0.000000 0.000000 0.000000
# 4 0.000000 0.000000 0.000000 0.025533 0.000000 0.000000
# 5 0.000000 0.000000 0.000000 0.000000 0.079163 0.000000
# 6 0.000000 0.000000 0.000000 0.000000 0.000000 0.025997
#
#
# Mechanical properties :
#
#
# Convention : Reuss Voigt Hill
#
# Bulk Modulus (GPa) = 89.00415 94.26890 91.63652
# Shear Modulus (GPa) = 26.20785 32.35588 29.28187
#
# Velocity S-wave (km/s) = 3.65977 4.06644 3.86845
# Velocity P-wave (km/s) = 7.95899 8.38006 8.17224
#
# Compressibility (1/GPa) = 0.01123543
#
# Stress axis : x y z
#
# Youngs Moduli (GPa) = 76.87425 122.72450 79.15708
#
# Poissons Ratio (x) = 0.27433 0.39190
# Poissons Ratio (y) = 0.17184 0.32383
# Poissons Ratio (z) = 0.38059 0.50206
#
# Static dielectric constant tensor:
#      x y z
#    x 3.832190 0.000000 0.000000 
#    y 0.000000 4.099790 0.000000 
#    z 0.000000 0.000000 3.513950 
# 
# 
# High freq. dielectric constant tensor:
#      x y z
#    x 1.768060 0.000000 0.000000 
#    y 0.000000 1.790160 0.000000 
#    z 0.000000 0.000000 1.759970 
# 
# From -- ./inp_files/14525.got.cif
#   From: 2010.03.12/outbox.cif.g09.slc.cpg/sg37_8_cif.got.tgz:14525.got - 2010.04.14 02:25:27.
