data_PCOD8176922
_publ_section_title
;
Structure prediction by ZEFSAII (Michael W. Deem and Ramdas Pophale) SiO2 
 PCOD8176922
Probable space group: C C C 2
;
_chemical_formula_sum "Si O2"
_cell_formula_units_Z 40
_cell_length_a 10.593602
_cell_length_b 19.254235
_cell_length_c 8.940896
_cell_angle_alpha 90.000000
_cell_angle_beta 90.000000
_cell_angle_gamma 90.000000
_cell_volume 1823.689778
_symmetry_space_group_name_H-M "C C C 2"
_symmetry_group_IT_number 37
_symmetry_cell_setting 'orthorhombic'
loop_
_space_group_symop_operation_xyz
x,y,z
-x,-y,z
-x,y,1/2+z
x,-y,1/2+z
1/2+x,1/2+y,z
1/2-x,1/2-y,z
1/2-x,1/2+y,1/2+z
1/2+x,1/2-y,1/2+z
loop_
_atom_site_type_symbol
_atom_site_label
_atom_site_fract_x
_atom_site_fract_y
_atom_site_fract_z
Si Si1 0.076863 0.431853 0.687880
Si Si2 0.500000 0.500000 0.052403
Si Si3 0.923514 0.660157 0.403630
Si Si4 0.622613 0.720488 0.937385
Si Si5 0.250000 0.750000 0.725557
Si Si6 0.143789 0.071928 0.803682
O O1 0.102571 0.373370 0.563745
O O2 0.211288 0.446049 0.765629
O O3 0.000000 0.500000 0.628326
O O4 0.985321 0.400706 0.810525
O O5 0.614347 0.523711 0.946181
O O6 0.443428 0.559646 0.158904
O O7 0.794119 0.685328 0.327269
O O8 0.006515 0.729307 0.408287
O O9 0.750000 0.750000 0.861408
O O10 0.603831 0.647679 0.858033
O O11 0.641132 0.717243 0.118135
#
# Coordination Sequence:
#
# PCOD8176922 Si02
#       6
#     8   4   8   8   4   8
#     4  12  27  46  75 110 150 193 245 307 376 452
#     4  10  28  48  72 110 144 204 250 296 370 450
#     4  12  25  46  74 111 141 194 247 300 384 427
#     4  10  22  45  72 102 145 183 240 309 356 438
#     4  10  24  44  74 102 148 182 244 316 364 438
#     4  11  26  49  74 105 151 195 250 304 370 445
#
# _framework density 21.933555999999999
#
# number of rings (size 3 to 8) (size 9 to 14) (size 15 to 20)
#    0.600    0.400    4.000    0.600    8.400    3.200 
#    0.000    0.000    0.000    0.000    0.000    0.000 
#    0.000    0.000    0.000    0.000    0.000    0.000 
#
# Total GULP energy -247886.264865 kJ/mol
# GULP energy per Si atom -12394.313243 kJ/mol
# Density = 2.188363 g / cm^3
# Si number density = 21.933556 Si / 1000 Ang^3
#
#
#
# Elastic Constant Matrix: (Units=GPa)
#
#
# Indices 1 2 3 4 5 6 
#
# 1 77.6743 48.4968 33.7795 0.0000 0.0000 0.0000
# 2 48.4968 127.0424 51.1061 0.0000 0.0000 0.0000
# 3 33.7795 51.1061 117.7386 0.0000 0.0000 0.0000
# 4 0.0000 0.0000 0.0000 77.1006 0.0000 0.0000
# 5 0.0000 0.0000 0.0000 0.0000 0.2614 0.0000
# 6 0.0000 0.0000 0.0000 0.0000 0.0000 42.5308
#
#
#
# Elastic Compliance Matrix: (Units=1/GPa)
#
#
# Indices 1 2 3 4 5 6 
#
# 1 0.017524 -0.005654 -0.002573 0.000000 0.000000 0.000000
# 2 -0.005654 0.011361 -0.003309 0.000000 0.000000 0.000000
# 3 -0.002573 -0.003309 0.010668 0.000000 0.000000 0.000000
# 4 0.000000 0.000000 0.000000 0.012970 0.000000 0.000000
# 5 0.000000 0.000000 0.000000 0.000000 3.825012 0.000000
# 6 0.000000 0.000000 0.000000 0.000000 0.000000 0.023512
#
#
# Mechanical properties :
#
#
# Convention : Reuss Voigt Hill
#
# Bulk Modulus (GPa) = 60.68215 65.46890 63.07553
# Shear Modulus (GPa) = 1.27239 36.58342 18.92790
#
# Velocity S-wave (km/s) = 0.76248 4.08845 2.94081
# Velocity P-wave (km/s) = 5.33869 7.22501 6.35226
#
# Compressibility (1/GPa) = 0.01647931
#
# Stress axis : x y z
#
# Youngs Moduli (GPa) = 57.06567 88.02007 93.73763
#
# Poissons Ratio (x) = 0.49769 0.24121
# Poissons Ratio (y) = 0.32267 0.31020
# Poissons Ratio (z) = 0.14684 0.29128
#
# Static dielectric constant tensor:
#      x y z
#    x 3.878990 0.000000 0.000000 
#    y 0.000000 3.961020 0.000000 
#    z 0.000000 0.000000 4.065430 
# 
# 
# High freq. dielectric constant tensor:
#      x y z
#    x 1.860740 0.000000 0.000000 
#    y 0.000000 1.863210 0.000000 
#    z 0.000000 0.000000 1.876130 
# 
# From -- ./inp_files/2757.got.cif
#   From: 2010.03.12/outbox.cif.g09.slc.cpg/sg37_2_cif.got.tgz:2757.got - 2010.04.14 02:25:27.
