data_PCOD8176156
_publ_section_title
;
Structure prediction by ZEFSAII (Michael W. Deem and Ramdas Pophale) SiO2 
 PCOD8176156
Probable space group: C M C 21
;
_chemical_formula_sum "Si O2"
_cell_formula_units_Z 64
_cell_length_a 8.887205
_cell_length_b 23.715700
_cell_length_c 15.226143
_cell_angle_alpha 90.000000
_cell_angle_beta 90.000000
_cell_angle_gamma 90.000000
_cell_volume 3209.157635
_symmetry_space_group_name_H-M "C M C 21"
_symmetry_group_IT_number 36
_symmetry_cell_setting 'orthorhombic'
loop_
_space_group_symop_operation_xyz
x,y,z
-x,-y,1/2+z
x,-y,1/2+z
-x,y,z
1/2+x,1/2+y,z
1/2-x,1/2-y,1/2+z
1/2+x,1/2-y,1/2+z
1/2-x,1/2+y,z
loop_
_atom_site_type_symbol
_atom_site_label
_atom_site_fract_x
_atom_site_fract_y
_atom_site_fract_z
Si Si1 0.822485 0.941668 0.917650
Si Si2 0.326076 0.756168 0.253098
Si Si3 0.169396 0.134038 0.811976
Si Si4 0.676693 0.179945 0.396497
Si Si5 0.825605 0.765041 0.552182
Si Si6 0.829150 0.626514 0.986756
Si Si7 0.170611 0.508423 0.070911
Si Si8 0.170829 0.011813 0.748376
O O1 0.753398 0.880331 0.904802
O O2 0.000000 0.935435 0.921618
O O3 0.771526 0.982296 0.837801
O O4 0.769678 0.968819 0.008821
O O5 0.500000 0.744519 0.272762
O O6 0.285423 0.818991 0.281663
O O7 0.232277 0.710490 0.307924
O O8 0.289827 0.754938 0.150178
O O9 0.180342 0.079291 0.751790
O O10 0.000000 0.158807 0.812231
O O11 0.213355 0.114969 0.908953
O O12 0.500000 0.170797 0.388733
O O13 0.718275 0.216626 0.482488
O O14 0.718536 0.817947 0.538349
O O15 0.000000 0.782174 0.540639
O O16 0.813614 0.573981 0.050575
O O17 0.000000 0.633334 0.952227
O O18 0.220811 0.505950 0.170991
O O19 0.000000 0.487118 0.061751
O O20 0.000000 0.992518 0.729003
#
# Coordination Sequence:
#
# PCOD8176156 Si02
#       8
#     8   8   8   8   8   8   8   8
#     4  11  24  44  66  92 127 170 213 259 315 377
#     4  11  24  42  64  95 127 165 211 258 312 374
#     4  11  22  41  66  93 124 163 208 261 316 368
#     4  11  24  43  64  92 128 168 210 259 317 373
#     4  10  24  43  64  90 126 167 206 254 315 372
#     4  11  23  40  65  95 124 161 210 260 312 371
#     4  11  25  42  64  96 129 165 208 261 320 374
#     4  10  24  43  65  93 125 167 214 258 313 377
#
# _framework density 19.942927999999998
#
# number of rings (size 3 to 8) (size 9 to 14) (size 15 to 20)
#    0.000    1.250    2.500    2.250    3.500    5.000 
#    0.000    0.000    0.000    0.000    0.000    0.000 
#    0.000    0.000    0.000    0.000    0.000    0.000 
#
# Total GULP energy -396927.395434 kJ/mol
# GULP energy per Si atom -12403.981107 kJ/mol
# Density = 1.989754 g / cm^3
# Si number density = 19.942928 Si / 1000 Ang^3
#
#
#
# Elastic Constant Matrix: (Units=GPa)
#
#
# Indices 1 2 3 4 5 6 
#
# 1 79.8853 46.6579 41.1921 0.0000 0.0000 0.0000
# 2 46.6579 110.5763 30.1096 0.0000 0.0000 0.0000
# 3 41.1921 30.1096 102.8125 0.0000 0.0000 0.0000
# 4 0.0000 0.0000 0.0000 28.3667 0.0000 0.0000
# 5 0.0000 0.0000 0.0000 0.0000 34.9341 0.0000
# 6 0.0000 0.0000 0.0000 0.0000 0.0000 38.2140
#
#
#
# Elastic Compliance Matrix: (Units=1/GPa)
#
#
# Indices 1 2 3 4 5 6 
#
# 1 0.019372 -0.006586 -0.005833 0.000000 0.000000 0.000000
# 2 -0.006586 0.012066 -0.000895 0.000000 0.000000 0.000000
# 3 -0.005833 -0.000895 0.012325 0.000000 0.000000 0.000000
# 4 0.000000 0.000000 0.000000 0.035253 0.000000 0.000000
# 5 0.000000 0.000000 0.000000 0.000000 0.028625 0.000000
# 6 0.000000 0.000000 0.000000 0.000000 0.000000 0.026168
#
#
# Mechanical properties :
#
#
# Convention : Reuss Voigt Hill
#
# Bulk Modulus (GPa) = 58.35523 58.79925 58.57724
# Shear Modulus (GPa) = 30.09335 31.99057 31.04196
#
# Velocity S-wave (km/s) = 3.88876 4.00947 3.94958
# Velocity P-wave (km/s) = 7.03477 7.14019 7.08767
#
# Compressibility (1/GPa) = 0.01713642
#
# Stress axis : x y z
#
# Youngs Moduli (GPa) = 51.62059 82.87640 81.13276
#
# Poissons Ratio (x) = 0.54581 0.47323
# Poissons Ratio (y) = 0.33997 0.07262
# Poissons Ratio (z) = 0.30109 0.07418
#
# Static dielectric constant tensor:
#      x y z
#    x 3.771210 0.000000 0.000000 
#    y 0.000000 3.722720 0.000000 
#    z 0.000000 0.000000 3.706970 
# 
# 
# High freq. dielectric constant tensor:
#      x y z
#    x 1.788040 0.000000 0.000000 
#    y 0.000000 1.788140 0.000000 
#    z 0.000000 0.000000 1.784760 
# 
# From -- ./inp_files/10952.got.cif
#   From: 2010.03.12/outbox.cif.g09.slc.cpg/sg36_6_cif.got.tgz:10952.got - 2010.04.14 02:13:53.
