data_PCOD8176047
_publ_section_title
;
Structure prediction by ZEFSAII (Michael W. Deem and Ramdas Pophale) SiO2 
 PCOD8176047
Probable space group: C M C 21
;
_chemical_formula_sum "Si O2"
_cell_formula_units_Z 56
_cell_length_a 13.749082
_cell_length_b 12.841671
_cell_length_c 14.456219
_cell_angle_alpha 90.000000
_cell_angle_beta 90.000000
_cell_angle_gamma 90.000000
_cell_volume 2552.407195
_symmetry_space_group_name_H-M "C M C 21"
_symmetry_group_IT_number 36
_symmetry_cell_setting 'orthorhombic'
loop_
_space_group_symop_operation_xyz
x,y,z
-x,-y,1/2+z
x,-y,1/2+z
-x,y,z
1/2+x,1/2+y,z
1/2-x,1/2-y,1/2+z
1/2+x,1/2-y,1/2+z
1/2-x,1/2+y,z
loop_
_atom_site_type_symbol
_atom_site_label
_atom_site_fract_x
_atom_site_fract_y
_atom_site_fract_z
Si Si1 0.197736 0.509424 0.122020
Si Si2 0.891259 0.963604 0.833081
Si Si3 0.386934 0.773830 0.611001
Si Si4 0.889938 0.319362 0.023233
Si Si5 0.892729 0.886340 0.627955
Si Si6 0.772285 0.140628 0.763034
Si Si7 0.290459 0.719888 0.419304
O O1 0.128399 0.607232 0.141643
O O2 0.147458 0.433545 0.049289
O O3 0.304846 0.545757 0.083540
O O4 0.205778 0.449634 0.219242
O O5 0.888320 0.901145 0.737015
O O6 0.828027 0.896861 0.904373
O O7 0.000000 0.970896 0.872011
O O8 0.852347 0.081551 0.825682
O O9 0.500000 0.743100 0.617670
O O10 0.324870 0.701369 0.679290
O O11 0.349996 0.765688 0.505589
O O12 0.877351 0.236601 0.107329
O O13 0.000000 0.326589 0.988544
O O14 0.824990 0.281144 0.938086
O O15 0.000000 0.922081 0.590175
O O16 0.701339 0.210275 0.826735
#
# Coordination Sequence:
#
# PCOD8176047 Si02
#       7
#     8   8   8   8   8   8   8
#     4  11  20  43  66 101 130 180 224 281 343 412
#     4  10  22  41  67  99 132 172 225 277 340 406
#     4  12  26  46  71 103 143 183 231 290 352 412
#     4  11  23  40  64  93 131 178 223 272 339 410
#     4   9  19  39  66  94 127 170 220 274 332 401
#     4  11  24  44  73  96 140 181 227 290 347 410
#     4  12  25  43  68 102 139 182 229 292 340 413
#
# _framework density 21.940073000000002
#
# number of rings (size 3 to 8) (size 9 to 14) (size 15 to 20)
#    0.000    1.143    2.857    3.857    2.000    1.714 
#    0.000    3.571    0.000    0.000    0.000    0.000 
#    0.000    0.000    0.000    0.000    0.000    0.000 
#
# Total GULP energy -347151.827071 kJ/mol
# GULP energy per Si atom -12398.279538 kJ/mol
# Density = 2.189014 g / cm^3
# Si number density = 21.940073 Si / 1000 Ang^3
#
#
#
# Elastic Constant Matrix: (Units=GPa)
#
#
# Indices 1 2 3 4 5 6 
#
# 1 96.8774 19.3962 28.5674 0.0000 0.0000 0.0000
# 2 19.3962 111.0639 32.1995 0.0000 0.0000 0.0000
# 3 28.5674 32.1995 72.0892 0.0000 0.0000 0.0000
# 4 0.0000 0.0000 0.0000 29.7711 0.0000 0.0000
# 5 0.0000 0.0000 0.0000 0.0000 22.9929 0.0000
# 6 0.0000 0.0000 0.0000 0.0000 0.0000 32.6421
#
#
#
# Elastic Compliance Matrix: (Units=1/GPa)
#
#
# Indices 1 2 3 4 5 6 
#
# 1 0.011751 -0.000807 -0.004296 0.000000 0.000000 0.000000
# 2 -0.000807 0.010399 -0.004325 0.000000 0.000000 0.000000
# 3 -0.004296 -0.004325 0.017506 0.000000 0.000000 0.000000
# 4 0.000000 0.000000 0.000000 0.033590 0.000000 0.000000
# 5 0.000000 0.000000 0.000000 0.000000 0.043492 0.000000
# 6 0.000000 0.000000 0.000000 0.000000 0.000000 0.030635
#
#
# Mechanical properties :
#
#
# Convention : Reuss Voigt Hill
#
# Bulk Modulus (GPa) = 48.07786 48.92850 48.50318
# Shear Modulus (GPa) = 28.87489 30.40572 29.64030
#
# Velocity S-wave (km/s) = 3.63172 3.72674 3.67954
# Velocity P-wave (km/s) = 6.28861 6.39277 6.34091
#
# Compressibility (1/GPa) = 0.02079959
#
# Stress axis : x y z
#
# Youngs Moduli (GPa) = 85.10124 96.16688 57.12308
#
# Poissons Ratio (x) = 0.07757 0.24542
# Poissons Ratio (y) = 0.06864 0.24706
# Poissons Ratio (z) = 0.36562 0.41592
#
# Static dielectric constant tensor:
#      x y z
#    x 4.210590 0.000000 0.000000 
#    y 0.000000 4.107490 0.000000 
#    z 0.000000 0.000000 3.691590 
# 
# 
# High freq. dielectric constant tensor:
#      x y z
#    x 1.865220 0.000000 0.000000 
#    y 0.000000 1.875260 0.000000 
#    z 0.000000 0.000000 1.843990 
# 
# From -- ./inp_files/12147.got.cif
#   From: 2010.03.12/outbox.cif.g09.slc.cpg/sg36_7_cif.got.tgz:12147.got - 2010.04.14 02:13:53.
