data_PCOD8176478
_publ_section_title
;
Structure prediction by ZEFSAII (Michael W. Deem and Ramdas Pophale) SiO2 
 PCOD8176478
Probable space group: C C C 2
;
_chemical_formula_sum "Si O2"
_cell_formula_units_Z 64
_cell_length_a 14.061345
_cell_length_b 8.120211
_cell_length_c 26.933102
_cell_angle_alpha 90.000000
_cell_angle_beta 90.000000
_cell_angle_gamma 90.000000
_cell_volume 3075.250899
_symmetry_space_group_name_H-M "C C C 2"
_symmetry_group_IT_number 37
_symmetry_cell_setting 'orthorhombic'
loop_
_space_group_symop_operation_xyz
x,y,z
-x,-y,z
-x,y,1/2+z
x,-y,1/2+z
1/2+x,1/2+y,z
1/2-x,1/2-y,z
1/2-x,1/2+y,1/2+z
1/2+x,1/2-y,1/2+z
loop_
_atom_site_type_symbol
_atom_site_label
_atom_site_fract_x
_atom_site_fract_y
_atom_site_fract_z
Si Si1 0.893162 0.449943 0.430300
Si Si2 0.642149 0.200084 0.677984
Si Si3 0.661981 0.869475 0.332193
Si Si4 0.392941 0.936570 0.246362
Si Si5 0.918903 0.632267 0.073258
Si Si6 0.418241 0.627922 0.485368
Si Si7 0.479572 0.681146 0.768872
Si Si8 0.232171 0.562729 0.016783
O O1 0.858711 0.502426 0.376120
O O2 0.885543 0.251716 0.440581
O O3 0.832630 0.559944 0.468054
O O4 0.000000 0.500000 0.440090
O O5 0.750000 0.250000 0.675964
O O6 0.594344 0.230589 0.624766
O O7 0.588994 0.303503 0.720852
O O8 0.634859 0.003257 0.691701
O O9 0.750000 0.750000 0.344554
O O10 0.569016 0.761533 0.317944
O O11 0.684009 0.987138 0.284799
O O12 0.412465 0.743294 0.253244
O O13 0.500000 0.000000 0.260448
O O14 0.819551 0.541607 0.059992
O O15 0.000000 0.500000 0.080388
O O16 0.953413 0.759939 0.031282
O O17 0.500000 0.500000 0.467895
O O18 0.330479 0.522990 0.504112
O O19 0.500000 0.500000 0.785712
O O20 0.250000 0.750000 0.034112
#
# Coordination Sequence:
#
# PCOD8176478 Si02
#       8
#     8   8   8   8   8   8   8   8
#     4  11  21  38  61  85 114 154 198 245 300 355
#     4  10  19  36  59  85 118 160 198 238 296 361
#     4  10  20  38  60  82 112 152 192 239 301 362
#     4   8  16  34  56  78 110 149 187 231 287 347
#     4  11  21  37  61  90 121 160 203 247 299 353
#     4  11  23  40  61  87 121 159 200 247 300 358
#     4  10  20  37  60  87 117 153 197 249 299 357
#     4  11  22  40  60  86 118 153 196 248 301 357
#
# _framework density 20.811311
#
# number of rings (size 3 to 8) (size 9 to 14) (size 15 to 20)
#    0.000    2.000    0.000    9.375    0.000    0.500 
#    0.000   16.250    0.000    0.000    0.000    0.000 
#    0.000    0.000    0.000    0.000    0.000    0.000 
#
# Total GULP energy -396447.789814 kJ/mol
# GULP energy per Si atom -12388.993432 kJ/mol
# Density = 2.076394 g / cm^3
# Si number density = 20.811311 Si / 1000 Ang^3
#
#
#
# Elastic Constant Matrix: (Units=GPa)
#
#
# Indices 1 2 3 4 5 6 
#
# 1 91.1463 34.1621 18.2098 0.0000 0.0000 0.0000
# 2 34.1621 118.4746 29.3970 0.0000 0.0000 0.0000
# 3 18.2098 29.3970 110.6901 0.0000 0.0000 0.0000
# 4 0.0000 0.0000 0.0000 27.0226 0.0000 0.0000
# 5 0.0000 0.0000 0.0000 0.0000 27.0233 0.0000
# 6 0.0000 0.0000 0.0000 0.0000 0.0000 34.9071
#
#
#
# Elastic Compliance Matrix: (Units=1/GPa)
#
#
# Indices 1 2 3 4 5 6 
#
# 1 0.012441 -0.003297 -0.001171 0.000000 0.000000 0.000000
# 2 -0.003297 0.009910 -0.002089 0.000000 0.000000 0.000000
# 3 -0.001171 -0.002089 0.009782 0.000000 0.000000 0.000000
# 4 0.000000 0.000000 0.000000 0.037006 0.000000 0.000000
# 5 0.000000 0.000000 0.000000 0.000000 0.037005 0.000000
# 6 0.000000 0.000000 0.000000 0.000000 0.000000 0.028647
#
#
# Mechanical properties :
#
#
# Convention : Reuss Voigt Hill
#
# Bulk Modulus (GPa) = 52.58232 53.76098 53.17165
# Shear Modulus (GPa) = 32.41593 33.69340 33.05466
#
# Velocity S-wave (km/s) = 3.95094 4.02804 3.98968
# Velocity P-wave (km/s) = 6.79222 6.89363 6.84311
#
# Compressibility (1/GPa) = 0.01901780
#
# Stress axis : x y z
#
# Youngs Moduli (GPa) = 80.37950 100.91124 102.23052
#
# Poissons Ratio (x) = 0.33268 0.11973
# Poissons Ratio (y) = 0.26499 0.21361
# Poissons Ratio (z) = 0.09414 0.21085
#
# Static dielectric constant tensor:
#      x y z
#    x 3.929590 0.000000 0.000000 
#    y 0.000000 4.591070 0.000000 
#    z 0.000000 0.000000 3.789580 
# 
# 
# High freq. dielectric constant tensor:
#      x y z
#    x 1.812760 0.000000 0.000000 
#    y 0.000000 1.811060 0.000000 
#    z 0.000000 0.000000 1.806710 
# 
# From -- ./inp_files/20478.got.cif
#   From: 2010.03.12/outbox.cif.g09.slc.cpg/sg37_11_cif.got.tgz:20478.got - 2010.04.14 02:25:27.
