data_PCOD8176380
_publ_section_title
;
Structure prediction by ZEFSAII (Michael W. Deem and Ramdas Pophale) SiO2 
 PCOD8176380
Probable space group: C C C 2
;
_chemical_formula_sum "Si O2"
_cell_formula_units_Z 60
_cell_length_a 18.924904
_cell_length_b 12.387550
_cell_length_c 13.711545
_cell_angle_alpha 90.000000
_cell_angle_beta 90.000000
_cell_angle_gamma 90.000000
_cell_volume 3214.441297
_symmetry_space_group_name_H-M "C C C 2"
_symmetry_group_IT_number 37
_symmetry_cell_setting 'orthorhombic'
loop_
_space_group_symop_operation_xyz
x,y,z
-x,-y,z
-x,y,1/2+z
x,-y,1/2+z
1/2+x,1/2+y,z
1/2-x,1/2-y,z
1/2-x,1/2+y,1/2+z
1/2+x,1/2-y,1/2+z
loop_
_atom_site_type_symbol
_atom_site_label
_atom_site_fract_x
_atom_site_fract_y
_atom_site_fract_z
Si Si1 0.331130 0.260639 0.840890
Si Si2 0.684471 0.934124 0.719796
Si Si3 0.817358 0.184981 0.715942
Si Si4 0.897043 0.391072 0.479913
Si Si5 0.923318 0.622996 0.188381
Si Si6 0.305022 0.494282 0.849445
Si Si7 0.500000 0.000000 0.337059
Si Si8 0.244638 0.965395 0.554644
O O1 0.250000 0.250000 0.879798
O O2 0.339916 0.188338 0.742382
O O3 0.385829 0.221561 0.923365
O O4 0.348066 0.385826 0.818958
O O5 0.619997 0.012256 0.699700
O O6 0.723759 0.981408 0.815329
O O7 0.740009 0.936130 0.629585
O O8 0.750000 0.250000 0.756454
O O9 0.882248 0.266421 0.707093
O O10 0.840484 0.096718 0.796854
O O11 0.796248 0.130234 0.612642
O O12 0.947824 0.373929 0.574636
O O13 0.932310 0.476051 0.405262
O O14 0.820090 0.426159 0.516114
O O15 0.985571 0.605668 0.267732
O O16 0.304619 0.507426 0.966852
#
# Coordination Sequence:
#
# PCOD8176380 Si02
#       8
#     8   8   8   8   8   8   4   8
#     4  10  17  30  53  80 112 144 188 241 291 345
#     4   9  17  29  49  76 112 142 179 234 288 335
#     4  11  20  34  56  84 119 150 189 247 303 349
#     4  11  20  33  57  83 109 159 198 233 280 360
#     4  11  21  36  57  82 117 151 195 241 292 346
#     4  10  18  29  51  80 112 141 185 230 295 352
#     4  12  24  38  54  84 126 154 194 238 290 344
#     4  10  18  31  54  83 111 153 190 233 297 355
#
# _framework density 18.665763999999999
#
# number of rings (size 3 to 8) (size 9 to 14) (size 15 to 20)
#    0.000    1.600    8.000    1.200    0.000    0.000 
#    0.000    3.333    0.000    0.800    0.000    1.867 
#    0.000    0.000    0.000    0.000    0.000    0.000 
#
# Total GULP energy -371652.864193 kJ/mol
# GULP energy per Si atom -12388.428806 kJ/mol
# Density = 1.862328 g / cm^3
# Si number density = 18.665764 Si / 1000 Ang^3
#
#
#
# Elastic Constant Matrix: (Units=GPa)
#
#
# Indices 1 2 3 4 5 6 
#
# 1 38.8787 25.4193 29.0756 0.0000 0.0000 0.0000
# 2 25.4193 113.2629 80.1274 0.0000 0.0000 0.0000
# 3 29.0756 80.1274 132.2116 0.0000 0.0000 0.0000
# 4 0.0000 0.0000 0.0000 19.4256 0.0000 0.0000
# 5 0.0000 0.0000 0.0000 0.0000 18.5397 0.0000
# 6 0.0000 0.0000 0.0000 0.0000 0.0000 20.8133
#
#
#
# Elastic Compliance Matrix: (Units=1/GPa)
#
#
# Indices 1 2 3 4 5 6 
#
# 1 0.031701 -0.003821 -0.004656 0.000000 0.000000 0.000000
# 2 -0.003821 0.015916 -0.008806 0.000000 0.000000 0.000000
# 3 -0.004656 -0.008806 0.013924 0.000000 0.000000 0.000000
# 4 0.000000 0.000000 0.000000 0.051478 0.000000 0.000000
# 5 0.000000 0.000000 0.000000 0.000000 0.053938 0.000000
# 6 0.000000 0.000000 0.000000 0.000000 0.000000 0.048046
#
#
# Mechanical properties :
#
#
# Convention : Reuss Voigt Hill
#
# Bulk Modulus (GPa) = 37.06933 61.51085 49.29009
# Shear Modulus (GPa) = 19.33774 21.73778 20.53776
#
# Velocity S-wave (km/s) = 3.22219 3.41630 3.32066
# Velocity P-wave (km/s) = 5.80913 6.97043 6.41610
#
# Compressibility (1/GPa) = 0.02697648
#
# Stress axis : x y z
#
# Youngs Moduli (GPa) = 31.54468 62.82942 71.81650
#
# Poissons Ratio (x) = 0.24005 0.33438
# Poissons Ratio (y) = 0.12052 0.63240
# Poissons Ratio (z) = 0.14687 0.55326
#
# Static dielectric constant tensor:
#      x y z
#    x 3.062170 0.000000 0.000000 
#    y 0.000000 3.551970 0.000000 
#    z 0.000000 0.000000 4.224580 
# 
# 
# High freq. dielectric constant tensor:
#      x y z
#    x 1.670110 0.000000 0.000000 
#    y 0.000000 1.709380 0.000000 
#    z 0.000000 0.000000 1.742610 
# 
# From -- ./inp_files/13015.got.cif
#   From: 2010.03.12/outbox.cif.g09.slc.cpg/sg37_7_cif.got.tgz:13015.got - 2010.04.14 02:25:27.
