data_PCOD8176084
_publ_section_title
;
Structure prediction by ZEFSAII (Michael W. Deem and Ramdas Pophale) SiO2 
 PCOD8176084
Probable space group: C M C 21
;
_chemical_formula_sum "Si O2"
_cell_formula_units_Z 48
_cell_length_a 17.956230
_cell_length_b 10.546270
_cell_length_c 11.225852
_cell_angle_alpha 90.000000
_cell_angle_beta 90.000000
_cell_angle_gamma 90.000000
_cell_volume 2125.853623
_symmetry_space_group_name_H-M "C M C 21"
_symmetry_group_IT_number 36
_symmetry_cell_setting 'orthorhombic'
loop_
_space_group_symop_operation_xyz
x,y,z
-x,-y,1/2+z
x,-y,1/2+z
-x,y,z
1/2+x,1/2+y,z
1/2-x,1/2-y,1/2+z
1/2+x,1/2-y,1/2+z
1/2-x,1/2+y,z
loop_
_atom_site_type_symbol
_atom_site_label
_atom_site_fract_x
_atom_site_fract_y
_atom_site_fract_z
Si Si1 0.415023 0.459780 0.475310
Si Si2 0.915873 0.674067 0.196886
Si Si3 0.175938 0.422028 0.237571
Si Si4 0.650490 0.558550 0.727088
Si Si5 0.419271 0.910412 0.438657
Si Si6 0.582534 0.181265 0.544001
O O1 0.500000 0.507047 0.477634
O O2 0.378878 0.510392 0.349844
O O3 0.379011 0.503115 0.601418
O O4 0.408502 0.307780 0.467039
O O5 0.874183 0.547495 0.234272
O O6 0.870591 0.795271 0.239660
O O7 0.000000 0.676987 0.249932
O O8 0.919004 0.676157 0.054670
O O9 0.261201 0.456323 0.225868
O O10 0.151495 0.360021 0.363147
O O11 0.149360 0.321371 0.139311
O O12 0.500000 0.891172 0.375386
O O13 0.407709 0.060470 0.459925
O O14 0.500000 0.177245 0.604561
#
# Coordination Sequence:
#
# PCOD8176084 Si02
#       6
#     8   8   8   8   8   8
#     4  11  25  48  69  94 134 183 232 271 333 413
#     4  10  22  44  68  93 132 184 229 270 337 413
#     4  11  23  37  65 102 138 165 220 287 343 395
#     4  12  28  42  71  99 138 180 224 284 342 395
#     4   9  18  36  66  98 129 171 225 275 331 403
#     4   9  20  39  67  94 129 177 224 273 334 405
#
# _framework density 22.579165
#
# number of rings (size 3 to 8) (size 9 to 14) (size 15 to 20)
#    0.000    1.667    0.000    5.000    7.000    2.667 
#    0.000    1.667    0.000    0.000    0.000    0.000 
#    0.000    0.000    0.000    0.000    0.000    0.000 
#
# Total GULP energy -297369.373986 kJ/mol
# GULP energy per Si atom -12390.390583 kJ/mol
# Density = 2.252777 g / cm^3
# Si number density = 22.579165 Si / 1000 Ang^3
#
#
#
# Elastic Constant Matrix: (Units=GPa)
#
#
# Indices 1 2 3 4 5 6 
#
# 1 164.3365 0.7506 67.0816 0.0000 0.0000 0.0000
# 2 0.7506 35.9551 1.9367 0.0000 0.0000 0.0000
# 3 67.0816 1.9367 147.7825 0.0000 0.0000 0.0000
# 4 0.0000 0.0000 0.0000 9.6183 0.0000 0.0000
# 5 0.0000 0.0000 0.0000 0.0000 13.8059 0.0000
# 6 0.0000 0.0000 0.0000 0.0000 0.0000 13.8929
#
#
#
# Elastic Compliance Matrix: (Units=1/GPa)
#
#
# Indices 1 2 3 4 5 6 
#
# 1 0.007469 0.000027 -0.003391 0.000000 0.000000 0.000000
# 2 0.000027 0.027832 -0.000377 0.000000 0.000000 0.000000
# 3 -0.003391 -0.000377 0.008311 0.000000 0.000000 0.000000
# 4 0.000000 0.000000 0.000000 0.103968 0.000000 0.000000
# 5 0.000000 0.000000 0.000000 0.000000 0.072433 0.000000
# 6 0.000000 0.000000 0.000000 0.000000 0.000000 0.071979
#
#
# Mechanical properties :
#
#
# Convention : Reuss Voigt Hill
#
# Bulk Modulus (GPa) = 27.67759 54.17910 40.92835
# Shear Modulus (GPa) = 16.05048 26.01711 21.03380
#
# Velocity S-wave (km/s) = 2.66908 3.39818 3.05545
# Velocity P-wave (km/s) = 4.66725 6.28045 5.53296
#
# Compressibility (1/GPa) = 0.03613031
#
# Stress axis : x y z
#
# Youngs Moduli (GPa) = 133.88635 35.92956 120.32614
#
# Poissons Ratio (x) = -0.00096 0.40799
# Poissons Ratio (y) = -0.00358 0.04535
# Poissons Ratio (z) = 0.45397 0.01354
#
# Static dielectric constant tensor:
#      x y z
#    x 4.083650 0.000000 0.000000 
#    y 0.000000 3.846540 0.000000 
#    z 0.000000 0.000000 4.395450 
# 
# 
# High freq. dielectric constant tensor:
#      x y z
#    x 1.883990 0.000000 0.000000 
#    y 0.000000 1.871060 0.000000 
#    z 0.000000 0.000000 1.910590 
# 
# From -- ./inp_files/8861.got.cif
#   From: 2010.03.12/outbox.cif.g09.slc.cpg/sg36_5_cif.got.tgz:8861.got - 2010.04.14 02:13:53.
