data_PCOD8176312
_publ_section_title
;
Structure prediction by ZEFSAII (Michael W. Deem and Ramdas Pophale) SiO2 
 PCOD8176312
Probable space group: C M C 21
;
_chemical_formula_sum "Si O2"
_cell_formula_units_Z 40
_cell_length_a 13.360049
_cell_length_b 13.968693
_cell_length_c 9.319424
_cell_angle_alpha 90.000000
_cell_angle_beta 90.000000
_cell_angle_gamma 90.000000
_cell_volume 1739.213487
_symmetry_space_group_name_H-M "C M C 21"
_symmetry_group_IT_number 36
_symmetry_cell_setting 'orthorhombic'
loop_
_space_group_symop_operation_xyz
x,y,z
-x,-y,1/2+z
x,-y,1/2+z
-x,y,z
1/2+x,1/2+y,z
1/2-x,1/2-y,1/2+z
1/2+x,1/2-y,1/2+z
1/2-x,1/2+y,z
loop_
_atom_site_type_symbol
_atom_site_label
_atom_site_fract_x
_atom_site_fract_y
_atom_site_fract_z
Si Si1 0.838905 0.267766 0.021750
Si Si2 0.777933 0.054863 0.645971
Si Si3 0.708720 0.898610 0.447133
Si Si4 0.500000 0.449277 0.190870
Si Si5 0.500000 0.820265 0.469816
Si Si6 0.000000 0.746430 0.298569
Si Si7 0.000000 0.826808 0.724364
O O1 0.793779 0.362074 0.090293
O O2 0.902505 0.206911 0.136570
O O3 0.744756 0.209304 0.966154
O O4 0.903610 0.294578 0.881379
O O5 0.766412 0.049620 0.817262
O O6 0.895831 0.066678 0.602842
O O7 0.735136 0.955996 0.589556
O O8 0.590426 0.890174 0.426589
O O9 0.500000 0.363714 0.310243
O O10 0.500000 0.558271 0.251324
O O11 0.500000 0.790721 0.636485
O O12 0.500000 0.722294 0.379662
#
# Coordination Sequence:
#
# PCOD8176312 Si02
#       7
#     8   8   8   4   4   4   4
#     4  11  25  50  72 111 159 198 245 329 383 444
#     4  12  28  47  82 109 158 201 255 325 386 456
#     4  12  28  49  73 114 151 201 261 313 386 458
#     4  12  24  50  80 120 141 203 264 318 379 463
#     4  12  28  46  76 109 150 212 257 301 390 478
#     4  11  26  45  78 111 153 198 259 312 389 457
#     4  11  24  49  82 104 156 201 256 321 380 452
#
# _framework density 22.998902000000001
#
# number of rings (size 3 to 8) (size 9 to 14) (size 15 to 20)
#    0.000    0.400    6.000    1.200    2.800    8.000 
#    0.000    0.000    0.000    0.000    0.000    0.000 
#    0.000    0.000    0.000    0.000    0.000    0.000 
#
# Total GULP energy -248000.542493 kJ/mol
# GULP energy per Si atom -12400.027125 kJ/mol
# Density = 2.294656 g / cm^3
# Si number density = 22.998902 Si / 1000 Ang^3
#
#
#
# Elastic Constant Matrix: (Units=GPa)
#
#
# Indices 1 2 3 4 5 6 
#
# 1 172.7886 44.2020 21.9776 0.0000 0.0000 0.0000
# 2 44.2020 73.6040 25.6961 0.0000 0.0000 0.0000
# 3 21.9776 25.6961 104.6095 0.0000 0.0000 0.0000
# 4 0.0000 0.0000 0.0000 38.3830 0.0000 0.0000
# 5 0.0000 0.0000 0.0000 0.0000 217.8693 0.0000
# 6 0.0000 0.0000 0.0000 0.0000 0.0000 38.4918
#
#
#
# Elastic Compliance Matrix: (Units=1/GPa)
#
#
# Indices 1 2 3 4 5 6 
#
# 1 0.006859 -0.003955 -0.000469 0.000000 0.000000 0.000000
# 2 -0.003955 0.017141 -0.003380 0.000000 0.000000 0.000000
# 3 -0.000469 -0.003380 0.010488 0.000000 0.000000 0.000000
# 4 0.000000 0.000000 0.000000 0.026053 0.000000 0.000000
# 5 0.000000 0.000000 0.000000 0.000000 0.004590 0.000000
# 6 0.000000 0.000000 0.000000 0.000000 0.000000 0.025980
#
#
# Mechanical properties :
#
#
# Convention : Reuss Voigt Hill
#
# Bulk Modulus (GPa) = 52.96633 59.41706 56.19169
# Shear Modulus (GPa) = 44.24275 76.22389 60.23332
#
# Velocity S-wave (km/s) = 4.39075 5.76319 5.12313
# Velocity P-wave (km/s) = 6.98461 8.37715 7.71237
#
# Compressibility (1/GPa) = 0.01887992
#
# Stress axis : x y z
#
# Youngs Moduli (GPa) = 145.79552 58.33860 95.34566
#
# Poissons Ratio (x) = 0.23074 0.04476
# Poissons Ratio (y) = 0.57664 0.32223
# Poissons Ratio (z) = 0.06845 0.19716
#
# Static dielectric constant tensor:
#      x y z
#    x -2.649860 0.000000 0.000000 
#    y 0.000000 3.963710 0.000000 
#    z 0.000000 0.000000 4.128960 
# 
# 
# High freq. dielectric constant tensor:
#      x y z
#    x 1.931710 0.000000 0.000000 
#    y 0.000000 1.904200 0.000000 
#    z 0.000000 0.000000 1.904590 
# 
# From -- ./inp_files/3854.got.cif
#   From: 2010.03.12/outbox.cif.g09.slc.cpg/sg36_2_cif.got.tgz:3854.got - 2010.04.14 02:13:53.
