data_PCOD8176926
_publ_section_title
;
Structure prediction by ZEFSAII (Michael W. Deem and Ramdas Pophale) SiO2 
 PCOD8176926
Probable space group: C C C 2
;
_chemical_formula_sum "Si O2"
_cell_formula_units_Z 44
_cell_length_a 8.741916
_cell_length_b 17.672872
_cell_length_c 13.470216
_cell_angle_alpha 90.000000
_cell_angle_beta 90.000000
_cell_angle_gamma 90.000000
_cell_volume 2081.077822
_symmetry_space_group_name_H-M "C C C 2"
_symmetry_group_IT_number 37
_symmetry_cell_setting 'orthorhombic'
loop_
_space_group_symop_operation_xyz
x,y,z
-x,-y,z
-x,y,1/2+z
x,-y,1/2+z
1/2+x,1/2+y,z
1/2-x,1/2-y,z
1/2-x,1/2+y,1/2+z
1/2+x,1/2-y,1/2+z
loop_
_atom_site_type_symbol
_atom_site_label
_atom_site_fract_x
_atom_site_fract_y
_atom_site_fract_z
Si Si1 0.500000 0.000000 0.689461
Si Si2 0.036481 0.117105 0.541903
Si Si3 0.748335 0.983966 0.023834
Si Si4 0.901122 0.395696 0.356698
Si Si5 0.646006 0.683097 0.739248
Si Si6 0.071504 0.249046 0.392890
O O1 0.652069 0.004862 0.623854
O O2 0.489382 0.073684 0.759780
O O3 0.090338 0.127071 0.654639
O O4 0.030011 0.196946 0.486517
O O5 0.867226 0.083297 0.543500
O O6 0.159965 0.059963 0.492802
O O7 0.634625 0.963115 0.933883
O O8 0.739113 0.361051 0.323827
O O9 0.004980 0.333129 0.412656
O O10 0.750000 0.750000 0.692644
O O11 0.497663 0.717936 0.791035
O O12 0.250000 0.250000 0.376854
#
# Coordination Sequence:
#
# PCOD8176926 Si02
#       6
#     4   8   8   8   8   8
#     4  12  26  44  72 100 140 180 238 286 350 424
#     4  11  24  46  70 101 139 178 233 286 349 423
#     4  11  26  44  72 103 135 186 229 290 354 412
#     4  11  25  47  68 101 143 181 232 290 348 422
#     4  10  22  46  67  96 136 179 225 282 341 409
#     4  11  26  43  70 100 135 184 229 289 349 415
#
# _framework density 21.142890000000001
#
# number of rings (size 3 to 8) (size 9 to 14) (size 15 to 20)
#    0.000    1.091    3.636    1.091    7.636    2.909 
#    0.000    0.000    0.000    0.000    0.000    0.000 
#    0.000    0.000    0.000    0.000    0.000    0.000 
#
# Total GULP energy -272916.415254 kJ/mol
# GULP energy per Si atom -12405.291602 kJ/mol
# Density = 2.109477 g / cm^3
# Si number density = 21.142890 Si / 1000 Ang^3
#
#
#
# Elastic Constant Matrix: (Units=GPa)
#
#
# Indices 1 2 3 4 5 6 
#
# 1 119.7211 35.5025 41.7576 0.0000 0.0000 0.0000
# 2 35.5025 92.5280 41.7462 0.0000 0.0000 0.0000
# 3 41.7576 41.7462 92.2723 0.0000 0.0000 0.0000
# 4 0.0000 0.0000 0.0000 44.5273 0.0000 0.0000
# 5 0.0000 0.0000 0.0000 0.0000 20.5237 0.0000
# 6 0.0000 0.0000 0.0000 0.0000 0.0000 33.2700
#
#
#
# Elastic Compliance Matrix: (Units=1/GPa)
#
#
# Indices 1 2 3 4 5 6 
#
# 1 0.010301 -0.002323 -0.003611 0.000000 0.000000 0.000000
# 2 -0.002323 0.014103 -0.005329 0.000000 0.000000 0.000000
# 3 -0.003611 -0.005329 0.014883 0.000000 0.000000 0.000000
# 4 0.000000 0.000000 0.000000 0.022458 0.000000 0.000000
# 5 0.000000 0.000000 0.000000 0.000000 0.048724 0.000000
# 6 0.000000 0.000000 0.000000 0.000000 0.000000 0.030057
#
#
# Mechanical properties :
#
#
# Convention : Reuss Voigt Hill
#
# Bulk Modulus (GPa) = 59.66406 60.28155 59.97281
# Shear Modulus (GPa) = 29.64896 32.03185 30.84040
#
# Velocity S-wave (km/s) = 3.74881 3.89655 3.82339
# Velocity P-wave (km/s) = 6.85703 6.98695 6.92229
#
# Compressibility (1/GPa) = 0.01676051
#
# Stress axis : x y z
#
# Youngs Moduli (GPa) = 97.07715 70.90450 67.19299
#
# Poissons Ratio (x) = 0.16475 0.24260
# Poissons Ratio (y) = 0.22556 0.35809
# Poissons Ratio (z) = 0.35050 0.37787
#
# Static dielectric constant tensor:
#      x y z
#    x 3.917550 0.000000 0.000000 
#    y 0.000000 3.996680 0.000000 
#    z 0.000000 0.000000 3.607010 
# 
# 
# High freq. dielectric constant tensor:
#      x y z
#    x 1.843230 0.000000 0.000000 
#    y 0.000000 1.837740 0.000000 
#    z 0.000000 0.000000 1.821490 
# 
# From -- ./inp_files/10541.got.cif
#   From: 2010.03.12/outbox.cif.g09.slc.cpg/sg37_6_cif.got.tgz:10541.got - 2010.04.14 02:25:27.
