data_PCOD8176596
_publ_section_title
;
Structure prediction by ZEFSAII (Michael W. Deem and Ramdas Pophale) SiO2 
 PCOD8176596
Probable space group: C C C 2
;
_chemical_formula_sum "Si O2"
_cell_formula_units_Z 60
_cell_length_a 9.714156
_cell_length_b 21.647965
_cell_length_c 14.113302
_cell_angle_alpha 90.000000
_cell_angle_beta 90.000000
_cell_angle_gamma 90.000000
_cell_volume 2967.910399
_symmetry_space_group_name_H-M "C C C 2"
_symmetry_group_IT_number 37
_symmetry_cell_setting 'orthorhombic'
loop_
_space_group_symop_operation_xyz
x,y,z
-x,-y,z
-x,y,1/2+z
x,-y,1/2+z
1/2+x,1/2+y,z
1/2-x,1/2-y,z
1/2-x,1/2+y,1/2+z
1/2+x,1/2-y,1/2+z
loop_
_atom_site_type_symbol
_atom_site_label
_atom_site_fract_x
_atom_site_fract_y
_atom_site_fract_z
Si Si1 0.534972 0.669734 0.402710
Si Si2 0.250000 0.750000 0.601466
Si Si3 0.205950 0.907937 0.187211
Si Si4 0.739004 0.598512 0.901440
Si Si5 0.094621 0.138369 0.197135
Si Si6 0.451874 0.801521 0.448852
Si Si7 0.652977 0.524376 0.071695
Si Si8 0.225628 0.319007 0.546588
O O1 0.397666 0.634323 0.433676
O O2 0.607629 0.639889 0.311176
O O3 0.485098 0.740807 0.384946
O O4 0.637885 0.660196 0.489844
O O5 0.164757 0.798607 0.663362
O O6 0.363321 0.784738 0.540269
O O7 0.229603 0.927895 0.295320
O O8 0.310409 0.859042 0.140283
O O9 0.065883 0.868730 0.174043
O O10 0.225495 0.968264 0.124265
O O11 0.869659 0.644257 0.895691
O O12 0.742714 0.542573 0.977933
O O13 0.164710 0.079467 0.148221
O O14 0.598409 0.828594 0.477004
O O15 0.500000 0.500000 0.044379
O O16 0.250000 0.250000 0.581608
#
# Coordination Sequence:
#
# PCOD8176596 Si02
#       8
#     8   4   8   8   8   8   8   8
#     4  10  20  37  61  93 128 158 206 252 306 367
#     4  12  20  36  60  90 122 162 198 252 306 372
#     4  10  23  39  61  90 121 159 210 258 313 367
#     4  11  21  39  63  90 118 161 208 258 315 366
#     4  10  21  34  62  95 119 160 206 253 304 369
#     4  11  21  36  60  88 127 163 201 252 315 369
#     4  10  20  39  62  90 124 160 210 262 310 363
#     4  10  22  39  58  88 127 165 200 254 313 374
#
# _framework density 20.216244
#
# number of rings (size 3 to 8) (size 9 to 14) (size 15 to 20)
#    0.000    1.600    2.667    3.200    2.800    6.933 
#    0.000    0.667    0.000    1.600    0.000    0.000 
#    0.000    0.000    0.000    0.000    0.000    0.000 
#
# Total GULP energy -371734.985074 kJ/mol
# GULP energy per Si atom -12391.166169 kJ/mol
# Density = 2.017023 g / cm^3
# Si number density = 20.216244 Si / 1000 Ang^3
#
#
#
# Elastic Constant Matrix: (Units=GPa)
#
#
# Indices 1 2 3 4 5 6 
#
# 1 54.5826 28.7187 24.9426 0.0000 0.0000 0.0000
# 2 28.7187 101.8975 68.7582 0.0000 0.0000 0.0000
# 3 24.9426 68.7582 131.9660 0.0000 0.0000 0.0000
# 4 0.0000 0.0000 0.0000 29.9955 0.0000 0.0000
# 5 0.0000 0.0000 0.0000 0.0000 12.7321 0.0000
# 6 0.0000 0.0000 0.0000 0.0000 0.0000 25.0710
#
#
#
# Elastic Compliance Matrix: (Units=1/GPa)
#
#
# Indices 1 2 3 4 5 6 
#
# 1 0.021679 -0.005159 -0.001410 0.000000 0.000000 0.000000
# 2 -0.005159 0.016363 -0.007550 0.000000 0.000000 0.000000
# 3 -0.001410 -0.007550 0.011778 0.000000 0.000000 0.000000
# 4 0.000000 0.000000 0.000000 0.033338 0.000000 0.000000
# 5 0.000000 0.000000 0.000000 0.000000 0.078542 0.000000
# 6 0.000000 0.000000 0.000000 0.000000 0.000000 0.039887
#
#
# Mechanical properties :
#
#
# Convention : Reuss Voigt Hill
#
# Bulk Modulus (GPa) = 46.33421 59.25389 52.79405
# Shear Modulus (GPa) = 21.09542 24.62816 22.86179
#
# Velocity S-wave (km/s) = 3.23381 3.49411 3.36648
# Velocity P-wave (km/s) = 6.07556 6.75663 6.42513
#
# Compressibility (1/GPa) = 0.02158233
#
# Stress axis : x y z
#
# Youngs Moduli (GPa) = 46.12675 61.11524 84.90357
#
# Poissons Ratio (x) = 0.31529 0.11968
# Poissons Ratio (y) = 0.23796 0.64105
# Poissons Ratio (z) = 0.06502 0.46144
#
# Static dielectric constant tensor:
#      x y z
#    x 3.679030 0.000000 0.000000 
#    y 0.000000 3.864010 0.000000 
#    z 0.000000 0.000000 3.670730 
# 
# 
# High freq. dielectric constant tensor:
#      x y z
#    x 1.767760 0.000000 0.000000 
#    y 0.000000 1.788870 0.000000 
#    z 0.000000 0.000000 1.791970 
# 
# From -- ./inp_files/10922.got.cif
#   From: 2010.03.12/outbox.cif.g09.slc.cpg/sg37_6_cif.got.tgz:10922.got - 2010.04.14 02:25:27.
