data_PCOD8176089
_publ_section_title
;
Structure prediction by ZEFSAII (Michael W. Deem and Ramdas Pophale) SiO2 
 PCOD8176089
Probable space group: C M C 21
;
_chemical_formula_sum "Si O2"
_cell_formula_units_Z 48
_cell_length_a 22.243737
_cell_length_b 8.655532
_cell_length_c 11.619082
_cell_angle_alpha 90.000000
_cell_angle_beta 90.000000
_cell_angle_gamma 90.000000
_cell_volume 2237.037862
_symmetry_space_group_name_H-M "C M C 21"
_symmetry_group_IT_number 36
_symmetry_cell_setting 'orthorhombic'
loop_
_space_group_symop_operation_xyz
x,y,z
-x,-y,1/2+z
x,-y,1/2+z
-x,y,z
1/2+x,1/2+y,z
1/2-x,1/2-y,1/2+z
1/2+x,1/2-y,1/2+z
1/2-x,1/2+y,z
loop_
_atom_site_type_symbol
_atom_site_label
_atom_site_fract_x
_atom_site_fract_y
_atom_site_fract_z
Si Si1 0.622871 0.201516 0.019460
Si Si2 0.717967 0.900925 0.688788
Si Si3 0.933203 0.191806 0.740050
Si Si4 0.926784 0.856692 0.802046
Si Si5 0.332979 0.765122 0.142435
Si Si6 0.358370 0.872901 0.906085
O O1 0.685021 0.212313 0.094368
O O2 0.572002 0.229155 0.115312
O O3 0.607841 0.330404 0.923630
O O4 0.621558 0.036488 0.957945
O O5 0.789216 0.874041 0.681006
O O6 0.698809 0.870783 0.820783
O O7 0.702348 0.076593 0.663189
O O8 0.914676 0.315148 0.834702
O O9 0.000000 0.149637 0.768027
O O10 0.903306 0.022937 0.756068
O O11 0.896368 0.737214 0.711253
O O12 0.000000 0.831948 0.808823
O O13 0.345567 0.750788 0.007070
#
# Coordination Sequence:
#
# PCOD8176089 Si02
#       6
#     8   8   8   8   8   8
#     4  10  22  46  65  94 140 178 232 284 337 413
#     4  10  24  42  67 102 133 176 229 281 347 407
#     4  10  24  42  67 100 133 181 235 279 344 416
#     4  11  25  44  68  98 138 184 229 285 348 412
#     4  11  25  42  68 100 137 178 225 284 345 414
#     4  10  23  44  65 100 136 177 228 283 347 406
#
# _framework density 21.456947
#
# number of rings (size 3 to 8) (size 9 to 14) (size 15 to 20)
#    0.000    1.667    1.667    0.500    9.333    2.000 
#    0.000    2.500    0.000    0.000    0.000    0.000 
#    0.000    0.000    0.000    0.000    0.000    0.000 
#
# Total GULP energy -297319.150347 kJ/mol
# GULP energy per Si atom -12388.297931 kJ/mol
# Density = 2.140811 g / cm^3
# Si number density = 21.456947 Si / 1000 Ang^3
#
#
#
# Elastic Constant Matrix: (Units=GPa)
#
#
# Indices 1 2 3 4 5 6 
#
# 1 69.2815 38.5378 50.3025 0.0000 0.0000 0.0000
# 2 38.5378 67.6176 55.3740 0.0000 0.0000 0.0000
# 3 50.3025 55.3740 194.9353 0.0000 0.0000 0.0000
# 4 0.0000 0.0000 0.0000 26.1860 0.0000 0.0000
# 5 0.0000 0.0000 0.0000 0.0000 7.9469 0.0000
# 6 0.0000 0.0000 0.0000 0.0000 0.0000 33.1727
#
#
#
# Elastic Compliance Matrix: (Units=1/GPa)
#
#
# Indices 1 2 3 4 5 6 
#
# 1 0.022238 -0.010392 -0.002786 0.000000 0.000000 0.000000
# 2 -0.010392 0.024129 -0.004172 0.000000 0.000000 0.000000
# 3 -0.002786 -0.004172 0.007034 0.000000 0.000000 0.000000
# 4 0.000000 0.000000 0.000000 0.038188 0.000000 0.000000
# 5 0.000000 0.000000 0.000000 0.000000 0.125836 0.000000
# 6 0.000000 0.000000 0.000000 0.000000 0.000000 0.030145
#
#
# Mechanical properties :
#
#
# Convention : Reuss Voigt Hill
#
# Bulk Modulus (GPa) = 53.47977 68.91811 61.19894
# Shear Modulus (GPa) = 17.33073 25.96913 21.64993
#
# Velocity S-wave (km/s) = 2.84509 3.48270 3.17991
# Velocity P-wave (km/s) = 5.98089 6.95422 6.48584
#
# Compressibility (1/GPa) = 0.01869866
#
# Stress axis : x y z
#
# Youngs Moduli (GPa) = 44.96892 41.44399 142.16368
#
# Poissons Ratio (x) = 0.43070 0.39611
# Poissons Ratio (y) = 0.46733 0.59317
# Poissons Ratio (z) = 0.12530 0.17292
#
# Static dielectric constant tensor:
#      x y z
#    x 3.783100 0.000000 0.000000 
#    y 0.000000 4.114580 0.000000 
#    z 0.000000 0.000000 4.480820 
# 
# 
# High freq. dielectric constant tensor:
#      x y z
#    x 1.830700 0.000000 0.000000 
#    y 0.000000 1.839360 0.000000 
#    z 0.000000 0.000000 1.861870 
# 
# From -- ./inp_files/9415.got.cif
#   From: 2010.03.12/outbox.cif.g09.slc.cpg/sg36_5_cif.got.tgz:9415.got - 2010.04.14 02:13:53.
