data_PCOD8176611
_publ_section_title
;
Structure prediction by ZEFSAII (Michael W. Deem and Ramdas Pophale) SiO2 
 PCOD8176611
Probable space group: C C C 2
;
_chemical_formula_sum "Si O2"
_cell_formula_units_Z 64
_cell_length_a 11.596445
_cell_length_b 10.942322
_cell_length_c 23.406385
_cell_angle_alpha 90.000000
_cell_angle_beta 90.000000
_cell_angle_gamma 90.000000
_cell_volume 2970.083830
_symmetry_space_group_name_H-M "C C C 2"
_symmetry_group_IT_number 37
_symmetry_cell_setting 'orthorhombic'
loop_
_space_group_symop_operation_xyz
x,y,z
-x,-y,z
-x,y,1/2+z
x,-y,1/2+z
1/2+x,1/2+y,z
1/2-x,1/2-y,z
1/2-x,1/2+y,1/2+z
1/2+x,1/2-y,1/2+z
loop_
_atom_site_type_symbol
_atom_site_label
_atom_site_fract_x
_atom_site_fract_y
_atom_site_fract_z
Si Si1 0.363495 0.830685 0.161850
Si Si2 0.462714 0.363899 0.456458
Si Si3 0.928300 0.775214 0.234637
Si Si4 0.233945 0.454266 0.233364
Si Si5 0.476632 0.216193 0.354254
Si Si6 0.290370 0.082917 0.426161
Si Si7 0.292208 0.112245 0.841762
Si Si8 0.871859 0.686646 0.535853
O O1 0.250000 0.750000 0.162528
O O2 0.461385 0.754174 0.195470
O O3 0.410718 0.861352 0.097945
O O4 0.328362 0.960918 0.187100
O O5 0.500000 0.500000 0.470856
O O6 0.532759 0.302516 0.404358
O O7 0.329866 0.347875 0.435885
O O8 0.469038 0.284347 0.514521
O O9 0.854194 0.653975 0.243800
O O10 0.854490 0.891743 0.211145
O O11 0.961162 0.806227 0.300131
O O12 0.259886 0.531575 0.290451
O O13 0.361292 0.148504 0.375522
O O14 0.569034 0.112839 0.337161
O O15 0.360217 0.080888 0.486772
O O16 0.260597 0.946750 0.403565
O O17 0.250000 0.250000 0.836364
O O18 0.750000 0.750000 0.545676
#
# Coordination Sequence:
#
# PCOD8176611 Si02
#       8
#     8   8   8   8   8   8   8   8
#     4  11  23  45  65  97 132 171 224 280 334 396
#     4  10  20  38  62  96 126 163 219 271 321 391
#     4  11  24  41  65  92 125 178 222 268 327 404
#     4  11  24  41  63  92 128 176 223 267 332 399
#     4  11  21  35  59  90 126 169 211 256 330 396
#     4  10  20  38  63  89 123 171 213 255 322 404
#     4  12  23  37  60  95 134 165 205 277 332 394
#     4   8  19  40  66  88 124 172 216 265 332 395
#
# _framework density 21.548214000000002
#
# number of rings (size 3 to 8) (size 9 to 14) (size 15 to 20)
#    0.000    1.500    2.500    3.750    1.750    0.500 
#    6.750    5.000    2.750    0.000    0.000    0.000 
#    0.000    0.000    0.000    0.000    0.000    0.000 
#
# Total GULP energy -396528.070597 kJ/mol
# GULP energy per Si atom -12391.502206 kJ/mol
# Density = 2.149917 g / cm^3
# Si number density = 21.548214 Si / 1000 Ang^3
#
#
#
# Elastic Constant Matrix: (Units=GPa)
#
#
# Indices 1 2 3 4 5 6 
#
# 1 75.5387 25.0421 36.8071 0.0000 0.0000 0.0000
# 2 25.0421 117.8053 62.2342 0.0000 0.0000 0.0000
# 3 36.8071 62.2342 173.1592 0.0000 0.0000 0.0000
# 4 0.0000 0.0000 0.0000 9.1190 0.0000 0.0000
# 5 0.0000 0.0000 0.0000 0.0000 9.4046 0.0000
# 6 0.0000 0.0000 0.0000 0.0000 0.0000 37.7553
#
#
#
# Elastic Compliance Matrix: (Units=1/GPa)
#
#
# Indices 1 2 3 4 5 6 
#
# 1 0.015094 -0.001868 -0.002537 0.000000 0.000000 0.000000
# 2 -0.001868 0.010709 -0.003452 0.000000 0.000000 0.000000
# 3 -0.002537 -0.003452 0.007555 0.000000 0.000000 0.000000
# 4 0.000000 0.000000 0.000000 0.109661 0.000000 0.000000
# 5 0.000000 0.000000 0.000000 0.000000 0.106330 0.000000
# 6 0.000000 0.000000 0.000000 0.000000 0.000000 0.026486
#
#
# Mechanical properties :
#
#
# Convention : Reuss Voigt Hill
#
# Bulk Modulus (GPa) = 56.67700 68.29665 62.48683
# Shear Modulus (GPa) = 16.81063 27.41711 22.11387
#
# Velocity S-wave (km/s) = 2.79613 3.57089 3.20699
# Velocity P-wave (km/s) = 6.06498 6.98321 6.54023
#
# Compressibility (1/GPa) = 0.01764384
#
# Stress axis : x y z
#
# Youngs Moduli (GPa) = 66.25262 93.37713 132.36493
#
# Poissons Ratio (x) = 0.17446 0.33579
# Poissons Ratio (y) = 0.12378 0.45690
# Poissons Ratio (z) = 0.16807 0.32232
#
# Static dielectric constant tensor:
#      x y z
#    x 3.923890 0.000000 0.000000 
#    y 0.000000 3.982570 0.000000 
#    z 0.000000 0.000000 4.163140 
# 
# 
# High freq. dielectric constant tensor:
#      x y z
#    x 1.837610 0.000000 0.000000 
#    y 0.000000 1.843960 0.000000 
#    z 0.000000 0.000000 1.837920 
# 
# From -- ./inp_files/18762.got.cif
#   From: 2010.03.12/outbox.cif.g09.slc.cpg/sg37_10_cif.got.tgz:18762.got - 2010.04.14 02:25:27.
