data_PCOD8176415
_publ_section_title
;
Structure prediction by ZEFSAII (Michael W. Deem and Ramdas Pophale) SiO2 
 PCOD8176415
Probable space group: C C C 2
;
_chemical_formula_sum "Si O2"
_cell_formula_units_Z 32
_cell_length_a 35.989393
_cell_length_b 7.023199
_cell_length_c 5.352921
_cell_angle_alpha 90.000000
_cell_angle_beta 90.000000
_cell_angle_gamma 90.000000
_cell_volume 1353.007893
_symmetry_space_group_name_H-M "C C C 2"
_symmetry_group_IT_number 37
_symmetry_cell_setting 'orthorhombic'
loop_
_space_group_symop_operation_xyz
x,y,z
-x,-y,z
-x,y,1/2+z
x,-y,1/2+z
1/2+x,1/2+y,z
1/2-x,1/2-y,z
1/2-x,1/2+y,1/2+z
1/2+x,1/2-y,1/2+z
loop_
_atom_site_type_symbol
_atom_site_label
_atom_site_fract_x
_atom_site_fract_y
_atom_site_fract_z
Si Si1 0.632824 0.707125 0.078850
Si Si2 0.515392 0.214911 0.083187
Si Si3 0.716623 0.388561 0.590700
Si Si4 0.897897 0.222026 0.079017
O O1 0.676975 0.708970 0.050769
O O2 0.613720 0.499373 0.096031
O O3 0.621780 0.815000 0.335406
O O4 0.616611 0.817691 0.836865
O O5 0.503149 0.317228 0.341820
O O6 0.559034 0.234396 0.052286
O O7 0.500000 0.000000 0.102600
O O8 0.719791 0.550235 0.379204
O O9 0.750000 0.250000 0.527125
#
# Coordination Sequence:
#
# PCOD8176415 Si02
#       4
#     8   8   8   8
#     4  10  19  37  61  90 117 165 215 260 310 392
#     4  10  21  37  57  82 120 159 199 259 332 387
#     4  12  23  43  72 102 145 180 226 286 343 409
#     4  10  18  35  63  82 115 158 214 256 314 376
#
# _framework density 23.651008000000001
#
# number of rings (size 3 to 8) (size 9 to 14) (size 15 to 20)
#    0.000    1.500    5.000    2.250    0.000    0.000 
#    0.000   15.000   33.000    0.000    0.000    0.000 
#    0.000    0.000    0.000    0.000    0.000    0.000 
#
# Total GULP energy -198233.650025 kJ/mol
# GULP energy per Si atom -12389.603127 kJ/mol
# Density = 2.359718 g / cm^3
# Si number density = 23.651008 Si / 1000 Ang^3
#
#
#
# Elastic Constant Matrix: (Units=GPa)
#
#
# Indices 1 2 3 4 5 6 
#
# 1 167.3629 24.3237 13.1696 0.0000 0.0000 0.0000
# 2 24.3237 28.9472 -15.5610 0.0000 0.0000 0.0000
# 3 13.1696 -15.5610 231.5758 0.0000 0.0000 0.0000
# 4 0.0000 0.0000 0.0000 -40.2667 0.0000 0.0000
# 5 0.0000 0.0000 0.0000 0.0000 56.0827 0.0000
# 6 0.0000 0.0000 0.0000 0.0000 0.0000 34.7605
#
#
#
# Elastic Compliance Matrix: (Units=1/GPa)
#
#
# Indices 1 2 3 4 5 6 
#
# 1 0.006952 -0.006281 -0.000817 0.000000 0.000000 0.000000
# 2 -0.006281 0.041515 0.003147 0.000000 0.000000 0.000000
# 3 -0.000817 0.003147 0.004576 0.000000 0.000000 0.000000
# 4 0.000000 0.000000 0.000000 -0.024834 0.000000 0.000000
# 5 0.000000 0.000000 0.000000 0.000000 0.017831 0.000000
# 6 0.000000 0.000000 0.000000 0.000000 0.000000 0.028768
#
#
# Mechanical properties :
#
#
# Convention : Reuss Voigt Hill
#
# Bulk Modulus (GPa) = 22.15324 52.41673 37.28498
# Shear Modulus (GPa) = 51.14626 37.17888 44.16257
#
# Velocity S-wave (km/s) = 4.65536 3.96912 4.32587
# Velocity P-wave (km/s) = 6.18737 6.57388 6.38355
#
# Compressibility (1/GPa) = 0.04514013
#
# Stress axis : x y z
#
# Youngs Moduli (GPa) = 143.83820 24.08747 218.52258
#
# Poissons Ratio (x) = 0.15130 0.17863
# Poissons Ratio (y) = 0.90349 -0.68767
# Poissons Ratio (z) = 0.11758 -0.07580
#
# Static dielectric constant tensor:
#      x y z
#    x 3.896170 0.000000 0.000000 
#    y 0.000000 3.611300 0.000000 
#    z 0.000000 0.000000 6.718160 
# 
# 
# High freq. dielectric constant tensor:
#      x y z
#    x 1.943390 0.000000 0.000000 
#    y 0.000000 1.889750 0.000000 
#    z 0.000000 0.000000 1.988090 
# 
# From -- ./inp_files/148.got.cif
#   From: 2010.03.12/outbox.cif.g09.slc.cpg/sg37_1_cif.got.tgz:148.got - 2010.04.14 02:25:27.
