data_PCOD8176783
_publ_section_title
;
Structure prediction by ZEFSAII (Michael W. Deem and Ramdas Pophale) SiO2 
 PCOD8176783
Probable space group: C C C 2
;
_chemical_formula_sum "Si O2"
_cell_formula_units_Z 56
_cell_length_a 8.639190
_cell_length_b 12.270100
_cell_length_c 26.215244
_cell_angle_alpha 90.000000
_cell_angle_beta 90.000000
_cell_angle_gamma 90.000000
_cell_volume 2778.913522
_symmetry_space_group_name_H-M "C C C 2"
_symmetry_group_IT_number 37
_symmetry_cell_setting 'orthorhombic'
loop_
_space_group_symop_operation_xyz
x,y,z
-x,-y,z
-x,y,1/2+z
x,-y,1/2+z
1/2+x,1/2+y,z
1/2-x,1/2-y,z
1/2-x,1/2+y,1/2+z
1/2+x,1/2-y,1/2+z
loop_
_atom_site_type_symbol
_atom_site_label
_atom_site_fract_x
_atom_site_fract_y
_atom_site_fract_z
Si Si1 0.838309 0.951632 0.161750
Si Si2 0.980982 0.371162 0.481972
Si Si3 0.250000 0.750000 0.414123
Si Si4 0.871740 0.343451 0.185710
Si Si5 0.988064 0.873204 0.357099
Si Si6 0.914438 0.785160 0.250982
Si Si7 0.926543 0.617006 0.094120
Si Si8 0.750000 0.250000 0.924364
O O1 0.889684 0.866964 0.204273
O O2 0.750961 0.890912 0.114931
O O3 0.715068 0.039455 0.185721
O O4 0.000000 0.000000 0.140168
O O5 0.136144 0.314618 0.461867
O O6 0.000000 0.500000 0.480052
O O7 0.836324 0.339606 0.447671
O O8 0.938757 0.326875 0.538850
O O9 0.362588 0.684076 0.378551
O O10 0.750000 0.250000 0.191031
O O11 0.989859 0.323439 0.233195
O O12 0.968677 0.318938 0.134631
O O13 0.995543 0.847649 0.297016
O O14 0.836577 0.833567 0.387111
O O15 0.000000 0.000000 0.366043
O O16 0.750000 0.750000 0.272846
O O17 0.000000 0.500000 0.087575
#
# Coordination Sequence:
#
# PCOD8176783 Si02
#       8
#     8   8   4   8   8   8   8   4
#     4  11  22  40  59  90 129 167 205 251 303 371
#     4  10  21  42  65  90 124 159 202 262 313 366
#     4  10  24  42  64  92 120 160 210 262 318 372
#     4  11  23  38  59  90 125 163 203 245 301 371
#     4  11  24  42  63  91 123 158 209 261 311 372
#     4  12  24  40  63  89 125 166 207 254 309 367
#     4   9  21  39  60  90 126 158 204 250 304 371
#     4  10  22  42  66  90 116 162 208 250 326 374
#
# _framework density 20.151761
#
# number of rings (size 3 to 8) (size 9 to 14) (size 15 to 20)
#    0.000    1.429    3.571    1.286    2.000    1.143 
#    0.000    3.571    0.000    0.000    0.000    0.000 
#    0.000    0.000    0.000    0.000    0.000    0.000 
#
# Total GULP energy -347098.188699 kJ/mol
# GULP energy per Si atom -12396.363882 kJ/mol
# Density = 2.010590 g / cm^3
# Si number density = 20.151761 Si / 1000 Ang^3
#
#
#
# Elastic Constant Matrix: (Units=GPa)
#
#
# Indices 1 2 3 4 5 6 
#
# 1 124.8512 25.6591 60.4505 0.0000 0.0000 0.0000
# 2 25.6591 75.2824 45.8745 0.0000 0.0000 0.0000
# 3 60.4505 45.8745 140.7421 0.0000 0.0000 0.0000
# 4 0.0000 0.0000 0.0000 31.5428 0.0000 0.0000
# 5 0.0000 0.0000 0.0000 0.0000 -61.6181 0.0000
# 6 0.0000 0.0000 0.0000 0.0000 0.0000 7.6047
#
#
#
# Elastic Compliance Matrix: (Units=1/GPa)
#
#
# Indices 1 2 3 4 5 6 
#
# 1 0.010173 -0.001004 -0.004042 0.000000 0.000000 0.000000
# 2 -0.001004 0.016675 -0.005004 0.000000 0.000000 0.000000
# 3 -0.004042 -0.005004 0.010472 0.000000 0.000000 0.000000
# 4 0.000000 0.000000 0.000000 0.031703 0.000000 0.000000
# 5 0.000000 0.000000 0.000000 0.000000 -0.016229 0.000000
# 6 0.000000 0.000000 0.000000 0.000000 0.000000 0.131498
#
#
# Mechanical properties :
#
#
# Convention : Reuss Voigt Hill
#
# Bulk Modulus (GPa) = 58.07251 67.20487 62.63869
# Shear Modulus (GPa) = 23.79452 9.43196 16.61324
#
# Velocity S-wave (km/s) = 3.43996 2.16579 2.87436
# Velocity P-wave (km/s) = 6.68265 6.29888 6.49361
#
# Compressibility (1/GPa) = 0.01721985
#
# Stress axis : x y z
#
# Youngs Moduli (GPa) = 98.29902 59.97104 95.49006
#
# Poissons Ratio (x) = 0.06022 0.38598
# Poissons Ratio (y) = 0.09871 0.47781
# Poissons Ratio (z) = 0.39734 0.30008
#
# Static dielectric constant tensor:
#      x y z
#    x 4.418810 0.000000 0.000000 
#    y 0.000000 3.492020 0.000000 
#    z 0.000000 0.000000 3.968840 
# 
# 
# High freq. dielectric constant tensor:
#      x y z
#    x 1.806050 0.000000 0.000000 
#    y 0.000000 1.785500 0.000000 
#    z 0.000000 0.000000 1.786030 
# 
# From -- ./inp_files/19685.got.cif
#   From: 2010.03.12/outbox.cif.g09.slc.cpg/sg37_10_cif.got.tgz:19685.got - 2010.04.14 02:25:27.
