data_PCOD8176614
_publ_section_title
;
Structure prediction by ZEFSAII (Michael W. Deem and Ramdas Pophale) SiO2 
 PCOD8176614
Probable space group: C C C 2
;
_chemical_formula_sum "Si O2"
_cell_formula_units_Z 52
_cell_length_a 8.502025
_cell_length_b 14.764321
_cell_length_c 19.373218
_cell_angle_alpha 90.000000
_cell_angle_beta 90.000000
_cell_angle_gamma 90.000000
_cell_volume 2431.854695
_symmetry_space_group_name_H-M "C C C 2"
_symmetry_group_IT_number 37
_symmetry_cell_setting 'orthorhombic'
loop_
_space_group_symop_operation_xyz
x,y,z
-x,-y,z
-x,y,1/2+z
x,-y,1/2+z
1/2+x,1/2+y,z
1/2-x,1/2-y,z
1/2-x,1/2+y,1/2+z
1/2+x,1/2-y,1/2+z
loop_
_atom_site_type_symbol
_atom_site_label
_atom_site_fract_x
_atom_site_fract_y
_atom_site_fract_z
Si Si1 0.591909 0.130350 0.880380
Si Si2 0.500000 0.500000 0.776592
Si Si3 0.393403 0.586128 0.514698
Si Si4 0.234170 0.443441 0.880098
Si Si5 0.577647 0.765851 0.521462
Si Si6 0.896501 0.585503 0.107027
Si Si7 0.751197 0.852940 0.237391
O O1 0.415792 0.111843 0.851872
O O2 0.693779 0.161201 0.815353
O O3 0.675197 0.040168 0.909386
O O4 0.588774 0.203639 0.941388
O O5 0.365207 0.451265 0.821228
O O6 0.587734 0.416439 0.735058
O O7 0.500000 0.500000 0.500143
O O8 0.298878 0.610730 0.445420
O O9 0.500252 0.669885 0.530960
O O10 0.277942 0.568944 0.578292
O O11 0.750000 0.750000 0.552312
O O12 0.478719 0.831881 0.569034
O O13 0.878244 0.597936 0.189358
O O14 0.000000 0.500000 0.090088
O O15 0.750000 0.750000 0.206904
#
# Coordination Sequence:
#
# PCOD8176614 Si02
#       7
#     8   4   8   8   8   8   8
#     4  10  22  40  69  97 139 179 227 288 347 415
#     4  10  24  42  70 100 140 182 238 288 358 430
#     4  12  24  41  70 102 138 180 230 291 345 414
#     4  10  20  38  65 101 136 173 228 284 351 405
#     4  12  25  43  71 104 139 180 239 286 352 419
#     4  12  27  48  70  97 140 189 229 292 354 418
#     4  11  26  47  69  99 142 182 235 291 357 423
#
# _framework density 21.382857000000001
#
# number of rings (size 3 to 8) (size 9 to 14) (size 15 to 20)
#    0.000    0.923    2.308    4.615    9.692    0.000 
#    2.769    0.000    0.000    0.000    0.000    0.000 
#    0.000    0.000    0.000    0.000    0.000    0.000 
#
# Total GULP energy -322260.939277 kJ/mol
# GULP energy per Si atom -12394.651511 kJ/mol
# Density = 2.133419 g / cm^3
# Si number density = 21.382857 Si / 1000 Ang^3
#
#
#
# Elastic Constant Matrix: (Units=GPa)
#
#
# Indices 1 2 3 4 5 6 
#
# 1 132.8974 51.9664 29.1118 0.0000 0.0000 0.0000
# 2 51.9664 121.7523 17.3147 0.0000 0.0000 0.0000
# 3 29.1118 17.3147 79.1521 0.0000 0.0000 0.0000
# 4 0.0000 0.0000 0.0000 19.2505 0.0000 0.0000
# 5 0.0000 0.0000 0.0000 0.0000 34.4440 0.0000
# 6 0.0000 0.0000 0.0000 0.0000 0.0000 42.8428
#
#
#
# Elastic Compliance Matrix: (Units=1/GPa)
#
#
# Indices 1 2 3 4 5 6 
#
# 1 0.009563 -0.003697 -0.002709 0.000000 0.000000 0.000000
# 2 -0.003697 0.009906 -0.000807 0.000000 0.000000 0.000000
# 3 -0.002709 -0.000807 0.013807 0.000000 0.000000 0.000000
# 4 0.000000 0.000000 0.000000 0.051947 0.000000 0.000000
# 5 0.000000 0.000000 0.000000 0.000000 0.029033 0.000000
# 6 0.000000 0.000000 0.000000 0.000000 0.000000 0.023341
#
#
# Mechanical properties :
#
#
# Convention : Reuss Voigt Hill
#
# Bulk Modulus (GPa) = 53.04829 58.95418 56.00123
# Shear Modulus (GPa) = 31.58443 35.00138 33.29291
#
# Velocity S-wave (km/s) = 3.84746 4.05024 3.95015
# Velocity P-wave (km/s) = 6.67832 7.03585 6.85942
#
# Compressibility (1/GPa) = 0.01885075
#
# Stress axis : x y z
#
# Youngs Moduli (GPa) = 104.56468 100.94861 72.42817
#
# Poissons Ratio (x) = 0.37317 0.19619
# Poissons Ratio (y) = 0.38654 0.05847
# Poissons Ratio (z) = 0.28324 0.08150
#
# Static dielectric constant tensor:
#      x y z
#    x 4.191370 0.000000 0.000000 
#    y 0.000000 3.916400 0.000000 
#    z 0.000000 0.000000 3.693430 
# 
# 
# High freq. dielectric constant tensor:
#      x y z
#    x 1.855280 0.000000 0.000000 
#    y 0.000000 1.844360 0.000000 
#    z 0.000000 0.000000 1.827320 
# 
# From -- ./inp_files/16397.got.cif
#   From: 2010.03.12/outbox.cif.g09.slc.cpg/sg37_9_cif.got.tgz:16397.got - 2010.04.14 02:25:27.
