data_PCOD8176235
_publ_section_title
;
Structure prediction by ZEFSAII (Michael W. Deem and Ramdas Pophale) SiO2 
 PCOD8176235
Probable space group: C M C 21
;
_chemical_formula_sum "Si O2"
_cell_formula_units_Z 64
_cell_length_a 8.457733
_cell_length_b 15.298615
_cell_length_c 23.940746
_cell_angle_alpha 90.000000
_cell_angle_beta 90.000000
_cell_angle_gamma 90.000000
_cell_volume 3097.731453
_symmetry_space_group_name_H-M "C M C 21"
_symmetry_group_IT_number 36
_symmetry_cell_setting 'orthorhombic'
loop_
_space_group_symop_operation_xyz
x,y,z
-x,-y,1/2+z
x,-y,1/2+z
-x,y,z
1/2+x,1/2+y,z
1/2-x,1/2-y,1/2+z
1/2+x,1/2-y,1/2+z
1/2-x,1/2+y,z
loop_
_atom_site_type_symbol
_atom_site_label
_atom_site_fract_x
_atom_site_fract_y
_atom_site_fract_z
Si Si1 0.315754 0.283632 0.254860
Si Si2 0.812084 0.480035 0.647970
Si Si3 0.686886 0.786795 0.640924
Si Si4 0.815598 0.461115 0.266373
Si Si5 0.685524 0.857030 0.944050
Si Si6 0.186873 0.706949 0.016865
Si Si7 0.312671 0.006761 0.026125
Si Si8 0.317496 0.626734 0.322639
O O1 0.500000 0.305176 0.257145
O O2 0.253730 0.276957 0.190337
O O3 0.222297 0.362187 0.285335
O O4 0.286357 0.193139 0.286423
O O5 0.742688 0.382469 0.653494
O O6 0.753118 0.532589 0.702219
O O7 0.750450 0.518787 0.588606
O O8 0.000000 0.478150 0.646829
O O9 0.500000 0.794557 0.644054
O O10 0.736514 0.757290 0.578608
O O11 0.723461 0.527782 0.305877
O O12 0.000000 0.481635 0.272182
O O13 0.500000 0.867833 0.932160
O O14 0.781538 0.860347 0.887292
O O15 0.716891 0.763647 0.972531
O O16 0.753677 0.935840 0.982532
O O17 0.239304 0.605535 0.010097
O O18 0.000000 0.717320 0.006933
O O19 0.500000 0.002678 0.025900
O O20 0.500000 0.646192 0.311249
#
# Coordination Sequence:
#
# PCOD8176235 Si02
#       8
#     8   8   8   8   8   8   8   8
#     4  11  22  39  62  92 125 161 205 254 307 366
#     4   8  14  30  57  87 120 157 193 238 294 357
#     4   8  15  31  58  87 121 159 194 242 302 359
#     4  11  22  38  63  93 125 162 203 249 308 370
#     4  11  23  39  61  88 119 157 202 254 308 365
#     4   9  18  36  60  87 119 158 200 242 294 361
#     4   8  17  34  58  86 118 156 196 237 292 359
#     4  12  26  45  63  84 119 164 215 264 309 361
#
# _framework density 20.66028
#
# number of rings (size 3 to 8) (size 9 to 14) (size 15 to 20)
#    0.000    2.250    1.250    3.750    1.750    1.000 
#    0.000    5.625    0.000    0.000    0.000    0.000 
#    0.000    0.000    0.000    0.000    0.000    0.000 
#
# Total GULP energy -396673.351038 kJ/mol
# GULP energy per Si atom -12396.042220 kJ/mol
# Density = 2.061326 g / cm^3
# Si number density = 20.660280 Si / 1000 Ang^3
#
#
#
# Elastic Constant Matrix: (Units=GPa)
#
#
# Indices 1 2 3 4 5 6 
#
# 1 42.2903 10.8293 16.2406 0.0000 0.0000 0.0000
# 2 10.8293 73.2181 21.0893 0.0000 0.0000 0.0000
# 3 16.2406 21.0893 97.4468 0.0000 0.0000 0.0000
# 4 0.0000 0.0000 0.0000 27.3842 0.0000 0.0000
# 5 0.0000 0.0000 0.0000 0.0000 21.5774 0.0000
# 6 0.0000 0.0000 0.0000 0.0000 0.0000 27.3661
#
#
#
# Elastic Compliance Matrix: (Units=1/GPa)
#
#
# Indices 1 2 3 4 5 6 
#
# 1 0.025770 -0.002746 -0.003701 0.000000 0.000000 0.000000
# 2 -0.002746 0.014858 -0.002758 0.000000 0.000000 0.000000
# 3 -0.003701 -0.002758 0.011476 0.000000 0.000000 0.000000
# 4 0.000000 0.000000 0.000000 0.036517 0.000000 0.000000
# 5 0.000000 0.000000 0.000000 0.000000 0.046345 0.000000
# 6 0.000000 0.000000 0.000000 0.000000 0.000000 0.036542
#
#
# Mechanical properties :
#
#
# Convention : Reuss Voigt Hill
#
# Bulk Modulus (GPa) = 29.67747 34.36374 32.02061
# Shear Modulus (GPa) = 24.85724 26.25194 25.55459
#
# Velocity S-wave (km/s) = 3.47240 3.56848 3.52077
# Velocity P-wave (km/s) = 5.52018 5.80066 5.66216
#
# Compressibility (1/GPa) = 0.03369559
#
# Stress axis : x y z
#
# Youngs Moduli (GPa) = 38.80428 67.30238 87.14092
#
# Poissons Ratio (x) = 0.18479 0.32248
# Poissons Ratio (y) = 0.10654 0.24034
# Poissons Ratio (z) = 0.14360 0.18562
#
# Static dielectric constant tensor:
#      x y z
#    x 3.288100 0.000000 0.000000 
#    y 0.000000 3.753100 0.000000 
#    z 0.000000 0.000000 4.015960 
# 
# 
# High freq. dielectric constant tensor:
#      x y z
#    x 1.772610 0.000000 0.000000 
#    y 0.000000 1.811090 0.000000 
#    z 0.000000 0.000000 1.811170 
# 
# From -- ./inp_files/16532.got.cif
#   From: 2010.03.12/outbox.cif.g09.slc.cpg/sg36_9_cif.got.tgz:16532.got - 2010.04.14 02:13:53.
