data_PCOD8176745
_publ_section_title
;
Structure prediction by ZEFSAII (Michael W. Deem and Ramdas Pophale) SiO2 
 PCOD8176745
Probable space group: C C C 2
;
_chemical_formula_sum "Si O2"
_cell_formula_units_Z 40
_cell_length_a 14.948588
_cell_length_b 13.573613
_cell_length_c 8.902959
_cell_angle_alpha 90.000000
_cell_angle_beta 90.000000
_cell_angle_gamma 90.000000
_cell_volume 1806.466901
_symmetry_space_group_name_H-M "C C C 2"
_symmetry_group_IT_number 37
_symmetry_cell_setting 'orthorhombic'
loop_
_space_group_symop_operation_xyz
x,y,z
-x,-y,z
-x,y,1/2+z
x,-y,1/2+z
1/2+x,1/2+y,z
1/2-x,1/2-y,z
1/2-x,1/2+y,1/2+z
1/2+x,1/2-y,1/2+z
loop_
_atom_site_type_symbol
_atom_site_label
_atom_site_fract_x
_atom_site_fract_y
_atom_site_fract_z
Si Si1 0.474451 0.111215 0.356540
Si Si2 0.820634 0.118891 0.170430
Si Si3 0.792385 0.360279 0.718927
Si Si4 0.214889 0.976289 0.449338
Si Si5 0.617567 0.170222 0.154423
O O1 0.398000 0.150600 0.243720
O O2 0.565160 0.170211 0.313067
O O3 0.446544 0.124203 0.528794
O O4 0.500000 0.000000 0.321952
O O5 0.844630 0.094606 0.343002
O O6 0.711257 0.113225 0.167387
O O7 0.861830 0.218063 0.109989
O O8 0.853918 0.031895 0.061053
O O9 0.750000 0.250000 0.735296
O O10 0.778009 0.406079 0.552386
O O11 0.762085 0.436803 0.850942
#
# Coordination Sequence:
#
# PCOD8176745 Si02
#       5
#     8   8   8   8   8
#     4  12  25  39  65 103 140 170 221 291 356 408
#     4  10  22  43  64  94 129 182 223 283 337 429
#     4  11  24  41  67  99 141 185 227 285 357 426
#     4  10  21  39  68  95 128 173 241 273 328 420
#     4  11  25  39  64  93 139 172 223 275 363 412
#
# _framework density 22.142669000000001
#
# number of rings (size 3 to 8) (size 9 to 14) (size 15 to 20)
#    0.000    1.200    2.000    4.200    8.400    0.000 
#    0.000    0.000    0.000   20.400    0.000    0.000 
#    0.000    0.000    0.000    0.000    0.000    0.000 
#
# Total GULP energy -247775.031972 kJ/mol
# GULP energy per Si atom -12388.751599 kJ/mol
# Density = 2.209227 g / cm^3
# Si number density = 22.142669 Si / 1000 Ang^3
#
#
#
# Elastic Constant Matrix: (Units=GPa)
#
#
# Indices 1 2 3 4 5 6 
#
# 1 66.2068 36.8692 15.9849 0.0000 0.0000 0.0000
# 2 36.8692 123.1522 39.6807 0.0000 0.0000 0.0000
# 3 15.9849 39.6807 118.0811 0.0000 0.0000 0.0000
# 4 0.0000 0.0000 0.0000 30.6590 0.0000 0.0000
# 5 0.0000 0.0000 0.0000 0.0000 11.4860 0.0000
# 6 0.0000 0.0000 0.0000 0.0000 0.0000 27.3550
#
#
#
# Elastic Compliance Matrix: (Units=1/GPa)
#
#
# Indices 1 2 3 4 5 6 
#
# 1 0.018179 -0.005214 -0.000709 0.000000 0.000000 0.000000
# 2 -0.005214 0.010601 -0.002857 0.000000 0.000000 0.000000
# 3 -0.000709 -0.002857 0.009525 0.000000 0.000000 0.000000
# 4 0.000000 0.000000 0.000000 0.032617 0.000000 0.000000
# 5 0.000000 0.000000 0.000000 0.000000 0.087063 0.000000
# 6 0.000000 0.000000 0.000000 0.000000 0.000000 0.036556
#
#
# Mechanical properties :
#
#
# Convention : Reuss Voigt Hill
#
# Bulk Modulus (GPa) = 48.20203 54.72329 51.46266
# Shear Modulus (GPa) = 22.82944 28.22701 25.52823
#
# Velocity S-wave (km/s) = 3.21443 3.57428 3.39912
# Velocity P-wave (km/s) = 5.96597 6.46541 6.22071
#
# Compressibility (1/GPa) = 0.02074602
#
# Stress axis : x y z
#
# Youngs Moduli (GPa) = 55.00885 94.32653 104.99017
#
# Poissons Ratio (x) = 0.49182 0.07441
# Poissons Ratio (y) = 0.28682 0.29993
# Poissons Ratio (z) = 0.03899 0.26947
#
# Static dielectric constant tensor:
#      x y z
#    x 3.756920 0.000000 0.000000 
#    y 0.000000 4.116340 0.000000 
#    z 0.000000 0.000000 4.319270 
# 
# 
# High freq. dielectric constant tensor:
#      x y z
#    x 1.822530 0.000000 0.000000 
#    y 0.000000 1.882450 0.000000 
#    z 0.000000 0.000000 1.895960 
# 
# From -- ./inp_files/3328.got.cif
#   From: 2010.03.12/outbox.cif.g09.slc.cpg/sg37_2_cif.got.tgz:3328.got - 2010.04.14 02:25:27.
