data_PCOD8176651
_publ_section_title
;
Structure prediction by ZEFSAII (Michael W. Deem and Ramdas Pophale) SiO2 
 PCOD8176651
Probable space group: C C C 2
;
_chemical_formula_sum "Si O2"
_cell_formula_units_Z 60
_cell_length_a 24.463734
_cell_length_b 8.271486
_cell_length_c 14.084546
_cell_angle_alpha 90.000000
_cell_angle_beta 90.000000
_cell_angle_gamma 90.000000
_cell_volume 2850.028070
_symmetry_space_group_name_H-M "C C C 2"
_symmetry_group_IT_number 37
_symmetry_cell_setting 'orthorhombic'
loop_
_space_group_symop_operation_xyz
x,y,z
-x,-y,z
-x,y,1/2+z
x,-y,1/2+z
1/2+x,1/2+y,z
1/2-x,1/2-y,z
1/2-x,1/2+y,1/2+z
1/2+x,1/2-y,1/2+z
loop_
_atom_site_type_symbol
_atom_site_label
_atom_site_fract_x
_atom_site_fract_y
_atom_site_fract_z
Si Si1 0.586568 0.758592 0.759150
Si Si2 0.263593 0.579132 0.064538
Si Si3 0.318112 0.004237 0.729234
Si Si4 0.887051 0.043552 0.865283
Si Si5 0.736451 0.566561 0.872868
Si Si6 0.000000 0.500000 0.223166
Si Si7 0.592085 0.759979 0.190193
Si Si8 0.111563 0.057144 0.584208
O O1 0.581325 0.620324 0.838193
O O2 0.537253 0.879857 0.784777
O O3 0.580471 0.685580 0.651841
O O4 0.643106 0.853306 0.766880
O O5 0.250000 0.750000 0.013946
O O6 0.221369 0.567911 0.148714
O O7 0.324347 0.569764 0.107293
O O8 0.254675 0.441520 0.985875
O O9 0.351011 0.855445 0.684951
O O10 0.280275 0.952686 0.818372
O O11 0.823422 0.002197 0.847569
O O12 0.909581 0.184947 0.796798
O O13 0.900231 0.093495 0.973560
O O14 0.750000 0.750000 0.839976
O O15 0.957935 0.617157 0.165786
O O16 0.591039 0.622725 0.109913
#
# Coordination Sequence:
#
# PCOD8176651 Si02
#       8
#     8   8   8   8   8   4   8   8
#     4  10  20  42  63  85 116 157 196 258 299 356
#     4  11  23  36  57  92 128 167 200 237 283 355
#     4  11  21  35  61  84 124 162 204 236 293 347
#     4  10  22  39  62  90 126 154 199 238 302 358
#     4  11  23  36  57  92 128 167 200 237 283 355
#     4  10  24  46  66  86 116 146 210 258 316 352
#     4  10  24  41  62  90 113 162 197 259 302 355
#     4  10  22  39  62  90 126 154 199 238 302 358
#
# _framework density 21.052423999999998
#
# number of rings (size 3 to 8) (size 9 to 14) (size 15 to 20)
#    0.000    1.600    2.667    2.000    7.467    3.200 
#    0.000    8.000    0.000    0.000    0.000    0.000 
#    0.000    0.000    0.000    0.000    0.000    0.000 
#
# Total GULP energy -371823.034818 kJ/mol
# GULP energy per Si atom -12394.101161 kJ/mol
# Density = 2.100451 g / cm^3
# Si number density = 21.052424 Si / 1000 Ang^3
#
#
#
# Elastic Constant Matrix: (Units=GPa)
#
#
# Indices 1 2 3 4 5 6 
#
# 1 104.6980 40.7141 28.5399 0.0000 0.0000 0.0000
# 2 40.7141 93.4379 17.1810 0.0000 0.0000 0.0000
# 3 28.5399 17.1810 86.6033 0.0000 0.0000 0.0000
# 4 0.0000 0.0000 0.0000 20.7246 0.0000 0.0000
# 5 0.0000 0.0000 0.0000 0.0000 6.5336 0.0000
# 6 0.0000 0.0000 0.0000 0.0000 0.0000 26.5651
#
#
#
# Elastic Compliance Matrix: (Units=1/GPa)
#
#
# Indices 1 2 3 4 5 6 
#
# 1 0.012248 -0.004769 -0.003090 0.000000 0.000000 0.000000
# 2 -0.004769 0.012964 -0.001000 0.000000 0.000000 0.000000
# 3 -0.003090 -0.001000 0.012764 0.000000 0.000000 0.000000
# 4 0.000000 0.000000 0.000000 0.048252 0.000000 0.000000
# 5 0.000000 0.000000 0.000000 0.000000 0.153054 0.000000
# 6 0.000000 0.000000 0.000000 0.000000 0.000000 0.037643
#
#
# Mechanical properties :
#
#
# Convention : Reuss Voigt Hill
#
# Bulk Modulus (GPa) = 49.36508 50.84546 50.10527
# Shear Modulus (GPa) = 16.58944 23.98494 20.28719
#
# Velocity S-wave (km/s) = 2.81019 3.37901 3.10764
# Velocity P-wave (km/s) = 5.83345 6.27916 6.06040
#
# Compressibility (1/GPa) = 0.02025723
#
# Stress axis : x y z
#
# Youngs Moduli (GPa) = 81.64548 77.13589 78.34678
#
# Poissons Ratio (x) = 0.36784 0.24211
# Poissons Ratio (y) = 0.38934 0.07838
# Poissons Ratio (z) = 0.25231 0.07717
#
# Static dielectric constant tensor:
#      x y z
#    x 3.937170 0.000000 0.000000 
#    y 0.000000 3.996480 0.000000 
#    z 0.000000 0.000000 3.706380 
# 
# 
# High freq. dielectric constant tensor:
#      x y z
#    x 1.820950 0.000000 0.000000 
#    y 0.000000 1.834720 0.000000 
#    z 0.000000 0.000000 1.804510 
# 
# From -- ./inp_files/10960.got.cif
#   From: 2010.03.12/outbox.cif.g09.slc.cpg/sg37_6_cif.got.tgz:10960.got - 2010.04.14 02:25:27.
