data_PCOD8176538
_publ_section_title
;
Structure prediction by ZEFSAII (Michael W. Deem and Ramdas Pophale) SiO2 
 PCOD8176538
Probable space group: C C C 2
;
_chemical_formula_sum "Si O2"
_cell_formula_units_Z 64
_cell_length_a 7.633069
_cell_length_b 18.926778
_cell_length_c 23.557934
_cell_angle_alpha 90.000000
_cell_angle_beta 90.000000
_cell_angle_gamma 90.000000
_cell_volume 3403.400647
_symmetry_space_group_name_H-M "C C C 2"
_symmetry_group_IT_number 37
_symmetry_cell_setting 'orthorhombic'
loop_
_space_group_symop_operation_xyz
x,y,z
-x,-y,z
-x,y,1/2+z
x,-y,1/2+z
1/2+x,1/2+y,z
1/2-x,1/2-y,z
1/2-x,1/2+y,1/2+z
1/2+x,1/2-y,1/2+z
loop_
_atom_site_type_symbol
_atom_site_label
_atom_site_fract_x
_atom_site_fract_y
_atom_site_fract_z
Si Si1 0.952762 0.921796 0.788490
Si Si2 0.750000 0.666072 0.967378
Si Si3 0.250000 0.334592 0.096266
Si Si4 0.556494 0.669410 0.389072
Si Si5 0.047238 0.421796 0.788490
Si Si6 0.943506 0.669410 0.389072
Si Si7 0.455588 0.420309 0.657999
Si Si8 0.544412 0.079691 0.157999
O O1 0.750000 0.906434 0.796538
O O2 0.009965 0.910551 0.723563
O O3 0.056705 0.868625 0.828448
O O4 0.000000 0.000000 0.808666
O O5 0.750000 0.750000 0.968870
O O6 0.579210 0.636506 0.934365
O O7 0.920790 0.636506 0.934365
O O8 0.750000 0.638374 0.031438
O O9 0.250000 0.250000 0.102177
O O10 0.427529 0.364740 0.123708
O O11 0.072470 0.364740 0.123708
O O12 0.750000 0.662788 0.415870
O O13 0.505293 0.750000 0.376779
O O14 0.990035 0.410550 0.723563
O O15 0.000000 0.500000 0.808666
O O16 0.943295 0.368625 0.828448
O O17 0.500000 0.500000 0.638503
O O18 0.250000 0.404475 0.647740
O O19 0.500000 0.000000 0.138503
#
# Coordination Sequence:
#
# PCOD8176538 Si02
#       8
#     8   8   8   8   8   8   8   8
#     4  10  20  34  57  86 119 151 187 235 289 350
#     4   9  20  40  57  78 114 155 195 234 290 344
#     4  11  24  40  63  90 121 157 201 254 293 346
#     4  10  20  35  58  84 113 152 192 234 285 345
#     4  10  20  34  57  86 119 151 187 235 289 350
#     4  10  20  35  58  84 113 152 192 234 285 345
#     4  10  21  39  63  88 119 162 200 239 301 364
#     4  10  21  39  63  88 119 162 200 239 301 364
#
# _framework density 18.804721000000001
#
# number of rings (size 3 to 8) (size 9 to 14) (size 15 to 20)
#    0.000    2.000    2.500    0.750    3.500    2.500 
#    0.000    6.250    0.000    0.000    0.000    0.000 
#    0.000    0.000    0.000    0.000    0.000    0.000 
#
# Total GULP energy -396809.417236 kJ/mol
# GULP energy per Si atom -12400.294289 kJ/mol
# Density = 1.876192 g / cm^3
# Si number density = 18.804721 Si / 1000 Ang^3
#
#
#
# Elastic Constant Matrix: (Units=GPa)
#
#
# Indices 1 2 3 4 5 6 
#
# 1 126.8173 45.8672 58.9007 0.0000 0.0000 0.0000
# 2 45.8672 83.6803 56.2798 0.0000 0.0000 0.0000
# 3 58.9007 56.2798 114.3497 0.0000 0.0000 0.0000
# 4 0.0000 0.0000 0.0000 10.1579 0.0000 0.0000
# 5 0.0000 0.0000 0.0000 0.0000 25.2918 0.0000
# 6 0.0000 0.0000 0.0000 0.0000 0.0000 31.7189
#
#
#
# Elastic Compliance Matrix: (Units=1/GPa)
#
#
# Indices 1 2 3 4 5 6 
#
# 1 0.010942 -0.003299 -0.004013 0.000000 0.000000 0.000000
# 2 -0.003299 0.018858 -0.007582 0.000000 0.000000 0.000000
# 3 -0.004013 -0.007582 0.014544 0.000000 0.000000 0.000000
# 4 0.000000 0.000000 0.000000 0.098445 0.000000 0.000000
# 5 0.000000 0.000000 0.000000 0.000000 0.039538 0.000000
# 6 0.000000 0.000000 0.000000 0.000000 0.000000 0.031527
#
#
# Mechanical properties :
#
#
# Convention : Reuss Voigt Hill
#
# Bulk Modulus (GPa) = 68.69799 71.88253 70.29026
# Shear Modulus (GPa) = 20.12125 24.35371 22.23748
#
# Velocity S-wave (km/s) = 3.27465 3.60263 3.44255
# Velocity P-wave (km/s) = 7.13508 7.45748 7.29806
#
# Compressibility (1/GPa) = 0.01455647
#
# Stress axis : x y z
#
# Youngs Moduli (GPa) = 91.38941 53.02833 68.75866
#
# Poissons Ratio (x) = 0.17494 0.27590
# Poissons Ratio (y) = 0.30149 0.52133
# Poissons Ratio (z) = 0.36671 0.40206
#
# Static dielectric constant tensor:
#      x y z
#    x 3.640440 0.000000 0.000000 
#    y 0.000000 3.239260 0.000000 
#    z 0.000000 0.000000 3.485900 
# 
# 
# High freq. dielectric constant tensor:
#      x y z
#    x 1.750540 0.000000 0.000000 
#    y 0.000000 1.713180 0.000000 
#    z 0.000000 0.000000 1.721160 
# 
# From -- ./inp_files/16520.got.cif
#   From: 2010.03.12/outbox.cif.g09.slc.cpg/sg37_9_cif.got.tgz:16520.got - 2010.04.14 02:25:27.
