data_PCOD8176537
_publ_section_title
;
Structure prediction by ZEFSAII (Michael W. Deem and Ramdas Pophale) SiO2 
 PCOD8176537
Probable space group: C C C 2
;
_chemical_formula_sum "Si O2"
_cell_formula_units_Z 64
_cell_length_a 11.264717
_cell_length_b 11.264716
_cell_length_c 23.860131
_cell_angle_alpha 90.000000
_cell_angle_beta 90.000000
_cell_angle_gamma 90.000000
_cell_volume 3027.703594
_symmetry_space_group_name_H-M "C C C 2"
_symmetry_group_IT_number 37
_symmetry_cell_setting 'orthorhombic'
loop_
_space_group_symop_operation_xyz
x,y,z
-x,-y,z
-x,y,1/2+z
x,-y,1/2+z
1/2+x,1/2+y,z
1/2-x,1/2-y,z
1/2-x,1/2+y,1/2+z
1/2+x,1/2-y,1/2+z
loop_
_atom_site_type_symbol
_atom_site_label
_atom_site_fract_x
_atom_site_fract_y
_atom_site_fract_z
Si Si1 0.495557 0.808831 0.502860
Si Si2 0.747697 0.556280 0.125498
Si Si3 0.900643 0.099357 0.805722
Si Si4 0.562164 0.755448 0.740503
Si Si5 0.755448 0.437836 0.240503
Si Si6 0.808831 0.504443 0.002860
Si Si7 0.443720 0.252303 0.125498
Si Si8 0.650477 0.650477 0.433599
O O1 0.586585 0.913415 0.491272
O O2 0.508888 0.765040 0.566465
O O3 0.528515 0.697888 0.462531
O O4 0.361727 0.861727 0.491801
O O5 0.747781 0.459653 0.174209
O O6 0.765040 0.491112 0.066465
O O7 0.621807 0.621807 0.124771
O O8 0.853825 0.646175 0.137728
O O9 0.876696 0.123304 0.869923
O O10 0.943864 0.221959 0.775919
O O11 0.778041 0.056136 0.775919
O O12 0.000000 0.000000 0.797272
O O13 0.662634 0.662634 0.757072
O O14 0.612314 0.887686 0.755391
O O15 0.540347 0.747781 0.674209
O O16 0.697888 0.471485 0.962531
O O17 0.750000 0.750000 0.440053
#
# Coordination Sequence:
#
# PCOD8176537 Si02
#       8
#     8   8   8   8   8   8   8   8
#     4   9  19  36  55  80 115 150 190 242 297 353
#     4  10  20  34  55  85 119 149 185 237 292 352
#     4  10  22  40  56  80 116 148 194 245 290 349
#     4  10  21  37  58  83 113 152 193 239 297 354
#     4  10  21  37  58  83 113 152 193 239 297 354
#     4   9  19  36  55  80 115 150 190 242 297 353
#     4  10  20  34  55  85 119 149 185 237 292 352
#     4  10  22  38  58  82 110 152 200 243 290 349
#
# _framework density 21.138133
#
# number of rings (size 3 to 8) (size 9 to 14) (size 15 to 20)
#    0.000    2.250    1.250    0.750    1.750    4.500 
#    0.000    0.000    0.000    0.000    0.000    0.000 
#    0.000    0.000    0.000    0.000    0.000    0.000 
#
# Total GULP energy -396657.886876 kJ/mol
# GULP energy per Si atom -12395.558965 kJ/mol
# Density = 2.109002 g / cm^3
# Si number density = 21.138133 Si / 1000 Ang^3
#
#
#
# Elastic Constant Matrix: (Units=GPa)
#
#
# Indices 1 2 3 4 5 6 
#
# 1 70.1823 50.4389 48.9603 0.0000 0.0000 0.0000
# 2 50.4389 70.1823 48.9603 0.0000 0.0000 0.0000
# 3 48.9603 48.9603 157.5046 0.0000 0.0000 0.0000
# 4 0.0000 0.0000 0.0000 -3.0032 0.0000 0.0000
# 5 0.0000 0.0000 0.0000 0.0000 -3.0039 0.0000
# 6 0.0000 0.0000 0.0000 0.0000 0.0000 19.7946
#
#
#
# Elastic Compliance Matrix: (Units=1/GPa)
#
#
# Indices 1 2 3 4 5 6 
#
# 1 0.030869 -0.019781 -0.003447 0.000000 0.000000 0.000000
# 2 -0.019781 0.030869 -0.003447 0.000000 0.000000 0.000000
# 3 -0.003447 -0.003447 0.008492 0.000000 0.000000 0.000000
# 4 0.000000 0.000000 0.000000 -0.332976 0.000000 0.000000
# 5 0.000000 0.000000 0.000000 0.000000 -0.332900 0.000000
# 6 0.000000 0.000000 0.000000 0.000000 0.000000 0.050519
#
#
# Mechanical properties :
#
#
# Convention : Reuss Voigt Hill
#
# Bulk Modulus (GPa) = 59.23608 66.06536 62.65072
# Shear Modulus (GPa) = -10.28487 12.72481 1.21997
#
# Velocity S-wave (km/s) = -2.20819 2.45620 0.76052
# Velocity P-wave (km/s) = 4.64572 6.27422 5.52035
#
# Compressibility (1/GPa) = 0.01688160
#
# Stress axis : x y z
#
# Youngs Moduli (GPa) = 32.39463 32.39463 117.75855
#
# Poissons Ratio (x) = 0.64079 0.40590
# Poissons Ratio (y) = 0.64079 0.40590
# Poissons Ratio (z) = 0.11166 0.11166
#
# Static dielectric constant tensor:
#      x y z
#    x 4.074720 0.000000 0.000000 
#    y 0.000000 4.074720 0.000000 
#    z 0.000000 0.000000 3.783460 
# 
# 
# High freq. dielectric constant tensor:
#      x y z
#    x 1.823500 0.000000 0.000000 
#    y 0.000000 1.823500 0.000000 
#    z 0.000000 0.000000 1.817460 
# 
# From -- ./inp_files/18725.got.cif
#   From: 2010.03.12/outbox.cif.g09.slc.cpg/sg37_10_cif.got.tgz:18725.got - 2010.04.14 02:25:27.
