data_PCOD8176290
_publ_section_title
;
Structure prediction by ZEFSAII (Michael W. Deem and Ramdas Pophale) SiO2 
 PCOD8176290
Probable space group: C M C 21
;
_chemical_formula_sum "Si O2"
_cell_formula_units_Z 36
_cell_length_a 14.291112
_cell_length_b 12.880640
_cell_length_c 9.431443
_cell_angle_alpha 90.000000
_cell_angle_beta 90.000000
_cell_angle_gamma 90.000000
_cell_volume 1736.127473
_symmetry_space_group_name_H-M "C M C 21"
_symmetry_group_IT_number 36
_symmetry_cell_setting 'orthorhombic'
loop_
_space_group_symop_operation_xyz
x,y,z
-x,-y,1/2+z
x,-y,1/2+z
-x,y,z
1/2+x,1/2+y,z
1/2-x,1/2-y,1/2+z
1/2+x,1/2-y,1/2+z
1/2-x,1/2+y,z
loop_
_atom_site_type_symbol
_atom_site_label
_atom_site_fract_x
_atom_site_fract_y
_atom_site_fract_z
Si Si1 0.842922 0.094769 0.566690
Si Si2 0.500000 0.906376 0.361788
Si Si3 0.853191 0.317419 0.150939
Si Si4 0.108997 0.097678 0.255242
Si Si5 0.500000 0.242355 0.114840
Si Si6 0.000000 0.646872 0.416490
O O1 0.743187 0.122282 0.631885
O O2 0.838771 0.066021 0.400312
O O3 0.907273 0.194738 0.580428
O O4 0.886420 0.997569 0.647944
O O5 0.407303 0.871786 0.279409
O O6 0.500000 0.861241 0.520289
O O7 0.500000 0.028519 0.372319
O O8 0.838140 0.196339 0.187457
O O9 0.908066 0.325038 0.004125
O O10 0.000000 0.126785 0.283853
O O11 0.500000 0.217538 0.279322
#
# Coordination Sequence:
#
# PCOD8176290 Si02
#       6
#     8   4   8   8   4   4
#     4  12  28  42  74 104 138 183 234 289 347 414
#     4  11  23  50  68  98 142 183 235 288 351 409
#     4  11  26  46  70 102 142 182 230 296 344 419
#     4  12  24  50  71 101 142 187 232 289 350 414
#     4  12  24  44  72 103 138 181 237 286 345 418
#     4  11  27  42  72 101 136 188 232 286 356 411
#
# _framework density 20.735804999999999
#
# number of rings (size 3 to 8) (size 9 to 14) (size 15 to 20)
#    0.000    0.444    6.667    1.333    9.333    1.778 
#    0.000    0.000    0.000    0.000    0.000    0.000 
#    0.000    0.000    0.000    0.000    0.000    0.000 
#
# Total GULP energy -223333.969959 kJ/mol
# GULP energy per Si atom -12407.442775 kJ/mol
# Density = 2.068861 g / cm^3
# Si number density = 20.735805 Si / 1000 Ang^3
#
#
#
# Elastic Constant Matrix: (Units=GPa)
#
#
# Indices 1 2 3 4 5 6 
#
# 1 99.7682 7.5073 22.4325 0.0000 0.0000 0.0000
# 2 7.5073 84.6888 29.9740 0.0000 0.0000 0.0000
# 3 22.4325 29.9740 112.1206 0.0000 0.0000 0.0000
# 4 0.0000 0.0000 0.0000 45.2058 0.0000 0.0000
# 5 0.0000 0.0000 0.0000 0.0000 14.9582 0.0000
# 6 0.0000 0.0000 0.0000 0.0000 0.0000 -32.8515
#
#
#
# Elastic Compliance Matrix: (Units=1/GPa)
#
#
# Indices 1 2 3 4 5 6 
#
# 1 0.010499 -0.000207 -0.002045 0.000000 0.000000 0.000000
# 2 -0.000207 0.013046 -0.003446 0.000000 0.000000 0.000000
# 3 -0.002045 -0.003446 0.010249 0.000000 0.000000 0.000000
# 4 0.000000 0.000000 0.000000 0.022121 0.000000 0.000000
# 5 0.000000 0.000000 0.000000 0.000000 0.066853 0.000000
# 6 0.000000 0.000000 0.000000 0.000000 0.000000 -0.030440
#
#
# Mechanical properties :
#
#
# Convention : Reuss Voigt Hill
#
# Bulk Modulus (GPa) = 44.64782 46.26724 45.45753
# Shear Modulus (GPa) = 44.96774 21.24006 33.10390
#
# Velocity S-wave (km/s) = 4.66188 3.20397 3.99991
# Velocity P-wave (km/s) = 7.11027 6.00403 6.58044
#
# Compressibility (1/GPa) = 0.02239751
#
# Stress axis : x y z
#
# Youngs Moduli (GPa) = 95.25022 76.65165 97.56574
#
# Poissons Ratio (x) = 0.01585 0.19955
# Poissons Ratio (y) = 0.01970 0.33624
# Poissons Ratio (z) = 0.19481 0.26417
#
# Static dielectric constant tensor:
#      x y z
#    x 3.876840 0.000000 0.000000 
#    y 0.000000 3.751900 0.000000 
#    z 0.000000 0.000000 4.042540 
# 
# 
# High freq. dielectric constant tensor:
#      x y z
#    x 1.807850 0.000000 0.000000 
#    y 0.000000 1.822590 0.000000 
#    z 0.000000 0.000000 1.830700 
# 
# From -- ./inp_files/3786.got.cif
#   From: 2010.03.12/outbox.cif.g09.slc.cpg/sg36_2_cif.got.tgz:3786.got - 2010.04.14 02:13:53.
