data_PCOD8176253
_publ_section_title
;
Structure prediction by ZEFSAII (Michael W. Deem and Ramdas Pophale) SiO2 
 PCOD8176253
Probable space group: C M C 21
;
_chemical_formula_sum "Si O2"
_cell_formula_units_Z 64
_cell_length_a 22.488260
_cell_length_b 14.888667
_cell_length_c 8.584731
_cell_angle_alpha 90.000000
_cell_angle_beta 90.000000
_cell_angle_gamma 90.000000
_cell_volume 2874.341475
_symmetry_space_group_name_H-M "C M C 21"
_symmetry_group_IT_number 36
_symmetry_cell_setting 'orthorhombic'
loop_
_space_group_symop_operation_xyz
x,y,z
-x,-y,1/2+z
x,-y,1/2+z
-x,y,z
1/2+x,1/2+y,z
1/2-x,1/2-y,1/2+z
1/2+x,1/2-y,1/2+z
1/2-x,1/2+y,z
loop_
_atom_site_type_symbol
_atom_site_label
_atom_site_fract_x
_atom_site_fract_y
_atom_site_fract_z
Si Si1 0.331834 0.213394 0.416220
Si Si2 0.633903 0.523484 0.449452
Si Si3 0.067473 0.847621 0.363714
Si Si4 0.653504 0.951288 0.107291
Si Si5 0.629489 0.126270 0.930418
Si Si6 0.933606 0.192996 0.500287
Si Si7 0.234539 0.696558 0.100567
Si Si8 0.718482 0.486927 0.696282
O O1 0.387397 0.278731 0.447893
O O2 0.351614 0.111200 0.452845
O O3 0.279157 0.227249 0.541724
O O4 0.309081 0.228537 0.239794
O O5 0.584890 0.448695 0.411026
O O6 0.607863 0.622018 0.407309
O O7 0.655376 0.522928 0.628090
O O8 0.700202 0.505308 0.377088
O O9 0.070786 0.831384 0.180651
O O10 0.000000 0.830494 0.422907
O O11 0.618859 0.909081 0.254742
O O12 0.721919 0.959396 0.160747
O O13 0.623903 0.045665 0.057491
O O14 0.582195 0.203381 0.968573
O O15 0.695063 0.168502 0.951131
O O16 0.000000 0.178927 0.438411
O O17 0.275610 0.616904 0.157733
#
# Coordination Sequence:
#
# PCOD8176253 Si02
#       8
#     8   8   8   8   8   8   8   8
#     4  12  24  40  68 104 139 191 238 291 358 425
#     4  12  23  42  67  99 135 180 228 277 345 421
#     4  11  25  46  69 100 142 189 239 291 352 420
#     4  11  25  43  69 101 145 177 229 289 367 432
#     4  11  24  45  68 100 137 182 229 297 359 427
#     4  11  26  47  71  98 138 188 242 297 352 418
#     4  11  23  37  62 100 141 178 228 287 352 425
#     4  11  23  38  62  98 137 177 216 273 349 426
#
# _framework density 22.265968999999998
#
# number of rings (size 3 to 8) (size 9 to 14) (size 15 to 20)
#    0.000    0.750    3.750    4.875    7.000    0.000 
#    0.000    3.125    0.000    0.000    0.000    0.000 
#    0.000    0.000    0.000    0.000    0.000    0.000 
#
# Total GULP energy -396707.077536 kJ/mol
# GULP energy per Si atom -12397.096173 kJ/mol
# Density = 2.221529 g / cm^3
# Si number density = 22.265969 Si / 1000 Ang^3
#
#
#
# Elastic Constant Matrix: (Units=GPa)
#
#
# Indices 1 2 3 4 5 6 
#
# 1 76.5358 44.9573 18.4429 0.0000 0.0000 0.0000
# 2 44.9573 135.5105 21.6512 0.0000 0.0000 0.0000
# 3 18.4429 21.6512 63.9495 0.0000 0.0000 0.0000
# 4 0.0000 0.0000 0.0000 31.5879 0.0000 0.0000
# 5 0.0000 0.0000 0.0000 0.0000 17.6963 0.0000
# 6 0.0000 0.0000 0.0000 0.0000 0.0000 34.0141
#
#
#
# Elastic Compliance Matrix: (Units=1/GPa)
#
#
# Indices 1 2 3 4 5 6 
#
# 1 0.016800 -0.005074 -0.003127 0.000000 0.000000 0.000000
# 2 -0.005074 0.009334 -0.001697 0.000000 0.000000 0.000000
# 3 -0.003127 -0.001697 0.017114 0.000000 0.000000 0.000000
# 4 0.000000 0.000000 0.000000 0.031658 0.000000 0.000000
# 5 0.000000 0.000000 0.000000 0.000000 0.056509 0.000000
# 6 0.000000 0.000000 0.000000 0.000000 0.000000 0.029400
#
#
# Mechanical properties :
#
#
# Convention : Reuss Voigt Hill
#
# Bulk Modulus (GPa) = 42.64105 49.56649 46.10377
# Shear Modulus (GPa) = 26.53552 29.38929 27.96240
#
# Velocity S-wave (km/s) = 3.45592 3.63701 3.54762
# Velocity P-wave (km/s) = 5.92595 6.32033 6.12631
#
# Compressibility (1/GPa) = 0.02345158
#
# Stress axis : x y z
#
# Youngs Moduli (GPa) = 59.52477 107.13590 58.43274
#
# Poissons Ratio (x) = 0.54359 0.18273
# Poissons Ratio (y) = 0.30202 0.09915
# Poissons Ratio (z) = 0.18614 0.18180
#
# Static dielectric constant tensor:
#      x y z
#    x 3.832910 0.000000 0.000000 
#    y 0.000000 4.024310 0.000000 
#    z 0.000000 0.000000 4.032970 
# 
# 
# High freq. dielectric constant tensor:
#      x y z
#    x 1.854280 0.000000 0.000000 
#    y 0.000000 1.887230 0.000000 
#    z 0.000000 0.000000 1.877860 
# 
# From -- ./inp_files/5666.got.cif
#   From: 2010.03.12/outbox.cif.g09.slc.cpg/sg36_3_cif.got.tgz:5666.got - 2010.04.14 02:13:53.
