data_PCOD8176660
_publ_section_title
;
Structure prediction by ZEFSAII (Michael W. Deem and Ramdas Pophale) SiO2 
 PCOD8176660
Probable space group: C C C 2
;
_chemical_formula_sum "Si O2"
_cell_formula_units_Z 60
_cell_length_a 22.691562
_cell_length_b 8.118972
_cell_length_c 15.105452
_cell_angle_alpha 90.000000
_cell_angle_beta 90.000000
_cell_angle_gamma 90.000000
_cell_volume 2782.909997
_symmetry_space_group_name_H-M "C C C 2"
_symmetry_group_IT_number 37
_symmetry_cell_setting 'orthorhombic'
loop_
_space_group_symop_operation_xyz
x,y,z
-x,-y,z
-x,y,1/2+z
x,-y,1/2+z
1/2+x,1/2+y,z
1/2-x,1/2-y,z
1/2-x,1/2+y,1/2+z
1/2+x,1/2-y,1/2+z
loop_
_atom_site_type_symbol
_atom_site_label
_atom_site_fract_x
_atom_site_fract_y
_atom_site_fract_z
Si Si1 0.122393 0.064162 0.886020
Si Si2 0.123775 0.870664 0.708263
Si Si3 0.750000 0.750000 0.249873
Si Si4 0.565998 0.067849 0.099220
Si Si5 0.065668 0.559221 0.777325
Si Si6 0.065157 0.056997 0.553262
Si Si7 0.127023 0.575473 0.436801
Si Si8 0.251131 0.933969 0.369059
O O1 0.103521 0.253651 0.895917
O O2 0.189546 0.035603 0.919118
O O3 0.120382 0.011121 0.783658
O O4 0.079400 0.962434 0.949471
O O5 0.189134 0.788956 0.697048
O O6 0.072313 0.741910 0.735513
O O7 0.109676 0.952023 0.613830
O O8 0.764921 0.583939 0.303375
O O9 0.590913 0.059115 0.199376
O O10 0.571814 0.251720 0.068234
O O11 0.500000 0.000000 0.099041
O O12 0.603377 0.949967 0.035146
O O13 0.103533 0.559697 0.867041
O O14 0.000000 0.500000 0.801770
O O15 0.000000 0.000000 0.576113
O O16 0.197664 0.566654 0.442769
O O17 0.250000 0.750000 0.322511
#
# Coordination Sequence:
#
# PCOD8176660 Si02
#       8
#     8   8   4   8   8   8   8   8
#     4  10  23  41  64  95 128 170 219 269 333 387
#     4  11  23  43  69  99 131 180 220 279 339 395
#     4  10  20  42  70  94 138 166 228 274 334 402
#     4  11  24  41  61  91 127 171 218 270 332 399
#     4  11  22  38  61  92 126 165 212 259 326 393
#     4  12  25  43  65  96 135 169 224 279 331 406
#     4  11  20  40  64  91 126 171 213 267 328 394
#     4   9  20  38  65  97 129 169 220 274 325 396
#
# _framework density 21.560165999999999
#
# number of rings (size 3 to 8) (size 9 to 14) (size 15 to 20)
#    0.000    1.333    1.333    5.200    1.867    1.600 
#    6.000    0.000    0.000    0.000    0.000    0.000 
#    0.000    0.000    0.000    0.000    0.000    0.000 
#
# Total GULP energy -371830.862018 kJ/mol
# GULP energy per Si atom -12394.362067 kJ/mol
# Density = 2.151109 g / cm^3
# Si number density = 21.560166 Si / 1000 Ang^3
#
#
#
# Elastic Constant Matrix: (Units=GPa)
#
#
# Indices 1 2 3 4 5 6 
#
# 1 99.0905 18.5063 21.6266 0.0000 0.0000 0.0000
# 2 18.5063 87.7587 -9.8022 0.0000 0.0000 0.0000
# 3 21.6266 -9.8022 72.2825 0.0000 0.0000 0.0000
# 4 0.0000 0.0000 0.0000 40.1223 0.0000 0.0000
# 5 0.0000 0.0000 0.0000 0.0000 21.6677 0.0000
# 6 0.0000 0.0000 0.0000 0.0000 0.0000 33.3873
#
#
#
# Elastic Compliance Matrix: (Units=1/GPa)
#
#
# Indices 1 2 3 4 5 6 
#
# 1 0.011455 -0.002841 -0.003812 0.000000 0.000000 0.000000
# 2 -0.002841 0.012275 0.002515 0.000000 0.000000 0.000000
# 3 -0.003812 0.002515 0.015316 0.000000 0.000000 0.000000
# 4 0.000000 0.000000 0.000000 0.024924 0.000000 0.000000
# 5 0.000000 0.000000 0.000000 0.000000 0.046152 0.000000
# 6 0.000000 0.000000 0.000000 0.000000 0.000000 0.029952
#
#
# Mechanical properties :
#
#
# Convention : Reuss Voigt Hill
#
# Bulk Modulus (GPa) = 32.50170 35.53256 34.01713
# Shear Modulus (GPa) = 31.52451 34.28885 32.90668
#
# Velocity S-wave (km/s) = 3.82797 3.99228 3.91099
# Velocity P-wave (km/s) = 5.88604 6.14553 6.01718
#
# Compressibility (1/GPa) = 0.03076762
#
# Stress axis : x y z
#
# Youngs Moduli (GPa) = 87.30186 81.46683 65.28990
#
# Poissons Ratio (x) = 0.23147 0.24891
# Poissons Ratio (y) = 0.24805 -0.16419
# Poissons Ratio (z) = 0.33283 -0.20487
#
# Static dielectric constant tensor:
#      x y z
#    x 4.009220 0.000000 0.000000 
#    y 0.000000 4.064710 0.000000 
#    z 0.000000 0.000000 3.822250 
# 
# 
# High freq. dielectric constant tensor:
#      x y z
#    x 1.850680 0.000000 0.000000 
#    y 0.000000 1.862890 0.000000 
#    z 0.000000 0.000000 1.827680 
# 
# From -- ./inp_files/13137.got.cif
#   From: 2010.03.12/outbox.cif.g09.slc.cpg/sg37_7_cif.got.tgz:13137.got - 2010.04.14 02:25:27.
