data_PCOD8176734
_publ_section_title
;
Structure prediction by ZEFSAII (Michael W. Deem and Ramdas Pophale) SiO2 
 PCOD8176734
Probable space group: C C C 2
;
_chemical_formula_sum "Si O2"
_cell_formula_units_Z 32
_cell_length_a 12.381158
_cell_length_b 7.428716
_cell_length_c 15.959205
_cell_angle_alpha 90.000000
_cell_angle_beta 90.000000
_cell_angle_gamma 90.000000
_cell_volume 1467.865539
_symmetry_space_group_name_H-M "C C C 2"
_symmetry_group_IT_number 37
_symmetry_cell_setting 'orthorhombic'
loop_
_space_group_symop_operation_xyz
x,y,z
-x,-y,z
-x,y,1/2+z
x,-y,1/2+z
1/2+x,1/2+y,z
1/2-x,1/2-y,z
1/2-x,1/2+y,1/2+z
1/2+x,1/2-y,1/2+z
loop_
_atom_site_type_symbol
_atom_site_label
_atom_site_fract_x
_atom_site_fract_y
_atom_site_fract_z
Si Si1 0.250000 0.750000 0.862921
Si Si2 0.383518 0.048083 0.499067
Si Si3 0.750000 0.250000 0.584467
Si Si4 0.325225 0.490440 0.222650
Si Si5 0.094952 0.356198 0.682000
O O1 0.326843 0.862478 0.921600
O O2 0.330422 0.624343 0.807967
O O3 0.393329 0.172858 0.581910
O O4 0.500000 0.000000 0.463842
O O5 0.320027 0.870117 0.523709
O O6 0.663336 0.358231 0.642439
O O7 0.203755 0.565919 0.220067
O O8 0.415826 0.651695 0.219961
O O9 0.000000 0.500000 0.703943
#
# Coordination Sequence:
#
# PCOD8176734 Si02
#       5
#     4   8   4   8   8
#     4  11  22  38  58  89 130 162 194 253 320 374
#     4  10  21  39  62  88 119 156 201 251 307 362
#     4   9  18  38  62  85 118 162 208 253 300 370
#     4   9  19  36  58  86 122 158 198 253 309 362
#     4   9  18  38  65  86 112 158 211 255 297 363
#
# _framework density 21.800363000000001
#
# number of rings (size 3 to 8) (size 9 to 14) (size 15 to 20)
#    0.000    2.500    0.000    3.000    0.000    3.000 
#    0.000   35.000    0.000    6.000    0.000    0.000 
#    0.000    0.000    0.000    0.000    0.000    0.000 
#
# Total GULP energy -198277.976717 kJ/mol
# GULP energy per Si atom -12392.373545 kJ/mol
# Density = 2.175074 g / cm^3
# Si number density = 21.800363 Si / 1000 Ang^3
#
#
#
# Elastic Constant Matrix: (Units=GPa)
#
#
# Indices 1 2 3 4 5 6 
#
# 1 82.1514 64.5703 61.5808 0.0000 0.0000 0.0000
# 2 64.5703 176.5361 93.7940 0.0000 0.0000 0.0000
# 3 61.5808 93.7940 125.1046 0.0000 0.0000 0.0000
# 4 0.0000 0.0000 0.0000 35.3854 0.0000 0.0000
# 5 0.0000 0.0000 0.0000 0.0000 29.0583 0.0000
# 6 0.0000 0.0000 0.0000 0.0000 0.0000 39.2997
#
#
#
# Elastic Compliance Matrix: (Units=1/GPa)
#
#
# Indices 1 2 3 4 5 6 
#
# 1 0.020554 -0.003561 -0.007448 0.000000 0.000000 0.000000
# 2 -0.003561 0.010032 -0.005768 0.000000 0.000000 0.000000
# 3 -0.007448 -0.005768 0.015984 0.000000 0.000000 0.000000
# 4 0.000000 0.000000 0.000000 0.028260 0.000000 0.000000
# 5 0.000000 0.000000 0.000000 0.000000 0.034414 0.000000
# 6 0.000000 0.000000 0.000000 0.000000 0.000000 0.025445
#
#
# Mechanical properties :
#
#
# Convention : Reuss Voigt Hill
#
# Bulk Modulus (GPa) = 76.82807 91.52026 84.17417
# Shear Modulus (GPa) = 28.97173 31.67182 30.32177
#
# Velocity S-wave (km/s) = 3.64944 3.81571 3.73350
# Velocity P-wave (km/s) = 7.28533 7.84124 7.56839
#
# Compressibility (1/GPa) = 0.01301608
#
# Stress axis : x y z
#
# Youngs Moduli (GPa) = 48.65117 99.68437 62.56291
#
# Poissons Ratio (x) = 0.35498 0.46596
# Poissons Ratio (y) = 0.17325 0.36087
# Poissons Ratio (z) = 0.36235 0.57499
#
# Static dielectric constant tensor:
#      x y z
#    x 4.048250 0.000000 0.000000 
#    y 0.000000 4.569450 0.000000 
#    z 0.000000 0.000000 3.820670 
# 
# 
# High freq. dielectric constant tensor:
#      x y z
#    x 1.846390 0.000000 0.000000 
#    y 0.000000 1.870000 0.000000 
#    z 0.000000 0.000000 1.842720 
# 
# From -- ./inp_files/10109.got.cif
#   From: 2010.03.12/outbox.cif.g09.slc.cpg/sg37_6_cif.got.tgz:10109.got - 2010.04.14 02:25:27.
