data_PCOD8176000
_publ_section_title
;
Structure prediction by ZEFSAII (Michael W. Deem and Ramdas Pophale) SiO2 
 PCOD8176000
Probable space group: C M C 21
;
_chemical_formula_sum "Si O2"
_cell_formula_units_Z 64
_cell_length_a 22.388950
_cell_length_b 9.248706
_cell_length_c 15.273675
_cell_angle_alpha 90.000000
_cell_angle_beta 90.000000
_cell_angle_gamma 90.000000
_cell_volume 3162.701801
_symmetry_space_group_name_H-M "C M C 21"
_symmetry_group_IT_number 36
_symmetry_cell_setting 'orthorhombic'
loop_
_space_group_symop_operation_xyz
x,y,z
-x,-y,1/2+z
x,-y,1/2+z
-x,y,z
1/2+x,1/2+y,z
1/2-x,1/2-y,1/2+z
1/2+x,1/2-y,1/2+z
1/2-x,1/2+y,z
loop_
_atom_site_type_symbol
_atom_site_label
_atom_site_fract_x
_atom_site_fract_y
_atom_site_fract_z
Si Si1 0.716996 0.649480 0.300960
Si Si2 0.324431 0.008453 0.527472
Si Si3 0.339786 0.568203 0.668597
Si Si4 0.433557 0.666869 0.127517
Si Si5 0.855101 0.604570 0.711910
Si Si6 0.569013 0.832854 0.954746
Si Si7 0.284752 0.684244 0.492431
Si Si8 0.144093 0.318906 0.793650
O O1 0.703773 0.512634 0.238195
O O2 0.694959 0.795580 0.255549
O O3 0.687608 0.632642 0.398374
O O4 0.786754 0.669243 0.318966
O O5 0.324436 0.019007 0.631977
O O6 0.391220 0.029203 0.487491
O O7 0.285499 0.143796 0.491499
O O8 0.295117 0.855848 0.500870
O O9 0.397260 0.474104 0.650342
O O10 0.310636 0.595715 0.574351
O O11 0.363013 0.717261 0.709299
O O12 0.500000 0.632872 0.157362
O O13 0.411739 0.802951 0.183552
O O14 0.428927 0.704689 0.025461
O O15 0.879178 0.481660 0.776469
O O16 0.500000 0.881599 0.938585
O O17 0.600203 0.762215 0.869637
#
# Coordination Sequence:
#
# PCOD8176000 Si02
#       8
#     8   8   8   8   8   8   8   8
#     4  11  24  39  61  95 140 173 208 265 334 400
#     4  11  23  41  64  97 132 171 215 265 329 397
#     4  11  26  39  65  99 135 168 218 273 329 394
#     4   9  22  46  66  85 123 177 222 262 324 393
#     4  10  22  40  62  93 131 168 209 269 328 389
#     4  10  23  42  67  91 125 175 222 262 320 395
#     4  12  25  40  65  99 136 174 210 270 340 389
#     4  12  21  39  60  99 128 162 214 272 320 385
#
# _framework density 20.235863999999999
#
# number of rings (size 3 to 8) (size 9 to 14) (size 15 to 20)
#    0.000    1.250    2.500    3.000    8.750    1.000 
#    0.000    0.625    0.000    0.000    0.000    0.000 
#    0.000    0.000    0.000    0.000    0.000    0.000 
#
# Total GULP energy -396686.643854 kJ/mol
# GULP energy per Si atom -12396.457620 kJ/mol
# Density = 2.018981 g / cm^3
# Si number density = 20.235864 Si / 1000 Ang^3
#
#
#
# Elastic Constant Matrix: (Units=GPa)
#
#
# Indices 1 2 3 4 5 6 
#
# 1 133.0717 44.3069 50.0868 0.0000 0.0000 0.0000
# 2 44.3069 100.6301 38.5732 0.0000 0.0000 0.0000
# 3 50.0868 38.5732 142.0884 0.0000 0.0000 0.0000
# 4 0.0000 0.0000 0.0000 26.0350 0.0000 0.0000
# 5 0.0000 0.0000 0.0000 0.0000 25.5529 0.0000
# 6 0.0000 0.0000 0.0000 0.0000 0.0000 1.2313
#
#
#
# Elastic Compliance Matrix: (Units=1/GPa)
#
#
# Indices 1 2 3 4 5 6 
#
# 1 0.009528 -0.003245 -0.002478 0.000000 0.000000 0.000000
# 2 -0.003245 0.012197 -0.002167 0.000000 0.000000 0.000000
# 3 -0.002478 -0.002167 0.008500 0.000000 0.000000 0.000000
# 4 0.000000 0.000000 0.000000 0.038410 0.000000 0.000000
# 5 0.000000 0.000000 0.000000 0.000000 0.039135 0.000000
# 6 0.000000 0.000000 0.000000 0.000000 0.000000 0.812122
#
#
# Mechanical properties :
#
#
# Convention : Reuss Voigt Hill
#
# Bulk Modulus (GPa) = 69.23189 71.30266 70.26727
# Shear Modulus (GPa) = 5.31640 26.75208 16.03424
#
# Velocity S-wave (km/s) = 1.62263 3.63989 2.81796
# Velocity P-wave (km/s) = 6.14795 7.27856 6.73701
#
# Compressibility (1/GPa) = 0.01444421
#
# Stress axis : x y z
#
# Youngs Moduli (GPa) = 104.95559 81.98735 117.65324
#
# Poissons Ratio (x) = 0.26608 0.29149
# Poissons Ratio (y) = 0.34062 0.25497
# Poissons Ratio (z) = 0.26004 0.17768
#
# Static dielectric constant tensor:
#      x y z
#    x 3.588500 0.000000 0.000000 
#    y 0.000000 3.613430 0.000000 
#    z 0.000000 0.000000 3.997650 
# 
# 
# High freq. dielectric constant tensor:
#      x y z
#    x 1.770680 0.000000 0.000000 
#    y 0.000000 1.785430 0.000000 
#    z 0.000000 0.000000 1.811910 
# 
# From -- ./inp_files/12988.got.cif
#   From: 2010.03.12/outbox.cif.g09.slc.cpg/sg36_7_cif.got.tgz:12988.got - 2010.04.14 02:13:53.
