data_PCOD8176164
_publ_section_title
;
Structure prediction by ZEFSAII (Michael W. Deem and Ramdas Pophale) SiO2 
 PCOD8176164
Probable space group: C M C 21
;
_chemical_formula_sum "Si O2"
_cell_formula_units_Z 64
_cell_length_a 15.678721
_cell_length_b 9.196688
_cell_length_c 21.359963
_cell_angle_alpha 90.000000
_cell_angle_beta 90.000000
_cell_angle_gamma 90.000000
_cell_volume 3079.942306
_symmetry_space_group_name_H-M "C M C 21"
_symmetry_group_IT_number 36
_symmetry_cell_setting 'orthorhombic'
loop_
_space_group_symop_operation_xyz
x,y,z
-x,-y,1/2+z
x,-y,1/2+z
-x,y,z
1/2+x,1/2+y,z
1/2-x,1/2-y,1/2+z
1/2+x,1/2-y,1/2+z
1/2-x,1/2+y,z
loop_
_atom_site_type_symbol
_atom_site_label
_atom_site_fract_x
_atom_site_fract_y
_atom_site_fract_z
Si Si1 0.132110 0.446276 0.446270
Si Si2 0.803651 0.961106 0.513788
Si Si3 0.224044 0.348136 0.639995
Si Si4 0.231923 0.392653 0.226148
Si Si5 0.598409 0.225660 0.823919
Si Si6 0.906739 0.764466 0.050108
Si Si7 0.094154 0.770253 0.426650
Si Si8 0.600035 0.565469 0.803181
O O1 0.228474 0.484035 0.464404
O O2 0.123327 0.326158 0.392781
O O3 0.086039 0.378082 0.506640
O O4 0.089994 0.595986 0.423990
O O5 0.775858 0.923771 0.584086
O O6 0.856299 0.824387 0.487957
O O7 0.854602 0.111361 0.513994
O O8 0.204729 0.453553 0.697724
O O9 0.279956 0.219199 0.669078
O O10 0.135997 0.281248 0.615118
O O11 0.162829 0.357510 0.278559
O O12 0.331117 0.395325 0.249281
O O13 0.500000 0.186396 0.807667
O O14 0.612400 0.397872 0.821565
O O15 0.000000 0.825027 0.066036
O O16 0.129663 0.835309 0.361669
O O17 0.000000 0.833928 0.434067
O O18 0.500000 0.594871 0.783346
#
# Coordination Sequence:
#
# PCOD8176164 Si02
#       8
#     8   8   8   8   8   8   8   8
#     4  11  23  40  64  96 130 160 207 266 325 380
#     4  11  23  42  65  90 126 171 209 252 322 393
#     4  11  25  43  64  92 126 167 217 261 319 383
#     4  12  24  45  66  92 130 170 217 272 318 382
#     4  11  24  43  66  94 128 171 215 264 327 388
#     4  11  23  42  67  95 128 168 214 270 324 385
#     4  11  23  39  62  96 126 155 203 261 317 376
#     4  10  24  44  67  93 128 172 217 264 326 397
#
# _framework density 20.779610000000002
#
# number of rings (size 3 to 8) (size 9 to 14) (size 15 to 20)
#    0.000    1.000    2.500    4.500    3.500    4.000 
#    0.000    1.250    0.000    0.000    0.000    0.000 
#    0.000    0.000    0.000    0.000    0.000    0.000 
#
# Total GULP energy -396782.533551 kJ/mol
# GULP energy per Si atom -12399.454173 kJ/mol
# Density = 2.073231 g / cm^3
# Si number density = 20.779610 Si / 1000 Ang^3
#
#
#
# Elastic Constant Matrix: (Units=GPa)
#
#
# Indices 1 2 3 4 5 6 
#
# 1 91.3496 28.6386 17.2188 0.0000 0.0000 0.0000
# 2 28.6386 97.3956 24.7950 0.0000 0.0000 0.0000
# 3 17.2188 24.7950 69.3968 0.0000 0.0000 0.0000
# 4 0.0000 0.0000 0.0000 42.1114 0.0000 0.0000
# 5 0.0000 0.0000 0.0000 0.0000 10.5367 0.0000
# 6 0.0000 0.0000 0.0000 0.0000 0.0000 22.3436
#
#
#
# Elastic Compliance Matrix: (Units=1/GPa)
#
#
# Indices 1 2 3 4 5 6 
#
# 1 0.012290 -0.003121 -0.001934 0.000000 0.000000 0.000000
# 2 -0.003121 0.012088 -0.003544 0.000000 0.000000 0.000000
# 3 -0.001934 -0.003544 0.016156 0.000000 0.000000 0.000000
# 4 0.000000 0.000000 0.000000 0.023747 0.000000 0.000000
# 5 0.000000 0.000000 0.000000 0.000000 0.094906 0.000000
# 6 0.000000 0.000000 0.000000 0.000000 0.000000 0.044756
#
#
# Mechanical properties :
#
#
# Convention : Reuss Voigt Hill
#
# Bulk Modulus (GPa) = 42.85591 44.38297 43.61944
# Shear Modulus (GPa) = 21.84170 27.49765 24.66967
#
# Velocity S-wave (km/s) = 3.24560 3.64166 3.44932
# Velocity P-wave (km/s) = 5.89186 6.25201 6.07460
#
# Compressibility (1/GPa) = 0.02333400
#
# Stress axis : x y z
#
# Youngs Moduli (GPa) = 81.36622 82.72967 61.89591
#
# Poissons Ratio (x) = 0.25823 0.11972
# Poissons Ratio (y) = 0.25398 0.21938
# Poissons Ratio (z) = 0.15738 0.29322
#
# Static dielectric constant tensor:
#      x y z
#    x 3.915310 0.000000 0.000000 
#    y 0.000000 3.837640 0.000000 
#    z 0.000000 0.000000 3.730170 
# 
# 
# High freq. dielectric constant tensor:
#      x y z
#    x 1.816500 0.000000 0.000000 
#    y 0.000000 1.827020 0.000000 
#    z 0.000000 0.000000 1.812340 
# 
# From -- ./inp_files/16234.got.cif
#   From: 2010.03.12/outbox.cif.g09.slc.cpg/sg36_9_cif.got.tgz:16234.got - 2010.04.14 02:13:53.
