data_PCOD8176494
_publ_section_title
;
Structure prediction by ZEFSAII (Michael W. Deem and Ramdas Pophale) SiO2 
 PCOD8176494
Probable space group: C C C 2
;
_chemical_formula_sum "Si O2"
_cell_formula_units_Z 60
_cell_length_a 11.596187
_cell_length_b 26.342996
_cell_length_c 9.167305
_cell_angle_alpha 90.000000
_cell_angle_beta 90.000000
_cell_angle_gamma 90.000000
_cell_volume 2800.412818
_symmetry_space_group_name_H-M "C C C 2"
_symmetry_group_IT_number 37
_symmetry_cell_setting 'orthorhombic'
loop_
_space_group_symop_operation_xyz
x,y,z
-x,-y,z
-x,y,1/2+z
x,-y,1/2+z
1/2+x,1/2+y,z
1/2-x,1/2-y,z
1/2-x,1/2+y,1/2+z
1/2+x,1/2-y,1/2+z
loop_
_atom_site_type_symbol
_atom_site_label
_atom_site_fract_x
_atom_site_fract_y
_atom_site_fract_z
Si Si1 0.000000 0.000000 0.111470
Si Si2 0.444998 0.055257 0.450745
Si Si3 0.427069 0.659151 0.167208
Si Si4 0.363646 0.592227 0.708154
Si Si5 0.119814 0.394925 0.151914
Si Si6 0.868188 0.723991 0.188585
Si Si7 0.018072 0.223885 0.925758
Si Si8 0.807451 0.927108 0.521746
O O1 0.938089 0.958914 0.212344
O O2 0.100601 0.973235 0.017107
O O3 0.426713 0.071422 0.285190
O O4 0.531698 0.096434 0.520050
O O5 0.323538 0.053444 0.539432
O O6 0.500000 0.000000 0.458077
O O7 0.559084 0.638933 0.154437
O O8 0.408620 0.683379 0.327562
O O9 0.421290 0.698084 0.030992
O O10 0.335365 0.613348 0.150444
O O11 0.249275 0.586553 0.607916
O O12 0.320292 0.603626 0.871397
O O13 0.133720 0.336334 0.191800
O O14 0.750000 0.750000 0.237663
O O15 0.960899 0.739097 0.309241
O O16 0.896771 0.743561 0.026140
#
# Coordination Sequence:
#
# PCOD8176494 Si02
#       8
#     4   8   8   8   8   8   8   8
#     4  10  20  34  60 100 122 160 208 268 316 400
#     4  11  24  42  64  91 131 177 228 273 325 392
#     4  10  19  38  63  95 124 167 207 275 333 403
#     4  10  20  37  63  86 129 163 206 259 337 382
#     4  11  23  43  64  90 129 174 222 265 331 394
#     4  11  24  43  68  96 134 178 221 280 344 408
#     4  10  21  40  64  95 129 163 224 265 337 395
#     4  10  21  37  60  92 129 166 217 261 339 381
#
# _framework density 21.425412999999999
#
# number of rings (size 3 to 8) (size 9 to 14) (size 15 to 20)
#    0.000    1.600    1.333    4.000    1.867    1.067 
#    7.200    1.333    0.000    0.000    0.000    0.000 
#    0.000    0.000    0.000    0.000    0.000    0.000 
#
# Total GULP energy -371914.481593 kJ/mol
# GULP energy per Si atom -12397.149386 kJ/mol
# Density = 2.137665 g / cm^3
# Si number density = 21.425413 Si / 1000 Ang^3
#
#
#
# Elastic Constant Matrix: (Units=GPa)
#
#
# Indices 1 2 3 4 5 6 
#
# 1 126.3017 38.9834 21.8211 0.0000 0.0000 0.0000
# 2 38.9834 105.1852 16.0435 0.0000 0.0000 0.0000
# 3 21.8211 16.0435 78.0696 0.0000 0.0000 0.0000
# 4 0.0000 0.0000 0.0000 26.1923 0.0000 0.0000
# 5 0.0000 0.0000 0.0000 0.0000 24.9811 0.0000
# 6 0.0000 0.0000 0.0000 0.0000 0.0000 31.5831
#
#
#
# Elastic Compliance Matrix: (Units=1/GPa)
#
#
# Indices 1 2 3 4 5 6 
#
# 1 0.009215 -0.003120 -0.001934 0.000000 0.000000 0.000000
# 2 -0.003120 0.010871 -0.001362 0.000000 0.000000 0.000000
# 3 -0.001934 -0.001362 0.013630 0.000000 0.000000 0.000000
# 4 0.000000 0.000000 0.000000 0.038179 0.000000 0.000000
# 5 0.000000 0.000000 0.000000 0.000000 0.040030 0.000000
# 6 0.000000 0.000000 0.000000 0.000000 0.000000 0.031663
#
#
# Mechanical properties :
#
#
# Convention : Reuss Voigt Hill
#
# Bulk Modulus (GPa) = 47.88668 51.47249 49.67959
# Shear Modulus (GPa) = 30.60324 32.06519 31.33421
#
# Velocity S-wave (km/s) = 3.78347 3.87278 3.82839
# Velocity P-wave (km/s) = 6.44089 6.63883 6.54061
#
# Compressibility (1/GPa) = 0.02088263
#
# Stress axis : x y z
#
# Youngs Moduli (GPa) = 108.52122 91.98665 73.36939
#
# Poissons Ratio (x) = 0.28701 0.14193
# Poissons Ratio (y) = 0.33860 0.09993
# Poissons Ratio (z) = 0.20993 0.12528
#
# Static dielectric constant tensor:
#      x y z
#    x 3.982640 0.000000 0.000000 
#    y 0.000000 3.878210 0.000000 
#    z 0.000000 0.000000 3.735310 
# 
# 
# High freq. dielectric constant tensor:
#      x y z
#    x 1.836450 0.000000 0.000000 
#    y 0.000000 1.848300 0.000000 
#    z 0.000000 0.000000 1.833190 
# 
# From -- ./inp_files/3044.got.cif
#   From: 2010.03.12/outbox.cif.g09.slc.cpg/sg37_2_cif.got.tgz:3044.got - 2010.04.14 02:25:27.
