data_PCOD8176430
_publ_section_title
;
Structure prediction by ZEFSAII (Michael W. Deem and Ramdas Pophale) SiO2 
 PCOD8176430
Probable space group: C C C 2
;
_chemical_formula_sum "Si O2"
_cell_formula_units_Z 40
_cell_length_a 9.239187
_cell_length_b 13.347165
_cell_length_c 15.335581
_cell_angle_alpha 90.000000
_cell_angle_beta 90.000000
_cell_angle_gamma 90.000000
_cell_volume 1891.137127
_symmetry_space_group_name_H-M "C C C 2"
_symmetry_group_IT_number 37
_symmetry_cell_setting 'orthorhombic'
loop_
_space_group_symop_operation_xyz
x,y,z
-x,-y,z
-x,y,1/2+z
x,-y,1/2+z
1/2+x,1/2+y,z
1/2-x,1/2-y,z
1/2-x,1/2+y,1/2+z
1/2+x,1/2-y,1/2+z
loop_
_atom_site_type_symbol
_atom_site_label
_atom_site_fract_x
_atom_site_fract_y
_atom_site_fract_z
Si Si1 0.588943 0.294838 0.706570
Si Si2 0.500000 0.500000 0.297203
Si Si3 0.500000 0.000000 0.413086
Si Si4 0.196331 0.993924 0.958849
Si Si5 0.907699 0.705329 0.853266
Si Si6 0.971179 0.833173 0.015394
O O1 0.750000 0.250000 0.715758
O O2 0.557305 0.409363 0.736682
O O3 0.494751 0.225037 0.766648
O O4 0.531519 0.279848 0.608549
O O5 0.363739 0.521370 0.361348
O O6 0.636965 0.956933 0.466950
O O7 0.416827 0.914607 0.358585
O O8 0.108472 0.905239 0.004323
O O9 0.175708 0.099093 0.010459
O O10 0.750000 0.750000 0.841491
O O11 0.980825 0.750769 0.939808
#
# Coordination Sequence:
#
# PCOD8176430 Si02
#       6
#     8   4   4   8   8   8
#     4  12  24  40  74 101 134 185 234 281 349 425
#     4  10  18  42  66 100 134 174 232 286 342 418
#     4  12  24  38  74 102 130 186 238 290 348 416
#     4  10  20  42  72  96 135 180 229 290 346 417
#     4  12  24  46  66  99 145 179 228 291 350 415
#     4  10  22  44  68  96 136 185 226 279 356 416
#
# _framework density 21.151297
#
# number of rings (size 3 to 8) (size 9 to 14) (size 15 to 20)
#    0.000    1.200    6.000    3.000    0.000    0.000 
#    3.600    1.000    0.000    0.000    0.000    0.000 
#    0.000    0.000    0.000    0.000    0.000    0.000 
#
# Total GULP energy -247761.322194 kJ/mol
# GULP energy per Si atom -12388.066110 kJ/mol
# Density = 2.110316 g / cm^3
# Si number density = 21.151297 Si / 1000 Ang^3
#
#
#
# Elastic Constant Matrix: (Units=GPa)
#
#
# Indices 1 2 3 4 5 6 
#
# 1 159.2192 46.7780 38.9807 0.0000 0.0000 0.0000
# 2 46.7780 105.1437 25.9097 0.0000 0.0000 0.0000
# 3 38.9807 25.9097 135.0018 0.0000 0.0000 0.0000
# 4 0.0000 0.0000 0.0000 -47.2827 0.0000 0.0000
# 5 0.0000 0.0000 0.0000 0.0000 18.1326 0.0000
# 6 0.0000 0.0000 0.0000 0.0000 0.0000 26.2675
#
#
#
# Elastic Compliance Matrix: (Units=1/GPa)
#
#
# Indices 1 2 3 4 5 6 
#
# 1 0.007544 -0.002960 -0.001610 0.000000 0.000000 0.000000
# 2 -0.002960 0.011144 -0.001284 0.000000 0.000000 0.000000
# 3 -0.001610 -0.001284 0.008119 0.000000 0.000000 0.000000
# 4 0.000000 0.000000 0.000000 -0.021149 0.000000 0.000000
# 5 0.000000 0.000000 0.000000 0.000000 0.055149 0.000000
# 6 0.000000 0.000000 0.000000 0.000000 0.000000 0.038070
#
#
# Mechanical properties :
#
#
# Convention : Reuss Voigt Hill
#
# Bulk Modulus (GPa) = 66.23070 69.18904 67.70987
# Shear Modulus (GPa) = 43.24568 18.60321 30.92445
#
# Velocity S-wave (km/s) = 4.52662 2.96891 3.82784
# Velocity P-wave (km/s) = 7.66167 6.67346 7.18457
#
# Compressibility (1/GPa) = 0.01509874
#
# Stress axis : x y z
#
# Youngs Moduli (GPa) = 132.54784 89.73454 123.17160
#
# Poissons Ratio (x) = 0.26558 0.19835
# Poissons Ratio (y) = 0.39230 0.15818
# Poissons Ratio (z) = 0.21345 0.11524
#
# Static dielectric constant tensor:
#      x y z
#    x 4.050860 0.000000 0.000000 
#    y 0.000000 3.971920 0.000000 
#    z 0.000000 0.000000 3.749160 
# 
# 
# High freq. dielectric constant tensor:
#      x y z
#    x 1.834350 0.000000 0.000000 
#    y 0.000000 1.838060 0.000000 
#    z 0.000000 0.000000 1.810220 
# 
# From -- ./inp_files/10358.got.cif
#   From: 2010.03.12/outbox.cif.g09.slc.cpg/sg37_6_cif.got.tgz:10358.got - 2010.04.14 02:25:27.
