data_PCOD8176804
_publ_section_title
;
Structure prediction by ZEFSAII (Michael W. Deem and Ramdas Pophale) SiO2 
 PCOD8176804
Probable space group: C C C 2
;
_chemical_formula_sum "Si O2"
_cell_formula_units_Z 60
_cell_length_a 25.907017
_cell_length_b 11.120523
_cell_length_c 9.688110
_cell_angle_alpha 90.000000
_cell_angle_beta 90.000000
_cell_angle_gamma 90.000000
_cell_volume 2791.140407
_symmetry_space_group_name_H-M "C C C 2"
_symmetry_group_IT_number 37
_symmetry_cell_setting 'orthorhombic'
loop_
_space_group_symop_operation_xyz
x,y,z
-x,-y,z
-x,y,1/2+z
x,-y,1/2+z
1/2+x,1/2+y,z
1/2-x,1/2-y,z
1/2-x,1/2+y,1/2+z
1/2+x,1/2-y,1/2+z
loop_
_atom_site_type_symbol
_atom_site_label
_atom_site_fract_x
_atom_site_fract_y
_atom_site_fract_z
Si Si1 0.607715 0.301763 0.549100
Si Si2 0.466723 0.379829 0.824933
Si Si3 0.423923 0.792800 0.110646
Si Si4 0.216617 0.128739 0.147249
Si Si5 0.765573 0.932413 0.854510
Si Si6 0.945622 0.704376 0.318379
Si Si7 0.000000 0.500000 0.199728
Si Si8 0.664874 0.796265 0.811553
O O1 0.575771 0.393706 0.448255
O O2 0.655561 0.360452 0.627379
O O3 0.572110 0.255985 0.672077
O O4 0.629613 0.194982 0.450563
O O5 0.500000 0.500000 0.799939
O O6 0.441222 0.334775 0.680405
O O7 0.503339 0.271998 0.872543
O O8 0.370599 0.829574 0.182300
O O9 0.468885 0.895934 0.115904
O O10 0.407719 0.778014 0.949240
O O11 0.250000 0.250000 0.148561
O O12 0.223801 0.061753 0.290754
O O13 0.236704 0.050114 0.018888
O O14 0.709164 0.894102 0.806095
O O15 0.809675 0.837165 0.809621
O O16 0.957709 0.564023 0.296632
#
# Coordination Sequence:
#
# PCOD8176804 Si02
#       8
#     8   8   8   8   8   8   4   8
#     4  10  22  41  67  90 136 176 215 273 344 402
#     4  10  22  40  62  90 131 179 215 264 331 405
#     4  10  22  39  63  90 127 170 223 268 327 389
#     4  11  23  46  69  99 135 174 225 286 349 409
#     4  10  21  44  70  91 134 170 215 282 342 397
#     4  11  23  38  61  94 125 168 223 275 319 389
#     4  10  22  42  58  88 136 176 212 276 332 380
#     4   9  20  44  64  88 128 177 209 269 349 402
#
# _framework density 21.496590000000001
#
# number of rings (size 3 to 8) (size 9 to 14) (size 15 to 20)
#    0.000    1.867    2.667    2.000    0.000   10.667 
#    7.200    0.000    0.000    0.000    0.000    0.000 
#    0.000    0.000    0.000    0.000    0.000    0.000 
#
# Total GULP energy -371694.911845 kJ/mol
# GULP energy per Si atom -12389.830395 kJ/mol
# Density = 2.144766 g / cm^3
# Si number density = 21.496590 Si / 1000 Ang^3
#
#
#
# Elastic Constant Matrix: (Units=GPa)
#
#
# Indices 1 2 3 4 5 6 
#
# 1 100.3800 22.4909 28.1712 0.0000 0.0000 0.0000
# 2 22.4909 84.5214 41.4444 0.0000 0.0000 0.0000
# 3 28.1712 41.4444 132.9660 0.0000 0.0000 0.0000
# 4 0.0000 0.0000 0.0000 25.3632 0.0000 0.0000
# 5 0.0000 0.0000 0.0000 0.0000 26.0944 0.0000
# 6 0.0000 0.0000 0.0000 0.0000 0.0000 16.2026
#
#
#
# Elastic Compliance Matrix: (Units=1/GPa)
#
#
# Indices 1 2 3 4 5 6 
#
# 1 0.010895 -0.002086 -0.001658 0.000000 0.000000 0.000000
# 2 -0.002086 0.014365 -0.004036 0.000000 0.000000 0.000000
# 3 -0.001658 -0.004036 0.009130 0.000000 0.000000 0.000000
# 4 0.000000 0.000000 0.000000 0.039427 0.000000 0.000000
# 5 0.000000 0.000000 0.000000 0.000000 0.038322 0.000000
# 6 0.000000 0.000000 0.000000 0.000000 0.000000 0.061718
#
#
# Mechanical properties :
#
#
# Convention : Reuss Voigt Hill
#
# Bulk Modulus (GPa) = 53.10512 55.78674 54.44593
# Shear Modulus (GPa) = 25.55008 28.58278 27.06643
#
# Velocity S-wave (km/s) = 3.45130 3.65038 3.55223
# Velocity P-wave (km/s) = 6.37491 6.61625 6.49671
#
# Compressibility (1/GPa) = 0.01883058
#
# Stress axis : x y z
#
# Youngs Moduli (GPa) = 91.78630 69.61252 109.53074
#
# Poissons Ratio (x) = 0.14522 0.18161
# Poissons Ratio (y) = 0.19147 0.44202
# Poissons Ratio (z) = 0.15219 0.28093
#
# Static dielectric constant tensor:
#      x y z
#    x 4.075870 0.000000 0.000000 
#    y 0.000000 3.556990 0.000000 
#    z 0.000000 0.000000 3.898650 
# 
# 
# High freq. dielectric constant tensor:
#      x y z
#    x 1.853340 0.000000 0.000000 
#    y 0.000000 1.813570 0.000000 
#    z 0.000000 0.000000 1.849170 
# 
# From -- ./inp_files/4987.got.cif
#   From: 2010.03.12/outbox.cif.g09.slc.cpg/sg37_3_cif.got.tgz:4987.got - 2010.04.14 02:25:27.
