data_PCOD8176413
_publ_section_title
;
Structure prediction by ZEFSAII (Michael W. Deem and Ramdas Pophale) SiO2 
 PCOD8176413
Probable space group: C C C 2
;
_chemical_formula_sum "Si O2"
_cell_formula_units_Z 52
_cell_length_a 11.636793
_cell_length_b 16.456286
_cell_length_c 14.722753
_cell_angle_alpha 90.000000
_cell_angle_beta 90.000000
_cell_angle_gamma 90.000000
_cell_volume 2819.383551
_symmetry_space_group_name_H-M "C C C 2"
_symmetry_group_IT_number 37
_symmetry_cell_setting 'orthorhombic'
loop_
_space_group_symop_operation_xyz
x,y,z
-x,-y,z
-x,y,1/2+z
x,-y,1/2+z
1/2+x,1/2+y,z
1/2-x,1/2-y,z
1/2-x,1/2+y,1/2+z
1/2+x,1/2-y,1/2+z
loop_
_atom_site_type_symbol
_atom_site_label
_atom_site_fract_x
_atom_site_fract_y
_atom_site_fract_z
Si Si1 0.713835 0.333497 0.402390
Si Si2 0.746002 0.992702 0.352599
Si Si3 0.615698 0.549013 0.526719
Si Si4 0.090254 0.638258 0.548482
Si Si5 0.500000 0.000000 0.432269
Si Si6 0.218587 0.074737 0.159666
Si Si7 0.044430 0.183844 0.056369
O O1 0.750000 0.250000 0.348896
O O2 0.714452 0.413012 0.338896
O O3 0.804446 0.342653 0.482905
O O4 0.591796 0.326867 0.453315
O O5 0.805042 0.950340 0.438400
O O6 0.609209 0.991775 0.366654
O O7 0.786276 0.941091 0.266663
O O8 0.500000 0.500000 0.504588
O O9 0.686302 0.507936 0.607753
O O10 0.579816 0.639790 0.557894
O O11 0.149399 0.597826 0.636693
O O12 0.025600 0.720955 0.577807
O O13 0.002594 0.578290 0.498219
O O14 0.128942 0.145822 0.132853
#
# Coordination Sequence:
#
# PCOD8176413 Si02
#       7
#     8   8   8   8   4   8   8
#     4   8  14  30  56  79 104 146 195 232 278 344
#     4  11  20  34  58  89 116 153 198 245 286 350
#     4  10  18  35  55  88 118 148 189 236 305 348
#     4   9  17  35  59  76 107 157 197 232 283 359
#     4  10  20  38  60  82 110 160 200 232 294 352
#     4  10  19  33  59  84 115 153 196 241 290 351
#     4   9  17  34  57  83 112 149 193 239 293 354
#
# _framework density 18.443747999999999
#
# number of rings (size 3 to 8) (size 9 to 14) (size 15 to 20)
#    0.000    2.462    6.154    1.385    0.000    2.462 
#    0.000    3.846   10.154    0.000    0.000    0.000 
#    0.000    0.000    0.000    0.000    0.000    0.000 
#
# Total GULP energy -322246.414985 kJ/mol
# GULP energy per Si atom -12394.092884 kJ/mol
# Density = 1.840177 g / cm^3
# Si number density = 18.443748 Si / 1000 Ang^3
#
#
#
# Elastic Constant Matrix: (Units=GPa)
#
#
# Indices 1 2 3 4 5 6 
#
# 1 64.3865 36.9208 28.6495 0.0000 0.0000 0.0000
# 2 36.9208 138.5713 33.0857 0.0000 0.0000 0.0000
# 3 28.6495 33.0857 83.9914 0.0000 0.0000 0.0000
# 4 0.0000 0.0000 0.0000 22.1998 0.0000 0.0000
# 5 0.0000 0.0000 0.0000 0.0000 14.0531 0.0000
# 6 0.0000 0.0000 0.0000 0.0000 0.0000 29.3046
#
#
#
# Elastic Compliance Matrix: (Units=1/GPa)
#
#
# Indices 1 2 3 4 5 6 
#
# 1 0.020251 -0.004135 -0.005279 0.000000 0.000000 0.000000
# 2 -0.004135 0.008810 -0.002060 0.000000 0.000000 0.000000
# 3 -0.005279 -0.002060 0.014518 0.000000 0.000000 0.000000
# 4 0.000000 0.000000 0.000000 0.045045 0.000000 0.000000
# 5 0.000000 0.000000 0.000000 0.000000 0.071159 0.000000
# 6 0.000000 0.000000 0.000000 0.000000 0.000000 0.034124
#
#
# Mechanical properties :
#
#
# Convention : Reuss Voigt Hill
#
# Bulk Modulus (GPa) = 48.46968 53.80682 51.13825
# Shear Modulus (GPa) = 22.34806 25.66438 24.00622
#
# Velocity S-wave (km/s) = 3.48471 3.73432 3.61167
# Velocity P-wave (km/s) = 6.52133 6.91595 6.72153
#
# Compressibility (1/GPa) = 0.02063146
#
# Stress axis : x y z
#
# Youngs Moduli (GPa) = 49.37934 113.50533 68.88007
#
# Poissons Ratio (x) = 0.46939 0.36360
# Poissons Ratio (y) = 0.20420 0.14189
# Poissons Ratio (z) = 0.26066 0.23381
#
# Static dielectric constant tensor:
#      x y z
#    x 3.372720 0.000000 0.000000 
#    y 0.000000 3.945380 0.000000 
#    z 0.000000 0.000000 2.964830 
# 
# 
# High freq. dielectric constant tensor:
#      x y z
#    x 1.698710 0.000000 0.000000 
#    y 0.000000 1.721210 0.000000 
#    z 0.000000 0.000000 1.676440 
# 
# From -- ./inp_files/11712.got.cif
#   From: 2010.03.12/outbox.cif.g09.slc.cpg/sg37_6_cif.got.tgz:11712.got - 2010.04.14 02:25:27.
