data_PCOD8176644
_publ_section_title
;
Structure prediction by ZEFSAII (Michael W. Deem and Ramdas Pophale) SiO2 
 PCOD8176644
Probable space group: C C C 2
;
_chemical_formula_sum "Si O2"
_cell_formula_units_Z 60
_cell_length_a 17.579000
_cell_length_b 18.564420
_cell_length_c 9.004638
_cell_angle_alpha 90.000000
_cell_angle_beta 90.000000
_cell_angle_gamma 90.000000
_cell_volume 2938.609036
_symmetry_space_group_name_H-M "C C C 2"
_symmetry_group_IT_number 37
_symmetry_cell_setting 'orthorhombic'
loop_
_space_group_symop_operation_xyz
x,y,z
-x,-y,z
-x,y,1/2+z
x,-y,1/2+z
1/2+x,1/2+y,z
1/2-x,1/2-y,z
1/2-x,1/2+y,1/2+z
1/2+x,1/2-y,1/2+z
loop_
_atom_site_type_symbol
_atom_site_label
_atom_site_fract_x
_atom_site_fract_y
_atom_site_fract_z
Si Si1 0.340151 0.732887 0.921380
Si Si2 0.596368 0.571478 0.470845
Si Si3 0.500000 0.500000 0.713255
Si Si4 0.663178 0.985221 0.362438
Si Si5 0.754692 0.949754 0.625150
Si Si6 0.928662 0.621139 0.902932
Si Si7 0.190704 0.695427 0.208171
Si Si8 0.584281 0.150141 0.744778
O O1 0.250000 0.750000 0.899251
O O2 0.383347 0.770836 0.783849
O O3 0.372505 0.651148 0.929652
O O4 0.361576 0.770277 0.078199
O O5 0.533534 0.563497 0.604532
O O6 0.565143 0.534751 0.319548
O O7 0.667636 0.528135 0.542618
O O8 0.681562 0.977575 0.534907
O O9 0.645830 0.908487 0.292421
O O10 0.741228 0.013980 0.285319
O O11 0.591448 0.039068 0.358502
O O12 0.747129 0.863999 0.637715
O O13 0.862564 0.670653 0.839243
O O14 0.008621 0.638957 0.835979
O O15 0.934052 0.640054 0.074075
O O16 0.250000 0.750000 0.282330
#
# Coordination Sequence:
#
# PCOD8176644 Si02
#       8
#     8   8   4   8   8   8   8   8
#     4  11  22  42  72  93 129 174 218 272 330 395
#     4  11  22  45  67  99 129 169 220 268 334 394
#     4  10  26  42  68 100 134 170 214 278 336 390
#     4  11  22  37  62  95 127 169 218 264 315 379
#     4  11  20  38  67  90 125 167 217 270 318 381
#     4  11  26  38  61  91 131 177 215 264 318 392
#     4  10  20  41  64  90 121 170 216 266 327 383
#     4  12  24  41  60  94 133 172 216 260 327 387
#
# _framework density 20.417824
#
# number of rings (size 3 to 8) (size 9 to 14) (size 15 to 20)
#    0.000    1.067    5.333    2.000    1.867    3.733 
#    0.000    1.333    0.000    0.000    0.000    0.000 
#    0.000    0.000    0.000    0.000    0.000    0.000 
#
# Total GULP energy -371725.492036 kJ/mol
# GULP energy per Si atom -12390.849735 kJ/mol
# Density = 2.037135 g / cm^3
# Si number density = 20.417824 Si / 1000 Ang^3
#
#
#
# Elastic Constant Matrix: (Units=GPa)
#
#
# Indices 1 2 3 4 5 6 
#
# 1 89.9588 46.0375 28.7046 0.0000 0.0000 0.0000
# 2 46.0375 103.6317 34.8952 0.0000 0.0000 0.0000
# 3 28.7046 34.8952 107.5042 0.0000 0.0000 0.0000
# 4 0.0000 0.0000 0.0000 15.3097 0.0000 0.0000
# 5 0.0000 0.0000 0.0000 0.0000 31.7880 0.0000
# 6 0.0000 0.0000 0.0000 0.0000 0.0000 24.9266
#
#
#
# Elastic Compliance Matrix: (Units=1/GPa)
#
#
# Indices 1 2 3 4 5 6 
#
# 1 0.014774 -0.005877 -0.002037 0.000000 0.000000 0.000000
# 2 -0.005877 0.013172 -0.002706 0.000000 0.000000 0.000000
# 3 -0.002037 -0.002706 0.010724 0.000000 0.000000 0.000000
# 4 0.000000 0.000000 0.000000 0.065318 0.000000 0.000000
# 5 0.000000 0.000000 0.000000 0.000000 0.031458 0.000000
# 6 0.000000 0.000000 0.000000 0.000000 0.000000 0.040118
#
#
# Mechanical properties :
#
#
# Convention : Reuss Voigt Hill
#
# Bulk Modulus (GPa) = 57.37580 57.81881 57.59730
# Shear Modulus (GPa) = 24.67737 27.16869 25.92303
#
# Velocity S-wave (km/s) = 3.48029 3.65175 3.56705
# Velocity P-wave (km/s) = 6.65671 6.79409 6.72575
#
# Compressibility (1/GPa) = 0.01742895
#
# Stress axis : x y z
#
# Youngs Moduli (GPa) = 67.68661 75.92020 93.24633
#
# Poissons Ratio (x) = 0.44621 0.18995
# Poissons Ratio (y) = 0.39781 0.25234
# Poissons Ratio (z) = 0.13788 0.20545
#
# Static dielectric constant tensor:
#      x y z
#    x 3.709940 0.000000 0.000000 
#    y 0.000000 4.102040 0.000000 
#    z 0.000000 0.000000 3.836530 
# 
# 
# High freq. dielectric constant tensor:
#      x y z
#    x 1.800560 0.000000 0.000000 
#    y 0.000000 1.792980 0.000000 
#    z 0.000000 0.000000 1.806650 
# 
# From -- ./inp_files/4087.got.cif
#   From: 2010.03.12/outbox.cif.g09.slc.cpg/sg37_3_cif.got.tgz:4087.got - 2010.04.14 02:25:27.
