data_PCOD8176449
_publ_section_title
;
Structure prediction by ZEFSAII (Michael W. Deem and Ramdas Pophale) SiO2 
 PCOD8176449
Probable space group: C C C 2
;
_chemical_formula_sum "Si O2"
_cell_formula_units_Z 48
_cell_length_a 16.726950
_cell_length_b 25.444690
_cell_length_c 5.276017
_cell_angle_alpha 90.000000
_cell_angle_beta 90.000000
_cell_angle_gamma 90.000000
_cell_volume 2245.536450
_symmetry_space_group_name_H-M "C C C 2"
_symmetry_group_IT_number 37
_symmetry_cell_setting 'orthorhombic'
loop_
_space_group_symop_operation_xyz
x,y,z
-x,-y,z
-x,y,1/2+z
x,-y,1/2+z
1/2+x,1/2+y,z
1/2-x,1/2-y,z
1/2-x,1/2+y,1/2+z
1/2+x,1/2-y,1/2+z
loop_
_atom_site_type_symbol
_atom_site_label
_atom_site_fract_x
_atom_site_fract_y
_atom_site_fract_z
Si Si1 0.861102 0.863775 0.284850
Si Si2 0.826073 0.376029 0.775484
Si Si3 0.664569 0.814301 0.777422
Si Si4 0.088901 0.022110 0.274069
Si Si5 0.647561 0.302057 0.287937
Si Si6 0.533386 0.059150 0.864978
O O1 0.769004 0.883334 0.277872
O O2 0.915281 0.915363 0.295356
O O3 0.882534 0.829457 0.530589
O O4 0.886259 0.831458 0.035713
O O5 0.858662 0.351062 0.514183
O O6 0.871252 0.432633 0.812220
O O7 0.855225 0.339503 0.006442
O O8 0.618439 0.758466 0.793711
O O9 0.757905 0.803540 0.797764
O O10 0.134090 0.996564 0.516813
O O11 0.000000 0.000000 0.245445
O O12 0.487162 0.087223 0.631959
O O13 0.500000 0.000000 0.896809
#
# Coordination Sequence:
#
# PCOD8176449 Si02
#       6
#     8   8   8   8   8   8
#     4  10  19  33  54  86 115 141 184 228 273 322
#     4  10  19  33  54  83 112 148 185 232 269 322
#     4   9  17  30  52  84 116 145 179 222 282 330
#     4  10  21  38  56  80 107 149 187 220 277 331
#     4   9  17  30  52  84 120 142 173 227 280 330
#     4  10  21  38  54  75 104 151 194 227 283 329
#
# _framework density 21.375738999999999
#
# number of rings (size 3 to 8) (size 9 to 14) (size 15 to 20)
#    0.000    2.333    0.000    3.000    0.000    4.000 
#    6.000    0.000    0.000    0.000   86.667    0.000 
#    0.000    0.000    0.000    0.000    0.000    1.000 
#
# Total GULP energy -297371.234529 kJ/mol
# GULP energy per Si atom -12390.468105 kJ/mol
# Density = 2.132709 g / cm^3
# Si number density = 21.375739 Si / 1000 Ang^3
#
#
#
# Elastic Constant Matrix: (Units=GPa)
#
#
# Indices 1 2 3 4 5 6 
#
# 1 31.6120 14.4004 -2.3680 0.0000 0.0000 0.0000
# 2 14.4004 109.6321 25.0662 0.0000 0.0000 0.0000
# 3 -2.3680 25.0662 188.5392 0.0000 0.0000 0.0000
# 4 0.0000 0.0000 0.0000 16.5115 0.0000 0.0000
# 5 0.0000 0.0000 0.0000 0.0000 10.2458 0.0000
# 6 0.0000 0.0000 0.0000 0.0000 0.0000 25.5713
#
#
#
# Elastic Compliance Matrix: (Units=1/GPa)
#
#
# Indices 1 2 3 4 5 6 
#
# 1 0.033846 -0.004685 0.001048 0.000000 0.000000 0.000000
# 2 -0.004685 0.010056 -0.001396 0.000000 0.000000 0.000000
# 3 0.001048 -0.001396 0.005503 0.000000 0.000000 0.000000
# 4 0.000000 0.000000 0.000000 0.060564 0.000000 0.000000
# 5 0.000000 0.000000 0.000000 0.000000 0.097601 0.000000
# 6 0.000000 0.000000 0.000000 0.000000 0.000000 0.039106
#
#
# Mechanical properties :
#
#
# Convention : Reuss Voigt Hill
#
# Bulk Modulus (GPa) = 25.42020 44.88672 35.15346
# Shear Modulus (GPa) = 18.52842 29.97802 24.25322
#
# Velocity S-wave (km/s) = 2.94734 3.74897 3.37206
# Velocity P-wave (km/s) = 4.84771 6.30747 5.62514
#
# Compressibility (1/GPa) = 0.03933879
#
# Stress axis : x y z
#
# Youngs Moduli (GPa) = 29.54517 99.44327 181.72994
#
# Poissons Ratio (x) = 0.46593 -0.19046
# Poissons Ratio (y) = 0.13843 0.25366
# Poissons Ratio (z) = -0.03096 0.13880
#
# Static dielectric constant tensor:
#      x y z
#    x 3.358620 0.000000 0.000000 
#    y 0.000000 3.837130 0.000000 
#    z 0.000000 0.000000 5.863510 
# 
# 
# High freq. dielectric constant tensor:
#      x y z
#    x 1.788040 0.000000 0.000000 
#    y 0.000000 1.828710 0.000000 
#    z 0.000000 0.000000 1.876090 
# 
# From -- ./inp_files/796.got.cif
#   From: 2010.03.12/outbox.cif.g09.slc.cpg/sg37_1_cif.got.tgz:796.got - 2010.04.14 02:25:27.
