data_PCOD8176267
_publ_section_title
;
Structure prediction by ZEFSAII (Michael W. Deem and Ramdas Pophale) SiO2 
 PCOD8176267
Probable space group: C M C 21
;
_chemical_formula_sum "Si O2"
_cell_formula_units_Z 52
_cell_length_a 7.657404
_cell_length_b 22.263731
_cell_length_c 14.574472
_cell_angle_alpha 90.000000
_cell_angle_beta 90.000000
_cell_angle_gamma 90.000000
_cell_volume 2484.690715
_symmetry_space_group_name_H-M "C M C 21"
_symmetry_group_IT_number 36
_symmetry_cell_setting 'orthorhombic'
loop_
_space_group_symop_operation_xyz
x,y,z
-x,-y,1/2+z
x,-y,1/2+z
-x,y,z
1/2+x,1/2+y,z
1/2-x,1/2-y,1/2+z
1/2+x,1/2-y,1/2+z
1/2-x,1/2+y,z
loop_
_atom_site_type_symbol
_atom_site_label
_atom_site_fract_x
_atom_site_fract_y
_atom_site_fract_z
Si Si1 0.000000 0.570631 0.047351
Si Si2 0.698263 0.565714 0.340166
Si Si3 0.203504 0.187340 0.424073
Si Si4 0.795929 0.251496 0.251644
Si Si5 0.500000 0.974417 0.352503
Si Si6 0.303208 0.348906 0.117705
Si Si7 0.196075 0.871709 0.652193
Si Si8 0.500000 0.940632 0.144882
O O1 0.829292 0.608400 0.074118
O O2 0.000000 0.504769 0.094427
O O3 0.000000 0.571320 0.937239
O O4 0.500000 0.549518 0.369625
O O5 0.776074 0.622164 0.396015
O O6 0.707374 0.578972 0.232267
O O7 0.822487 0.511155 0.364050
O O8 0.276905 0.239537 0.356032
O O9 0.244046 0.196181 0.531938
O O10 0.000000 0.185354 0.399879
O O11 0.702665 0.309956 0.210309
O O12 0.750692 0.193263 0.191152
O O13 0.000000 0.265749 0.249822
O O14 0.500000 0.942415 0.254723
O O15 0.500000 0.374113 0.104979
O O16 0.174047 0.405098 0.115873
O O17 0.000000 0.869971 0.611532
#
# Coordination Sequence:
#
# PCOD8176267 Si02
#       8
#     4   8   8   8   4   8   8   4
#     4  12  24  40  64  94 122 168 211 251 318 377
#     4   9  17  36  62  86 116 157 210 261 300 357
#     4   8  17  35  63  92 116 157 211 263 300 353
#     4   9  18  39  64  89 123 156 204 268 307 355
#     4  12  24  38  60  92 124 170 200 251 319 375
#     4  11  23  41  61  90 126 170 206 244 319 376
#     4   9  19  37  63  89 118 154 206 267 310 352
#     4  12  26  44  60  90 138 164 201 266 303 376
#
# _framework density 20.928159000000001
#
# number of rings (size 3 to 8) (size 9 to 14) (size 15 to 20)
#    0.000    2.154    2.308    2.769    1.077    1.846 
#    5.538    0.000    0.000    0.000    0.000    0.000 
#    0.000    0.000    0.000    0.000    0.000    0.000 
#
# Total GULP energy -322258.964578 kJ/mol
# GULP energy per Si atom -12394.575561 kJ/mol
# Density = 2.088053 g / cm^3
# Si number density = 20.928159 Si / 1000 Ang^3
#
#
#
# Elastic Constant Matrix: (Units=GPa)
#
#
# Indices 1 2 3 4 5 6 
#
# 1 88.9160 16.2867 11.5839 0.0000 0.0000 0.0000
# 2 16.2867 32.9309 0.6261 0.0000 0.0000 0.0000
# 3 11.5839 0.6261 93.3389 0.0000 0.0000 0.0000
# 4 0.0000 0.0000 0.0000 28.0527 0.0000 0.0000
# 5 0.0000 0.0000 0.0000 0.0000 24.2031 0.0000
# 6 0.0000 0.0000 0.0000 0.0000 0.0000 60.5386
#
#
#
# Elastic Compliance Matrix: (Units=1/GPa)
#
#
# Indices 1 2 3 4 5 6 
#
# 1 0.012579 -0.006192 -0.001520 0.000000 0.000000 0.000000
# 2 -0.006192 0.033419 0.000544 0.000000 0.000000 0.000000
# 3 -0.001520 0.000544 0.010899 0.000000 0.000000 0.000000
# 4 0.000000 0.000000 0.000000 0.035647 0.000000 0.000000
# 5 0.000000 0.000000 0.000000 0.000000 0.041317 0.000000
# 6 0.000000 0.000000 0.000000 0.000000 0.000000 0.016518
#
#
# Mechanical properties :
#
#
# Convention : Reuss Voigt Hill
#
# Bulk Modulus (GPa) = 23.49557 30.24214 26.86885
# Shear Modulus (GPa) = 27.94847 35.00482 31.47665
#
# Velocity S-wave (km/s) = 3.65834 4.09420 3.88239
# Velocity P-wave (km/s) = 5.39405 6.06892 5.74141
#
# Compressibility (1/GPa) = 0.04256122
#
# Stress axis : x y z
#
# Youngs Moduli (GPa) = 79.49905 29.92329 91.75505
#
# Poissons Ratio (x) = 0.18529 0.13943
# Poissons Ratio (y) = 0.49228 -0.04995
# Poissons Ratio (z) = 0.12080 -0.01629
#
# Static dielectric constant tensor:
#      x y z
#    x 3.750690 0.000000 0.000000 
#    y 0.000000 3.481670 0.000000 
#    z 0.000000 0.000000 3.867520 
# 
# 
# High freq. dielectric constant tensor:
#      x y z
#    x 1.819930 0.000000 0.000000 
#    y 0.000000 1.790880 0.000000 
#    z 0.000000 0.000000 1.816930 
# 
# From -- ./inp_files/10625.got.cif
#   From: 2010.03.12/outbox.cif.g09.slc.cpg/sg36_6_cif.got.tgz:10625.got - 2010.04.14 02:13:53.
