data_PCOD8176552
_publ_section_title
;
Structure prediction by ZEFSAII (Michael W. Deem and Ramdas Pophale) SiO2 
 PCOD8176552
Probable space group: C C C 2
;
_chemical_formula_sum "Si O2"
_cell_formula_units_Z 64
_cell_length_a 8.395863
_cell_length_b 16.409404
_cell_length_c 21.137176
_cell_angle_alpha 90.000000
_cell_angle_beta 90.000000
_cell_angle_gamma 90.000000
_cell_volume 2912.092155
_symmetry_space_group_name_H-M "C C C 2"
_symmetry_group_IT_number 37
_symmetry_cell_setting 'orthorhombic'
loop_
_space_group_symop_operation_xyz
x,y,z
-x,-y,z
-x,y,1/2+z
x,-y,1/2+z
1/2+x,1/2+y,z
1/2-x,1/2-y,z
1/2-x,1/2+y,1/2+z
1/2+x,1/2-y,1/2+z
loop_
_atom_site_type_symbol
_atom_site_label
_atom_site_fract_x
_atom_site_fract_y
_atom_site_fract_z
Si Si1 0.733507 0.531319 0.762110
Si Si2 0.866422 0.936518 0.145522
Si Si3 0.117444 0.679646 0.308802
Si Si4 0.278805 0.337716 0.941285
Si Si5 0.676459 0.030353 0.527727
Si Si6 0.487371 0.338596 0.250948
Si Si7 0.717413 0.121840 0.837602
Si Si8 0.404668 0.576212 0.952137
O O1 0.743798 0.479512 0.698371
O O2 0.856662 0.607314 0.758234
O O3 0.558782 0.572949 0.771672
O O4 0.788692 0.473649 0.819261
O O5 0.750837 0.918881 0.086504
O O6 0.942118 0.852325 0.175998
O O7 0.000000 0.000000 0.122706
O O8 0.253677 0.672086 0.364485
O O9 0.113120 0.766035 0.268554
O O10 0.949693 0.667113 0.342326
O O11 0.250000 0.250000 0.972785
O O12 0.456608 0.358832 0.966106
O O13 0.161173 0.407450 0.968423
O O14 0.500000 0.000000 0.544512
O O15 0.798734 0.955798 0.511483
O O16 0.326028 0.325660 0.289856
O O17 0.785612 0.124275 0.907350
O O18 0.500000 0.500000 0.920411
#
# Coordination Sequence:
#
# PCOD8176552 Si02
#       8
#     8   8   8   8   8   8   8   8
#     4  10  20  35  57  82 113 156 202 245 297 362
#     4   9  20  40  63  83 112 159 212 254 302 374
#     4  12  22  34  56  92 129 155 196 258 315 369
#     4  11  23  39  61  89 125 164 203 251 319 391
#     4  11  23  42  65  90 117 157 215 273 321 380
#     4  10  21  37  58  84 121 165 203 246 309 380
#     4  11  20  33  53  85 120 155 196 246 303 365
#     4  10  20  36  62  87 118 163 209 253 312 385
#
# _framework density 21.977326000000001
#
# number of rings (size 3 to 8) (size 9 to 14) (size 15 to 20)
#    0.000    1.500    0.000    8.625    0.000    2.000 
#    0.000    5.625    0.000    3.000    0.000    0.000 
#    0.000    0.000    0.000    0.000    0.000    0.000 
#
# Total GULP energy -396426.694313 kJ/mol
# GULP energy per Si atom -12388.334197 kJ/mol
# Density = 2.192731 g / cm^3
# Si number density = 21.977326 Si / 1000 Ang^3
#
#
#
# Elastic Constant Matrix: (Units=GPa)
#
#
# Indices 1 2 3 4 5 6 
#
# 1 105.9981 32.9009 34.6415 0.0000 0.0000 0.0000
# 2 32.9009 112.8185 28.5974 0.0000 0.0000 0.0000
# 3 34.6415 28.5974 91.2277 0.0000 0.0000 0.0000
# 4 0.0000 0.0000 0.0000 19.8037 0.0000 0.0000
# 5 0.0000 0.0000 0.0000 0.0000 29.3028 0.0000
# 6 0.0000 0.0000 0.0000 0.0000 0.0000 38.7873
#
#
#
# Elastic Compliance Matrix: (Units=1/GPa)
#
#
# Indices 1 2 3 4 5 6 
#
# 1 0.011342 -0.002407 -0.003552 0.000000 0.000000 0.000000
# 2 -0.002407 0.010140 -0.002264 0.000000 0.000000 0.000000
# 3 -0.003552 -0.002264 0.013020 0.000000 0.000000 0.000000
# 4 0.000000 0.000000 0.000000 0.050496 0.000000 0.000000
# 5 0.000000 0.000000 0.000000 0.000000 0.034126 0.000000
# 6 0.000000 0.000000 0.000000 0.000000 0.000000 0.025782
#
#
# Mechanical properties :
#
#
# Convention : Reuss Voigt Hill
#
# Bulk Modulus (GPa) = 55.38841 55.81375 55.60108
# Shear Modulus (GPa) = 29.87352 31.83907 30.85629
#
# Velocity S-wave (km/s) = 3.69085 3.81034 3.75107
# Velocity P-wave (km/s) = 6.58942 6.69399 6.64191
#
# Compressibility (1/GPa) = 0.01805432
#
# Stress axis : x y z
#
# Youngs Moduli (GPa) = 88.16575 98.62112 76.80294
#
# Poissons Ratio (x) = 0.23741 0.27283
# Poissons Ratio (y) = 0.21224 0.17392
# Poissons Ratio (z) = 0.31319 0.22332
#
# Static dielectric constant tensor:
#      x y z
#    x 4.083330 0.000000 0.000000 
#    y 0.000000 4.151910 0.000000 
#    z 0.000000 0.000000 3.693820 
# 
# 
# High freq. dielectric constant tensor:
#      x y z
#    x 1.873940 0.000000 0.000000 
#    y 0.000000 1.860760 0.000000 
#    z 0.000000 0.000000 1.828390 
# 
# From -- ./inp_files/16513.got.cif
#   From: 2010.03.12/outbox.cif.g09.slc.cpg/sg37_9_cif.got.tgz:16513.got - 2010.04.14 02:25:27.
