data_PCOD8176453
_publ_section_title
;
Structure prediction by ZEFSAII (Michael W. Deem and Ramdas Pophale) SiO2 
 PCOD8176453
Probable space group: C C C 2
;
_chemical_formula_sum "Si O2"
_cell_formula_units_Z 56
_cell_length_a 14.921316
_cell_length_b 7.470608
_cell_length_c 22.623469
_cell_angle_alpha 90.000000
_cell_angle_beta 90.000000
_cell_angle_gamma 90.000000
_cell_volume 2521.867561
_symmetry_space_group_name_H-M "C C C 2"
_symmetry_group_IT_number 37
_symmetry_cell_setting 'orthorhombic'
loop_
_space_group_symop_operation_xyz
x,y,z
-x,-y,z
-x,y,1/2+z
x,-y,1/2+z
1/2+x,1/2+y,z
1/2-x,1/2-y,z
1/2-x,1/2+y,1/2+z
1/2+x,1/2-y,1/2+z
loop_
_atom_site_type_symbol
_atom_site_label
_atom_site_fract_x
_atom_site_fract_y
_atom_site_fract_z
Si Si1 0.650156 0.784226 0.200960
Si Si2 0.000000 0.000000 0.024867
Si Si3 0.405906 0.707181 0.826662
Si Si4 0.750000 0.250000 0.906789
Si Si5 0.100369 0.196329 0.840320
Si Si6 0.993258 0.289517 0.119907
Si Si7 0.821034 0.115561 0.455971
Si Si8 0.345512 0.194984 0.714188
O O1 0.750000 0.750000 0.179561
O O2 0.622264 0.674206 0.258745
O O3 0.589190 0.729445 0.145664
O O4 0.638127 0.986429 0.221241
O O5 0.031288 0.829140 0.063382
O O6 0.914838 0.927010 0.988503
O O7 0.331595 0.815355 0.863896
O O8 0.504130 0.798067 0.834156
O O9 0.413746 0.512203 0.854057
O O10 0.725259 0.422056 0.945827
O O11 0.157387 0.244326 0.898609
O O12 0.153044 0.222633 0.779543
O O13 0.921400 0.235789 0.169972
O O14 0.000000 0.500000 0.103395
O O15 0.750000 0.250000 0.490229
O O16 0.250000 0.250000 0.686073
#
# Coordination Sequence:
#
# PCOD8176453 Si02
#       8
#     8   4   8   4   8   8   8   8
#     4  11  22  37  61 101 141 174 225 271 347 435
#     4  12  28  52  76  92 138 194 246 304 346 394
#     4  10  19  33  60  97 141 179 211 261 344 431
#     4  10  22  42  66 106 140 172 226 290 344 422
#     4  10  21  38  65  95 144 175 215 276 355 425
#     4  10  26  48  70 100 138 179 240 293 353 416
#     4  11  26  48  71 104 134 186 242 292 352 419
#     4  11  23  38  63 103 136 177 216 280 356 429
#
# _framework density 22.205765
#
# number of rings (size 3 to 8) (size 9 to 14) (size 15 to 20)
#    0.000    1.429    2.143    3.000    8.000    1.714 
#    3.857    1.429    0.000    0.000    0.000    0.000 
#    0.000    0.000    0.000    0.000    0.000    0.000 
#
# Total GULP energy -346984.288815 kJ/mol
# GULP energy per Si atom -12392.296029 kJ/mol
# Density = 2.215522 g / cm^3
# Si number density = 22.205765 Si / 1000 Ang^3
#
#
#
# Elastic Constant Matrix: (Units=GPa)
#
#
# Indices 1 2 3 4 5 6 
#
# 1 175.9241 31.4387 47.7585 0.0000 0.0000 0.0000
# 2 31.4387 69.4616 39.7106 0.0000 0.0000 0.0000
# 3 47.7585 39.7106 98.1857 0.0000 0.0000 0.0000
# 4 0.0000 0.0000 0.0000 29.8573 0.0000 0.0000
# 5 0.0000 0.0000 0.0000 0.0000 31.7993 0.0000
# 6 0.0000 0.0000 0.0000 0.0000 0.0000 33.4882
#
#
#
# Elastic Compliance Matrix: (Units=1/GPa)
#
#
# Indices 1 2 3 4 5 6 
#
# 1 0.006669 -0.001514 -0.002632 0.000000 0.000000 0.000000
# 2 -0.001514 0.019070 -0.006976 0.000000 0.000000 0.000000
# 3 -0.002632 -0.006976 0.014286 0.000000 0.000000 0.000000
# 4 0.000000 0.000000 0.000000 0.033493 0.000000 0.000000
# 5 0.000000 0.000000 0.000000 0.000000 0.031447 0.000000
# 6 0.000000 0.000000 0.000000 0.000000 0.000000 0.029861
#
#
# Mechanical properties :
#
#
# Convention : Reuss Voigt Hill
#
# Bulk Modulus (GPa) = 56.23780 64.59855 60.41817
# Shear Modulus (GPa) = 30.67525 34.00655 32.34090
#
# Velocity S-wave (km/s) = 3.72076 3.91759 3.82045
# Velocity P-wave (km/s) = 6.62114 7.04396 6.83582
#
# Compressibility (1/GPa) = 0.01778164
#
# Stress axis : x y z
#
# Youngs Moduli (GPa) = 149.94171 52.43839 69.99682
#
# Poissons Ratio (x) = 0.07939 0.18421
# Poissons Ratio (y) = 0.22702 0.48832
# Poissons Ratio (z) = 0.39459 0.36583
#
# Static dielectric constant tensor:
#      x y z
#    x 4.483700 0.000000 0.000000 
#    y 0.000000 3.814200 0.000000 
#    z 0.000000 0.000000 3.741360 
# 
# 
# High freq. dielectric constant tensor:
#      x y z
#    x 1.897860 0.000000 0.000000 
#    y 0.000000 1.869140 0.000000 
#    z 0.000000 0.000000 1.846570 
# 
# From -- ./inp_files/17215.got.cif
#   From: 2010.03.12/outbox.cif.g09.slc.cpg/sg37_9_cif.got.tgz:17215.got - 2010.04.14 02:25:27.
