data_PCOD8176949
_publ_section_title
;
Structure prediction by ZEFSAII (Michael W. Deem and Ramdas Pophale) SiO2 
 PCOD8176949
Probable space group: C C C 2
;
_chemical_formula_sum "Si O2"
_cell_formula_units_Z 36
_cell_length_a 9.486443
_cell_length_b 20.266430
_cell_length_c 9.986143
_cell_angle_alpha 90.000000
_cell_angle_beta 90.000000
_cell_angle_gamma 90.000000
_cell_volume 1919.899234
_symmetry_space_group_name_H-M "C C C 2"
_symmetry_group_IT_number 37
_symmetry_cell_setting 'orthorhombic'
loop_
_space_group_symop_operation_xyz
x,y,z
-x,-y,z
-x,y,1/2+z
x,-y,1/2+z
1/2+x,1/2+y,z
1/2-x,1/2-y,z
1/2-x,1/2+y,1/2+z
1/2+x,1/2-y,1/2+z
loop_
_atom_site_type_symbol
_atom_site_label
_atom_site_fract_x
_atom_site_fract_y
_atom_site_fract_z
Si Si1 0.372275 0.698123 0.846600
Si Si2 0.728417 0.553687 0.041407
Si Si3 0.271583 0.446313 0.342616
Si Si4 0.000000 0.500000 0.942011
Si Si5 0.127725 0.198123 0.037424
O O1 0.250000 0.750000 0.873016
O O2 0.316074 0.626251 0.888424
O O3 0.421491 0.699628 0.692012
O O4 0.500000 0.718260 0.942012
O O5 0.678391 0.538771 0.192011
O O6 0.683926 0.626251 0.995600
O O7 0.656102 0.500000 0.942011
O O8 0.899271 0.546853 0.032602
O O9 0.100729 0.453147 0.351421
O O10 0.250000 0.250000 0.011008
#
# Coordination Sequence:
#
# PCOD8176949 Si02
#       5
#     8   8   8   4   8
#     4  10  23  41  59  85 118 152 194 241 289 344
#     4   9  19  34  56  83 112 147 188 234 280 335
#     4   9  19  34  56  83 112 147 188 234 280 335
#     4   8  18  32  56  80 114 152 182 232 282 332
#     4  10  23  41  59  85 118 152 194 241 289 344
#
# _framework density 18.750983999999999
#
# number of rings (size 3 to 8) (size 9 to 14) (size 15 to 20)
#    1.333    1.333    0.000    0.667    3.111    3.556 
#    0.000    4.444    0.000    0.000    0.000    0.000 
#    0.000    0.000    0.000    0.000    0.000    0.000 
#
# Total GULP energy -223084.165321 kJ/mol
# GULP energy per Si atom -12393.564740 kJ/mol
# Density = 1.870831 g / cm^3
# Si number density = 18.750984 Si / 1000 Ang^3
#
#
#
# Elastic Constant Matrix: (Units=GPa)
#
#
# Indices 1 2 3 4 5 6 
#
# 1 85.4285 41.5087 53.4362 0.0000 0.0000 0.0000
# 2 41.5087 141.8635 74.8027 0.0000 0.0000 0.0000
# 3 53.4362 74.8027 108.3701 0.0000 0.0000 0.0000
# 4 0.0000 0.0000 0.0000 23.7208 0.0000 0.0000
# 5 0.0000 0.0000 0.0000 0.0000 30.8915 0.0000
# 6 0.0000 0.0000 0.0000 0.0000 0.0000 31.5069
#
#
#
# Elastic Compliance Matrix: (Units=1/GPa)
#
#
# Indices 1 2 3 4 5 6 
#
# 1 0.016994 -0.000871 -0.007779 0.000000 0.000000 0.000000
# 2 -0.000871 0.011127 -0.007251 0.000000 0.000000 0.000000
# 3 -0.007779 -0.007251 0.018068 0.000000 0.000000 0.000000
# 4 0.000000 0.000000 0.000000 0.042157 0.000000 0.000000
# 5 0.000000 0.000000 0.000000 0.000000 0.032371 0.000000
# 6 0.000000 0.000000 0.000000 0.000000 0.000000 0.031739
#
#
# Mechanical properties :
#
#
# Convention : Reuss Voigt Hill
#
# Bulk Modulus (GPa) = 69.49949 75.01747 72.25848
# Shear Modulus (GPa) = 26.44729 28.28483 27.36606
#
# Velocity S-wave (km/s) = 3.75967 3.88808 3.82441
# Velocity P-wave (km/s) = 7.48276 7.76211 7.62371
#
# Compressibility (1/GPa) = 0.01438860
#
# Stress axis : x y z
#
# Youngs Moduli (GPa) = 58.84274 89.86890 55.34545
#
# Poissons Ratio (x) = 0.07827 0.43051
# Poissons Ratio (y) = 0.05125 0.40132
# Poissons Ratio (z) = 0.45771 0.65166
#
# Static dielectric constant tensor:
#      x y z
#    x 3.192960 0.000000 0.000000 
#    y 0.000000 3.406570 0.000000 
#    z 0.000000 0.000000 3.339140 
# 
# 
# High freq. dielectric constant tensor:
#      x y z
#    x 1.716850 0.000000 0.000000 
#    y 0.000000 1.729910 0.000000 
#    z 0.000000 0.000000 1.727350 
# 
# From -- ./inp_files/6232.got.cif
#   From: 2010.03.12/outbox.cif.g09.slc.cpg/sg37_4_cif.got.tgz:6232.got - 2010.04.14 02:25:27.
