data_PCOD8176088
_publ_section_title
;
Structure prediction by ZEFSAII (Michael W. Deem and Ramdas Pophale) SiO2 
 PCOD8176088
Probable space group: C M C 21
;
_chemical_formula_sum "Si O2"
_cell_formula_units_Z 48
_cell_length_a 18.011950
_cell_length_b 9.226523
_cell_length_c 13.222626
_cell_angle_alpha 90.000000
_cell_angle_beta 90.000000
_cell_angle_gamma 90.000000
_cell_volume 2197.437419
_symmetry_space_group_name_H-M "C M C 21"
_symmetry_group_IT_number 36
_symmetry_cell_setting 'orthorhombic'
loop_
_space_group_symop_operation_xyz
x,y,z
-x,-y,1/2+z
x,-y,1/2+z
-x,y,z
1/2+x,1/2+y,z
1/2-x,1/2-y,1/2+z
1/2+x,1/2-y,1/2+z
1/2-x,1/2+y,z
loop_
_atom_site_type_symbol
_atom_site_label
_atom_site_fract_x
_atom_site_fract_y
_atom_site_fract_z
Si Si1 0.500000 0.491207 0.625000
Si Si2 0.000000 0.322956 0.374538
Si Si3 0.840356 0.884131 0.353857
Si Si4 0.500000 0.159085 0.634436
Si Si5 0.744535 0.115211 0.454527
Si Si6 0.000000 0.016479 0.859197
Si Si7 0.137679 0.830420 0.121287
Si Si8 0.108805 0.453702 0.529884
O O1 0.500000 0.324017 0.600643
O O2 0.500000 0.529752 0.740648
O O3 0.424952 0.559281 0.578377
O O4 0.000000 0.150517 0.394008
O O5 0.071269 0.395758 0.426672
O O6 0.000000 0.359482 0.255538
O O7 0.801619 0.746121 0.405178
O O8 0.837000 0.866779 0.233708
O O9 0.797208 0.034868 0.373671
O O10 0.925261 0.900272 0.395703
O O11 0.572040 0.091429 0.582729
O O12 0.792133 0.172316 0.547790
O O13 0.691361 0.992598 0.498847
O O14 0.104442 0.668848 0.116543
#
# Coordination Sequence:
#
# PCOD8176088 Si02
#       8
#     4   4   8   4   8   4   8   8
#     4   9  21  44  72 101 130 185 231 290 353 420
#     4  10  22  45  71 100 144 178 235 299 355 423
#     4  11  27  46  75 104 141 190 239 291 358 424
#     4  10  24  41  71 105 136 184 242 294 354 417
#     4  12  27  46  67 107 141 189 236 289 357 425
#     4   9  21  46  74 102 128 187 238 283 350 428
#     4  11  25  48  73  98 148 187 235 294 359 425
#     4  11  25  44  65 105 138 189 233 297 352 418
#
# _framework density 21.843626
#
# number of rings (size 3 to 8) (size 9 to 14) (size 15 to 20)
#    0.000    1.333    1.667    2.000    7.000    2.000 
#    3.000    0.000    0.000    0.000    0.000    0.000 
#    0.000    0.000    0.000    0.000    0.000    0.000 
#
# Total GULP energy -297554.119664 kJ/mol
# GULP energy per Si atom -12398.088319 kJ/mol
# Density = 2.179391 g / cm^3
# Si number density = 21.843626 Si / 1000 Ang^3
#
#
#
# Elastic Constant Matrix: (Units=GPa)
#
#
# Indices 1 2 3 4 5 6 
#
# 1 154.6738 81.4401 54.5194 0.0000 0.0000 0.0000
# 2 81.4401 155.1919 49.2029 0.0000 0.0000 0.0000
# 3 54.5194 49.2029 128.3019 0.0000 0.0000 0.0000
# 4 0.0000 0.0000 0.0000 39.6920 0.0000 0.0000
# 5 0.0000 0.0000 0.0000 0.0000 2.1257 0.0000
# 6 0.0000 0.0000 0.0000 0.0000 0.0000 36.1123
#
#
#
# Elastic Compliance Matrix: (Units=1/GPa)
#
#
# Indices 1 2 3 4 5 6 
#
# 1 0.009558 -0.004244 -0.002434 0.000000 0.000000 0.000000
# 2 -0.004244 0.009220 -0.001732 0.000000 0.000000 0.000000
# 3 -0.002434 -0.001732 0.009493 0.000000 0.000000 0.000000
# 4 0.000000 0.000000 0.000000 0.025194 0.000000 0.000000
# 5 0.000000 0.000000 0.000000 0.000000 0.470434 0.000000
# 6 0.000000 0.000000 0.000000 0.000000 0.000000 0.027691
#
#
# Mechanical properties :
#
#
# Convention : Reuss Voigt Hill
#
# Bulk Modulus (GPa) = 87.33646 89.83249 88.58447
# Shear Modulus (GPa) = 8.73779 32.45301 20.59540
#
# Velocity S-wave (km/s) = 2.00221 3.85866 3.07393
# Velocity P-wave (km/s) = 6.73903 7.81453 7.29662
#
# Compressibility (1/GPa) = 0.01144997
#
# Stress axis : x y z
#
# Youngs Moduli (GPa) = 104.62835 108.46009 105.34425
#
# Poissons Ratio (x) = 0.46030 0.25639
# Poissons Ratio (y) = 0.44404 0.18250
# Poissons Ratio (z) = 0.25465 0.18790
#
# Static dielectric constant tensor:
#      x y z
#    x 4.278270 0.000000 0.000000 
#    y 0.000000 4.057170 0.000000 
#    z 0.000000 0.000000 3.878340 
# 
# 
# High freq. dielectric constant tensor:
#      x y z
#    x 1.871640 0.000000 0.000000 
#    y 0.000000 1.872060 0.000000 
#    z 0.000000 0.000000 1.865620 
# 
# From -- ./inp_files/12518.got.cif
#   From: 2010.03.12/outbox.cif.g09.slc.cpg/sg36_7_cif.got.tgz:12518.got - 2010.04.14 02:13:53.
