data_PCOD8176317
_publ_section_title
;
Structure prediction by ZEFSAII (Michael W. Deem and Ramdas Pophale) SiO2 
 PCOD8176317
Probable space group: C M C 21
;
_chemical_formula_sum "Si O2"
_cell_formula_units_Z 40
_cell_length_a 11.288445
_cell_length_b 17.578740
_cell_length_c 8.950603
_cell_angle_alpha 90.000000
_cell_angle_beta 90.000000
_cell_angle_gamma 90.000000
_cell_volume 1776.127582
_symmetry_space_group_name_H-M "C M C 21"
_symmetry_group_IT_number 36
_symmetry_cell_setting 'orthorhombic'
loop_
_space_group_symop_operation_xyz
x,y,z
-x,-y,1/2+z
x,-y,1/2+z
-x,y,z
1/2+x,1/2+y,z
1/2-x,1/2-y,1/2+z
1/2+x,1/2-y,1/2+z
1/2-x,1/2+y,z
loop_
_atom_site_type_symbol
_atom_site_label
_atom_site_fract_x
_atom_site_fract_y
_atom_site_fract_z
Si Si1 0.364387 0.178653 0.252560
Si Si2 0.213605 0.841036 0.267070
Si Si3 0.864782 0.572754 0.973078
Si Si4 0.273732 0.416896 0.961535
Si Si5 0.500000 0.599536 0.931150
Si Si6 0.000000 0.057348 0.277436
O O1 0.500000 0.205603 0.256252
O O2 0.282738 0.252436 0.220728
O O3 0.343194 0.114884 0.128280
O O4 0.330061 0.140184 0.409782
O O5 0.338433 0.868722 0.337264
O O6 0.116041 0.850576 0.397918
O O7 0.183336 0.893246 0.125302
O O8 0.000000 0.544000 0.957526
O O9 0.773401 0.503067 0.964490
O O10 0.382748 0.405505 0.848442
O O11 0.500000 0.531093 0.813823
O O12 0.500000 0.569376 0.099980
#
# Coordination Sequence:
#
# PCOD8176317 Si02
#       6
#     8   8   8   8   4   4
#     4  11  25  46  69 100 144 188 235 294 360 423
#     4  12  24  45  71 100 146 183 236 295 352 427
#     4  11  25  45  71 101 141 188 238 295 349 425
#     4  12  25  43  72 105 137 192 241 292 354 422
#     4  12  24  44  70 104 140 183 230 298 356 419
#     4  12  26  42  72 108 138 181 242 294 352 425
#
# _framework density 22.520904999999999
#
# number of rings (size 3 to 8) (size 9 to 14) (size 15 to 20)
#    0.000    0.400    3.000    6.000    0.000    3.200 
#    1.800    0.000    0.000    0.000    0.000    0.000 
#    0.000    0.000    0.000    0.000    0.000    0.000 
#
# Total GULP energy -248101.572752 kJ/mol
# GULP energy per Si atom -12405.078638 kJ/mol
# Density = 2.246965 g / cm^3
# Si number density = 22.520905 Si / 1000 Ang^3
#
#
#
# Elastic Constant Matrix: (Units=GPa)
#
#
# Indices 1 2 3 4 5 6 
#
# 1 88.2296 46.5369 56.1044 0.0000 0.0000 0.0000
# 2 46.5369 116.5540 35.0284 0.0000 0.0000 0.0000
# 3 56.1044 35.0284 129.9009 0.0000 0.0000 0.0000
# 4 0.0000 0.0000 0.0000 31.2014 0.0000 0.0000
# 5 0.0000 0.0000 0.0000 0.0000 32.7688 0.0000
# 6 0.0000 0.0000 0.0000 0.0000 0.0000 31.5583
#
#
#
# Elastic Compliance Matrix: (Units=1/GPa)
#
#
# Indices 1 2 3 4 5 6 
#
# 1 0.018252 -0.005352 -0.006440 0.000000 0.000000 0.000000
# 2 -0.005352 0.010906 -0.000629 0.000000 0.000000 0.000000
# 3 -0.006440 -0.000629 0.010649 0.000000 0.000000 0.000000
# 4 0.000000 0.000000 0.000000 0.032050 0.000000 0.000000
# 5 0.000000 0.000000 0.000000 0.000000 0.030517 0.000000
# 6 0.000000 0.000000 0.000000 0.000000 0.000000 0.031687
#
#
# Mechanical properties :
#
#
# Convention : Reuss Voigt Hill
#
# Bulk Modulus (GPa) = 66.82409 67.78041 67.30225
# Shear Modulus (GPa) = 30.50789 32.24002 31.37395
#
# Velocity S-wave (km/s) = 3.68455 3.78770 3.73648
# Velocity P-wave (km/s) = 6.91647 7.02075 6.96881
#
# Compressibility (1/GPa) = 0.01496466
#
# Stress axis : x y z
#
# Youngs Moduli (GPa) = 54.78801 91.69446 93.90343
#
# Poissons Ratio (x) = 0.49077 0.60473
# Poissons Ratio (y) = 0.29324 0.05908
# Poissons Ratio (z) = 0.35283 0.05769
#
# Static dielectric constant tensor:
#      x y z
#    x 4.179290 0.000000 0.000000 
#    y 0.000000 3.960640 0.000000 
#    z 0.000000 0.000000 4.002950 
# 
# 
# High freq. dielectric constant tensor:
#      x y z
#    x 1.891410 0.000000 0.000000 
#    y 0.000000 1.890170 0.000000 
#    z 0.000000 0.000000 1.892940 
# 
# From -- ./inp_files/3073.got.cif
#   From: 2010.03.12/outbox.cif.g09.slc.cpg/sg36_2_cif.got.tgz:3073.got - 2010.04.14 02:13:53.
