data_PCOD8176759
_publ_section_title
;
Structure prediction by ZEFSAII (Michael W. Deem and Ramdas Pophale) SiO2 
 PCOD8176759
Probable space group: C C C 2
;
_chemical_formula_sum "Si O2"
_cell_formula_units_Z 64
_cell_length_a 8.659522
_cell_length_b 23.775724
_cell_length_c 15.369796
_cell_angle_alpha 90.000000
_cell_angle_beta 90.000000
_cell_angle_gamma 90.000000
_cell_volume 3164.432045
_symmetry_space_group_name_H-M "C C C 2"
_symmetry_group_IT_number 37
_symmetry_cell_setting 'orthorhombic'
loop_
_space_group_symop_operation_xyz
x,y,z
-x,-y,z
-x,y,1/2+z
x,-y,1/2+z
1/2+x,1/2+y,z
1/2-x,1/2-y,z
1/2-x,1/2+y,1/2+z
1/2+x,1/2-y,1/2+z
loop_
_atom_site_type_symbol
_atom_site_label
_atom_site_fract_x
_atom_site_fract_y
_atom_site_fract_z
Si Si1 0.182684 0.620642 0.848120
Si Si2 0.682133 0.612583 0.027277
Si Si3 0.182919 0.501460 0.777802
Si Si4 0.180652 0.118536 0.527360
Si Si5 0.819433 0.383907 0.349579
Si Si6 0.316541 0.002322 0.582132
Si Si7 0.820793 0.688774 0.177583
Si Si8 0.684410 0.188928 0.182263
O O1 0.241889 0.558177 0.823332
O O2 0.223986 0.663375 0.770905
O O3 0.001176 0.619579 0.867585
O O4 0.275120 0.642297 0.932258
O O5 0.500260 0.611099 0.037368
O O6 0.748465 0.549712 0.029234
O O7 0.754643 0.649139 0.103349
O O8 0.729974 0.639090 0.934183
O O9 0.238613 0.447559 0.831915
O O10 0.249691 0.499037 0.680096
O O11 0.000000 0.500000 0.770124
O O12 0.236144 0.162975 0.598047
O O13 0.265715 0.059308 0.536314
O O14 0.772507 0.347434 0.266424
O O15 0.500000 0.000000 0.578910
O O16 0.750000 0.750000 0.168101
O O17 0.003161 0.691182 0.165498
O O18 0.750000 0.250000 0.199822
#
# Coordination Sequence:
#
# PCOD8176759 Si02
#       8
#     8   8   8   8   8   8   8   8
#     4  10  21  40  66  93 123 165 212 255 310 375
#     4  12  25  40  62  97 133 166 206 256 315 375
#     4   9  17  35  64  93 119 158 205 252 306 369
#     4  12  25  40  62  97 133 166 206 256 315 375
#     4  10  21  40  66  93 123 165 212 255 310 375
#     4  11  20  39  66  93 127 168 211 254 312 375
#     4  11  24  44  68  92 122 165 214 264 315 368
#     4  11  24  44  68  92 122 165 214 264 315 368
#
# _framework density 20.224799000000001
#
# number of rings (size 3 to 8) (size 9 to 14) (size 15 to 20)
#    0.000    1.250    2.500    4.125    0.000    4.000 
#    0.000    2.500    0.000    0.000    0.000    0.000 
#    0.000    0.000    0.000    0.000    0.000    0.000 
#
# Total GULP energy -396958.401855 kJ/mol
# GULP energy per Si atom -12404.950058 kJ/mol
# Density = 2.017877 g / cm^3
# Si number density = 20.224799 Si / 1000 Ang^3
#
#
#
# Elastic Constant Matrix: (Units=GPa)
#
#
# Indices 1 2 3 4 5 6 
#
# 1 89.8840 19.2839 39.7769 0.0000 0.0000 0.0000
# 2 19.2839 72.6087 4.3870 0.0000 0.0000 0.0000
# 3 39.7769 4.3870 119.0492 0.0000 0.0000 0.0000
# 4 0.0000 0.0000 0.0000 -1.2462 0.0000 0.0000
# 5 0.0000 0.0000 0.0000 0.0000 20.4356 0.0000
# 6 0.0000 0.0000 0.0000 0.0000 0.0000 27.3490
#
#
#
# Elastic Compliance Matrix: (Units=1/GPa)
#
#
# Indices 1 2 3 4 5 6 
#
# 1 0.013848 -0.003406 -0.004501 0.000000 0.000000 0.000000
# 2 -0.003406 0.014641 0.000598 0.000000 0.000000 0.000000
# 3 -0.004501 0.000598 0.009882 0.000000 0.000000 0.000000
# 4 0.000000 0.000000 0.000000 -0.802442 0.000000 0.000000
# 5 0.000000 0.000000 0.000000 0.000000 0.048934 0.000000
# 6 0.000000 0.000000 0.000000 0.000000 0.000000 0.036564
#
#
# Mechanical properties :
#
#
# Convention : Reuss Voigt Hill
#
# Bulk Modulus (GPa) = 42.09975 45.38194 43.74084
# Shear Modulus (GPa) = -7.62152 23.84728 8.11288
#
# Velocity S-wave (km/s) = -1.94334 3.43754 2.00501
# Velocity P-wave (km/s) = 3.97815 6.18410 5.19946
#
# Compressibility (1/GPa) = 0.02375311
#
# Stress axis : x y z
#
# Youngs Moduli (GPa) = 72.21138 68.30196 101.19530
#
# Poissons Ratio (x) = 0.23263 0.45553
# Poissons Ratio (y) = 0.24595 -0.06056
# Poissons Ratio (z) = 0.32506 -0.04088
#
# Static dielectric constant tensor:
#      x y z
#    x 3.526380 0.000000 0.000000 
#    y 0.000000 3.722510 0.000000 
#    z 0.000000 0.000000 3.913160 
# 
# 
# High freq. dielectric constant tensor:
#      x y z
#    x 1.779210 0.000000 0.000000 
#    y 0.000000 1.788960 0.000000 
#    z 0.000000 0.000000 1.810450 
# 
# From -- ./inp_files/11006.got.cif
#   From: 2010.03.12/outbox.cif.g09.slc.cpg/sg37_6_cif.got.tgz:11006.got - 2010.04.14 02:25:27.
