data_PCOD8176292
_publ_section_title
;
Structure prediction by ZEFSAII (Michael W. Deem and Ramdas Pophale) SiO2 
 PCOD8176292
Probable space group: C M C 21
;
_chemical_formula_sum "Si O2"
_cell_formula_units_Z 40
_cell_length_a 12.238701
_cell_length_b 16.801194
_cell_length_c 8.443250
_cell_angle_alpha 90.000000
_cell_angle_beta 90.000000
_cell_angle_gamma 90.000000
_cell_volume 1736.141507
_symmetry_space_group_name_H-M "C M C 21"
_symmetry_group_IT_number 36
_symmetry_cell_setting 'orthorhombic'
loop_
_space_group_symop_operation_xyz
x,y,z
-x,-y,1/2+z
x,-y,1/2+z
-x,y,z
1/2+x,1/2+y,z
1/2-x,1/2-y,1/2+z
1/2+x,1/2-y,1/2+z
1/2-x,1/2+y,z
loop_
_atom_site_type_symbol
_atom_site_label
_atom_site_fract_x
_atom_site_fract_y
_atom_site_fract_z
Si Si1 0.380014 0.614242 0.948350
Si Si2 0.000000 0.602539 0.938952
Si Si3 0.717354 0.851195 0.912088
Si Si4 0.500000 0.923805 0.065924
Si Si5 0.190626 0.710572 0.073165
Si Si6 0.876968 0.025834 0.259861
O O1 0.500000 0.652210 0.940686
O O2 0.307363 0.686272 0.002886
O O3 0.349903 0.568438 0.785298
O O4 0.371034 0.541842 0.074224
O O5 0.000000 0.585561 0.753790
O O6 0.102816 0.656216 0.985486
O O7 0.000000 0.518425 0.030489
O O8 0.608438 0.881637 0.999092
O O9 0.804300 0.803443 0.023862
O O10 0.680479 0.796760 0.761779
O O11 0.783712 0.925668 0.848737
O O12 0.000000 0.044900 0.324067
#
# Coordination Sequence:
#
# PCOD8176292 Si02
#       6
#     8   4   8   4   8   8
#     4   9  19  36  59  87 120 157 199 250 308 375
#     4  12  26  46  70  96 133 178 229 284 338 402
#     4  11  24  41  64  95 131 170 217 269 329 396
#     4  12  26  46  70  96 133 178 229 284 338 402
#     4  11  24  41  64  95 131 170 217 269 329 396
#     4   9  19  36  59  87 120 157 199 250 308 375
#
# _framework density 23.039597000000001
#
# number of rings (size 3 to 8) (size 9 to 14) (size 15 to 20)
#    0.000    1.600    0.000    4.200    2.800    6.400 
#    0.000    0.000    0.000    0.000    0.000    0.000 
#    0.000    0.000    0.000    0.000    0.000    0.000 
#
# Total GULP energy -247858.737746 kJ/mol
# GULP energy per Si atom -12392.936887 kJ/mol
# Density = 2.298716 g / cm^3
# Si number density = 23.039597 Si / 1000 Ang^3
#
#
#
# Elastic Constant Matrix: (Units=GPa)
#
#
# Indices 1 2 3 4 5 6 
#
# 1 86.2650 25.8541 31.1779 0.0000 0.0000 0.0000
# 2 25.8541 65.2125 21.1247 0.0000 0.0000 0.0000
# 3 31.1779 21.1247 76.8301 0.0000 0.0000 0.0000
# 4 0.0000 0.0000 0.0000 45.9154 0.0000 0.0000
# 5 0.0000 0.0000 0.0000 0.0000 -9.9042 0.0000
# 6 0.0000 0.0000 0.0000 0.0000 0.0000 35.6789
#
#
#
# Elastic Compliance Matrix: (Units=1/GPa)
#
#
# Indices 1 2 3 4 5 6 
#
# 1 0.014580 -0.004242 -0.004750 0.000000 0.000000 0.000000
# 2 -0.004242 0.018068 -0.003247 0.000000 0.000000 0.000000
# 3 -0.004750 -0.003247 0.015836 0.000000 0.000000 0.000000
# 4 0.000000 0.000000 0.000000 0.021779 0.000000 0.000000
# 5 0.000000 0.000000 0.000000 0.000000 -0.100968 0.000000
# 6 0.000000 0.000000 0.000000 0.000000 0.000000 0.028028
#
#
# Mechanical properties :
#
#
# Convention : Reuss Voigt Hill
#
# Bulk Modulus (GPa) = 41.65462 42.73565 42.19514
# Shear Modulus (GPa) = 167.76746 24.34809 96.05777
#
# Velocity S-wave (km/s) = 8.54255 3.25436 6.46398
# Velocity P-wave (km/s) = 10.74332 5.71928 8.60608
#
# Compressibility (1/GPa) = 0.02400694
#
# Stress axis : x y z
#
# Youngs Moduli (GPa) = 68.58539 55.34714 63.14675
#
# Poissons Ratio (x) = 0.23476 0.29998
# Poissons Ratio (y) = 0.29092 0.20501
# Poissons Ratio (z) = 0.32581 0.17969
#
# Static dielectric constant tensor:
#      x y z
#    x 5.712580 0.000000 0.000000 
#    y 0.000000 4.072040 0.000000 
#    z 0.000000 0.000000 4.396650 
# 
# 
# High freq. dielectric constant tensor:
#      x y z
#    x 1.917580 0.000000 0.000000 
#    y 0.000000 1.911240 0.000000 
#    z 0.000000 0.000000 1.920920 
# 
# From -- ./inp_files/3085.got.cif
#   From: 2010.03.12/outbox.cif.g09.slc.cpg/sg36_2_cif.got.tgz:3085.got - 2010.04.14 02:13:53.
