data_PCOD8176425
_publ_section_title
;
Structure prediction by ZEFSAII (Michael W. Deem and Ramdas Pophale) SiO2 
 PCOD8176425
Probable space group: C C C 2
;
_chemical_formula_sum "Si O2"
_cell_formula_units_Z 48
_cell_length_a 12.138160
_cell_length_b 12.860684
_cell_length_c 14.839845
_cell_angle_alpha 90.000000
_cell_angle_beta 90.000000
_cell_angle_gamma 90.000000
_cell_volume 2316.574599
_symmetry_space_group_name_H-M "C C C 2"
_symmetry_group_IT_number 37
_symmetry_cell_setting 'orthorhombic'
loop_
_space_group_symop_operation_xyz
x,y,z
-x,-y,z
-x,y,1/2+z
x,-y,1/2+z
1/2+x,1/2+y,z
1/2-x,1/2-y,z
1/2-x,1/2+y,1/2+z
1/2+x,1/2-y,1/2+z
loop_
_atom_site_type_symbol
_atom_site_label
_atom_site_fract_x
_atom_site_fract_y
_atom_site_fract_z
Si Si1 0.781841 0.113322 0.244190
Si Si2 0.500000 0.500000 0.028992
Si Si3 0.750000 0.750000 0.577081
Si Si4 0.684879 0.412949 0.660308
Si Si5 0.932728 0.709841 0.794906
Si Si6 0.030442 0.226362 0.476458
Si Si7 0.596709 0.197713 0.644248
O O1 0.756372 0.148896 0.141249
O O2 0.891681 0.172749 0.275571
O O3 0.676745 0.138882 0.307778
O O4 0.805507 0.990478 0.245742
O O5 0.392570 0.470681 0.087804
O O6 0.473086 0.600546 0.967552
O O7 0.852364 0.736711 0.511399
O O8 0.637948 0.303203 0.694187
O O9 0.810159 0.389481 0.627045
O O10 0.999492 0.659599 0.710585
O O11 0.007906 0.714347 0.883089
O O12 0.939436 0.267564 0.545522
#
# Coordination Sequence:
#
# PCOD8176425 Si02
#       7
#     8   4   4   8   8   8   8
#     4  10  19  40  62  86 117 167 204 234 314 377
#     4  10  20  36  62  96 112 164 212 250 314 368
#     4  10  18  38  64  82 118 164 196 242 302 374
#     4  10  20  35  65  84 120 159 204 252 310 366
#     4  10  22  37  62  88 120 163 201 253 303 370
#     4  11  21  39  62  90 125 155 210 255 308 369
#     4  10  21  38  59  90 121 158 203 262 305 352
#
# _framework density 20.720248000000002
#
# number of rings (size 3 to 8) (size 9 to 14) (size 15 to 20)
#    0.000    2.000    5.000    1.000    0.000    8.667 
#    0.000    0.000    7.333    0.000    0.000    0.000 
#    0.000    0.000    0.000    0.000    0.000    0.000 
#
# Total GULP energy -297408.632722 kJ/mol
# GULP energy per Si atom -12392.026363 kJ/mol
# Density = 2.067309 g / cm^3
# Si number density = 20.720248 Si / 1000 Ang^3
#
#
#
# Elastic Constant Matrix: (Units=GPa)
#
#
# Indices 1 2 3 4 5 6 
#
# 1 116.5291 13.8488 29.6546 0.0000 0.0000 0.0000
# 2 13.8488 57.5687 8.1678 0.0000 0.0000 0.0000
# 3 29.6546 8.1678 84.1860 0.0000 0.0000 0.0000
# 4 0.0000 0.0000 0.0000 16.6650 0.0000 0.0000
# 5 0.0000 0.0000 0.0000 0.0000 36.6893 0.0000
# 6 0.0000 0.0000 0.0000 0.0000 0.0000 29.7965
#
#
#
# Elastic Compliance Matrix: (Units=1/GPa)
#
#
# Indices 1 2 3 4 5 6 
#
# 1 0.009619 -0.001859 -0.003208 0.000000 0.000000 0.000000
# 2 -0.001859 0.017972 -0.001089 0.000000 0.000000 0.000000
# 3 -0.003208 -0.001089 0.013114 0.000000 0.000000 0.000000
# 4 0.000000 0.000000 0.000000 0.060006 0.000000 0.000000
# 5 0.000000 0.000000 0.000000 0.000000 0.027256 0.000000
# 6 0.000000 0.000000 0.000000 0.000000 0.000000 0.033561
#
#
# Mechanical properties :
#
#
# Convention : Reuss Voigt Hill
#
# Bulk Modulus (GPa) = 35.21883 40.18069 37.69976
# Shear Modulus (GPa) = 27.27710 30.40433 28.84072
#
# Velocity S-wave (km/s) = 3.63222 3.83479 3.73488
# Velocity P-wave (km/s) = 5.88430 6.24832 6.06904
#
# Compressibility (1/GPa) = 0.02839390
#
# Stress axis : x y z
#
# Youngs Moduli (GPa) = 103.96302 55.64155 76.25388
#
# Poissons Ratio (x) = 0.10343 0.24461
# Poissons Ratio (y) = 0.19324 0.08303
# Poissons Ratio (z) = 0.33350 0.06059
#
# Static dielectric constant tensor:
#      x y z
#    x 3.981840 0.000000 0.000000 
#    y 0.000000 3.809310 0.000000 
#    z 0.000000 0.000000 3.300630 
# 
# 
# High freq. dielectric constant tensor:
#      x y z
#    x 1.830600 0.000000 0.000000 
#    y 0.000000 1.797540 0.000000 
#    z 0.000000 0.000000 1.769560 
# 
# From -- ./inp_files/11538.got.cif
#   From: 2010.03.12/outbox.cif.g09.slc.cpg/sg37_6_cif.got.tgz:11538.got - 2010.04.14 02:25:27.
