data_PCOD8176854
_publ_section_title
;
Structure prediction by ZEFSAII (Michael W. Deem and Ramdas Pophale) SiO2 
 PCOD8176854
Probable space group: C C C 2
;
_chemical_formula_sum "Si O2"
_cell_formula_units_Z 60
_cell_length_a 10.515058
_cell_length_b 30.491036
_cell_length_c 8.912932
_cell_angle_alpha 90.000000
_cell_angle_beta 90.000000
_cell_angle_gamma 90.000000
_cell_volume 2857.619800
_symmetry_space_group_name_H-M "C C C 2"
_symmetry_group_IT_number 37
_symmetry_cell_setting 'orthorhombic'
loop_
_space_group_symop_operation_xyz
x,y,z
-x,-y,z
-x,y,1/2+z
x,-y,1/2+z
1/2+x,1/2+y,z
1/2-x,1/2-y,z
1/2-x,1/2+y,1/2+z
1/2+x,1/2-y,1/2+z
loop_
_atom_site_type_symbol
_atom_site_label
_atom_site_fract_x
_atom_site_fract_y
_atom_site_fract_z
Si Si1 0.490492 0.671940 0.296690
Si Si2 0.749009 0.035625 0.948797
Si Si3 0.148590 0.377324 0.484580
Si Si4 0.500000 0.000000 0.560374
Si Si5 0.607532 0.527902 0.157025
Si Si6 0.324764 0.705020 0.035166
Si Si7 0.632686 0.617301 0.053856
Si Si8 0.909171 0.405877 0.650571
O O1 0.566828 0.704636 0.406666
O O2 0.595243 0.648882 0.191419
O O3 0.410256 0.636998 0.394691
O O4 0.390458 0.699269 0.197466
O O5 0.610487 0.014439 0.948502
O O6 0.847702 0.004462 0.027667
O O7 0.744723 0.083033 0.031400
O O8 0.782753 0.041858 0.773087
O O9 0.222494 0.332454 0.504065
O O10 0.108176 0.387684 0.315883
O O11 0.022110 0.376357 0.583383
O O12 0.450096 0.957523 0.653993
O O13 0.500000 0.500000 0.244119
O O14 0.555163 0.571828 0.077369
O O15 0.250000 0.750000 0.031279
O O16 0.782408 0.604734 0.052282
#
# Coordination Sequence:
#
# PCOD8176854 Si02
#       8
#     8   8   8   4   8   8   8   8
#     4  10  25  46  77 102 138 186 214 289 355 415
#     4  11  23  41  56  89 130 173 236 277 336 388
#     4  11  25  42  66  96 133 179 226 286 344 411
#     4  10  22  40  64  88 138 184 232 290 334 392
#     4  12  26  35  59  91 129 182 232 284 322 396
#     4  11  25  50  76 107 140 169 229 284 355 429
#     4  11  23  46  67  96 141 181 235 275 345 409
#     4  11  23  42  65  97 135 183 233 281 338 398
#
# _framework density 20.996493999999998
#
# number of rings (size 3 to 8) (size 9 to 14) (size 15 to 20)
#    0.000    1.067    4.000    0.400    9.333    8.000 
#    0.000    1.333    0.000    0.000    0.000    0.000 
#    0.000    0.000    0.000    0.000    0.000    0.000 
#
# Total GULP energy -371898.582801 kJ/mol
# GULP energy per Si atom -12396.619427 kJ/mol
# Density = 2.094871 g / cm^3
# Si number density = 20.996494 Si / 1000 Ang^3
#
#
#
# Elastic Constant Matrix: (Units=GPa)
#
#
# Indices 1 2 3 4 5 6 
#
# 1 113.8460 70.1770 52.0548 0.0000 0.0000 0.0000
# 2 70.1770 153.4941 54.4110 0.0000 0.0000 0.0000
# 3 52.0548 54.4110 104.6859 0.0000 0.0000 0.0000
# 4 0.0000 0.0000 0.0000 22.7941 0.0000 0.0000
# 5 0.0000 0.0000 0.0000 0.0000 27.3393 0.0000
# 6 0.0000 0.0000 0.0000 0.0000 0.0000 41.6005
#
#
#
# Elastic Compliance Matrix: (Units=1/GPa)
#
#
# Indices 1 2 3 4 5 6 
#
# 1 0.013678 -0.004710 -0.004353 0.000000 0.000000 0.000000
# 2 -0.004710 0.009608 -0.002652 0.000000 0.000000 0.000000
# 3 -0.004353 -0.002652 0.013095 0.000000 0.000000 0.000000
# 4 0.000000 0.000000 0.000000 0.043871 0.000000 0.000000
# 5 0.000000 0.000000 0.000000 0.000000 0.036577 0.000000
# 6 0.000000 0.000000 0.000000 0.000000 0.000000 0.024038
#
#
# Mechanical properties :
#
#
# Convention : Reuss Voigt Hill
#
# Bulk Modulus (GPa) = 77.21384 80.59019 78.90201
# Shear Modulus (GPa) = 29.65327 31.37231 30.51279
#
# Velocity S-wave (km/s) = 3.76213 3.86964 3.81626
# Velocity P-wave (km/s) = 7.46498 7.64405 7.55505
#
# Compressibility (1/GPa) = 0.01295105
#
# Stress axis : x y z
#
# Youngs Moduli (GPa) = 73.11171 104.07454 76.36380
#
# Poissons Ratio (x) = 0.49023 0.33241
# Poissons Ratio (y) = 0.34438 0.20251
# Poissons Ratio (z) = 0.31825 0.27599
#
# Static dielectric constant tensor:
#      x y z
#    x 6.418420 0.000000 0.000000 
#    y 0.000000 3.909390 0.000000 
#    z 0.000000 0.000000 3.711810 
# 
# 
# High freq. dielectric constant tensor:
#      x y z
#    x 1.841960 0.000000 0.000000 
#    y 0.000000 1.804020 0.000000 
#    z 0.000000 0.000000 1.825420 
# 
# From -- ./inp_files/3056.got.cif
#   From: 2010.03.12/outbox.cif.g09.slc.cpg/sg37_2_cif.got.tgz:3056.got - 2010.04.14 02:25:27.
