data_PCOD8176757
_publ_section_title
;
Structure prediction by ZEFSAII (Michael W. Deem and Ramdas Pophale) SiO2 
 PCOD8176757
Probable space group: C C C 2
;
_chemical_formula_sum "Si O2"
_cell_formula_units_Z 36
_cell_length_a 22.135307
_cell_length_b 12.141769
_cell_length_c 5.260138
_cell_angle_alpha 90.000000
_cell_angle_beta 90.000000
_cell_angle_gamma 90.000000
_cell_volume 1413.724075
_symmetry_space_group_name_H-M "C C C 2"
_symmetry_group_IT_number 37
_symmetry_cell_setting 'orthorhombic'
loop_
_space_group_symop_operation_xyz
x,y,z
-x,-y,z
-x,y,1/2+z
x,-y,1/2+z
1/2+x,1/2+y,z
1/2-x,1/2-y,z
1/2-x,1/2+y,1/2+z
1/2+x,1/2-y,1/2+z
loop_
_atom_site_type_symbol
_atom_site_label
_atom_site_fract_x
_atom_site_fract_y
_atom_site_fract_z
Si Si1 0.750000 0.250000 0.733040
Si Si2 0.289147 0.543455 0.512164
Si Si3 0.078046 0.052461 0.461409
Si Si4 0.658897 0.068699 0.849676
Si Si5 0.460372 0.201287 0.414749
O O1 0.706586 0.325706 0.551833
O O2 0.705629 0.171855 0.896182
O O3 0.253250 0.512894 0.253116
O O4 0.351634 0.479356 0.471310
O O5 0.071076 0.179730 0.402095
O O6 0.047938 0.982048 0.230191
O O7 0.590787 0.109957 0.889479
O O8 0.668024 0.028992 0.555750
O O9 0.493007 0.186534 0.684448
#
# Coordination Sequence:
#
# PCOD8176757 Si02
#       5
#     4   8   8   8   8
#     4  12  26  48  76 110 150 194 246 300 372 446
#     4  10  22  40  66  98 139 185 230 292 355 423
#     4  10  21  40  66 100 140 182 231 294 359 421
#     4  12  29  50  77 111 147 194 247 303 368 438
#     4  12  27  47  75 107 145 196 249 305 368 437
#
# _framework density 25.464658
#
# number of rings (size 3 to 8) (size 9 to 14) (size 15 to 20)
#    0.000    0.889    0.000    6.667    0.000   14.222 
#    0.000    0.000    0.000    0.000    0.000    0.000 
#    0.000    0.000    0.000    0.000    0.000    0.000 
#
# Total GULP energy -223099.200571 kJ/mol
# GULP energy per Si atom -12394.400032 kJ/mol
# Density = 2.540670 g / cm^3
# Si number density = 25.464658 Si / 1000 Ang^3
#
#
#
# Elastic Constant Matrix: (Units=GPa)
#
#
# Indices 1 2 3 4 5 6 
#
# 1 129.0034 53.6735 29.7995 0.0000 0.0000 0.0000
# 2 53.6735 144.4768 53.1658 0.0000 0.0000 0.0000
# 3 29.7995 53.1658 201.2283 0.0000 0.0000 0.0000
# 4 0.0000 0.0000 0.0000 45.3070 0.0000 0.0000
# 5 0.0000 0.0000 0.0000 0.0000 47.4405 0.0000
# 6 0.0000 0.0000 0.0000 0.0000 0.0000 60.9079
#
#
#
# Elastic Compliance Matrix: (Units=1/GPa)
#
#
# Indices 1 2 3 4 5 6 
#
# 1 0.009216 -0.003236 -0.000510 0.000000 0.000000 0.000000
# 2 -0.003236 0.008803 -0.001847 0.000000 0.000000 0.000000
# 3 -0.000510 -0.001847 0.005533 0.000000 0.000000 0.000000
# 4 0.000000 0.000000 0.000000 0.022072 0.000000 0.000000
# 5 0.000000 0.000000 0.000000 0.000000 0.021079 0.000000
# 6 0.000000 0.000000 0.000000 0.000000 0.000000 0.016418
#
#
# Mechanical properties :
#
#
# Convention : Reuss Voigt Hill
#
# Bulk Modulus (GPa) = 80.86051 83.10955 81.98503
# Shear Modulus (GPa) = 50.79832 53.26907 52.03369
#
# Velocity S-wave (km/s) = 4.47123 4.57867 4.52527
# Velocity P-wave (km/s) = 7.64714 7.78848 7.71813
#
# Compressibility (1/GPa) = 0.01236698
#
# Stress axis : x y z
#
# Youngs Moduli (GPa) = 108.50780 113.59355 180.73811
#
# Poissons Ratio (x) = 0.36761 0.09213
# Poissons Ratio (y) = 0.35115 0.33376
# Poissons Ratio (z) = 0.05531 0.20977
#
# Static dielectric constant tensor:
#      x y z
#    x 4.964690 0.000000 0.000000 
#    y 0.000000 4.619080 0.000000 
#    z 0.000000 0.000000 7.297510 
# 
# 
# High freq. dielectric constant tensor:
#      x y z
#    x 2.057690 0.000000 0.000000 
#    y 0.000000 2.012170 0.000000 
#    z 0.000000 0.000000 2.037190 
# 
# From -- ./inp_files/1153.got.cif
#   From: 2010.03.12/outbox.cif.g09.slc.cpg/sg37_1_cif.got.tgz:1153.got - 2010.04.14 02:25:27.
