data_PCOD8176004
_publ_section_title
;
Structure prediction by ZEFSAII (Michael W. Deem and Ramdas Pophale) SiO2 
 PCOD8176004
Probable space group: C M C 21
;
_chemical_formula_sum "Si O2"
_cell_formula_units_Z 44
_cell_length_a 27.709176
_cell_length_b 15.321262
_cell_length_c 4.907148
_cell_angle_alpha 90.000000
_cell_angle_beta 90.000000
_cell_angle_gamma 90.000000
_cell_volume 2083.278381
_symmetry_space_group_name_H-M "C M C 21"
_symmetry_group_IT_number 36
_symmetry_cell_setting 'orthorhombic'
loop_
_space_group_symop_operation_xyz
x,y,z
-x,-y,1/2+z
x,-y,1/2+z
-x,y,z
1/2+x,1/2+y,z
1/2-x,1/2-y,1/2+z
1/2+x,1/2-y,1/2+z
1/2-x,1/2+y,z
loop_
_atom_site_type_symbol
_atom_site_label
_atom_site_fract_x
_atom_site_fract_y
_atom_site_fract_z
Si Si1 0.445114 0.441008 0.393930
Si Si2 0.384463 0.728993 0.888501
Si Si3 0.906850 0.662325 0.870625
Si Si4 0.278833 0.771252 0.052286
Si Si5 0.316050 0.943624 0.289088
Si Si6 0.000000 0.559491 0.027844
O O1 0.436285 0.477053 0.695830
O O2 0.500000 0.405251 0.358358
O O3 0.406618 0.365697 0.328960
O O4 0.381333 0.782815 0.609273
O O5 0.330332 0.724178 0.009175
O O6 0.418617 0.775410 0.113532
O O7 0.871588 0.586558 0.762073
O O8 0.954665 0.620604 0.985629
O O9 0.252440 0.786142 0.763498
O O10 0.281763 0.865174 0.198562
O O11 0.306458 0.972375 0.598821
O O12 0.000000 0.474824 0.835884
#
# Coordination Sequence:
#
# PCOD8176004 Si02
#       6
#     8   8   8   8   8   4
#     4  10  22  40  63  91 124 162 205 261 319 374
#     4  11  23  41  64  90 122 167 210 254 320 384
#     4  11  23  37  61  90 124 167 205 251 298 366
#     4  11  23  42  64  90 124 160 207 266 318 373
#     4  11  21  39  62  87 119 160 205 247 304 372
#     4  12  24  38  56  90 130 164 202 252 304 348
#
# _framework density 21.120557999999999
#
# number of rings (size 3 to 8) (size 9 to 14) (size 15 to 20)
#    0.000    1.091    0.000    8.727    2.545    0.000 
#    0.000    5.455    0.000    0.000    0.000    0.000 
#    0.000    0.000    0.000    0.000    0.000    0.000 
#
# Total GULP energy -272897.161017 kJ/mol
# GULP energy per Si atom -12404.416410 kJ/mol
# Density = 2.107249 g / cm^3
# Si number density = 21.120558 Si / 1000 Ang^3
#
#
#
# Elastic Constant Matrix: (Units=GPa)
#
#
# Indices 1 2 3 4 5 6 
#
# 1 94.3250 44.6583 14.8851 0.0000 0.0000 0.0000
# 2 44.6583 85.1677 19.9253 0.0000 0.0000 0.0000
# 3 14.8851 19.9253 98.7449 0.0000 0.0000 0.0000
# 4 0.0000 0.0000 0.0000 45.7901 0.0000 0.0000
# 5 0.0000 0.0000 0.0000 0.0000 30.1823 0.0000
# 6 0.0000 0.0000 0.0000 0.0000 0.0000 21.5218
#
#
#
# Elastic Compliance Matrix: (Units=1/GPa)
#
#
# Indices 1 2 3 4 5 6 
#
# 1 0.014144 -0.007261 -0.000667 0.000000 0.000000 0.000000
# 2 -0.007261 0.016050 -0.002144 0.000000 0.000000 0.000000
# 3 -0.000667 -0.002144 0.010660 0.000000 0.000000 0.000000
# 4 0.000000 0.000000 0.000000 0.021839 0.000000 0.000000
# 5 0.000000 0.000000 0.000000 0.000000 0.033132 0.000000
# 6 0.000000 0.000000 0.000000 0.000000 0.000000 0.046465
#
#
# Mechanical properties :
#
#
# Convention : Reuss Voigt Hill
#
# Bulk Modulus (GPa) = 48.28307 48.57500 48.42903
# Shear Modulus (GPa) = 29.52669 32.75009 31.13839
#
# Velocity S-wave (km/s) = 3.74305 3.94207 3.84385
# Velocity P-wave (km/s) = 6.44910 6.61580 6.53298
#
# Compressibility (1/GPa) = 0.02071119
#
# Stress axis : x y z
#
# Youngs Moduli (GPa) = 70.69891 62.30385 93.80560
#
# Poissons Ratio (x) = 0.45237 0.06258
# Poissons Ratio (y) = 0.51332 0.20114
# Poissons Ratio (z) = 0.04716 0.13359
#
# Static dielectric constant tensor:
#      x y z
#    x 3.503780 0.000000 0.000000 
#    y 0.000000 3.650360 0.000000 
#    z 0.000000 0.000000 4.022890 
# 
# 
# High freq. dielectric constant tensor:
#      x y z
#    x 1.815950 0.000000 0.000000 
#    y 0.000000 1.819000 0.000000 
#    z 0.000000 0.000000 1.853540 
# 
# From -- ./inp_files/1721.got.cif
#   From: 2010.03.12/outbox.cif.g09.slc.cpg/sg36_1_cif.got.tgz:1721.got - 2010.04.14 02:13:53.
