data_PCOD8176881
_publ_section_title
;
Structure prediction by ZEFSAII (Michael W. Deem and Ramdas Pophale) SiO2 
 PCOD8176881
Probable space group: C C C 2
;
_chemical_formula_sum "Si O2"
_cell_formula_units_Z 60
_cell_length_a 26.016292
_cell_length_b 11.856058
_cell_length_c 8.915710
_cell_angle_alpha 90.000000
_cell_angle_beta 90.000000
_cell_angle_gamma 90.000000
_cell_volume 2750.056695
_symmetry_space_group_name_H-M "C C C 2"
_symmetry_group_IT_number 37
_symmetry_cell_setting 'orthorhombic'
loop_
_space_group_symop_operation_xyz
x,y,z
-x,-y,z
-x,y,1/2+z
x,-y,1/2+z
1/2+x,1/2+y,z
1/2-x,1/2-y,z
1/2-x,1/2+y,1/2+z
1/2+x,1/2-y,1/2+z
loop_
_atom_site_type_symbol
_atom_site_label
_atom_site_fract_x
_atom_site_fract_y
_atom_site_fract_z
Si Si1 0.380767 0.490979 0.116200
Si Si2 0.750000 0.250000 0.216685
Si Si3 0.148648 0.643244 0.157896
Si Si4 0.755563 0.616358 0.211679
Si Si5 0.687253 0.557005 0.854480
Si Si6 0.438873 0.696148 0.046413
Si Si7 0.683407 0.025059 0.439270
Si Si8 0.525755 0.380371 0.756830
O O1 0.363277 0.575614 0.251888
O O2 0.410186 0.577800 0.008843
O O3 0.420552 0.395945 0.167843
O O4 0.331278 0.438466 0.027417
O O5 0.798021 0.290417 0.114331
O O6 0.732684 0.353731 0.322773
O O7 0.098167 0.709512 0.112873
O O8 0.153928 0.620597 0.338999
O O9 0.144649 0.529268 0.059826
O O10 0.750000 0.750000 0.209649
O O11 0.704344 0.565264 0.289239
O O12 0.800227 0.572971 0.323168
O O13 0.768012 0.572549 0.039929
O O14 0.485372 0.685094 0.158307
O O15 0.463674 0.714490 0.883714
O O16 0.500000 0.500000 0.810324
#
# Coordination Sequence:
#
# PCOD8176881 Si02
#       8
#     8   4   8   8   8   8   8   8
#     4  11  23  39  63 100 142 180 226 282 351 434
#     4  12  24  38  66  94 150 186 242 284 338 420
#     4  11  25  43  68  95 133 188 232 282 351 417
#     4  11  25  40  64  95 138 195 245 286 342 407
#     4  12  24  39  61 102 144 195 238 278 348 420
#     4  11  23  42  71 100 130 180 220 289 366 432
#     4  10  23  44  62  94 138 183 234 299 334 406
#     4  10  22  42  70 106 140 168 223 301 371 434
#
# _framework density 21.817730000000001
#
# number of rings (size 3 to 8) (size 9 to 14) (size 15 to 20)
#    0.000    1.067    5.333    2.000    5.600    0.000 
#    0.000    4.000    0.000    2.400    0.000    0.000 
#    0.000    0.000    0.000    0.000    0.000    0.000 
#
# Total GULP energy -371659.900451 kJ/mol
# GULP energy per Si atom -12388.663348 kJ/mol
# Density = 2.176807 g / cm^3
# Si number density = 21.817730 Si / 1000 Ang^3
#
#
#
# Elastic Constant Matrix: (Units=GPa)
#
#
# Indices 1 2 3 4 5 6 
#
# 1 130.3844 42.9385 62.8995 0.0000 0.0000 0.0000
# 2 42.9385 99.2917 50.6762 0.0000 0.0000 0.0000
# 3 62.8995 50.6762 122.7485 0.0000 0.0000 0.0000
# 4 0.0000 0.0000 0.0000 26.0443 0.0000 0.0000
# 5 0.0000 0.0000 0.0000 0.0000 38.3699 0.0000
# 6 0.0000 0.0000 0.0000 0.0000 0.0000 40.8914
#
#
#
# Elastic Compliance Matrix: (Units=1/GPa)
#
#
# Indices 1 2 3 4 5 6 
#
# 1 0.010584 -0.002292 -0.004478 0.000000 0.000000 0.000000
# 2 -0.002292 0.013256 -0.004298 0.000000 0.000000 0.000000
# 3 -0.004478 -0.004298 0.012216 0.000000 0.000000 0.000000
# 4 0.000000 0.000000 0.000000 0.038396 0.000000 0.000000
# 5 0.000000 0.000000 0.000000 0.000000 0.026062 0.000000
# 6 0.000000 0.000000 0.000000 0.000000 0.000000 0.024455
#
#
# Mechanical properties :
#
#
# Convention : Reuss Voigt Hill
#
# Bulk Modulus (GPa) = 71.83523 73.93923 72.88723
# Shear Modulus (GPa) = 32.94991 34.12183 33.53587
#
# Velocity S-wave (km/s) = 3.89039 3.95897 3.92483
# Velocity P-wave (km/s) = 7.29224 7.40682 7.34976
#
# Compressibility (1/GPa) = 0.01392075
#
# Stress axis : x y z
#
# Youngs Moduli (GPa) = 94.47820 75.43597 81.86206
#
# Poissons Ratio (x) = 0.17290 0.36654
# Poissons Ratio (y) = 0.21654 0.35187
# Poissons Ratio (z) = 0.42303 0.32425
#
# Static dielectric constant tensor:
#      x y z
#    x 3.932460 0.000000 0.000000 
#    y 0.000000 3.682300 0.000000 
#    z 0.000000 0.000000 4.131020 
# 
# 
# High freq. dielectric constant tensor:
#      x y z
#    x 1.848860 0.000000 0.000000 
#    y 0.000000 1.818290 0.000000 
#    z 0.000000 0.000000 1.880550 
# 
# From -- ./inp_files/4794.got.cif
#   From: 2010.03.12/outbox.cif.g09.slc.cpg/sg37_3_cif.got.tgz:4794.got - 2010.04.14 02:25:27.
