data_PCOD8176976
_publ_section_title
;
Structure prediction by ZEFSAII (Michael W. Deem and Ramdas Pophale) SiO2 
 PCOD8176976
Probable space group: C C C 2
;
_chemical_formula_sum "Si O2"
_cell_formula_units_Z 48
_cell_length_a 17.844011
_cell_length_b 8.502762
_cell_length_c 14.137277
_cell_angle_alpha 90.000000
_cell_angle_beta 90.000000
_cell_angle_gamma 90.000000
_cell_volume 2144.955431
_symmetry_space_group_name_H-M "C C C 2"
_symmetry_group_IT_number 37
_symmetry_cell_setting 'orthorhombic'
loop_
_space_group_symop_operation_xyz
x,y,z
-x,-y,z
-x,y,1/2+z
x,-y,1/2+z
1/2+x,1/2+y,z
1/2-x,1/2-y,z
1/2-x,1/2+y,1/2+z
1/2+x,1/2-y,1/2+z
loop_
_atom_site_type_symbol
_atom_site_label
_atom_site_fract_x
_atom_site_fract_y
_atom_site_fract_z
Si Si1 0.714789 0.418085 0.548800
Si Si2 0.462500 0.161108 0.716854
Si Si3 0.553834 0.365899 0.577330
Si Si4 0.931055 0.403499 0.429069
Si Si5 0.795808 0.395399 0.195574
Si Si6 0.277649 0.929325 0.881883
O O1 0.750000 0.250000 0.569001
O O2 0.634573 0.440625 0.600904
O O3 0.767315 0.550827 0.594083
O O4 0.716507 0.461118 0.436470
O O5 0.513085 0.299469 0.671329
O O6 0.456571 0.175057 0.829984
O O7 0.379690 0.161247 0.674923
O O8 0.500000 0.000000 0.685650
O O9 0.500000 0.500000 0.532952
O O10 0.581599 0.238553 0.500787
O O11 0.859890 0.520535 0.422521
O O12 0.000000 0.500000 0.471839
O O13 0.750000 0.250000 0.237406
O O14 0.783996 0.536220 0.270473
O O15 0.250000 0.750000 0.895344
#
# Coordination Sequence:
#
# PCOD8176976 Si02
#       6
#     8   8   8   8   8   8
#     4  12  24  43  68 102 138 177 226 289 345 411
#     4  10  23  45  68  94 132 182 225 273 339 417
#     4  12  26  42  67 103 138 176 227 285 348 410
#     4  10  24  44  69  98 135 184 228 281 347 421
#     4  11  24  43  71 100 135 177 225 283 346 417
#     4  11  25  44  70 100 137 181 234 284 354 420
#
# _framework density 22.378087000000001
#
# number of rings (size 3 to 8) (size 9 to 14) (size 15 to 20)
#    0.000    1.000    1.667    4.000    7.000    3.333 
#    0.000    0.000    0.000    0.000    0.000    0.000 
#    0.000    0.000    0.000    0.000    0.000    0.000 
#
# Total GULP energy -297492.237061 kJ/mol
# GULP energy per Si atom -12395.509878 kJ/mol
# Density = 2.232715 g / cm^3
# Si number density = 22.378087 Si / 1000 Ang^3
#
#
#
# Elastic Constant Matrix: (Units=GPa)
#
#
# Indices 1 2 3 4 5 6 
#
# 1 145.3861 35.3680 25.8115 0.0000 0.0000 0.0000
# 2 35.3680 88.3117 15.6475 0.0000 0.0000 0.0000
# 3 25.8115 15.6475 71.4544 0.0000 0.0000 0.0000
# 4 0.0000 0.0000 0.0000 23.0709 0.0000 0.0000
# 5 0.0000 0.0000 0.0000 0.0000 29.8435 0.0000
# 6 0.0000 0.0000 0.0000 0.0000 0.0000 42.1930
#
#
#
# Elastic Compliance Matrix: (Units=1/GPa)
#
#
# Indices 1 2 3 4 5 6 
#
# 1 0.007958 -0.002786 -0.002265 0.000000 0.000000 0.000000
# 2 -0.002786 0.012756 -0.001787 0.000000 0.000000 0.000000
# 3 -0.002265 -0.001787 0.015204 0.000000 0.000000 0.000000
# 4 0.000000 0.000000 0.000000 0.043345 0.000000 0.000000
# 5 0.000000 0.000000 0.000000 0.000000 0.033508 0.000000
# 6 0.000000 0.000000 0.000000 0.000000 0.000000 0.023701
#
#
# Mechanical properties :
#
#
# Convention : Reuss Voigt Hill
#
# Bulk Modulus (GPa) = 44.95750 50.97846 47.96798
# Shear Modulus (GPa) = 31.73378 34.24319 32.98848
#
# Velocity S-wave (km/s) = 3.76982 3.91603 3.84362
# Velocity P-wave (km/s) = 6.25158 6.57853 6.41714
#
# Compressibility (1/GPa) = 0.02224323
#
# Stress axis : x y z
#
# Youngs Moduli (GPa) = 125.65969 78.39536 65.77081
#
# Poissons Ratio (x) = 0.21840 0.14895
# Poissons Ratio (y) = 0.35007 0.11753
# Poissons Ratio (z) = 0.28457 0.14009
#
# Static dielectric constant tensor:
#      x y z
#    x 4.335440 0.000000 0.000000 
#    y 0.000000 4.023740 0.000000 
#    z 0.000000 0.000000 3.855450 
# 
# 
# High freq. dielectric constant tensor:
#      x y z
#    x 1.898930 0.000000 0.000000 
#    y 0.000000 1.878020 0.000000 
#    z 0.000000 0.000000 1.880600 
# 
# From -- ./inp_files/10609.got.cif
#   From: 2010.03.12/outbox.cif.g09.slc.cpg/sg37_6_cif.got.tgz:10609.got - 2010.04.14 02:25:27.
