data_PCOD8176446
_publ_section_title
;
Structure prediction by ZEFSAII (Michael W. Deem and Ramdas Pophale) SiO2 
 PCOD8176446
Probable space group: C C C 2
;
_chemical_formula_sum "Si O2"
_cell_formula_units_Z 64
_cell_length_a 15.466586
_cell_length_b 8.627183
_cell_length_c 23.810473
_cell_angle_alpha 90.000000
_cell_angle_beta 90.000000
_cell_angle_gamma 90.000000
_cell_volume 3177.104458
_symmetry_space_group_name_H-M "C C C 2"
_symmetry_group_IT_number 37
_symmetry_cell_setting 'orthorhombic'
loop_
_space_group_symop_operation_xyz
x,y,z
-x,-y,z
-x,y,1/2+z
x,-y,1/2+z
1/2+x,1/2+y,z
1/2-x,1/2-y,z
1/2-x,1/2+y,1/2+z
1/2+x,1/2-y,1/2+z
loop_
_atom_site_type_symbol
_atom_site_label
_atom_site_fract_x
_atom_site_fract_y
_atom_site_fract_z
Si Si1 0.340441 0.198496 0.390700
Si Si2 0.414735 0.888989 0.392604
Si Si3 0.655030 0.824795 0.776084
Si Si4 0.494656 0.816619 0.197689
Si Si5 0.160294 0.312403 0.263164
Si Si6 0.491661 0.816764 0.568937
Si Si7 0.920635 0.112542 0.982372
Si Si8 0.651984 0.302018 0.494305
O O1 0.250000 0.250000 0.416355
O O2 0.352910 0.250664 0.326400
O O3 0.414243 0.284229 0.426345
O O4 0.338265 0.013781 0.399069
O O5 0.397542 0.798154 0.334376
O O6 0.407665 0.768032 0.443667
O O7 0.500000 0.000000 0.390167
O O8 0.750000 0.750000 0.777086
O O9 0.592866 0.752886 0.727594
O O10 0.667200 0.003942 0.763201
O O11 0.580718 0.746911 0.226628
O O12 0.493542 0.767830 0.133037
O O13 0.500000 0.000000 0.205149
O O14 0.250000 0.250000 0.237368
O O15 0.566973 0.728964 0.534567
O O16 0.396123 0.758723 0.550450
O O17 0.500000 0.000000 0.559071
O O18 0.000000 0.000000 0.974392
O O19 0.842597 0.990267 0.992446
O O20 0.750000 0.250000 0.492153
#
# Coordination Sequence:
#
# PCOD8176446 Si02
#       8
#     8   8   8   8   8   8   8   8
#     4  10  19  33  53  80 111 141 174 215 266 331
#     4  11  20  34  58  82 113 153 187 220 277 348
#     4  10  20  36  57  85 115 145 186 235 280 333
#     4   9  19  38  60  79 106 149 192 229 278 340
#     4   9  19  36  57  83 113 145 182 226 279 337
#     4  10  21  39  59  77 106 148 192 230 278 346
#     4  10  21  36  54  77 110 141 178 227 273 326
#     4  11  22  36  56  85 115 144 184 238 290 337
#
# _framework density 20.144127999999998
#
# number of rings (size 3 to 8) (size 9 to 14) (size 15 to 20)
#    0.000    2.000    0.000    5.625    0.000    2.500 
#    0.000    8.750    0.000    0.000    0.000    0.000 
#    0.000    0.000    0.000    0.000    0.000    0.000 
#
# Total GULP energy -396620.751623 kJ/mol
# GULP energy per Si atom -12394.398488 kJ/mol
# Density = 2.009828 g / cm^3
# Si number density = 20.144128 Si / 1000 Ang^3
#
#
#
# Elastic Constant Matrix: (Units=GPa)
#
#
# Indices 1 2 3 4 5 6 
#
# 1 122.9264 22.7880 67.4152 0.0000 0.0000 0.0000
# 2 22.7880 68.6785 47.6624 0.0000 0.0000 0.0000
# 3 67.4152 47.6624 147.7713 0.0000 0.0000 0.0000
# 4 0.0000 0.0000 0.0000 18.6609 0.0000 0.0000
# 5 0.0000 0.0000 0.0000 0.0000 21.1827 0.0000
# 6 0.0000 0.0000 0.0000 0.0000 0.0000 32.4539
#
#
#
# Elastic Compliance Matrix: (Units=1/GPa)
#
#
# Indices 1 2 3 4 5 6 
#
# 1 0.010852 -0.000212 -0.004882 0.000000 0.000000 0.000000
# 2 -0.000212 0.018764 -0.005955 0.000000 0.000000 0.000000
# 3 -0.004882 -0.005955 0.010915 0.000000 0.000000 0.000000
# 4 0.000000 0.000000 0.000000 0.053588 0.000000 0.000000
# 5 0.000000 0.000000 0.000000 0.000000 0.047208 0.000000
# 6 0.000000 0.000000 0.000000 0.000000 0.000000 0.030813
#
#
# Mechanical properties :
#
#
# Convention : Reuss Voigt Hill
#
# Bulk Modulus (GPa) = 54.25548 68.34526 61.30037
# Shear Modulus (GPa) = 24.95210 27.89356 26.42283
#
# Velocity S-wave (km/s) = 3.52330 3.72519 3.62565
# Velocity P-wave (km/s) = 6.59876 7.24600 6.92994
#
# Compressibility (1/GPa) = 0.01843132
#
# Stress axis : x y z
#
# Youngs Moduli (GPa) = 92.15033 53.29355 91.61412
#
# Poissons Ratio (x) = 0.01132 0.44728
# Poissons Ratio (y) = 0.01958 0.54558
# Poissons Ratio (z) = 0.44990 0.31738
#
# Static dielectric constant tensor:
#      x y z
#    x 3.886470 0.000000 0.000000 
#    y 0.000000 4.268780 0.000000 
#    z 0.000000 0.000000 3.652140 
# 
# 
# High freq. dielectric constant tensor:
#      x y z
#    x 1.792770 0.000000 0.000000 
#    y 0.000000 1.777910 0.000000 
#    z 0.000000 0.000000 1.777850 
# 
# From -- ./inp_files/18878.got.cif
#   From: 2010.03.12/outbox.cif.g09.slc.cpg/sg37_10_cif.got.tgz:18878.got - 2010.04.14 02:25:27.
