data_PCOD8176285
_publ_section_title
;
Structure prediction by ZEFSAII (Michael W. Deem and Ramdas Pophale) SiO2 
 PCOD8176285
Probable space group: C M C 21
;
_chemical_formula_sum "Si O2"
_cell_formula_units_Z 48
_cell_length_a 10.560622
_cell_length_b 22.485563
_cell_length_c 9.155615
_cell_angle_alpha 90.000000
_cell_angle_beta 90.000000
_cell_angle_gamma 90.000000
_cell_volume 2174.106358
_symmetry_space_group_name_H-M "C M C 21"
_symmetry_group_IT_number 36
_symmetry_cell_setting 'orthorhombic'
loop_
_space_group_symop_operation_xyz
x,y,z
-x,-y,1/2+z
x,-y,1/2+z
-x,y,z
1/2+x,1/2+y,z
1/2-x,1/2-y,1/2+z
1/2+x,1/2-y,1/2+z
1/2-x,1/2+y,z
loop_
_atom_site_type_symbol
_atom_site_label
_atom_site_fract_x
_atom_site_fract_y
_atom_site_fract_z
Si Si1 0.000000 0.070361 0.758991
Si Si2 0.647437 0.813361 0.864030
Si Si3 0.252456 0.242557 0.636606
Si Si4 0.000000 0.108570 0.076444
Si Si5 0.792751 0.015857 0.165369
Si Si6 0.354503 0.945926 0.925442
Si Si7 0.500000 0.728766 0.260755
Si Si8 0.500000 0.680904 0.590728
O O1 0.876470 0.029248 0.760477
O O2 0.000000 0.109833 0.610319
O O3 0.000000 0.112929 0.900424
O O4 0.500000 0.802956 0.848218
O O5 0.710477 0.807660 0.701697
O O6 0.677882 0.875942 0.940558
O O7 0.710560 0.761706 0.966099
O O8 0.379570 0.227960 0.730985
O O9 0.128896 0.202555 0.670821
O O10 0.000000 0.174470 0.144094
O O11 0.125348 0.073240 0.124078
O O12 0.671298 0.035798 0.258725
O O13 0.740500 0.982463 0.024588
O O14 0.500000 0.958898 0.964740
O O15 0.500000 0.701377 0.422591
#
# Coordination Sequence:
#
# PCOD8176285 Si02
#       8
#     4   8   8   4   8   8   4   4
#     4  11  25  41  70 100 136 174 226 287 331 407
#     4  11  24  43  67  99 134 181 223 283 339 408
#     4  12  24  44  64  98 138 176 232 270 338 400
#     4  11  25  41  70 100 136 174 226 287 331 407
#     4  11  23  44  66 102 131 175 232 278 346 401
#     4  11  24  45  69  95 138 180 226 280 350 407
#     4  12  27  43  72 101 140 186 227 284 340 406
#     4  12  27  43  72 101 140 186 227 284 340 406
#
# _framework density 22.078033999999999
#
# number of rings (size 3 to 8) (size 9 to 14) (size 15 to 20)
#    0.000    0.667    5.000    2.500    4.667    0.000 
#    0.000    0.000    0.000    4.000    0.000    0.000 
#    0.000    0.000    0.000    0.000    0.000    0.000 
#
# Total GULP energy -297368.480571 kJ/mol
# GULP energy per Si atom -12390.353357 kJ/mol
# Density = 2.202778 g / cm^3
# Si number density = 22.078034 Si / 1000 Ang^3
#
#
#
# Elastic Constant Matrix: (Units=GPa)
#
#
# Indices 1 2 3 4 5 6 
#
# 1 140.6294 43.1346 37.0840 0.0000 0.0000 0.0000
# 2 43.1346 60.8007 37.1896 0.0000 0.0000 0.0000
# 3 37.0840 37.1896 101.4923 0.0000 0.0000 0.0000
# 4 0.0000 0.0000 0.0000 36.0160 0.0000 0.0000
# 5 0.0000 0.0000 0.0000 0.0000 31.5542 0.0000
# 6 0.0000 0.0000 0.0000 0.0000 0.0000 20.2134
#
#
#
# Elastic Compliance Matrix: (Units=1/GPa)
#
#
# Indices 1 2 3 4 5 6 
#
# 1 0.009210 -0.005769 -0.001252 0.000000 0.000000 0.000000
# 2 -0.005769 0.024811 -0.006984 0.000000 0.000000 0.000000
# 3 -0.001252 -0.006984 0.012869 0.000000 0.000000 0.000000
# 4 0.000000 0.000000 0.000000 0.027765 0.000000 0.000000
# 5 0.000000 0.000000 0.000000 0.000000 0.031691 0.000000
# 6 0.000000 0.000000 0.000000 0.000000 0.000000 0.049472
#
#
# Mechanical properties :
#
#
# Convention : Reuss Voigt Hill
#
# Bulk Modulus (GPa) = 52.95749 59.74875 56.35312
# Shear Modulus (GPa) = 26.29881 29.92432 28.11157
#
# Velocity S-wave (km/s) = 3.45508 3.68555 3.57218
# Velocity P-wave (km/s) = 6.32103 6.72550 6.52640
#
# Compressibility (1/GPa) = 0.01888307
#
# Stress axis : x y z
#
# Youngs Moduli (GPa) = 108.57394 40.30393 77.70414
#
# Poissons Ratio (x) = 0.23250 0.09725
# Poissons Ratio (y) = 0.62633 0.54267
# Poissons Ratio (z) = 0.13588 0.28148
#
# Static dielectric constant tensor:
#      x y z
#    x 4.345290 0.000000 0.000000 
#    y 0.000000 3.791590 0.000000 
#    z 0.000000 0.000000 3.868360 
# 
# 
# High freq. dielectric constant tensor:
#      x y z
#    x 1.897860 0.000000 0.000000 
#    y 0.000000 1.843960 0.000000 
#    z 0.000000 0.000000 1.866040 
# 
# From -- ./inp_files/3363.got.cif
#   From: 2010.03.12/outbox.cif.g09.slc.cpg/sg36_2_cif.got.tgz:3363.got - 2010.04.14 02:13:53.
