data_PCOD8176337
_publ_section_title
;
Structure prediction by ZEFSAII (Michael W. Deem and Ramdas Pophale) SiO2 
 PCOD8176337
Probable space group: C M C 21
;
_chemical_formula_sum "Si O2"
_cell_formula_units_Z 40
_cell_length_a 21.734629
_cell_length_b 9.788204
_cell_length_c 8.403751
_cell_angle_alpha 90.000000
_cell_angle_beta 90.000000
_cell_angle_gamma 90.000000
_cell_volume 1787.839052
_symmetry_space_group_name_H-M "C M C 21"
_symmetry_group_IT_number 36
_symmetry_cell_setting 'orthorhombic'
loop_
_space_group_symop_operation_xyz
x,y,z
-x,-y,1/2+z
x,-y,1/2+z
-x,y,z
1/2+x,1/2+y,z
1/2-x,1/2-y,1/2+z
1/2+x,1/2-y,1/2+z
1/2-x,1/2+y,z
loop_
_atom_site_type_symbol
_atom_site_label
_atom_site_fract_x
_atom_site_fract_y
_atom_site_fract_z
Si Si1 0.500000 0.315471 0.243721
Si Si2 0.000000 0.112704 0.373423
Si Si3 0.184341 0.077086 0.935801
Si Si4 0.672902 0.075792 0.936908
Si Si5 0.871022 0.314547 0.765060
Si Si6 0.368604 0.325717 0.762097
O O1 0.500000 0.450041 0.352085
O O2 0.558423 0.225067 0.290321
O O3 0.500000 0.357141 0.059978
O O4 0.058526 0.180936 0.288823
O O5 0.255528 0.068205 0.980804
O O6 0.172387 0.181879 0.790545
O O7 0.161805 0.927435 0.889195
O O8 0.144452 0.127125 0.084197
O O9 0.660976 0.176557 0.788367
O O10 0.647715 0.927075 0.894439
O O11 0.636459 0.131626 0.087572
#
# Coordination Sequence:
#
# PCOD8176337 Si02
#       6
#     4   4   8   8   8   8
#     4  12  26  49  77 100 144 180 246 296 360 427
#     4  12  24  49  73 104 138 178 242 298 342 429
#     4  12  24  44  71 107 141 189 239 289 355 431
#     4  12  25  46  68 104 150 184 235 296 359 430
#     4  12  27  46  71 104 143 192 236 294 362 423
#     4  12  25  43  77 103 139 191 235 297 358 416
#
# _framework density 22.373379
#
# number of rings (size 3 to 8) (size 9 to 14) (size 15 to 20)
#    0.000    0.000    4.000    7.200    0.000    1.600 
#    0.000    0.000    0.000    0.000    0.000    0.000 
#    0.000    0.000    0.000    0.000    0.000    0.000 
#
# Total GULP energy -248206.447947 kJ/mol
# GULP energy per Si atom -12410.322397 kJ/mol
# Density = 2.232246 g / cm^3
# Si number density = 22.373379 Si / 1000 Ang^3
#
#
#
# Elastic Constant Matrix: (Units=GPa)
#
#
# Indices 1 2 3 4 5 6 
#
# 1 150.7520 53.3931 14.7648 0.0000 0.0000 0.0000
# 2 53.3931 81.0742 7.0236 0.0000 0.0000 0.0000
# 3 14.7648 7.0236 73.9092 0.0000 0.0000 0.0000
# 4 0.0000 0.0000 0.0000 38.5528 0.0000 0.0000
# 5 0.0000 0.0000 0.0000 0.0000 33.7639 0.0000
# 6 0.0000 0.0000 0.0000 0.0000 0.0000 23.6649
#
#
#
# Elastic Compliance Matrix: (Units=1/GPa)
#
#
# Indices 1 2 3 4 5 6 
#
# 1 0.008758 -0.005663 -0.001211 0.000000 0.000000 0.000000
# 2 -0.005663 0.016098 -0.000399 0.000000 0.000000 0.000000
# 3 -0.001211 -0.000399 0.013810 0.000000 0.000000 0.000000
# 4 0.000000 0.000000 0.000000 0.025938 0.000000 0.000000
# 5 0.000000 0.000000 0.000000 0.000000 0.029617 0.000000
# 6 0.000000 0.000000 0.000000 0.000000 0.000000 0.042257
#
#
# Mechanical properties :
#
#
# Convention : Reuss Voigt Hill
#
# Bulk Modulus (GPa) = 41.45833 50.67761 46.06797
# Shear Modulus (GPa) = 31.43397 34.56659 33.00028
#
# Velocity S-wave (km/s) = 3.75236 3.93490 3.84471
# Velocity P-wave (km/s) = 6.11098 6.58366 6.35172
#
# Compressibility (1/GPa) = 0.02412061
#
# Stress axis : x y z
#
# Youngs Moduli (GPa) = 114.18643 62.11915 72.41131
#
# Poissons Ratio (x) = 0.35175 0.08772
# Poissons Ratio (y) = 0.64659 0.02886
# Poissons Ratio (z) = 0.13832 0.02476
#
# Static dielectric constant tensor:
#      x y z
#    x 4.141480 0.000000 0.000000 
#    y 0.000000 4.308850 0.000000 
#    z 0.000000 0.000000 3.980470 
# 
# 
# High freq. dielectric constant tensor:
#      x y z
#    x 1.893110 0.000000 0.000000 
#    y 0.000000 1.891690 0.000000 
#    z 0.000000 0.000000 1.890520 
# 
# From -- ./inp_files/5490.got.cif
#   From: 2010.03.12/outbox.cif.g09.slc.cpg/sg36_3_cif.got.tgz:5490.got - 2010.04.14 02:13:53.
