data_PCOD8176997
_publ_section_title
;
Structure prediction by ZEFSAII (Michael W. Deem and Ramdas Pophale) SiO2 
 PCOD8176997
Probable space group: C C C 2
;
_chemical_formula_sum "Si O2"
_cell_formula_units_Z 52
_cell_length_a 10.225829
_cell_length_b 10.131729
_cell_length_c 26.108289
_cell_angle_alpha 90.000000
_cell_angle_beta 90.000000
_cell_angle_gamma 90.000000
_cell_volume 2704.957851
_symmetry_space_group_name_H-M "C C C 2"
_symmetry_group_IT_number 37
_symmetry_cell_setting 'orthorhombic'
loop_
_space_group_symop_operation_xyz
x,y,z
-x,-y,z
-x,y,1/2+z
x,-y,1/2+z
1/2+x,1/2+y,z
1/2-x,1/2-y,z
1/2-x,1/2+y,1/2+z
1/2+x,1/2-y,1/2+z
loop_
_atom_site_type_symbol
_atom_site_label
_atom_site_fract_x
_atom_site_fract_y
_atom_site_fract_z
Si Si1 0.881237 0.584592 0.642690
Si Si2 0.041439 0.202956 0.558329
Si Si3 0.388818 0.109513 0.868310
Si Si4 0.250000 0.250000 0.728561
Si Si5 0.886811 0.114183 0.318827
Si Si6 0.701467 0.539931 0.067589
Si Si7 0.907254 0.620293 0.986848
O O1 0.833021 0.655123 0.693136
O O2 0.779565 0.478812 0.620185
O O3 0.000000 0.500000 0.662968
O O4 0.916291 0.683522 0.596965
O O5 0.993683 0.253659 0.502884
O O6 0.160348 0.104505 0.546649
O O7 0.921648 0.126285 0.584702
O O8 0.249294 0.063675 0.844631
O O9 0.436043 0.252187 0.847227
O O10 0.363881 0.126867 0.928461
O O11 0.500000 0.000000 0.856456
O O12 0.150509 0.159138 0.761386
O O13 0.000000 0.000000 0.319772
O O14 0.780222 0.612797 0.022721
O O15 0.000000 0.500000 0.999627
#
# Coordination Sequence:
#
# PCOD8176997 Si02
#       7
#     8   8   8   4   8   8   8
#     4  12  22  39  60  86 125 167 204 254 314 374
#     4  11  22  34  54  83 122 166 208 248 294 364
#     4   9  22  42  66  95 133 170 207 271 331 394
#     4  10  24  42  66  88 126 166 212 274 338 384
#     4  10  24  46  70  98 124 164 224 288 337 389
#     4  11  22  34  54  83 122 166 208 248 294 364
#     4  11  21  37  59  88 128 170 206 245 309 375
#
# _framework density 19.223960000000002
#
# number of rings (size 3 to 8) (size 9 to 14) (size 15 to 20)
#    0.000    1.538    4.615    0.462    4.308    5.538 
#    0.000    3.077    0.000    0.000    0.000    0.000 
#    0.000    0.000    0.000    0.000    0.000    0.000 
#
# Total GULP energy -322257.927901 kJ/mol
# GULP energy per Si atom -12394.535689 kJ/mol
# Density = 1.918020 g / cm^3
# Si number density = 19.223960 Si / 1000 Ang^3
#
#
#
# Elastic Constant Matrix: (Units=GPa)
#
#
# Indices 1 2 3 4 5 6 
#
# 1 106.5918 53.4189 47.6294 0.0000 0.0000 0.0000
# 2 53.4189 97.7261 34.8793 0.0000 0.0000 0.0000
# 3 47.6294 34.8793 115.9311 0.0000 0.0000 0.0000
# 4 0.0000 0.0000 0.0000 34.2453 0.0000 0.0000
# 5 0.0000 0.0000 0.0000 0.0000 95.9567 0.0000
# 6 0.0000 0.0000 0.0000 0.0000 0.0000 48.3388
#
#
#
# Elastic Compliance Matrix: (Units=1/GPa)
#
#
# Indices 1 2 3 4 5 6 
#
# 1 0.014387 -0.006447 -0.003971 0.000000 0.000000 0.000000
# 2 -0.006447 0.014352 -0.001670 0.000000 0.000000 0.000000
# 3 -0.003971 -0.001670 0.010760 0.000000 0.000000 0.000000
# 4 0.000000 0.000000 0.000000 0.029201 0.000000 0.000000
# 5 0.000000 0.000000 0.000000 0.000000 0.010421 0.000000
# 6 0.000000 0.000000 0.000000 0.000000 0.000000 0.020687
#
#
# Mechanical properties :
#
#
# Convention : Reuss Voigt Hill
#
# Bulk Modulus (GPa) = 65.25674 65.78937 65.52306
# Shear Modulus (GPa) = 38.73216 47.99626 43.36421
#
# Velocity S-wave (km/s) = 4.49351 5.00211 4.75461
# Velocity P-wave (km/s) = 7.80649 8.22547 8.01872
#
# Compressibility (1/GPa) = 0.01532409
#
# Stress axis : x y z
#
# Youngs Moduli (GPa) = 69.50775 69.67435 92.94010
#
# Poissons Ratio (x) = 0.44918 0.36908
# Poissons Ratio (y) = 0.44810 0.15516
# Poissons Ratio (z) = 0.27603 0.11632
#
# Static dielectric constant tensor:
#      x y z
#    x 3.677420 0.000000 0.000000 
#    y 0.000000 3.755130 0.000000 
#    z 0.000000 0.000000 3.483620 
# 
# 
# High freq. dielectric constant tensor:
#      x y z
#    x 1.760160 0.000000 0.000000 
#    y 0.000000 1.759920 0.000000 
#    z 0.000000 0.000000 1.734600 
# 
# From -- ./inp_files/19652.got.cif
#   From: 2010.03.12/outbox.cif.g09.slc.cpg/sg37_10_cif.got.tgz:19652.got - 2010.04.14 02:25:27.
