data_PCOD8176447
_publ_section_title
;
Structure prediction by ZEFSAII (Michael W. Deem and Ramdas Pophale) SiO2 
 PCOD8176447
Probable space group: C C C 2
;
_chemical_formula_sum "Si O2"
_cell_formula_units_Z 40
_cell_length_a 5.061365
_cell_length_b 17.099484
_cell_length_c 22.130647
_cell_angle_alpha 90.000000
_cell_angle_beta 90.000000
_cell_angle_gamma 90.000000
_cell_volume 1915.335127
_symmetry_space_group_name_H-M "C C C 2"
_symmetry_group_IT_number 37
_symmetry_cell_setting 'orthorhombic'
loop_
_space_group_symop_operation_xyz
x,y,z
-x,-y,z
-x,y,1/2+z
x,-y,1/2+z
1/2+x,1/2+y,z
1/2-x,1/2-y,z
1/2-x,1/2+y,1/2+z
1/2+x,1/2-y,1/2+z
loop_
_atom_site_type_symbol
_atom_site_label
_atom_site_fract_x
_atom_site_fract_y
_atom_site_fract_z
Si Si1 0.996332 0.409356 0.152330
Si Si2 0.194221 0.841303 0.953509
Si Si3 0.195011 0.340273 0.891454
Si Si4 0.998593 0.909337 0.076351
Si Si5 0.505412 0.801995 0.764033
O O1 0.703639 0.389290 0.129642
O O2 0.000000 0.500000 0.169776
O O3 0.206996 0.387244 0.099934
O O4 0.072788 0.361532 0.211669
O O5 0.250000 0.750000 0.944150
O O6 0.477302 0.879726 0.936461
O O7 0.980319 0.878068 0.906105
O O8 0.086659 0.857250 0.020149
O O9 0.250000 0.250000 0.907103
O O10 0.099509 0.350770 0.822665
O O11 0.000000 0.000000 0.057432
O O12 0.250000 0.750000 0.781138
O O13 0.750000 0.750000 0.741223
#
# Coordination Sequence:
#
# PCOD8176447 Si02
#       5
#     8   8   8   8   8
#     4  10  22  39  56  78 112 148 180 223 278 323
#     4  10  19  33  54  78 105 139 177 217 263 320
#     4   9  18  33  53  78 108 138 169 218 276 314
#     4  10  21  37  55  77 110 147 180 221 273 322
#     4  11  21  36  59  83 109 142 184 227 268 323
#
# _framework density 20.884073999999998
#
# number of rings (size 3 to 8) (size 9 to 14) (size 15 to 20)
#    0.000    2.000    0.000    5.400    0.000    2.400 
#    0.000    2.000    0.000    0.000    0.000    0.000 
#    0.000    0.000    0.000    0.000    0.000    0.000 
#
# Total GULP energy -247871.254022 kJ/mol
# GULP energy per Si atom -12393.562701 kJ/mol
# Density = 2.083654 g / cm^3
# Si number density = 20.884074 Si / 1000 Ang^3
#
#
#
# Elastic Constant Matrix: (Units=GPa)
#
#
# Indices 1 2 3 4 5 6 
#
# 1 130.3129 25.4346 37.2610 0.0000 0.0000 0.0000
# 2 25.4346 23.4776 33.0655 0.0000 0.0000 0.0000
# 3 37.2610 33.0655 117.0961 0.0000 0.0000 0.0000
# 4 0.0000 0.0000 0.0000 3.5014 0.0000 0.0000
# 5 0.0000 0.0000 0.0000 0.0000 27.8127 0.0000
# 6 0.0000 0.0000 0.0000 0.0000 0.0000 18.2215
#
#
#
# Elastic Compliance Matrix: (Units=1/GPa)
#
#
# Indices 1 2 3 4 5 6 
#
# 1 0.009734 -0.010266 -0.000199 0.000000 0.000000 0.000000
# 2 -0.010266 0.081546 -0.019760 0.000000 0.000000 0.000000
# 3 -0.000199 -0.019760 0.014183 0.000000 0.000000 0.000000
# 4 0.000000 0.000000 0.000000 0.285602 0.000000 0.000000
# 5 0.000000 0.000000 0.000000 0.000000 0.035955 0.000000
# 6 0.000000 0.000000 0.000000 0.000000 0.000000 0.054880
#
#
# Mechanical properties :
#
#
# Convention : Reuss Voigt Hill
#
# Bulk Modulus (GPa) = 22.21558 51.37874 36.79716
# Shear Modulus (GPa) = 8.97096 21.58215 15.27656
#
# Velocity S-wave (km/s) = 2.07483 3.21818 2.70755
# Velocity P-wave (km/s) = 4.04976 6.20195 5.23759
#
# Compressibility (1/GPa) = 0.04501345
#
# Stress axis : x y z
#
# Youngs Moduli (GPa) = 102.72863 12.26309 70.50682
#
# Poissons Ratio (x) = 0.12589 0.01400
# Poissons Ratio (y) = 1.05462 1.39322
# Poissons Ratio (z) = 0.02041 0.24232
#
# Static dielectric constant tensor:
#      x y z
#    x 4.536710 0.000000 0.000000 
#    y 0.000000 3.320760 0.000000 
#    z 0.000000 0.000000 3.531160 
# 
# 
# High freq. dielectric constant tensor:
#      x y z
#    x 1.852590 0.000000 0.000000 
#    y 0.000000 1.764930 0.000000 
#    z 0.000000 0.000000 1.815890 
# 
# From -- ./inp_files/13820.got.cif
#   From: 2010.03.12/outbox.cif.g09.slc.cpg/sg37_7_cif.got.tgz:13820.got - 2010.04.14 02:25:27.
