data_PCOD8176304
_publ_section_title
;
Structure prediction by ZEFSAII (Michael W. Deem and Ramdas Pophale) SiO2 
 PCOD8176304
Probable space group: C M C 21
;
_chemical_formula_sum "Si O2"
_cell_formula_units_Z 64
_cell_length_a 26.131506
_cell_length_b 12.213877
_cell_length_c 9.160205
_cell_angle_alpha 90.000000
_cell_angle_beta 90.000000
_cell_angle_gamma 90.000000
_cell_volume 2923.635150
_symmetry_space_group_name_H-M "C M C 21"
_symmetry_group_IT_number 36
_symmetry_cell_setting 'orthorhombic'
loop_
_space_group_symop_operation_xyz
x,y,z
-x,-y,1/2+z
x,-y,1/2+z
-x,y,z
1/2+x,1/2+y,z
1/2-x,1/2-y,1/2+z
1/2+x,1/2-y,1/2+z
1/2-x,1/2+y,z
loop_
_atom_site_type_symbol
_atom_site_label
_atom_site_fract_x
_atom_site_fract_y
_atom_site_fract_z
Si Si1 0.681608 0.959778 0.532230
Si Si2 0.558588 0.236806 0.682057
Si Si3 0.442683 0.813498 0.855405
Si Si4 0.878716 0.910048 0.865519
Si Si5 0.395589 0.369139 0.200734
Si Si6 0.237359 0.123975 0.435437
Si Si7 0.208125 0.752462 0.204066
Si Si8 0.612292 0.034749 0.777521
O O1 0.707390 0.858237 0.610817
O O2 0.638477 0.915685 0.421879
O O3 0.723711 0.022468 0.433073
O O4 0.653825 0.038888 0.647796
O O5 0.500000 0.274821 0.707680
O O6 0.573561 0.236165 0.511864
O O7 0.598174 0.314072 0.766728
O O8 0.564654 0.112718 0.740509
O O9 0.500000 0.860960 0.863271
O O10 0.441982 0.712325 0.740926
O O11 0.405488 0.910573 0.804643
O O12 0.816999 0.907875 0.863965
O O13 0.898419 0.022999 0.798756
O O14 0.898513 0.899582 0.030884
O O15 0.347099 0.296278 0.248951
O O16 0.233600 0.154051 0.605591
O O17 0.259215 0.228778 0.348453
#
# Coordination Sequence:
#
# PCOD8176304 Si02
#       8
#     8   8   8   8   8   8   8   8
#     4  12  24  43  67 100 143 184 230 282 354 422
#     4  11  26  47  73 104 139 187 241 295 359 423
#     4  11  24  44  70 102 137 180 233 295 359 423
#     4  11  27  45  71  98 139 181 237 290 349 414
#     4  11  24  47  66 101 131 183 226 289 347 419
#     4  11  27  40  66 100 135 190 227 289 337 430
#     4  11  26  42  65  98 137 183 231 278 348 413
#     4  12  23  44  69 103 144 186 228 292 357 424
#
# _framework density 21.890556
#
# number of rings (size 3 to 8) (size 9 to 14) (size 15 to 20)
#    0.000    0.750    3.750    2.625    8.750    1.000 
#    0.000    0.000    0.000    0.000    0.000    0.000 
#    0.000    0.000    0.000    0.000    0.000    0.000 
#
# Total GULP energy -396883.222910 kJ/mol
# GULP energy per Si atom -12402.600716 kJ/mol
# Density = 2.184073 g / cm^3
# Si number density = 21.890556 Si / 1000 Ang^3
#
#
#
# Elastic Constant Matrix: (Units=GPa)
#
#
# Indices 1 2 3 4 5 6 
#
# 1 84.1129 32.1464 38.0453 0.0000 0.0000 0.0000
# 2 32.1464 98.7922 25.5744 0.0000 0.0000 0.0000
# 3 38.0453 25.5744 99.1403 0.0000 0.0000 0.0000
# 4 0.0000 0.0000 0.0000 43.2007 0.0000 0.0000
# 5 0.0000 0.0000 0.0000 0.0000 33.5396 0.0000
# 6 0.0000 0.0000 0.0000 0.0000 0.0000 28.3145
#
#
#
# Elastic Compliance Matrix: (Units=1/GPa)
#
#
# Indices 1 2 3 4 5 6 
#
# 1 0.015600 -0.003779 -0.005012 0.000000 0.000000 0.000000
# 2 -0.003779 0.011762 -0.001584 0.000000 0.000000 0.000000
# 3 -0.005012 -0.001584 0.012419 0.000000 0.000000 0.000000
# 4 0.000000 0.000000 0.000000 0.023148 0.000000 0.000000
# 5 0.000000 0.000000 0.000000 0.000000 0.029816 0.000000
# 6 0.000000 0.000000 0.000000 0.000000 0.000000 0.035318
#
#
# Mechanical properties :
#
#
# Convention : Reuss Voigt Hill
#
# Bulk Modulus (GPa) = 52.54472 52.61973 52.58223
# Shear Modulus (GPa) = 32.22610 33.42959 32.82784
#
# Velocity S-wave (km/s) = 3.84102 3.91208 3.87671
# Velocity P-wave (km/s) = 6.61262 6.67051 6.64163
#
# Compressibility (1/GPa) = 0.01903141
#
# Stress axis : x y z
#
# Youngs Moduli (GPa) = 64.10343 85.02034 80.52453
#
# Poissons Ratio (x) = 0.32127 0.40356
# Poissons Ratio (y) = 0.24223 0.12755
# Poissons Ratio (z) = 0.32127 0.13467
#
# Static dielectric constant tensor:
#      x y z
#    x 3.861850 0.000000 0.000000 
#    y 0.000000 3.903070 0.000000 
#    z 0.000000 0.000000 4.140300 
# 
# 
# High freq. dielectric constant tensor:
#      x y z
#    x 1.855940 0.000000 0.000000 
#    y 0.000000 1.861640 0.000000 
#    z 0.000000 0.000000 1.875050 
# 
# From -- ./inp_files/6072.got.cif
#   From: 2010.03.12/outbox.cif.g09.slc.cpg/sg36_4_cif.got.tgz:6072.got - 2010.04.14 02:13:53.
