data_PCOD8176764
_publ_section_title
;
Structure prediction by ZEFSAII (Michael W. Deem and Ramdas Pophale) SiO2 
 PCOD8176764
Probable space group: C C C 2
;
_chemical_formula_sum "Si O2"
_cell_formula_units_Z 56
_cell_length_a 16.560057
_cell_length_b 10.882964
_cell_length_c 15.280259
_cell_angle_alpha 90.000000
_cell_angle_beta 90.000000
_cell_angle_gamma 90.000000
_cell_volume 2753.846541
_symmetry_space_group_name_H-M "C C C 2"
_symmetry_group_IT_number 37
_symmetry_cell_setting 'orthorhombic'
loop_
_space_group_symop_operation_xyz
x,y,z
-x,-y,z
-x,y,1/2+z
x,-y,1/2+z
1/2+x,1/2+y,z
1/2-x,1/2-y,z
1/2-x,1/2+y,1/2+z
1/2+x,1/2-y,1/2+z
loop_
_atom_site_type_symbol
_atom_site_label
_atom_site_fract_x
_atom_site_fract_y
_atom_site_fract_z
Si Si1 0.091233 0.957838 0.748300
Si Si2 0.287091 0.479436 0.396055
Si Si3 0.369865 0.696653 0.150988
Si Si4 0.750000 0.250000 0.000663
Si Si5 0.449094 0.232115 0.139619
Si Si6 0.648274 0.862089 0.812348
Si Si7 0.000000 0.500000 0.740197
Si Si8 0.162638 0.209490 0.982223
O O1 0.139161 0.933752 0.837281
O O2 0.096252 0.825428 0.703604
O O3 0.136388 0.057847 0.687177
O O4 0.000000 0.000000 0.769835
O O5 0.237078 0.368357 0.439203
O O6 0.223375 0.552081 0.335735
O O7 0.329496 0.562445 0.471529
O O8 0.326243 0.718914 0.059898
O O9 0.461058 0.722930 0.125821
O O10 0.333699 0.792108 0.221594
O O11 0.449942 0.094691 0.179002
O O12 0.404303 0.238290 0.047141
O O13 0.638346 0.760574 0.887115
O O14 0.564076 0.934387 0.803506
O O15 0.250000 0.250000 0.016480
#
# Coordination Sequence:
#
# PCOD8176764 Si02
#       8
#     8   8   8   4   8   8   4   8
#     4  10  21  40  68  90 122 167 214 256 314 381
#     4  11  24  39  60  99 125 163 212 263 316 372
#     4  10  21  43  64  89 123 174 207 255 324 381
#     4  12  26  36  62  98 130 156 210 272 318 360
#     4  10  23  39  64  94 126 162 213 261 315 369
#     4  10  22  41  66  85 126 175 210 251 325 385
#     4  10  24  40  62  96 126 172 206 256 324 374
#     4  10  22  40  63  91 122 167 214 256 312 372
#
# _framework density 20.335193
#
# number of rings (size 3 to 8) (size 9 to 14) (size 15 to 20)
#    0.000    1.714    1.429    1.714    3.000    8.571 
#    0.000    0.000    0.000    0.000    0.000    0.000 
#    0.000    0.000    0.000    0.000    0.000    0.000 
#
# Total GULP energy -347182.766438 kJ/mol
# GULP energy per Si atom -12399.384516 kJ/mol
# Density = 2.028891 g / cm^3
# Si number density = 20.335193 Si / 1000 Ang^3
#
#
#
# Elastic Constant Matrix: (Units=GPa)
#
#
# Indices 1 2 3 4 5 6 
#
# 1 73.2987 37.7762 51.9082 0.0000 0.0000 0.0000
# 2 37.7762 143.6209 50.2185 0.0000 0.0000 0.0000
# 3 51.9082 50.2185 100.5606 0.0000 0.0000 0.0000
# 4 0.0000 0.0000 0.0000 19.4125 0.0000 0.0000
# 5 0.0000 0.0000 0.0000 0.0000 34.5183 0.0000
# 6 0.0000 0.0000 0.0000 0.0000 0.0000 30.3747
#
#
#
# Elastic Compliance Matrix: (Units=1/GPa)
#
#
# Indices 1 2 3 4 5 6 
#
# 1 0.022066 -0.002207 -0.010288 0.000000 0.000000 0.000000
# 2 -0.002207 0.008656 -0.003184 0.000000 0.000000 0.000000
# 3 -0.010288 -0.003184 0.016845 0.000000 0.000000 0.000000
# 4 0.000000 0.000000 0.000000 0.051513 0.000000 0.000000
# 5 0.000000 0.000000 0.000000 0.000000 0.028970 0.000000
# 6 0.000000 0.000000 0.000000 0.000000 0.000000 0.032922
#
#
# Mechanical properties :
#
#
# Convention : Reuss Voigt Hill
#
# Bulk Modulus (GPa) = 61.69085 66.36512 64.02799
# Shear Modulus (GPa) = 25.28659 28.69958 26.99308
#
# Velocity S-wave (km/s) = 3.53014 3.76084 3.64731
# Velocity P-wave (km/s) = 6.85702 7.18088 7.02081
#
# Compressibility (1/GPa) = 0.01620986
#
# Stress axis : x y z
#
# Youngs Moduli (GPa) = 45.31888 115.52086 59.36515
#
# Poissons Ratio (x) = 0.25490 0.61076
# Poissons Ratio (y) = 0.10000 0.18901
# Poissons Ratio (z) = 0.46625 0.36781
#
# Static dielectric constant tensor:
#      x y z
#    x 3.672140 0.000000 0.000000 
#    y 0.000000 3.925540 0.000000 
#    z 0.000000 0.000000 3.543910 
# 
# 
# High freq. dielectric constant tensor:
#      x y z
#    x 1.798170 0.000000 0.000000 
#    y 0.000000 1.804470 0.000000 
#    z 0.000000 0.000000 1.789350 
# 
# From -- ./inp_files/11635.got.cif
#   From: 2010.03.12/outbox.cif.g09.slc.cpg/sg37_6_cif.got.tgz:11635.got - 2010.04.14 02:25:27.
