data_PCOD8176071
_publ_section_title
;
Structure prediction by ZEFSAII (Michael W. Deem and Ramdas Pophale) SiO2 
 PCOD8176071
Probable space group: C M C 21
;
_chemical_formula_sum "Si O2"
_cell_formula_units_Z 48
_cell_length_a 15.778612
_cell_length_b 16.368290
_cell_length_c 7.787897
_cell_angle_alpha 90.000000
_cell_angle_beta 90.000000
_cell_angle_gamma 90.000000
_cell_volume 2011.371568
_symmetry_space_group_name_H-M "C M C 21"
_symmetry_group_IT_number 36
_symmetry_cell_setting 'orthorhombic'
loop_
_space_group_symop_operation_xyz
x,y,z
-x,-y,1/2+z
x,-y,1/2+z
-x,y,z
1/2+x,1/2+y,z
1/2-x,1/2-y,1/2+z
1/2+x,1/2-y,1/2+z
1/2-x,1/2+y,z
loop_
_atom_site_type_symbol
_atom_site_label
_atom_site_fract_x
_atom_site_fract_y
_atom_site_fract_z
Si Si1 0.595808 0.878672 0.027230
Si Si2 0.095808 0.121328 0.452180
Si Si3 0.901549 0.451775 0.665431
Si Si4 0.901549 0.951775 0.313979
Si Si5 0.689250 0.250000 0.739705
Si Si6 0.250000 0.874476 0.489705
O O1 0.500000 0.854525 0.995896
O O2 0.637135 0.793810 0.086853
O O3 0.605740 0.949329 0.171837
O O4 0.630122 0.913622 0.845248
O O5 0.130121 0.086378 0.634163
O O6 0.137135 0.206190 0.392557
O O7 0.000000 0.145476 0.483514
O O8 0.105740 0.050671 0.307573
O O9 0.836868 0.425249 0.514191
O O10 0.000000 0.428499 0.619943
O O11 0.836867 0.925249 0.465219
O O12 0.000000 0.928499 0.359467
O O13 0.746527 0.319623 0.659017
O O14 0.746527 0.180377 0.820393
#
# Coordination Sequence:
#
# PCOD8176071 Si02
#       6
#     8   8   8   8   8   8
#     4  10  22  42  68  96 128 167 213 264 317 376
#     4  10  22  42  68  96 128 167 213 264 317 376
#     4  10  23  44  68  94 126 169 217 261 311 377
#     4  10  23  44  68  94 126 169 217 261 311 377
#     4  12  25  40  61  96 132 168 210 262 322 376
#     4  12  26  42  66  94 130 172 212 262 316 378
#
# _framework density 23.864312999999999
#
# number of rings (size 3 to 8) (size 9 to 14) (size 15 to 20)
#    0.000    1.333    0.000    4.500    0.000   12.000 
#    0.000    4.167    0.000    0.000    0.000    0.000 
#    0.000    0.000    0.000    0.000    0.000    0.000 
#
# Total GULP energy -297421.124881 kJ/mol
# GULP energy per Si atom -12392.546870 kJ/mol
# Density = 2.381000 g / cm^3
# Si number density = 23.864313 Si / 1000 Ang^3
#
#
#
# Elastic Constant Matrix: (Units=GPa)
#
#
# Indices 1 2 3 4 5 6 
#
# 1 96.4698 51.9873 46.4831 0.0000 0.0000 0.0000
# 2 51.9873 85.9660 15.2920 0.0000 0.0000 0.0000
# 3 46.4831 15.2920 76.9992 0.0000 0.0000 0.0000
# 4 0.0000 0.0000 0.0000 51.9815 0.0000 0.0000
# 5 0.0000 0.0000 0.0000 0.0000 33.9987 0.0000
# 6 0.0000 0.0000 0.0000 0.0000 0.0000 22.3955
#
#
#
# Elastic Compliance Matrix: (Units=1/GPa)
#
#
# Indices 1 2 3 4 5 6 
#
# 1 0.021568 -0.011120 -0.010812 0.000000 0.000000 0.000000
# 2 -0.011120 0.017792 0.003179 0.000000 0.000000 0.000000
# 3 -0.010812 0.003179 0.018883 0.000000 0.000000 0.000000
# 4 0.000000 0.000000 0.000000 0.019238 0.000000 0.000000
# 5 0.000000 0.000000 0.000000 0.000000 0.029413 0.000000
# 6 0.000000 0.000000 0.000000 0.000000 0.000000 0.044652
#
#
# Mechanical properties :
#
#
# Convention : Reuss Voigt Hill
#
# Bulk Modulus (GPa) = 48.22122 54.10667 51.16395
# Shear Modulus (GPa) = 25.51521 31.38663 28.45092
#
# Velocity S-wave (km/s) = 3.27338 3.63052 3.45656
# Velocity P-wave (km/s) = 5.87681 6.34792 6.11690
#
# Compressibility (1/GPa) = 0.02073776
#
# Stress axis : x y z
#
# Youngs Moduli (GPa) = 46.36503 56.20643 52.95875
#
# Poissons Ratio (x) = 0.62501 0.57258
# Poissons Ratio (y) = 0.51557 -0.16838
# Poissons Ratio (z) = 0.50129 -0.17871
#
# Static dielectric constant tensor:
#      x y z
#    x 4.228710 0.000000 0.000000 
#    y 0.000000 4.246980 0.000000 
#    z 0.000000 0.000000 4.516130 
# 
# 
# High freq. dielectric constant tensor:
#      x y z
#    x 1.942700 0.000000 0.000000 
#    y 0.000000 1.945200 0.000000 
#    z 0.000000 0.000000 1.949050 
# 
# From -- ./inp_files/4667.got.cif
#   From: 2010.03.12/outbox.cif.g09.slc.cpg/sg36_3_cif.got.tgz:4667.got - 2010.04.14 02:13:53.
