data_PCOD8176404
_publ_section_title
;
Structure prediction by ZEFSAII (Michael W. Deem and Ramdas Pophale) SiO2 
 PCOD8176404
Probable space group: C C C 2
;
_chemical_formula_sum "Si O2"
_cell_formula_units_Z 64
_cell_length_a 16.395518
_cell_length_b 12.250270
_cell_length_c 17.207295
_cell_angle_alpha 90.000000
_cell_angle_beta 90.000000
_cell_angle_gamma 90.000000
_cell_volume 3456.076981
_symmetry_space_group_name_H-M "C C C 2"
_symmetry_group_IT_number 37
_symmetry_cell_setting 'orthorhombic'
loop_
_space_group_symop_operation_xyz
x,y,z
-x,-y,z
-x,y,1/2+z
x,-y,1/2+z
1/2+x,1/2+y,z
1/2-x,1/2-y,z
1/2-x,1/2+y,1/2+z
1/2+x,1/2-y,1/2+z
loop_
_atom_site_type_symbol
_atom_site_label
_atom_site_fract_x
_atom_site_fract_y
_atom_site_fract_z
Si Si1 0.624817 0.007956 0.150310
Si Si2 0.956547 0.893763 0.716406
Si Si3 0.513389 0.160884 0.900675
Si Si4 0.226880 0.128318 0.716724
Si Si5 0.486611 0.160884 0.216656
Si Si6 0.543453 0.393764 0.400925
Si Si7 0.124817 0.507955 0.467021
Si Si8 0.773120 0.128317 0.400606
O O1 0.598132 0.890799 0.186242
O O2 0.715641 0.038209 0.176922
O O3 0.563363 0.100017 0.179734
O O4 0.620434 0.000000 0.058665
O O5 0.864182 0.891976 0.685707
O O6 0.007459 0.786957 0.690480
O O7 0.954586 0.899502 0.808665
O O8 0.000000 0.000000 0.680444
O O9 0.507208 0.147707 0.808666
O O10 0.507458 0.286957 0.926852
O O11 0.598133 0.109203 0.931089
O O12 0.436637 0.100014 0.937597
O O13 0.250000 0.250000 0.690519
O O14 0.235320 0.114805 0.808665
O O15 0.500000 0.500000 0.436886
O O16 0.635819 0.391977 0.431623
O O17 0.215641 0.538209 0.440408
O O18 0.750000 0.250000 0.426811
#
# Coordination Sequence:
#
# PCOD8176404 Si02
#       8
#     8   8   8   8   8   8   8   8
#     4  11  21  33  53  81 117 142 180 232 283 324
#     4   9  18  33  57  85 109 134 176 232 280 322
#     4  10  18  33  58  84 107 142 188 231 274 326
#     4  10  18  34  59  83 105 142 192 231 265 324
#     4  10  18  33  58  84 107 142 188 231 274 326
#     4   9  18  33  57  85 109 134 176 232 280 322
#     4  11  21  33  53  81 117 142 180 232 283 324
#     4  10  18  34  59  83 105 142 192 231 265 324
#
# _framework density 18.518106
#
# number of rings (size 3 to 8) (size 9 to 14) (size 15 to 20)
#    0.000    2.000    2.500    4.500    0.000    0.000 
#    0.000    3.750    0.000    6.000    0.000    0.000 
#    0.000    0.000    0.000    0.000    0.000    0.000 
#
# Total GULP energy -396779.763585 kJ/mol
# GULP energy per Si atom -12399.367612 kJ/mol
# Density = 1.847596 g / cm^3
# Si number density = 18.518106 Si / 1000 Ang^3
#
#
#
# Elastic Constant Matrix: (Units=GPa)
#
#
# Indices 1 2 3 4 5 6 
#
# 1 138.0580 95.6142 35.8450 0.0000 0.0000 0.0000
# 2 95.6142 169.4299 42.7756 0.0000 0.0000 0.0000
# 3 35.8450 42.7756 77.6366 0.0000 0.0000 0.0000
# 4 0.0000 0.0000 0.0000 0.6019 0.0000 0.0000
# 5 0.0000 0.0000 0.0000 0.0000 18.1589 0.0000
# 6 0.0000 0.0000 0.0000 0.0000 0.0000 39.5845
#
#
#
# Elastic Compliance Matrix: (Units=1/GPa)
#
#
# Indices 1 2 3 4 5 6 
#
# 1 0.012188 -0.006339 -0.002134 0.000000 0.000000 0.000000
# 2 -0.006339 0.010153 -0.002667 0.000000 0.000000 0.000000
# 3 -0.002134 -0.002667 0.015336 0.000000 0.000000 0.000000
# 4 0.000000 0.000000 0.000000 1.661347 0.000000 0.000000
# 5 0.000000 0.000000 0.000000 0.000000 0.055069 0.000000
# 6 0.000000 0.000000 0.000000 0.000000 0.000000 0.025262
#
#
# Mechanical properties :
#
#
# Convention : Reuss Voigt Hill
#
# Bulk Modulus (GPa) = 64.95720 81.51044 73.23382
# Shear Modulus (GPa) = 2.76737 25.72839 14.24788
#
# Velocity S-wave (km/s) = 1.22379 3.73146 2.77682
# Velocity P-wave (km/s) = 6.09514 7.91690 7.06498
#
# Compressibility (1/GPa) = 0.01539475
#
# Stress axis : x y z
#
# Youngs Moduli (GPa) = 82.05013 98.49517 65.20793
#
# Poissons Ratio (x) = 0.62436 0.13919
# Poissons Ratio (y) = 0.52011 0.17392
# Poissons Ratio (z) = 0.17513 0.26270
#
# Static dielectric constant tensor:
#      x y z
#    x 3.544010 0.000000 0.000000 
#    y 0.000000 3.702970 0.000000 
#    z 0.000000 0.000000 3.129230 
# 
# 
# High freq. dielectric constant tensor:
#      x y z
#    x 1.714590 0.000000 0.000000 
#    y 0.000000 1.720840 0.000000 
#    z 0.000000 0.000000 1.693290 
# 
# From -- ./inp_files/12705.got.cif
#   From: 2010.03.12/outbox.cif.g09.slc.cpg/sg37_7_cif.got.tgz:12705.got - 2010.04.14 02:25:27.
