data_PCOD8176760
_publ_section_title
;
Structure prediction by ZEFSAII (Michael W. Deem and Ramdas Pophale) SiO2 
 PCOD8176760
Probable space group: C C C 2
;
_chemical_formula_sum "Si O2"
_cell_formula_units_Z 48
_cell_length_a 11.148266
_cell_length_b 11.147648
_cell_length_c 18.219028
_cell_angle_alpha 90.000000
_cell_angle_beta 90.000000
_cell_angle_gamma 90.000000
_cell_volume 2264.205144
_symmetry_space_group_name_H-M "C C C 2"
_symmetry_group_IT_number 37
_symmetry_cell_setting 'orthorhombic'
loop_
_space_group_symop_operation_xyz
x,y,z
-x,-y,z
-x,y,1/2+z
x,-y,1/2+z
1/2+x,1/2+y,z
1/2-x,1/2-y,z
1/2-x,1/2+y,1/2+z
1/2+x,1/2-y,1/2+z
loop_
_atom_site_type_symbol
_atom_site_label
_atom_site_fract_x
_atom_site_fract_y
_atom_site_fract_z
Si Si1 0.906250 0.593741 0.983290
Si Si2 0.442473 0.252387 0.731265
Si Si3 0.503889 0.693781 0.389146
Si Si4 0.345008 0.155024 0.140150
Si Si5 0.693785 0.496089 0.889155
Si Si6 0.247664 0.057508 0.731275
O O1 0.982494 0.687019 0.935269
O O2 0.812954 0.517465 0.935304
O O3 0.000000 0.500000 0.016996
O O4 0.843103 0.656919 0.051953
O O5 0.522134 0.276748 0.803251
O O6 0.524498 0.197129 0.667506
O O7 0.343927 0.156092 0.754752
O O8 0.374879 0.374926 0.704479
O O9 0.386753 0.613236 0.399511
O O10 0.623168 0.623188 0.416288
O O11 0.250000 0.250000 0.169823
O O12 0.302958 0.024514 0.167523
O O13 0.723317 0.477852 0.803267
#
# Coordination Sequence:
#
# PCOD8176760 Si02
#       6
#     8   8   8   8   8   8
#     4  12  26  42  62  92 128 169 210 267 324 382
#     4  10  21  40  67  96 129 167 213 268 321 380
#     4  10  21  40  66  93 124 166 215 263 317 381
#     4  12  26  42  64  92 130 171 216 262 321 391
#     4  10  21  40  66  93 124 166 215 263 317 381
#     4  10  21  40  67  96 129 167 213 268 321 380
#
# _framework density 21.199493
#
# number of rings (size 3 to 8) (size 9 to 14) (size 15 to 20)
#    0.000    1.333    1.667    4.000    2.333    4.000 
#    0.000    0.000    0.000    0.000    0.000    0.000 
#    0.000    0.000    0.000    0.000    0.000    0.000 
#
# Total GULP energy -297628.474095 kJ/mol
# GULP energy per Si atom -12401.186421 kJ/mol
# Density = 2.115124 g / cm^3
# Si number density = 21.199493 Si / 1000 Ang^3
#
#
#
# Elastic Constant Matrix: (Units=GPa)
#
#
# Indices 1 2 3 4 5 6 
#
# 1 88.3881 59.1261 40.9412 0.0000 0.0000 0.0000
# 2 59.1261 88.2327 40.8771 0.0000 0.0000 0.0000
# 3 40.9412 40.8771 95.2583 0.0000 0.0000 0.0000
# 4 0.0000 0.0000 0.0000 19.3425 0.0000 0.0000
# 5 0.0000 0.0000 0.0000 0.0000 19.3563 0.0000
# 6 0.0000 0.0000 0.0000 0.0000 0.0000 43.4345
#
#
#
# Elastic Compliance Matrix: (Units=1/GPa)
#
#
# Indices 1 2 3 4 5 6 
#
# 1 0.021570 -0.012680 -0.003829 0.000000 0.000000 0.000000
# 2 -0.012680 0.021600 -0.003819 0.000000 0.000000 0.000000
# 3 -0.003829 -0.003819 0.013782 0.000000 0.000000 0.000000
# 4 0.000000 0.000000 0.000000 0.051700 0.000000 0.000000
# 5 0.000000 0.000000 0.000000 0.000000 0.051663 0.000000
# 6 0.000000 0.000000 0.000000 0.000000 0.000000 0.023023
#
#
# Mechanical properties :
#
#
# Convention : Reuss Voigt Hill
#
# Bulk Modulus (GPa) = 61.36780 61.52978 61.44879
# Shear Modulus (GPa) = 21.79347 25.15565 23.47456
#
# Velocity S-wave (km/s) = 3.20975 3.44847 3.33125
# Velocity P-wave (km/s) = 6.53814 6.70396 6.62157
#
# Compressibility (1/GPa) = 0.01629519
#
# Stress axis : x y z
#
# Youngs Moduli (GPa) = 46.36154 46.29584 72.55616
#
# Poissons Ratio (x) = 0.58704 0.27783
# Poissons Ratio (y) = 0.58787 0.27711
# Poissons Ratio (z) = 0.17753 0.17682
#
# Static dielectric constant tensor:
#      x y z
#    x 3.881060 0.000000 0.000000 
#    y 0.000000 3.880890 0.000000 
#    z 0.000000 0.000000 3.451920 
# 
# 
# High freq. dielectric constant tensor:
#      x y z
#    x 1.840490 0.000000 0.000000 
#    y 0.000000 1.840480 0.000000 
#    z 0.000000 0.000000 1.810230 
# 
# From -- ./inp_files/14993.got.cif
#   From: 2010.03.12/outbox.cif.g09.slc.cpg/sg37_8_cif.got.tgz:14993.got - 2010.04.14 02:25:27.
