data_PCOD8176938
_publ_section_title
;
Structure prediction by ZEFSAII (Michael W. Deem and Ramdas Pophale) SiO2 
 PCOD8176938
Probable space group: C C C 2
;
_chemical_formula_sum "Si O2"
_cell_formula_units_Z 40
_cell_length_a 22.585287
_cell_length_b 6.369404
_cell_length_c 12.072220
_cell_angle_alpha 90.000000
_cell_angle_beta 90.000000
_cell_angle_gamma 90.000000
_cell_volume 1736.647003
_symmetry_space_group_name_H-M "C C C 2"
_symmetry_group_IT_number 37
_symmetry_cell_setting 'orthorhombic'
loop_
_space_group_symop_operation_xyz
x,y,z
-x,-y,z
-x,y,1/2+z
x,-y,1/2+z
1/2+x,1/2+y,z
1/2-x,1/2-y,z
1/2-x,1/2+y,1/2+z
1/2+x,1/2-y,1/2+z
loop_
_atom_site_type_symbol
_atom_site_label
_atom_site_fract_x
_atom_site_fract_y
_atom_site_fract_z
Si Si1 0.500000 0.000000 0.736420
Si Si2 0.156831 0.074645 0.694012
Si Si3 0.947504 0.143807 0.586242
Si Si4 0.250000 0.250000 0.128490
Si Si5 0.695316 0.122902 0.998420
Si Si6 0.889736 0.648126 0.878176
O O1 0.475413 0.828883 0.654698
O O2 0.551404 0.909247 0.812789
O O3 0.092117 0.982849 0.673185
O O4 0.206504 0.892406 0.704304
O O5 0.170574 0.232098 0.594933
O O6 0.154661 0.204312 0.808158
O O7 0.906672 0.225488 0.487769
O O8 0.000000 0.000000 0.537067
O O9 0.212167 0.398408 0.048977
O O10 0.750000 0.250000 0.942455
O O11 0.644927 0.069036 0.907608
#
# Coordination Sequence:
#
# PCOD8176938 Si02
#       6
#     4   8   8   4   8   8
#     4  12  28  48  72 112 150 190 248 312 374 450
#     4  11  25  48  75 109 149 195 251 312 377 450
#     4  12  27  48  71 107 154 188 246 315 364 448
#     4  10  22  52  72 102 156 186 244 324 368 434
#     4  10  24  51  72 108 150 192 251 318 369 446
#     4  12  26  46  78 110 146 205 246 301 386 444
#
# _framework density 23.032889999999998
#
# number of rings (size 3 to 8) (size 9 to 14) (size 15 to 20)
#    0.000    0.800    4.000    1.800    5.600    0.000 
#    7.200    0.000    0.000    0.000    0.000    0.000 
#    0.000    0.000    0.000    0.000    0.000    0.000 
#
# Total GULP energy -248080.687121 kJ/mol
# GULP energy per Si atom -12404.034356 kJ/mol
# Density = 2.298047 g / cm^3
# Si number density = 23.032890 Si / 1000 Ang^3
#
#
#
# Elastic Constant Matrix: (Units=GPa)
#
#
# Indices 1 2 3 4 5 6 
#
# 1 90.8098 41.7115 28.3084 0.0000 0.0000 0.0000
# 2 41.7115 126.6555 39.0110 0.0000 0.0000 0.0000
# 3 28.3084 39.0110 91.9054 0.0000 0.0000 0.0000
# 4 0.0000 0.0000 0.0000 -0.8710 0.0000 0.0000
# 5 0.0000 0.0000 0.0000 0.0000 98.6694 0.0000
# 6 0.0000 0.0000 0.0000 0.0000 0.0000 64.3178
#
#
#
# Elastic Compliance Matrix: (Units=1/GPa)
#
#
# Indices 1 2 3 4 5 6 
#
# 1 0.013499 -0.003641 -0.002612 0.000000 0.000000 0.000000
# 2 -0.003641 0.010065 -0.003151 0.000000 0.000000 0.000000
# 3 -0.002612 -0.003151 0.013023 0.000000 0.000000 0.000000
# 4 0.000000 0.000000 0.000000 -1.148076 0.000000 0.000000
# 5 0.000000 0.000000 0.000000 0.000000 0.010135 0.000000
# 6 0.000000 0.000000 0.000000 0.000000 0.000000 0.015548
#
#
# Mechanical properties :
#
#
# Convention : Reuss Voigt Hill
#
# Bulk Modulus (GPa) = 56.24817 58.60360 57.42588
# Shear Modulus (GPa) = -4.71222 45.77921 20.53350
#
# Velocity S-wave (km/s) = -1.43189 4.46304 2.98902
# Velocity P-wave (km/s) = 4.66263 7.21505 6.07442
#
# Compressibility (1/GPa) = 0.01777836
#
# Stress axis : x y z
#
# Youngs Moduli (GPa) = 74.08080 99.35445 76.78822
#
# Poissons Ratio (x) = 0.36174 0.20060
# Poissons Ratio (y) = 0.26972 0.24194
# Poissons Ratio (z) = 0.19353 0.31305
#
# Static dielectric constant tensor:
#      x y z
#    x 3.902600 0.000000 0.000000 
#    y 0.000000 4.514560 0.000000 
#    z 0.000000 0.000000 3.960880 
# 
# 
# High freq. dielectric constant tensor:
#      x y z
#    x 1.930920 0.000000 0.000000 
#    y 0.000000 1.929400 0.000000 
#    z 0.000000 0.000000 1.900630 
# 
# From -- ./inp_files/5564.got.cif
#   From: 2010.03.12/outbox.cif.g09.slc.cpg/sg37_3_cif.got.tgz:5564.got - 2010.04.14 02:25:27.
