data_PCOD8176201
_publ_section_title
;
Structure prediction by ZEFSAII (Michael W. Deem and Ramdas Pophale) SiO2 
 PCOD8176201
Probable space group: C M C 21
;
_chemical_formula_sum "Si O2"
_cell_formula_units_Z 64
_cell_length_a 9.237850
_cell_length_b 22.801696
_cell_length_c 16.443789
_cell_angle_alpha 90.000000
_cell_angle_beta 90.000000
_cell_angle_gamma 90.000000
_cell_volume 3463.697473
_symmetry_space_group_name_H-M "C M C 21"
_symmetry_group_IT_number 36
_symmetry_cell_setting 'orthorhombic'
loop_
_space_group_symop_operation_xyz
x,y,z
-x,-y,1/2+z
x,-y,1/2+z
-x,y,z
1/2+x,1/2+y,z
1/2-x,1/2-y,1/2+z
1/2+x,1/2-y,1/2+z
1/2-x,1/2+y,z
loop_
_atom_site_type_symbol
_atom_site_label
_atom_site_fract_x
_atom_site_fract_y
_atom_site_fract_z
Si Si1 0.331401 0.405040 0.031450
Si Si2 0.337873 0.365616 0.620962
Si Si3 0.666207 0.689379 0.403384
Si Si4 0.171403 0.711683 0.239346
Si Si5 0.673657 0.534405 0.003202
Si Si6 0.157634 0.782788 0.470958
Si Si7 0.165387 0.109061 0.857008
Si Si8 0.173263 0.841474 0.192027
O O1 0.500000 0.411628 0.050158
O O2 0.264128 0.369185 0.108056
O O3 0.306384 0.373346 0.945187
O O4 0.263193 0.469819 0.021046
O O5 0.500000 0.376039 0.656270
O O6 0.231736 0.344651 0.691484
O O7 0.277165 0.424667 0.578573
O O8 0.341286 0.314338 0.556159
O O9 0.500000 0.696996 0.376733
O O10 0.773616 0.701975 0.330216
O O11 0.710111 0.736931 0.471848
O O12 0.227652 0.774104 0.203282
O O13 0.000000 0.709093 0.238521
O O14 0.500000 0.536373 0.998146
O O15 0.736929 0.559699 0.916785
O O16 0.181144 0.827776 0.397699
O O17 0.000000 0.752191 0.459155
O O18 0.232864 0.117115 0.766370
O O19 0.000000 0.090558 0.846202
O O20 0.000000 0.840604 0.193193
#
# Coordination Sequence:
#
# PCOD8176201 Si02
#       8
#     8   8   8   8   8   8   8   8
#     4   9  18  31  46  73 107 135 165 211 263 307
#     4   9  18  32  53  79 104 129 166 215 258 305
#     4  11  21  32  48  74 110 137 168 218 262 303
#     4  11  21  34  52  74 103 138 176 211 262 321
#     4   8  15  30  49  71 103 135 165 204 254 307
#     4   9  16  30  51  74 102 135 166 199 253 316
#     4   8  13  25  47  71  94 128 171 205 236 296
#     4   9  16  28  48  72  97 129 173 213 248 305
#
# _framework density 18.477364999999999
#
# number of rings (size 3 to 8) (size 9 to 14) (size 15 to 20)
#    0.000    2.750    1.250    3.000    0.000    1.500 
#    2.250    0.000    0.000    1.500    0.000    3.500 
#    0.000    0.000    0.000    0.000    0.000    0.000 
#
# Total GULP energy -396470.010914 kJ/mol
# GULP energy per Si atom -12389.687841 kJ/mol
# Density = 1.843531 g / cm^3
# Si number density = 18.477365 Si / 1000 Ang^3
#
#
#
# Elastic Constant Matrix: (Units=GPa)
#
#
# Indices 1 2 3 4 5 6 
#
# 1 38.2948 28.9401 23.5195 0.0000 0.0000 0.0000
# 2 28.9401 118.7492 49.7294 0.0000 0.0000 0.0000
# 3 23.5195 49.7294 74.5051 0.0000 0.0000 0.0000
# 4 0.0000 0.0000 0.0000 23.9435 0.0000 0.0000
# 5 0.0000 0.0000 0.0000 0.0000 22.3014 0.0000
# 6 0.0000 0.0000 0.0000 0.0000 0.0000 16.9228
#
#
#
# Elastic Compliance Matrix: (Units=1/GPa)
#
#
# Indices 1 2 3 4 5 6 
#
# 1 0.034697 -0.005370 -0.007369 0.000000 0.000000 0.000000
# 2 -0.005370 0.012519 -0.006661 0.000000 0.000000 0.000000
# 3 -0.007369 -0.006661 0.020194 0.000000 0.000000 0.000000
# 4 0.000000 0.000000 0.000000 0.041765 0.000000 0.000000
# 5 0.000000 0.000000 0.000000 0.000000 0.044840 0.000000
# 6 0.000000 0.000000 0.000000 0.000000 0.000000 0.059092
#
#
# Mechanical properties :
#
#
# Convention : Reuss Voigt Hill
#
# Bulk Modulus (GPa) = 34.95175 48.43633 41.69404
# Shear Modulus (GPa) = 19.12455 21.25754 20.19104
#
# Velocity S-wave (km/s) = 3.22067 3.39553 3.30926
# Velocity P-wave (km/s) = 5.72602 6.45319 6.10045
#
# Compressibility (1/GPa) = 0.02861087
#
# Stress axis : x y z
#
# Youngs Moduli (GPa) = 28.82080 79.87666 49.51975
#
# Poissons Ratio (x) = 0.42895 0.36490
# Poissons Ratio (y) = 0.15477 0.32985
# Poissons Ratio (z) = 0.21237 0.53205
#
# Static dielectric constant tensor:
#      x y z
#    x 3.136500 0.000000 0.000000 
#    y 0.000000 3.555480 0.000000 
#    z 0.000000 0.000000 3.633380 
# 
# 
# High freq. dielectric constant tensor:
#      x y z
#    x 1.658040 0.000000 0.000000 
#    y 0.000000 1.708490 0.000000 
#    z 0.000000 0.000000 1.726210 
# 
# From -- ./inp_files/13945.got.cif
#   From: 2010.03.12/outbox.cif.g09.slc.cpg/sg36_7_cif.got.tgz:13945.got - 2010.04.14 02:13:53.
