data_PCOD8176835
_publ_section_title
;
Structure prediction by ZEFSAII (Michael W. Deem and Ramdas Pophale) SiO2 
 PCOD8176835
Probable space group: C C C 2
;
_chemical_formula_sum "Si O2"
_cell_formula_units_Z 40
_cell_length_a 5.370295
_cell_length_b 19.066166
_cell_length_c 17.802353
_cell_angle_alpha 90.000000
_cell_angle_beta 90.000000
_cell_angle_gamma 90.000000
_cell_volume 1822.799586
_symmetry_space_group_name_H-M "C C C 2"
_symmetry_group_IT_number 37
_symmetry_cell_setting 'orthorhombic'
loop_
_space_group_symop_operation_xyz
x,y,z
-x,-y,z
-x,y,1/2+z
x,-y,1/2+z
1/2+x,1/2+y,z
1/2-x,1/2-y,z
1/2-x,1/2+y,1/2+z
1/2+x,1/2-y,1/2+z
loop_
_atom_site_type_symbol
_atom_site_label
_atom_site_fract_x
_atom_site_fract_y
_atom_site_fract_z
Si Si1 0.750000 0.750000 0.122751
Si Si2 0.593488 0.187697 0.231087
Si Si3 0.250699 0.963278 0.200020
Si Si4 0.248229 0.037521 0.522026
Si Si5 0.568630 0.311303 0.992687
Si Si6 0.750000 0.250000 0.373597
O O1 0.649414 0.812557 0.177692
O O2 0.558128 0.706067 0.072221
O O3 0.750000 0.250000 0.191298
O O4 0.746698 0.116104 0.228578
O O5 0.549890 0.210228 0.318595
O O6 0.253057 0.966904 0.110948
O O7 0.500000 0.000000 0.232402
O O8 0.000000 0.000000 0.231860
O O9 0.231184 0.118105 0.496300
O O10 0.500000 0.000000 0.490144
O O11 0.000000 0.000000 0.490389
O O12 0.750000 0.250000 0.968936
O O13 0.366432 0.311495 0.925542
#
# Coordination Sequence:
#
# PCOD8176835 Si02
#       6
#     4   8   8   8   8   4
#     4  11  22  36  76 101 128 172 254 289 354 410
#     4  10  23  41  66  98 132 181 227 286 342 422
#     4  10  22  38  64 101 137 169 221 290 350 407
#     4  10  23  39  65 101 138 172 223 289 351 406
#     4  11  24  43  68  98 135 185 234 295 342 429
#     4   9  26  42  68  93 144 178 242 279 366 400
#
# _framework density 21.944265000000001
#
# number of rings (size 3 to 8) (size 9 to 14) (size 15 to 20)
#    0.600    1.200    0.000    3.000   18.200    0.000 
#    0.000    1.000    0.000    0.000    0.000    0.000 
#    0.000    0.000    0.000    0.000    0.000    0.000 
#
# Total GULP energy -247801.315205 kJ/mol
# GULP energy per Si atom -12390.065760 kJ/mol
# Density = 2.189432 g / cm^3
# Si number density = 21.944265 Si / 1000 Ang^3
#
#
#
# Elastic Constant Matrix: (Units=GPa)
#
#
# Indices 1 2 3 4 5 6 
#
# 1 130.0565 72.8392 46.0655 0.0000 0.0000 0.0000
# 2 72.8392 176.0748 24.6820 0.0000 0.0000 0.0000
# 3 46.0655 24.6820 99.7037 0.0000 0.0000 0.0000
# 4 0.0000 0.0000 0.0000 -54.1894 0.0000 0.0000
# 5 0.0000 0.0000 0.0000 0.0000 32.4242 0.0000
# 6 0.0000 0.0000 0.0000 0.0000 0.0000 48.7113
#
#
#
# Elastic Compliance Matrix: (Units=1/GPa)
#
#
# Indices 1 2 3 4 5 6 
#
# 1 0.011552 -0.004176 -0.004304 0.000000 0.000000 0.000000
# 2 -0.004176 0.007393 0.000099 0.000000 0.000000 0.000000
# 3 -0.004304 0.000099 0.011994 0.000000 0.000000 0.000000
# 4 0.000000 0.000000 0.000000 -0.018454 0.000000 0.000000
# 5 0.000000 0.000000 0.000000 0.000000 0.030841 0.000000
# 6 0.000000 0.000000 0.000000 0.000000 0.000000 0.020529
#
#
# Mechanical properties :
#
#
# Convention : Reuss Voigt Hill
#
# Bulk Modulus (GPa) = 70.53083 77.00092 73.76588
# Shear Modulus (GPa) = 58.58866 22.87244 40.73055
#
# Velocity S-wave (km/s) = 5.17270 3.23196 4.31291
# Velocity P-wave (km/s) = 8.23932 7.00664 7.64785
#
# Compressibility (1/GPa) = 0.01417820
#
# Stress axis : x y z
#
# Youngs Moduli (GPa) = 86.56656 135.26555 83.37820
#
# Poissons Ratio (x) = 0.56480 0.35882
# Poissons Ratio (y) = 0.36146 -0.00826
# Poissons Ratio (z) = 0.37254 -0.01340
#
# Static dielectric constant tensor:
#      x y z
#    x 3.856400 0.000000 0.000000 
#    y 0.000000 4.072110 0.000000 
#    z 0.000000 0.000000 3.642780 
# 
# 
# High freq. dielectric constant tensor:
#      x y z
#    x 1.864310 0.000000 0.000000 
#    y 0.000000 1.856480 0.000000 
#    z 0.000000 0.000000 1.839830 
# 
# From -- ./inp_files/13741.got.cif
#   From: 2010.03.12/outbox.cif.g09.slc.cpg/sg37_7_cif.got.tgz:13741.got - 2010.04.14 02:25:27.
