data_PCOD8176773
_publ_section_title
;
Structure prediction by ZEFSAII (Michael W. Deem and Ramdas Pophale) SiO2 
 PCOD8176773
Probable space group: C C C 2
;
_chemical_formula_sum "Si O2"
_cell_formula_units_Z 60
_cell_length_a 11.789914
_cell_length_b 19.615616
_cell_length_c 12.508961
_cell_angle_alpha 90.000000
_cell_angle_beta 90.000000
_cell_angle_gamma 90.000000
_cell_volume 2892.902700
_symmetry_space_group_name_H-M "C C C 2"
_symmetry_group_IT_number 37
_symmetry_cell_setting 'orthorhombic'
loop_
_space_group_symop_operation_xyz
x,y,z
-x,-y,z
-x,y,1/2+z
x,-y,1/2+z
1/2+x,1/2+y,z
1/2-x,1/2-y,z
1/2-x,1/2+y,1/2+z
1/2+x,1/2-y,1/2+z
loop_
_atom_site_type_symbol
_atom_site_label
_atom_site_fract_x
_atom_site_fract_y
_atom_site_fract_z
Si Si1 0.250000 0.250000 0.349470
Si Si2 0.440929 0.341690 0.738871
Si Si3 0.829121 0.849408 0.515716
Si Si4 0.963115 0.571104 0.917412
Si Si5 0.595869 0.887728 0.612841
Si Si6 0.743340 0.937878 0.799429
Si Si7 0.529903 0.803469 0.273812
Si Si8 0.595868 0.552889 0.343974
O O1 0.163547 0.207796 0.424375
O O2 0.333505 0.206533 0.273212
O O3 0.417581 0.335702 0.611670
O O4 0.331101 0.375253 0.794098
O O5 0.462877 0.267958 0.791285
O O6 0.550564 0.389557 0.761644
O O7 0.699122 0.850327 0.553398
O O8 0.862183 0.919589 0.458149
O O9 0.825084 0.570530 0.911622
O O10 0.000000 0.500000 0.859344
O O11 0.005480 0.641214 0.864824
O O12 0.017698 0.567393 0.035029
O O13 0.649231 0.934715 0.705654
O O14 0.511634 0.830779 0.659843
O O15 0.802339 0.011437 0.787608
O O16 0.500000 0.500000 0.376115
#
# Coordination Sequence:
#
# PCOD8176773 Si02
#       8
#     4   8   8   8   8   8   8   8
#     4  12  22  40  66  92 128 172 210 270 330 390
#     4  10  22  41  67 100 125 163 222 273 331 387
#     4  11  21  39  70  93 124 173 216 260 332 398
#     4  11  23  41  61  90 128 172 219 260 326 397
#     4  10  22  40  62  93 124 172 220 262 324 394
#     4   9  22  40  67  92 131 174 212 275 327 383
#     4  11  24  41  65  93 127 166 219 279 323 392
#     4  10  21  41  66 100 134 166 215 276 330 381
#
# _framework density 20.740414000000001
#
# number of rings (size 3 to 8) (size 9 to 14) (size 15 to 20)
#    0.000    1.600    2.667    1.600    0.000    9.067 
#    0.000    4.000    0.000    0.000    0.000    0.000 
#    0.000    0.000    0.000    0.000    0.000    0.000 
#
# Total GULP energy -371779.374516 kJ/mol
# GULP energy per Si atom -12392.645817 kJ/mol
# Density = 2.069321 g / cm^3
# Si number density = 20.740414 Si / 1000 Ang^3
#
#
#
# Elastic Constant Matrix: (Units=GPa)
#
#
# Indices 1 2 3 4 5 6 
#
# 1 136.5405 62.9635 66.5295 0.0000 0.0000 0.0000
# 2 62.9635 151.8696 49.1346 0.0000 0.0000 0.0000
# 3 66.5295 49.1346 86.5907 0.0000 0.0000 0.0000
# 4 0.0000 0.0000 0.0000 30.0250 0.0000 0.0000
# 5 0.0000 0.0000 0.0000 0.0000 39.0940 0.0000
# 6 0.0000 0.0000 0.0000 0.0000 0.0000 32.0797
#
#
#
# Elastic Compliance Matrix: (Units=1/GPa)
#
#
# Indices 1 2 3 4 5 6 
#
# 1 0.012454 -0.002532 -0.008131 0.000000 0.000000 0.000000
# 2 -0.002532 0.008580 -0.002923 0.000000 0.000000 0.000000
# 3 -0.008131 -0.002923 0.019455 0.000000 0.000000 0.000000
# 4 0.000000 0.000000 0.000000 0.033306 0.000000 0.000000
# 5 0.000000 0.000000 0.000000 0.000000 0.025579 0.000000
# 6 0.000000 0.000000 0.000000 0.000000 0.000000 0.031172
#
#
# Mechanical properties :
#
#
# Convention : Reuss Voigt Hill
#
# Bulk Modulus (GPa) = 75.10371 81.36178 78.23275
# Shear Modulus (GPa) = 30.83413 33.33128 32.08271
#
# Velocity S-wave (km/s) = 3.85992 4.01318 3.93729
# Velocity P-wave (km/s) = 7.49368 7.79666 7.64667
#
# Compressibility (1/GPa) = 0.01331492
#
# Stress axis : x y z
#
# Youngs Moduli (GPa) = 80.29765 116.54766 51.40125
#
# Poissons Ratio (x) = 0.29514 0.41797
# Poissons Ratio (y) = 0.20334 0.15025
# Poissons Ratio (z) = 0.65294 0.34067
#
# Static dielectric constant tensor:
#      x y z
#    x 4.018410 0.000000 0.000000 
#    y 0.000000 3.913080 0.000000 
#    z 0.000000 0.000000 3.689040 
# 
# 
# High freq. dielectric constant tensor:
#      x y z
#    x 1.819070 0.000000 0.000000 
#    y 0.000000 1.824050 0.000000 
#    z 0.000000 0.000000 1.789140 
# 
# From -- ./inp_files/7333.got.cif
#   From: 2010.03.12/outbox.cif.g09.slc.cpg/sg37_4_cif.got.tgz:7333.got - 2010.04.14 02:25:27.
