data_PCOD8176405
_publ_section_title
;
Structure prediction by ZEFSAII (Michael W. Deem and Ramdas Pophale) SiO2 
 PCOD8176405
Probable space group: C C C 2
;
_chemical_formula_sum "Si O2"
_cell_formula_units_Z 64
_cell_length_a 8.777339
_cell_length_b 15.841872
_cell_length_c 23.617191
_cell_angle_alpha 90.000000
_cell_angle_beta 90.000000
_cell_angle_gamma 90.000000
_cell_volume 3283.958150
_symmetry_space_group_name_H-M "C C C 2"
_symmetry_group_IT_number 37
_symmetry_cell_setting 'orthorhombic'
loop_
_space_group_symop_operation_xyz
x,y,z
-x,-y,z
-x,y,1/2+z
x,-y,1/2+z
1/2+x,1/2+y,z
1/2-x,1/2-y,z
1/2-x,1/2+y,1/2+z
1/2+x,1/2-y,1/2+z
loop_
_atom_site_type_symbol
_atom_site_label
_atom_site_fract_x
_atom_site_fract_y
_atom_site_fract_z
Si Si1 0.821158 0.494127 0.296460
Si Si2 0.186095 0.593267 0.610907
Si Si3 0.182494 0.338898 0.989951
Si Si4 0.304331 0.342204 0.731754
Si Si5 0.341889 0.103390 0.615643
Si Si6 0.896734 0.918053 0.212792
Si Si7 0.823745 0.663595 0.494226
Si Si8 0.179634 0.502581 0.926655
O O1 0.769540 0.400930 0.279280
O O2 0.731911 0.562985 0.259349
O O3 0.777217 0.511096 0.361100
O O4 0.000000 0.500000 0.284309
O O5 0.233232 0.641950 0.554133
O O6 0.183654 0.493701 0.599826
O O7 0.312023 0.616687 0.657359
O O8 0.018065 0.622067 0.630813
O O9 0.250000 0.250000 0.969390
O O10 0.002502 0.332936 0.983717
O O11 0.247978 0.414994 0.951075
O O12 0.250000 0.250000 0.746976
O O13 0.258389 0.370307 0.668790
O O14 0.488672 0.345787 0.735150
O O15 0.287488 0.155215 0.560902
O O16 0.000000 0.000000 0.199168
O O17 0.750000 0.750000 0.471402
O O18 0.753508 0.584032 0.459730
O O19 0.000000 0.500000 0.936230
#
# Coordination Sequence:
#
# PCOD8176405 Si02
#       8
#     8   8   8   8   8   8   8   8
#     4  10  20  39  62  81 105 153 198 230 281 351
#     4  10  18  33  58  84 113 153 190 226 276 346
#     4  10  21  37  56  86 119 150 190 233 279 338
#     4  11  23  37  56  86 118 146 182 239 293 338
#     4  10  18  33  59  84 114 154 187 223 283 349
#     4  10  20  35  56  82 113 145 185 236 281 342
#     4  10  20  37  59  87 116 149 189 234 281 340
#     4   9  19  38  62  81 109 155 195 229 284 339
#
# _framework density 19.488676999999999
#
# number of rings (size 3 to 8) (size 9 to 14) (size 15 to 20)
#    0.000    2.000    3.750    1.125    0.000    3.500 
#    0.000   10.000    0.000    0.000    0.000    0.000 
#    0.000    0.000    0.000    0.000    0.000    0.000 
#
# Total GULP energy -396801.930915 kJ/mol
# GULP energy per Si atom -12400.060341 kJ/mol
# Density = 1.944432 g / cm^3
# Si number density = 19.488677 Si / 1000 Ang^3
#
#
#
# Elastic Constant Matrix: (Units=GPa)
#
#
# Indices 1 2 3 4 5 6 
#
# 1 89.1009 37.3174 54.2038 0.0000 0.0000 0.0000
# 2 37.3174 123.1246 47.9932 0.0000 0.0000 0.0000
# 3 54.2038 47.9932 100.6014 0.0000 0.0000 0.0000
# 4 0.0000 0.0000 0.0000 12.0676 0.0000 0.0000
# 5 0.0000 0.0000 0.0000 0.0000 9.0418 0.0000
# 6 0.0000 0.0000 0.0000 0.0000 0.0000 29.2919
#
#
#
# Elastic Compliance Matrix: (Units=1/GPa)
#
#
# Indices 1 2 3 4 5 6 
#
# 1 0.017069 -0.001951 -0.008266 0.000000 0.000000 0.000000
# 2 -0.001951 0.010200 -0.003815 0.000000 0.000000 0.000000
# 3 -0.008266 -0.003815 0.016214 0.000000 0.000000 0.000000
# 4 0.000000 0.000000 0.000000 0.082866 0.000000 0.000000
# 5 0.000000 0.000000 0.000000 0.000000 0.110598 0.000000
# 6 0.000000 0.000000 0.000000 0.000000 0.000000 0.034139
#
#
# Mechanical properties :
#
#
# Convention : Reuss Voigt Hill
#
# Bulk Modulus (GPa) = 64.85496 65.76174 65.30835
# Shear Modulus (GPa) = 16.43171 21.63442 19.03307
#
# Velocity S-wave (km/s) = 2.90684 3.33543 3.12849
# Velocity P-wave (km/s) = 6.67958 6.97498 6.82888
#
# Compressibility (1/GPa) = 0.01541902
#
# Stress axis : x y z
#
# Youngs Moduli (GPa) = 58.58593 98.03670 61.67637
#
# Poissons Ratio (x) = 0.19131 0.50980
# Poissons Ratio (y) = 0.11433 0.23528
# Poissons Ratio (z) = 0.48426 0.37398
#
# Static dielectric constant tensor:
#      x y z
#    x 3.578790 0.000000 0.000000 
#    y 0.000000 3.673500 0.000000 
#    z 0.000000 0.000000 3.495190 
# 
# 
# High freq. dielectric constant tensor:
#      x y z
#    x 1.748860 0.000000 0.000000 
#    y 0.000000 1.753710 0.000000 
#    z 0.000000 0.000000 1.752880 
# 
# From -- ./inp_files/18457.got.cif
#   From: 2010.03.12/outbox.cif.g09.slc.cpg/sg37_10_cif.got.tgz:18457.got - 2010.04.14 02:25:27.
