data_PCOD8176058
_publ_section_title
;
Structure prediction by ZEFSAII (Michael W. Deem and Ramdas Pophale) SiO2 
 PCOD8176058
Probable space group: C M C 21
;
_chemical_formula_sum "Si O2"
_cell_formula_units_Z 48
_cell_length_a 9.028972
_cell_length_b 27.133772
_cell_length_c 9.822245
_cell_angle_alpha 90.000000
_cell_angle_beta 90.000000
_cell_angle_gamma 90.000000
_cell_volume 2406.352467
_symmetry_space_group_name_H-M "C M C 21"
_symmetry_group_IT_number 36
_symmetry_cell_setting 'orthorhombic'
loop_
_space_group_symop_operation_xyz
x,y,z
-x,-y,1/2+z
x,-y,1/2+z
-x,y,z
1/2+x,1/2+y,z
1/2-x,1/2-y,1/2+z
1/2+x,1/2-y,1/2+z
1/2-x,1/2+y,z
loop_
_atom_site_type_symbol
_atom_site_label
_atom_site_fract_x
_atom_site_fract_y
_atom_site_fract_z
Si Si1 0.671548 0.463991 0.090240
Si Si2 0.169966 0.291617 0.927712
Si Si3 0.830606 0.605314 0.796109
Si Si4 0.828156 0.110276 0.350006
Si Si5 0.329880 0.067588 0.094831
Si Si6 0.669563 0.215996 0.737159
O O1 0.500000 0.475586 0.114912
O O2 0.727615 0.433035 0.218296
O O3 0.758171 0.514507 0.079241
O O4 0.699100 0.435453 0.949914
O O5 0.262873 0.341362 0.918960
O O6 0.225720 0.251477 0.821738
O O7 0.000000 0.304133 0.894891
O O8 0.187330 0.269902 0.079099
O O9 0.777198 0.660175 0.760892
O O10 0.000000 0.597386 0.748406
O O11 0.812586 0.597648 0.956178
O O12 0.749247 0.100172 0.208092
O O13 0.000000 0.119197 0.321746
O O14 0.500000 0.060279 0.136053
O O15 0.500000 0.222534 0.785722
#
# Coordination Sequence:
#
# PCOD8176058 Si02
#       6
#     8   8   8   8   8   8
#     4  11  23  40  63  91 124 165 207 256 312 366
#     4  11  24  42  67  94 123 164 207 252 311 371
#     4  10  22  42  65  90 123 163 208 258 306 363
#     4  11  24  42  64  92 128 165 205 258 310 364
#     4  11  24  39  62  94 125 166 210 254 305 366
#     4  10  23  43  65  93 127 161 205 258 310 366
#
# _framework density 19.947202999999998
#
# number of rings (size 3 to 8) (size 9 to 14) (size 15 to 20)
#    0.000    1.333    1.667    3.000    2.333    8.000 
#    0.000    0.000    0.000    0.000    0.000    0.000 
#    0.000    0.000    0.000    0.000    0.000    0.000 
#
# Total GULP energy -297778.979655 kJ/mol
# GULP energy per Si atom -12407.457486 kJ/mol
# Density = 1.990180 g / cm^3
# Si number density = 19.947203 Si / 1000 Ang^3
#
#
#
# Elastic Constant Matrix: (Units=GPa)
#
#
# Indices 1 2 3 4 5 6 
#
# 1 114.8001 45.5383 62.0382 0.0000 0.0000 0.0000
# 2 45.5383 78.6916 27.1061 0.0000 0.0000 0.0000
# 3 62.0382 27.1061 92.9857 0.0000 0.0000 0.0000
# 4 0.0000 0.0000 0.0000 35.1652 0.0000 0.0000
# 5 0.0000 0.0000 0.0000 0.0000 36.4445 0.0000
# 6 0.0000 0.0000 0.0000 0.0000 0.0000 37.9094
#
#
#
# Elastic Compliance Matrix: (Units=1/GPa)
#
#
# Indices 1 2 3 4 5 6 
#
# 1 0.015933 -0.006179 -0.008829 0.000000 0.000000 0.000000
# 2 -0.006179 0.016523 -0.000694 0.000000 0.000000 0.000000
# 3 -0.008829 -0.000694 0.016847 0.000000 0.000000 0.000000
# 4 0.000000 0.000000 0.000000 0.028437 0.000000 0.000000
# 5 0.000000 0.000000 0.000000 0.000000 0.027439 0.000000
# 6 0.000000 0.000000 0.000000 0.000000 0.000000 0.026379
#
#
# Mechanical properties :
#
#
# Convention : Reuss Voigt Hill
#
# Bulk Modulus (GPa) = 55.86940 61.76030 58.81485
# Shear Modulus (GPa) = 29.59839 32.02348 30.81093
#
# Velocity S-wave (km/s) = 3.85624 4.01111 3.93443
# Velocity P-wave (km/s) = 6.92076 7.24438 7.08442
#
# Compressibility (1/GPa) = 0.01789888
#
# Stress axis : x y z
#
# Youngs Moduli (GPa) = 62.76239 60.52282 59.35725
#
# Poissons Ratio (x) = 0.37398 0.52406
# Poissons Ratio (y) = 0.38782 0.04119
# Poissons Ratio (z) = 0.55413 0.04200
#
# Static dielectric constant tensor:
#      x y z
#    x 3.784900 0.000000 0.000000 
#    y 0.000000 3.656150 0.000000 
#    z 0.000000 0.000000 3.731480 
# 
# 
# High freq. dielectric constant tensor:
#      x y z
#    x 1.788110 0.000000 0.000000 
#    y 0.000000 1.784870 0.000000 
#    z 0.000000 0.000000 1.791230 
# 
# From -- ./inp_files/6707.got.cif
#   From: 2010.03.12/outbox.cif.g09.slc.cpg/sg36_4_cif.got.tgz:6707.got - 2010.04.14 02:13:53.
