data_PCOD8176050
_publ_section_title
;
Structure prediction by ZEFSAII (Michael W. Deem and Ramdas Pophale) SiO2 
 PCOD8176050
Probable space group: C M C 21
;
_chemical_formula_sum "Si O2"
_cell_formula_units_Z 64
_cell_length_a 15.314910
_cell_length_b 17.304993
_cell_length_c 11.689131
_cell_angle_alpha 90.000000
_cell_angle_beta 90.000000
_cell_angle_gamma 90.000000
_cell_volume 3097.905051
_symmetry_space_group_name_H-M "C M C 21"
_symmetry_group_IT_number 36
_symmetry_cell_setting 'orthorhombic'
loop_
_space_group_symop_operation_xyz
x,y,z
-x,-y,1/2+z
x,-y,1/2+z
-x,y,z
1/2+x,1/2+y,z
1/2-x,1/2-y,1/2+z
1/2+x,1/2-y,1/2+z
1/2-x,1/2+y,z
loop_
_atom_site_type_symbol
_atom_site_label
_atom_site_fract_x
_atom_site_fract_y
_atom_site_fract_z
Si Si1 0.100079 0.594104 0.382030
Si Si2 0.845056 0.208054 0.495056
Si Si3 0.289690 0.677955 0.905503
Si Si4 0.690184 0.129173 0.609316
Si Si5 0.402798 0.596471 0.308887
Si Si6 0.098560 0.743744 0.234605
Si Si7 0.255837 0.022734 0.812926
Si Si8 0.898535 0.221284 0.122867
O O1 0.114740 0.614053 0.515051
O O2 0.125406 0.662413 0.292943
O O3 0.160712 0.522421 0.355445
O O4 0.000000 0.569925 0.364119
O O5 0.797828 0.272479 0.418780
O O6 0.778173 0.145402 0.541988
O O7 0.906987 0.155300 0.416566
O O8 0.894516 0.254335 0.596676
O O9 0.334112 0.692349 0.781669
O O10 0.264343 0.588145 0.907428
O O11 0.361338 0.701348 0.998377
O O12 0.712557 0.058499 0.692471
O O13 0.654492 0.205497 0.675914
O O14 0.500000 0.559240 0.300096
O O15 0.330802 0.529605 0.308460
O O16 0.380606 0.646748 0.198315
O O17 0.000000 0.764334 0.270228
O O18 0.000000 0.241916 0.113013
#
# Coordination Sequence:
#
# PCOD8176050 Si02
#       8
#     8   8   8   8   8   8   8   8
#     4  11  25  44  68  97 133 175 222 280 341 406
#     4  11  22  42  68  96 124 175 227 280 328 390
#     4  11  23  38  69  93 127 171 219 271 329 395
#     4  11  22  40  68  92 130 173 220 273 334 393
#     4  11  25  43  64  97 140 178 218 271 335 402
#     4  11  22  42  69  99 126 166 228 283 330 389
#     4  12  26  42  62  99 137 179 213 272 342 416
#     4  10  22  41  69  95 123 171 231 278 321 389
#
# _framework density 20.659122
#
# number of rings (size 3 to 8) (size 9 to 14) (size 15 to 20)
#    0.000    1.000    5.000    1.875    7.000    2.000 
#    0.000    3.750    0.000    0.000    0.000    0.000 
#    0.000    0.000    0.000    0.000    0.000    0.000 
#
# Total GULP energy -396716.861884 kJ/mol
# GULP energy per Si atom -12397.401934 kJ/mol
# Density = 2.061210 g / cm^3
# Si number density = 20.659122 Si / 1000 Ang^3
#
#
#
# Elastic Constant Matrix: (Units=GPa)
#
#
# Indices 1 2 3 4 5 6 
#
# 1 108.1047 59.2168 21.2141 0.0000 0.0000 0.0000
# 2 59.2168 113.1932 35.1766 0.0000 0.0000 0.0000
# 3 21.2141 35.1766 86.6246 0.0000 0.0000 0.0000
# 4 0.0000 0.0000 0.0000 38.0374 0.0000 0.0000
# 5 0.0000 0.0000 0.0000 0.0000 24.4333 0.0000
# 6 0.0000 0.0000 0.0000 0.0000 0.0000 22.3237
#
#
#
# Elastic Compliance Matrix: (Units=1/GPa)
#
#
# Indices 1 2 3 4 5 6 
#
# 1 0.012983 -0.006642 -0.000482 0.000000 0.000000 0.000000
# 2 -0.006642 0.013509 -0.003859 0.000000 0.000000 0.000000
# 3 -0.000482 -0.003859 0.013229 0.000000 0.000000 0.000000
# 4 0.000000 0.000000 0.000000 0.026290 0.000000 0.000000
# 5 0.000000 0.000000 0.000000 0.000000 0.040928 0.000000
# 6 0.000000 0.000000 0.000000 0.000000 0.000000 0.044795
#
#
# Mechanical properties :
#
#
# Convention : Reuss Voigt Hill
#
# Bulk Modulus (GPa) = 56.32480 59.90418 58.11449
# Shear Modulus (GPa) = 27.83663 29.77989 28.80826
#
# Velocity S-wave (km/s) = 3.67471 3.80081 3.73829
# Velocity P-wave (km/s) = 6.73259 6.95133 6.84283
#
# Compressibility (1/GPa) = 0.01775417
#
# Stress axis : x y z
#
# Youngs Moduli (GPa) = 77.02109 74.02682 75.59046
#
# Poissons Ratio (x) = 0.49172 0.03645
# Poissons Ratio (y) = 0.51160 0.29170
# Poissons Ratio (z) = 0.03714 0.28566
#
# Static dielectric constant tensor:
#      x y z
#    x 3.758730 0.000000 0.000000 
#    y 0.000000 3.697600 0.000000 
#    z 0.000000 0.000000 4.036380 
# 
# 
# High freq. dielectric constant tensor:
#      x y z
#    x 1.820210 0.000000 0.000000 
#    y 0.000000 1.799720 0.000000 
#    z 0.000000 0.000000 1.813970 
# 
# From -- ./inp_files/8632.got.cif
#   From: 2010.03.12/outbox.cif.g09.slc.cpg/sg36_5_cif.got.tgz:8632.got - 2010.04.14 02:13:53.
