data_PCOD8176531
_publ_section_title
;
Structure prediction by ZEFSAII (Michael W. Deem and Ramdas Pophale) SiO2 
 PCOD8176531
Probable space group: C C C 2
;
_chemical_formula_sum "Si O2"
_cell_formula_units_Z 48
_cell_length_a 8.758753
_cell_length_b 17.367422
_cell_length_c 15.553423
_cell_angle_alpha 90.000000
_cell_angle_beta 90.000000
_cell_angle_gamma 90.000000
_cell_volume 2365.939417
_symmetry_space_group_name_H-M "C C C 2"
_symmetry_group_IT_number 37
_symmetry_cell_setting 'orthorhombic'
loop_
_space_group_symop_operation_xyz
x,y,z
-x,-y,z
-x,y,1/2+z
x,-y,1/2+z
1/2+x,1/2+y,z
1/2-x,1/2-y,z
1/2-x,1/2+y,1/2+z
1/2+x,1/2-y,1/2+z
loop_
_atom_site_type_symbol
_atom_site_label
_atom_site_fract_x
_atom_site_fract_y
_atom_site_fract_z
Si Si1 0.339870 0.460521 0.445960
Si Si2 0.862849 0.810039 0.543507
Si Si3 0.099700 0.292457 0.132072
Si Si4 0.680979 0.507732 0.765051
Si Si5 0.342199 0.041576 0.095542
Si Si6 0.698343 0.169007 0.220865
O O1 0.500000 0.500000 0.437774
O O2 0.385364 0.375191 0.473645
O O3 0.262396 0.463500 0.351377
O O4 0.232041 0.501833 0.513716
O O5 0.750000 0.750000 0.497896
O O6 0.778637 0.842389 0.628376
O O7 0.021787 0.770094 0.569241
O O8 0.250000 0.250000 0.170890
O O9 0.142127 0.367675 0.075780
O O10 0.985128 0.322982 0.207253
O O11 0.500000 0.500000 0.756170
O O12 0.742809 0.465696 0.681266
O O13 0.746663 0.595342 0.775238
O O14 0.500000 0.000000 0.115348
O O15 0.750000 0.250000 0.264452
#
# Coordination Sequence:
#
# PCOD8176531 Si02
#       6
#     8   8   8   8   8   8
#     4  11  23  40  65  93 124 171 219 264 326 397
#     4   9  18  38  63  88 120 167 209 256 324 392
#     4  10  20  33  62  96 121 161 215 262 330 386
#     4  11  24  40  63  96 128 173 228 270 332 407
#     4  12  22  40  64  93 131 168 213 280 328 391
#     4   9  19  38  62  89 121 169 210 261 328 387
#
# _framework density 20.287924
#
# number of rings (size 3 to 8) (size 9 to 14) (size 15 to 20)
#    0.000    2.000    3.333    2.500    4.667    0.667 
#    0.000    5.000    0.000    0.000    0.000    0.000 
#    0.000    0.000    0.000    0.000    0.000    0.000 
#
# Total GULP energy -297429.052517 kJ/mol
# GULP energy per Si atom -12392.877188 kJ/mol
# Density = 2.024175 g / cm^3
# Si number density = 20.287924 Si / 1000 Ang^3
#
#
#
# Elastic Constant Matrix: (Units=GPa)
#
#
# Indices 1 2 3 4 5 6 
#
# 1 124.4966 43.7917 40.8466 0.0000 0.0000 0.0000
# 2 43.7917 104.5929 38.2915 0.0000 0.0000 0.0000
# 3 40.8466 38.2915 117.4017 0.0000 0.0000 0.0000
# 4 0.0000 0.0000 0.0000 -3.9821 0.0000 0.0000
# 5 0.0000 0.0000 0.0000 0.0000 4.7978 0.0000
# 6 0.0000 0.0000 0.0000 0.0000 0.0000 36.4712
#
#
#
# Elastic Compliance Matrix: (Units=1/GPa)
#
#
# Indices 1 2 3 4 5 6 
#
# 1 0.009979 -0.003301 -0.002395 0.000000 0.000000 0.000000
# 2 -0.003301 0.011949 -0.002749 0.000000 0.000000 0.000000
# 3 -0.002395 -0.002749 0.010248 0.000000 0.000000 0.000000
# 4 0.000000 0.000000 0.000000 -0.251125 0.000000 0.000000
# 5 0.000000 0.000000 0.000000 0.000000 0.208429 0.000000
# 6 0.000000 0.000000 0.000000 0.000000 0.000000 0.027419
#
#
# Mechanical properties :
#
#
# Convention : Reuss Voigt Hill
#
# Bulk Modulus (GPa) = 65.42065 65.81674 65.61869
# Shear Modulus (GPa) = 128.57925 22.36148 75.47037
#
# Velocity S-wave (km/s) = 7.96962 3.32355 6.10577
# Velocity P-wave (km/s) = 10.81677 6.87312 9.06207
#
# Compressibility (1/GPa) = 0.01528569
#
# Stress axis : x y z
#
# Youngs Moduli (GPa) = 100.20556 83.68583 97.58302
#
# Poissons Ratio (x) = 0.27628 0.23374
# Poissons Ratio (y) = 0.33081 0.26824
# Poissons Ratio (z) = 0.24002 0.23003
#
# Static dielectric constant tensor:
#      x y z
#    x 3.875110 0.000000 0.000000 
#    y 0.000000 4.367720 0.000000 
#    z 0.000000 0.000000 3.892800 
# 
# 
# High freq. dielectric constant tensor:
#      x y z
#    x 1.803770 0.000000 0.000000 
#    y 0.000000 1.811750 0.000000 
#    z 0.000000 0.000000 1.750020 
# 
# From -- ./inp_files/10699.got.cif
#   From: 2010.03.12/outbox.cif.g09.slc.cpg/sg37_6_cif.got.tgz:10699.got - 2010.04.14 02:25:27.
