data_PCOD8176563
_publ_section_title
;
Structure prediction by ZEFSAII (Michael W. Deem and Ramdas Pophale) SiO2 
 PCOD8176563
Probable space group: C C C 2
;
_chemical_formula_sum "Si O2"
_cell_formula_units_Z 52
_cell_length_a 15.052423
_cell_length_b 17.231675
_cell_length_c 10.432426
_cell_angle_alpha 90.000000
_cell_angle_beta 90.000000
_cell_angle_gamma 90.000000
_cell_volume 2705.946601
_symmetry_space_group_name_H-M "C C C 2"
_symmetry_group_IT_number 37
_symmetry_cell_setting 'orthorhombic'
loop_
_space_group_symop_operation_xyz
x,y,z
-x,-y,z
-x,y,1/2+z
x,-y,1/2+z
1/2+x,1/2+y,z
1/2-x,1/2-y,z
1/2-x,1/2+y,1/2+z
1/2+x,1/2-y,1/2+z
loop_
_atom_site_type_symbol
_atom_site_label
_atom_site_fract_x
_atom_site_fract_y
_atom_site_fract_z
Si Si1 0.754495 0.141887 0.862600
Si Si2 0.926184 0.294055 0.215444
Si Si3 0.316085 0.186976 0.945057
Si Si4 0.587816 0.956900 0.627519
Si Si5 0.375562 0.240214 0.221307
Si Si6 0.309412 0.981452 0.386516
Si Si7 0.250000 0.750000 0.090929
O O1 0.657320 0.167617 0.807717
O O2 0.831209 0.180287 0.774188
O O3 0.765517 0.048709 0.870156
O O4 0.757097 0.172179 0.007420
O O5 0.905632 0.321467 0.360825
O O6 0.936567 0.366102 0.118511
O O7 0.840934 0.244627 0.171769
O O8 0.018523 0.247016 0.220302
O O9 0.250000 0.250000 0.881364
O O10 0.341081 0.221258 0.081107
O O11 0.271854 0.100204 0.944011
O O12 0.657504 0.969548 0.741747
O O13 0.500000 0.000000 0.670167
O O14 0.619060 0.986649 0.488747
#
# Coordination Sequence:
#
# PCOD8176563 Si02
#       7
#     8   8   8   8   8   8   4
#     4  10  21  39  58  84 120 167 198 242 301 385
#     4  11  22  36  58  90 120 158 197 256 308 368
#     4  11  22  38  58  89 119 160 205 261 307 366
#     4  11  22  34  56  90 130 160 195 252 318 383
#     4  10  22  37  60  87 123 160 207 241 310 377
#     4  11  22  36  59  87 123 165 207 253 316 373
#     4  10  20  36  56  80 120 152 204 234 308 360
#
# _framework density 19.216934999999999
#
# number of rings (size 3 to 8) (size 9 to 14) (size 15 to 20)
#    0.000    1.538    3.846    3.231    4.308    2.462 
#    0.000    0.000    0.000    0.923    0.000    0.000 
#    0.000    0.000    0.000    0.000    0.000    0.000 
#
# Total GULP energy -322133.659979 kJ/mol
# GULP energy per Si atom -12389.756153 kJ/mol
# Density = 1.917320 g / cm^3
# Si number density = 19.216935 Si / 1000 Ang^3
#
#
#
# Elastic Constant Matrix: (Units=GPa)
#
#
# Indices 1 2 3 4 5 6 
#
# 1 122.5406 56.2619 31.1555 0.0000 0.0000 0.0000
# 2 56.2619 128.2037 18.9851 0.0000 0.0000 0.0000
# 3 31.1555 18.9851 84.1401 0.0000 0.0000 0.0000
# 4 0.0000 0.0000 0.0000 17.4098 0.0000 0.0000
# 5 0.0000 0.0000 0.0000 0.0000 48.8261 0.0000
# 6 0.0000 0.0000 0.0000 0.0000 0.0000 23.1676
#
#
#
# Elastic Compliance Matrix: (Units=1/GPa)
#
#
# Indices 1 2 3 4 5 6 
#
# 1 0.010936 -0.004345 -0.003069 0.000000 0.000000 0.000000
# 2 -0.004345 0.009796 -0.000602 0.000000 0.000000 0.000000
# 3 -0.003069 -0.000602 0.013157 0.000000 0.000000 0.000000
# 4 0.000000 0.000000 0.000000 0.057439 0.000000 0.000000
# 5 0.000000 0.000000 0.000000 0.000000 0.020481 0.000000
# 6 0.000000 0.000000 0.000000 0.000000 0.000000 0.043164
#
#
# Mechanical properties :
#
#
# Convention : Reuss Voigt Hill
#
# Bulk Modulus (GPa) = 55.99666 60.85439 58.42553
# Shear Modulus (GPa) = 28.25581 33.11282 30.68432
#
# Velocity S-wave (km/s) = 3.83869 4.15553 4.00025
# Velocity P-wave (km/s) = 6.98927 7.40003 7.19758
#
# Compressibility (1/GPa) = 0.01785821
#
# Stress axis : x y z
#
# Youngs Moduli (GPa) = 91.44493 102.08480 76.00487
#
# Poissons Ratio (x) = 0.44351 0.23325
# Poissons Ratio (y) = 0.39729 0.04572
# Poissons Ratio (z) = 0.28064 0.06141
#
# Static dielectric constant tensor:
#      x y z
#    x 3.282810 0.000000 0.000000 
#    y 0.000000 3.867000 0.000000 
#    z 0.000000 0.000000 3.655360 
# 
# 
# High freq. dielectric constant tensor:
#      x y z
#    x 1.712470 0.000000 0.000000 
#    y 0.000000 1.736530 0.000000 
#    z 0.000000 0.000000 1.773880 
# 
# From -- ./inp_files/7935.got.cif
#   From: 2010.03.12/outbox.cif.g09.slc.cpg/sg37_4_cif.got.tgz:7935.got - 2010.04.14 02:25:27.
