data_PCOD8176523
_publ_section_title
;
Structure prediction by ZEFSAII (Michael W. Deem and Ramdas Pophale) SiO2 
 PCOD8176523
Probable space group: C C C 2
;
_chemical_formula_sum "Si O2"
_cell_formula_units_Z 48
_cell_length_a 17.538232
_cell_length_b 12.700496
_cell_length_c 9.076771
_cell_angle_alpha 90.000000
_cell_angle_beta 90.000000
_cell_angle_gamma 90.000000
_cell_volume 2021.798507
_symmetry_space_group_name_H-M "C C C 2"
_symmetry_group_IT_number 37
_symmetry_cell_setting 'orthorhombic'
loop_
_space_group_symop_operation_xyz
x,y,z
-x,-y,z
-x,y,1/2+z
x,-y,1/2+z
1/2+x,1/2+y,z
1/2-x,1/2-y,z
1/2-x,1/2+y,1/2+z
1/2+x,1/2-y,1/2+z
loop_
_atom_site_type_symbol
_atom_site_label
_atom_site_fract_x
_atom_site_fract_y
_atom_site_fract_z
Si Si1 0.750000 0.750000 0.273080
Si Si2 0.750000 0.250000 0.277824
Si Si3 0.848624 0.833758 0.525452
Si Si4 0.000000 0.500000 0.275451
Si Si5 0.095536 0.069296 0.025448
Si Si6 0.500000 0.500000 0.275446
Si Si7 0.468977 0.146566 0.525451
Si Si8 0.852910 0.291735 0.525451
O O1 0.799496 0.824453 0.377913
O O2 0.806354 0.676361 0.172937
O O3 0.799496 0.175547 0.172992
O O4 0.806353 0.323641 0.377967
O O5 0.873951 0.952299 0.525454
O O6 0.919566 0.752183 0.525451
O O7 0.949116 0.575965 0.381205
O O8 0.949116 0.424035 0.169698
O O9 0.155494 0.163335 0.025449
O O10 0.046487 0.081758 0.174331
O O11 0.046490 0.081755 0.876561
O O12 0.560191 0.169777 0.525451
#
# Coordination Sequence:
#
# PCOD8176523 Si02
#       8
#     4   4   8   4   8   4   8   8
#     4  10  24  42  58  90 134 170 204 250 314 370
#     4  10  24  42  58  90 134 170 204 250 314 370
#     4  11  23  43  67  95 130 165 207 262 318 379
#     4  10  24  40  60  98 124 162 228 270 304 348
#     4  11  22  38  64 100 130 159 202 252 326 393
#     4  10  20  32  56 100 132 152 192 250 312 374
#     4  11  22  43  70  92 124 165 218 267 304 370
#     4  11  23  43  67  95 130 165 207 262 318 379
#
# _framework density 23.741237999999999
#
# number of rings (size 3 to 8) (size 9 to 14) (size 15 to 20)
#    0.000    1.333    0.000    6.000    0.000    2.667 
#    0.000   33.333    0.000    0.000    0.000    0.000 
#    0.000    0.000    0.000    0.000    0.000    0.000 
#
# Total GULP energy -297388.687744 kJ/mol
# GULP energy per Si atom -12391.195323 kJ/mol
# Density = 2.368720 g / cm^3
# Si number density = 23.741238 Si / 1000 Ang^3
#
#
#
# Elastic Constant Matrix: (Units=GPa)
#
#
# Indices 1 2 3 4 5 6 
#
# 1 134.9012 39.8891 60.3714 0.0000 0.0000 0.0000
# 2 39.8891 114.7835 34.0182 0.0000 0.0000 0.0000
# 3 60.3714 34.0182 187.8074 0.0000 0.0000 0.0000
# 4 0.0000 0.0000 0.0000 17.6424 0.0000 0.0000
# 5 0.0000 0.0000 0.0000 0.0000 18.8982 0.0000
# 6 0.0000 0.0000 0.0000 0.0000 0.0000 10.1060
#
#
#
# Elastic Compliance Matrix: (Units=1/GPa)
#
#
# Indices 1 2 3 4 5 6 
#
# 1 0.009278 -0.002473 -0.002535 0.000000 0.000000 0.000000
# 2 -0.002473 0.009866 -0.000992 0.000000 0.000000 0.000000
# 3 -0.002535 -0.000992 0.006319 0.000000 0.000000 0.000000
# 4 0.000000 0.000000 0.000000 0.056682 0.000000 0.000000
# 5 0.000000 0.000000 0.000000 0.000000 0.052915 0.000000
# 6 0.000000 0.000000 0.000000 0.000000 0.000000 0.098951
#
#
# Mechanical properties :
#
#
# Convention : Reuss Voigt Hill
#
# Bulk Modulus (GPa) = 74.27523 78.44993 76.36258
# Shear Modulus (GPa) = 19.96019 29.54354 24.75186
#
# Velocity S-wave (km/s) = 2.90270 3.53143 3.23239
# Velocity P-wave (km/s) = 6.52590 7.05290 6.79452
#
# Compressibility (1/GPa) = 0.01346344
#
# Stress axis : x y z
#
# Youngs Moduli (GPa) = 107.77681 101.36312 158.25199
#
# Poissons Ratio (x) = 0.25069 0.40111
# Poissons Ratio (y) = 0.26656 0.15698
# Poissons Ratio (z) = 0.27317 0.10055
#
# Static dielectric constant tensor:
#      x y z
#    x 4.365080 0.000000 0.000000 
#    y 0.000000 3.924990 0.000000 
#    z 0.000000 0.000000 4.959110 
# 
# 
# High freq. dielectric constant tensor:
#      x y z
#    x 1.932630 0.000000 0.000000 
#    y 0.000000 1.913160 0.000000 
#    z 0.000000 0.000000 1.979570 
# 
# From -- ./inp_files/3593.got.cif
#   From: 2010.03.12/outbox.cif.g09.slc.cpg/sg37_2_cif.got.tgz:3593.got - 2010.04.14 02:25:27.
