data_PCOD8176803
_publ_section_title
;
Structure prediction by ZEFSAII (Michael W. Deem and Ramdas Pophale) SiO2 
 PCOD8176803
Probable space group: C C C 2
;
_chemical_formula_sum "Si O2"
_cell_formula_units_Z 32
_cell_length_a 21.362136
_cell_length_b 7.763805
_cell_length_c 8.655873
_cell_angle_alpha 90.000000
_cell_angle_beta 90.000000
_cell_angle_gamma 90.000000
_cell_volume 1435.589160
_symmetry_space_group_name_H-M "C C C 2"
_symmetry_group_IT_number 37
_symmetry_cell_setting 'orthorhombic'
loop_
_space_group_symop_operation_xyz
x,y,z
-x,-y,z
-x,y,1/2+z
x,-y,1/2+z
1/2+x,1/2+y,z
1/2-x,1/2-y,z
1/2-x,1/2+y,1/2+z
1/2+x,1/2-y,1/2+z
loop_
_atom_site_type_symbol
_atom_site_label
_atom_site_fract_x
_atom_site_fract_y
_atom_site_fract_z
Si Si1 0.137469 0.362072 0.147700
Si Si2 0.463299 0.674960 0.818435
Si Si3 0.932068 0.311045 0.140975
Si Si4 0.815115 0.330564 0.319422
O O1 0.102739 0.199056 0.227100
O O2 0.084589 0.495909 0.082501
O O3 0.180781 0.464903 0.273393
O O4 0.178734 0.300963 0.003302
O O5 0.500000 0.500000 0.777812
O O6 0.510761 0.823569 0.761947
O O7 0.450248 0.687938 0.999574
O O8 0.871406 0.231427 0.230692
O O9 0.750000 0.250000 0.263225
#
# Coordination Sequence:
#
# PCOD8176803 Si02
#       4
#     8   8   8   8
#     4  10  21  44  70 102 130 193 238 289 360 426
#     4  12  23  41  68 108 147 179 230 309 369 432
#     4  10  22  41  67 102 139 188 236 281 366 432
#     4  10  22  45  71 100 137 188 251 288 343 432
#
# _framework density 22.290499000000001
#
# number of rings (size 3 to 8) (size 9 to 14) (size 15 to 20)
#    1.500    0.000    2.500    3.000    0.000    2.000 
#    9.000    3.750    0.000    0.000    0.000    0.000 
#    0.000    0.000    0.000    0.000    0.000    0.000 
#
# Total GULP energy -198246.438295 kJ/mol
# GULP energy per Si atom -12390.402393 kJ/mol
# Density = 2.223976 g / cm^3
# Si number density = 22.290499 Si / 1000 Ang^3
#
#
#
# Elastic Constant Matrix: (Units=GPa)
#
#
# Indices 1 2 3 4 5 6 
#
# 1 120.7950 26.3135 57.5472 0.0000 0.0000 0.0000
# 2 26.3135 73.3094 20.7906 0.0000 0.0000 0.0000
# 3 57.5472 20.7906 140.6450 0.0000 0.0000 0.0000
# 4 0.0000 0.0000 0.0000 19.1225 0.0000 0.0000
# 5 0.0000 0.0000 0.0000 0.0000 37.5804 0.0000
# 6 0.0000 0.0000 0.0000 0.0000 0.0000 40.6504
#
#
#
# Elastic Compliance Matrix: (Units=1/GPa)
#
#
# Indices 1 2 3 4 5 6 
#
# 1 0.010784 -0.002734 -0.004008 0.000000 0.000000 0.000000
# 2 -0.002734 0.014931 -0.001089 0.000000 0.000000 0.000000
# 3 -0.004008 -0.001089 0.008911 0.000000 0.000000 0.000000
# 4 0.000000 0.000000 0.000000 0.052294 0.000000 0.000000
# 5 0.000000 0.000000 0.000000 0.000000 0.026610 0.000000
# 6 0.000000 0.000000 0.000000 0.000000 0.000000 0.024600
#
#
# Mechanical properties :
#
#
# Convention : Reuss Voigt Hill
#
# Bulk Modulus (GPa) = 52.73072 60.45023 56.59047
# Shear Modulus (GPa) = 31.22816 34.81052 33.01934
#
# Velocity S-wave (km/s) = 3.74700 3.95609 3.85297
# Velocity P-wave (km/s) = 6.51364 6.93150 6.72582
#
# Compressibility (1/GPa) = 0.01896428
#
# Stress axis : x y z
#
# Youngs Moduli (GPa) = 92.73421 66.97562 112.22094
#
# Poissons Ratio (x) = 0.18310 0.44979
# Poissons Ratio (y) = 0.25353 0.12215
# Poissons Ratio (z) = 0.37169 0.07290
#
# Static dielectric constant tensor:
#      x y z
#    x 3.846460 0.000000 0.000000 
#    y 0.000000 3.524300 0.000000 
#    z 0.000000 0.000000 3.760250 
# 
# 
# High freq. dielectric constant tensor:
#      x y z
#    x 1.867570 0.000000 0.000000 
#    y 0.000000 1.842710 0.000000 
#    z 0.000000 0.000000 1.881460 
# 
# From -- ./inp_files/4232.got.cif
#   From: 2010.03.12/outbox.cif.g09.slc.cpg/sg37_3_cif.got.tgz:4232.got - 2010.04.14 02:25:27.
