data_PCOD8176171
_publ_section_title
;
Structure prediction by ZEFSAII (Michael W. Deem and Ramdas Pophale) SiO2 
 PCOD8176171
Probable space group: C M C 21
;
_chemical_formula_sum "Si O2"
_cell_formula_units_Z 40
_cell_length_a 9.692338
_cell_length_b 11.330252
_cell_length_c 16.194064
_cell_angle_alpha 90.000000
_cell_angle_beta 90.000000
_cell_angle_gamma 90.000000
_cell_volume 1778.377567
_symmetry_space_group_name_H-M "C M C 21"
_symmetry_group_IT_number 36
_symmetry_cell_setting 'orthorhombic'
loop_
_space_group_symop_operation_xyz
x,y,z
-x,-y,1/2+z
x,-y,1/2+z
-x,y,z
1/2+x,1/2+y,z
1/2-x,1/2-y,1/2+z
1/2+x,1/2-y,1/2+z
1/2-x,1/2+y,z
loop_
_atom_site_type_symbol
_atom_site_label
_atom_site_fract_x
_atom_site_fract_y
_atom_site_fract_z
Si Si1 0.206737 0.669885 0.956820
Si Si2 0.000000 0.880144 0.522076
Si Si3 0.792812 0.598206 0.773481
Si Si4 0.000000 0.697588 0.650041
Si Si5 0.500000 0.658729 0.534086
Si Si6 0.000000 0.596280 0.312665
Si Si7 0.000000 0.155475 0.725627
Si Si8 0.000000 0.525747 0.495205
O O1 0.184586 0.667917 0.858736
O O2 0.135256 0.556895 0.999225
O O3 0.367838 0.671315 0.975315
O O4 0.137606 0.789102 0.991707
O O5 0.000000 0.831836 0.616228
O O6 0.000000 0.019929 0.521020
O O7 0.862682 0.678000 0.703134
O O8 0.864127 0.470436 0.778860
O O9 0.633369 0.578537 0.750252
O O10 0.000000 0.610283 0.572556
O O11 0.500000 0.690912 0.630211
O O12 0.000000 0.726576 0.278845
O O13 0.000000 0.602350 0.411657
#
# Coordination Sequence:
#
# PCOD8176171 Si02
#       8
#     8   4   8   4   4   4   4   4
#     4  10  24  47  72 100 138 185 228 283 343 411
#     4  12  27  41  74 107 134 186 231 283 342 414
#     4  10  24  45  69 103 136 179 232 280 346 406
#     4  11  24  44  73  98 142 177 228 286 340 408
#     4  11  27  45  67 102 145 180 233 280 347 408
#     4   9  23  45  68  98 134 182 221 280 345 405
#     4  12  25  40  71 101 136 177 225 285 339 408
#     4   9  22  43  75  96 135 182 228 280 345 409
#
# _framework density 22.492412000000002
#
# number of rings (size 3 to 8) (size 9 to 14) (size 15 to 20)
#    0.000    1.600    0.000    3.600   14.000    3.200 
#    0.000    3.000    0.000    0.000    0.000    0.000 
#    0.000    0.000    0.000    0.000    0.000    0.000 
#
# Total GULP energy -248106.166143 kJ/mol
# GULP energy per Si atom -12405.308307 kJ/mol
# Density = 2.244122 g / cm^3
# Si number density = 22.492412 Si / 1000 Ang^3
#
#
#
# Elastic Constant Matrix: (Units=GPa)
#
#
# Indices 1 2 3 4 5 6 
#
# 1 202.4643 57.9563 53.8930 0.0000 0.0000 0.0000
# 2 57.9563 102.2844 45.5995 0.0000 0.0000 0.0000
# 3 53.8930 45.5995 132.1462 0.0000 0.0000 0.0000
# 4 0.0000 0.0000 0.0000 27.0557 0.0000 0.0000
# 5 0.0000 0.0000 0.0000 0.0000 31.9245 0.0000
# 6 0.0000 0.0000 0.0000 0.0000 0.0000 19.9688
#
#
#
# Elastic Compliance Matrix: (Units=1/GPa)
#
#
# Indices 1 2 3 4 5 6 
#
# 1 0.006151 -0.002797 -0.001543 0.000000 0.000000 0.000000
# 2 -0.002797 0.012826 -0.003285 0.000000 0.000000 0.000000
# 3 -0.001543 -0.003285 0.009330 0.000000 0.000000 0.000000
# 4 0.000000 0.000000 0.000000 0.036961 0.000000 0.000000
# 5 0.000000 0.000000 0.000000 0.000000 0.031324 0.000000
# 6 0.000000 0.000000 0.000000 0.000000 0.000000 0.050078
#
#
# Mechanical properties :
#
#
# Convention : Reuss Voigt Hill
#
# Bulk Modulus (GPa) = 76.59218 83.53252 80.06235
# Shear Modulus (GPa) = 30.07107 34.41954 32.24530
#
# Velocity S-wave (km/s) = 3.66039 3.91611 3.79041
# Velocity P-wave (km/s) = 7.21048 7.59386 7.40465
#
# Compressibility (1/GPa) = 0.01305616
#
# Stress axis : x y z
#
# Youngs Moduli (GPa) = 162.58588 77.96609 107.17711
#
# Poissons Ratio (x) = 0.21808 0.16540
# Poissons Ratio (y) = 0.45476 0.35209
# Poissons Ratio (z) = 0.25090 0.25613
#
# Static dielectric constant tensor:
#      x y z
#    x 4.545940 0.000000 0.000000 
#    y 0.000000 3.867120 0.000000 
#    z 0.000000 0.000000 4.238880 
# 
# 
# High freq. dielectric constant tensor:
#      x y z
#    x 1.901380 0.000000 0.000000 
#    y 0.000000 1.874840 0.000000 
#    z 0.000000 0.000000 1.900280 
# 
# From -- ./inp_files/13340.got.cif
#   From: 2010.03.12/outbox.cif.g09.slc.cpg/sg36_7_cif.got.tgz:13340.got - 2010.04.14 02:13:53.
