data_PCOD8176698
_publ_section_title
;
Structure prediction by ZEFSAII (Michael W. Deem and Ramdas Pophale) SiO2 
 PCOD8176698
Probable space group: C C C 2
;
_chemical_formula_sum "Si O2"
_cell_formula_units_Z 64
_cell_length_a 8.971463
_cell_length_b 14.748890
_cell_length_c 24.296385
_cell_angle_alpha 90.000000
_cell_angle_beta 90.000000
_cell_angle_gamma 90.000000
_cell_volume 3214.876305
_symmetry_space_group_name_H-M "C C C 2"
_symmetry_group_IT_number 37
_symmetry_cell_setting 'orthorhombic'
loop_
_space_group_symop_operation_xyz
x,y,z
-x,-y,z
-x,y,1/2+z
x,-y,1/2+z
1/2+x,1/2+y,z
1/2-x,1/2-y,z
1/2-x,1/2+y,1/2+z
1/2+x,1/2-y,1/2+z
loop_
_atom_site_type_symbol
_atom_site_label
_atom_site_fract_x
_atom_site_fract_y
_atom_site_fract_z
Si Si1 0.824288 0.654034 0.538320
Si Si2 0.388670 0.911555 0.665286
Si Si3 0.676829 0.005938 0.464935
Si Si4 0.684795 0.153122 0.157585
Si Si5 0.685771 0.650666 0.263067
Si Si6 0.165706 0.846560 0.262277
Si Si7 0.830812 0.654117 0.048596
Si Si8 0.327949 0.502086 0.349215
O O1 0.750000 0.750000 0.528707
O O2 0.760575 0.586039 0.492423
O O3 0.793007 0.605713 0.598066
O O4 0.998928 0.672780 0.533935
O O5 0.509872 0.831308 0.672322
O O6 0.262880 0.900731 0.711670
O O7 0.311112 0.901530 0.605792
O O8 0.500000 0.000000 0.669454
O O9 0.736915 0.092446 0.499398
O O10 0.500000 0.000000 0.467765
O O11 0.727977 0.011490 0.402596
O O12 0.750000 0.250000 0.149198
O O13 0.771051 0.102531 0.207279
O O14 0.750000 0.750000 0.274068
O O15 0.510147 0.661870 0.253594
O O16 0.716426 0.588877 0.316487
O O17 0.250000 0.750000 0.269058
O O18 0.206833 0.908733 0.313584
O O19 0.750000 0.750000 0.052109
O O20 0.500000 0.500000 0.366465
#
# Coordination Sequence:
#
# PCOD8176698 Si02
#       8
#     8   8   8   8   8   8   8   8
#     4   9  19  36  58  84 114 148 185 232 289 346
#     4  11  21  36  60  88 122 157 193 238 289 349
#     4  10  22  40  59  80 110 151 197 240 288 346
#     4   9  17  32  56  83 113 145 177 221 281 341
#     4  11  23  38  59  89 119 152 197 242 291 353
#     4  10  21  39  60  84 118 152 188 240 297 350
#     4  10  21  37  58  87 119 151 190 239 292 350
#     4  10  24  42  57  79 114 152 195 244 290 343
#
# _framework density 19.907453
#
# number of rings (size 3 to 8) (size 9 to 14) (size 15 to 20)
#    0.000    2.000    0.000    4.500    0.000    7.500 
#    0.000    5.000    0.000    6.000    0.000    0.000 
#    0.000    0.000    0.000    0.000    0.000    0.000 
#
# Total GULP energy -396478.227689 kJ/mol
# GULP energy per Si atom -12389.944615 kJ/mol
# Density = 1.986214 g / cm^3
# Si number density = 19.907453 Si / 1000 Ang^3
#
#
#
# Elastic Constant Matrix: (Units=GPa)
#
#
# Indices 1 2 3 4 5 6 
#
# 1 74.0009 45.8764 54.4570 0.0000 0.0000 0.0000
# 2 45.8764 129.6085 65.6510 0.0000 0.0000 0.0000
# 3 54.4570 65.6510 151.8172 0.0000 0.0000 0.0000
# 4 0.0000 0.0000 0.0000 29.8783 0.0000 0.0000
# 5 0.0000 0.0000 0.0000 0.0000 35.3743 0.0000
# 6 0.0000 0.0000 0.0000 0.0000 0.0000 33.8765
#
#
#
# Elastic Compliance Matrix: (Units=1/GPa)
#
#
# Indices 1 2 3 4 5 6 
#
# 1 0.020185 -0.004452 -0.005315 0.000000 0.000000 0.000000
# 2 -0.004452 0.010862 -0.003100 0.000000 0.000000 0.000000
# 3 -0.005315 -0.003100 0.009834 0.000000 0.000000 0.000000
# 4 0.000000 0.000000 0.000000 0.033469 0.000000 0.000000
# 5 0.000000 0.000000 0.000000 0.000000 0.028269 0.000000
# 6 0.000000 0.000000 0.000000 0.000000 0.000000 0.029519
#
#
# Mechanical properties :
#
#
# Convention : Reuss Voigt Hill
#
# Bulk Modulus (GPa) = 66.02458 76.37726 71.20092
# Shear Modulus (GPa) = 30.68974 32.45529 31.57251
#
# Velocity S-wave (km/s) = 3.93061 4.04209 3.98674
# Velocity P-wave (km/s) = 7.33739 7.76106 7.55220
#
# Compressibility (1/GPa) = 0.01514587
#
# Stress axis : x y z
#
# Youngs Moduli (GPa) = 49.54204 92.06634 101.68973
#
# Poissons Ratio (x) = 0.40992 0.54047
# Poissons Ratio (y) = 0.22058 0.31523
# Poissons Ratio (z) = 0.26331 0.28539
#
# Static dielectric constant tensor:
#      x y z
#    x 3.456470 0.000000 0.000000 
#    y 0.000000 3.804900 0.000000 
#    z 0.000000 0.000000 4.095920 
# 
# 
# High freq. dielectric constant tensor:
#      x y z
#    x 1.772200 0.000000 0.000000 
#    y 0.000000 1.785250 0.000000 
#    z 0.000000 0.000000 1.779840 
# 
# From -- ./inp_files/18481.got.cif
#   From: 2010.03.12/outbox.cif.g09.slc.cpg/sg37_10_cif.got.tgz:18481.got - 2010.04.14 02:25:27.
