data_PCOD8176870
_publ_section_title
;
Structure prediction by ZEFSAII (Michael W. Deem and Ramdas Pophale) SiO2 
 PCOD8176870
Probable space group: C C C 2
;
_chemical_formula_sum "Si O2"
_cell_formula_units_Z 60
_cell_length_a 16.008647
_cell_length_b 16.299032
_cell_length_c 10.044632
_cell_angle_alpha 90.000000
_cell_angle_beta 90.000000
_cell_angle_gamma 90.000000
_cell_volume 2620.900122
_symmetry_space_group_name_H-M "C C C 2"
_symmetry_group_IT_number 37
_symmetry_cell_setting 'orthorhombic'
loop_
_space_group_symop_operation_xyz
x,y,z
-x,-y,z
-x,y,1/2+z
x,-y,1/2+z
1/2+x,1/2+y,z
1/2-x,1/2-y,z
1/2-x,1/2+y,1/2+z
1/2+x,1/2-y,1/2+z
loop_
_atom_site_type_symbol
_atom_site_label
_atom_site_fract_x
_atom_site_fract_y
_atom_site_fract_z
Si Si1 0.671897 0.437587 0.889510
Si Si2 0.133492 0.586019 0.564053
Si Si3 0.445072 0.328641 0.747542
Si Si4 0.769424 0.840664 0.643156
Si Si5 0.296792 0.669625 0.651423
Si Si6 0.171720 0.467243 0.786785
Si Si7 0.050206 0.755286 0.523675
Si Si8 0.000000 0.000000 0.336925
O O1 0.656781 0.367004 0.780160
O O2 0.736991 0.497743 0.819238
O O3 0.583635 0.482220 0.924484
O O4 0.709760 0.401924 0.023594
O O5 0.230675 0.611960 0.575640
O O6 0.116742 0.525078 0.688370
O O7 0.119772 0.540801 0.423058
O O8 0.069073 0.661425 0.564023
O O9 0.345224 0.334425 0.746791
O O10 0.473111 0.284832 0.612035
O O11 0.483363 0.419976 0.747893
O O12 0.475250 0.271659 0.870796
O O13 0.750000 0.750000 0.588059
O O14 0.688450 0.878447 0.718638
O O15 0.250000 0.750000 0.704765
O O16 0.367712 0.689826 0.544993
#
# Coordination Sequence:
#
# PCOD8176870 Si02
#       8
#     8   8   8   8   8   8   8   4
#     4  11  22  39  61 100 143 178 221 275 342 413
#     4  10  22  41  70  96 133 173 227 289 340 400
#     4  12  26  43  68  99 141 183 225 277 349 425
#     4  12  25  42  69 102 139 181 234 287 333 411
#     4   9  19  37  63  92 130 180 225 270 328 395
#     4  11  21  42  68 104 129 175 230 289 343 400
#     4  11  24  45  64  95 135 182 228 277 337 412
#     4  12  24  40  64  98 150 184 214 270 352 430
#
# _framework density 22.892897000000001
#
# number of rings (size 3 to 8) (size 9 to 14) (size 15 to 20)
#    0.000    1.067    4.000    2.800    0.000    3.200 
#    0.000    0.000    0.000    6.400    0.000    0.000 
#    0.000    0.000    0.000    0.000    0.000    0.000 
#
# Total GULP energy -372009.245172 kJ/mol
# GULP energy per Si atom -12400.308172 kJ/mol
# Density = 2.284079 g / cm^3
# Si number density = 22.892897 Si / 1000 Ang^3
#
#
#
# Elastic Constant Matrix: (Units=GPa)
#
#
# Indices 1 2 3 4 5 6 
#
# 1 34.2669 17.3613 5.8756 0.0000 0.0000 0.0000
# 2 17.3613 111.7224 43.3502 0.0000 0.0000 0.0000
# 3 5.8756 43.3502 133.8608 0.0000 0.0000 0.0000
# 4 0.0000 0.0000 0.0000 33.1854 0.0000 0.0000
# 5 0.0000 0.0000 0.0000 0.0000 20.3583 0.0000
# 6 0.0000 0.0000 0.0000 0.0000 0.0000 32.5132
#
#
#
# Elastic Compliance Matrix: (Units=1/GPa)
#
#
# Indices 1 2 3 4 5 6 
#
# 1 0.031683 -0.005014 0.000233 0.000000 0.000000 0.000000
# 2 -0.005014 0.011031 -0.003352 0.000000 0.000000 0.000000
# 3 0.000233 -0.003352 0.008546 0.000000 0.000000 0.000000
# 4 0.000000 0.000000 0.000000 0.030134 0.000000 0.000000
# 5 0.000000 0.000000 0.000000 0.000000 0.049120 0.000000
# 6 0.000000 0.000000 0.000000 0.000000 0.000000 0.030757
#
#
# Mechanical properties :
#
#
# Convention : Reuss Voigt Hill
#
# Bulk Modulus (GPa) = 28.57677 45.89160 37.23419
# Shear Modulus (GPa) = 26.42702 31.42891 28.92797
#
# Velocity S-wave (km/s) = 3.40130 3.70924 3.55860
# Velocity P-wave (km/s) = 5.28536 6.19955 5.76062
#
# Compressibility (1/GPa) = 0.03499345
#
# Stress axis : x y z
#
# Youngs Moduli (GPa) = 31.56269 90.65714 117.01675
#
# Poissons Ratio (x) = 0.45454 -0.02727
# Poissons Ratio (y) = 0.15825 0.39225
# Poissons Ratio (z) = -0.00736 0.30389
#
# Static dielectric constant tensor:
#      x y z
#    x 3.816800 0.000000 0.000000 
#    y 0.000000 4.287440 0.000000 
#    z 0.000000 0.000000 3.983100 
# 
# 
# High freq. dielectric constant tensor:
#      x y z
#    x 1.879590 0.000000 0.000000 
#    y 0.000000 1.910740 0.000000 
#    z 0.000000 0.000000 1.902240 
# 
# From -- ./inp_files/4099.got.cif
#   From: 2010.03.12/outbox.cif.g09.slc.cpg/sg37_3_cif.got.tgz:4099.got - 2010.04.14 02:25:27.
