data_PCOD8176238
_publ_section_title
;
Structure prediction by ZEFSAII (Michael W. Deem and Ramdas Pophale) SiO2 
 PCOD8176238
Probable space group: C M C 21
;
_chemical_formula_sum "Si O2"
_cell_formula_units_Z 48
_cell_length_a 8.326977
_cell_length_b 30.465327
_cell_length_c 9.211313
_cell_angle_alpha 90.000000
_cell_angle_beta 90.000000
_cell_angle_gamma 90.000000
_cell_volume 2336.763438
_symmetry_space_group_name_H-M "C M C 21"
_symmetry_group_IT_number 36
_symmetry_cell_setting 'orthorhombic'
loop_
_space_group_symop_operation_xyz
x,y,z
-x,-y,1/2+z
x,-y,1/2+z
-x,y,z
1/2+x,1/2+y,z
1/2-x,1/2-y,1/2+z
1/2+x,1/2-y,1/2+z
1/2-x,1/2+y,z
loop_
_atom_site_type_symbol
_atom_site_label
_atom_site_fract_x
_atom_site_fract_y
_atom_site_fract_z
Si Si1 0.686286 0.632531 0.735560
Si Si2 0.814727 0.458794 0.220997
Si Si3 0.814242 0.793740 0.738826
Si Si4 0.684858 0.789976 0.054662
Si Si5 0.185508 0.966128 0.530236
Si Si6 0.811788 0.370881 0.552548
O O1 0.500000 0.623914 0.765899
O O2 0.765019 0.589329 0.663081
O O3 0.706863 0.672175 0.624250
O O4 0.769717 0.643420 0.888831
O O5 0.704362 0.470208 0.358103
O O6 0.786275 0.494253 0.097326
O O7 0.000000 0.458213 0.268780
O O8 0.764159 0.756189 0.624948
O O9 0.779146 0.840408 0.666709
O O10 0.000000 0.790843 0.781313
O O11 0.711216 0.787188 0.883285
O O12 0.500000 0.800807 0.086935
O O13 0.256328 0.920259 0.586605
O O14 0.000000 0.970008 0.573893
O O15 0.000000 0.366217 0.577627
#
# Coordination Sequence:
#
# PCOD8176238 Si02
#       6
#     8   8   8   8   8   8
#     4  11  22  39  62  88 119 156 197 242 294 349
#     4  11  22  39  61  88 120 156 198 243 294 349
#     4  11  24  41  62  89 120 155 196 242 293 349
#     4  11  24  41  62  89 120 155 196 242 293 349
#     4  11  22  39  61  88 120 156 198 243 294 349
#     4  11  22  39  62  88 119 156 197 242 294 349
#
# _framework density 20.541232999999998
#
# number of rings (size 3 to 8) (size 9 to 14) (size 15 to 20)
#    0.000    1.000    0.000   10.000    0.000    6.667 
#    0.000    6.667    0.000    0.000    0.000    0.000 
#    0.000    0.000    0.000    0.000    0.000    0.000 
#
# Total GULP energy -297786.067910 kJ/mol
# GULP energy per Si atom -12407.752830 kJ/mol
# Density = 2.049448 g / cm^3
# Si number density = 20.541233 Si / 1000 Ang^3
#
#
#
# Elastic Constant Matrix: (Units=GPa)
#
#
# Indices 1 2 3 4 5 6 
#
# 1 82.9876 42.4011 18.9808 0.0000 0.0000 0.0000
# 2 42.4011 79.7026 23.9007 0.0000 0.0000 0.0000
# 3 18.9808 23.9007 55.0287 0.0000 0.0000 0.0000
# 4 0.0000 0.0000 0.0000 37.7718 0.0000 0.0000
# 5 0.0000 0.0000 0.0000 0.0000 34.6052 0.0000
# 6 0.0000 0.0000 0.0000 0.0000 0.0000 31.2382
#
#
#
# Elastic Compliance Matrix: (Units=1/GPa)
#
#
# Indices 1 2 3 4 5 6 
#
# 1 0.016776 -0.008266 -0.002196 0.000000 0.000000 0.000000
# 2 -0.008266 0.018498 -0.005183 0.000000 0.000000 0.000000
# 3 -0.002196 -0.005183 0.021181 0.000000 0.000000 0.000000
# 4 0.000000 0.000000 0.000000 0.026475 0.000000 0.000000
# 5 0.000000 0.000000 0.000000 0.000000 0.028897 0.000000
# 6 0.000000 0.000000 0.000000 0.000000 0.000000 0.032012
#
#
# Mechanical properties :
#
#
# Convention : Reuss Voigt Hill
#
# Bulk Modulus (GPa) = 39.73881 43.14268 41.44074
# Shear Modulus (GPa) = 27.24523 29.55212 28.39868
#
# Velocity S-wave (km/s) = 3.64588 3.79710 3.72226
# Velocity P-wave (km/s) = 6.09189 6.34606 6.22028
#
# Compressibility (1/GPa) = 0.02516432
#
# Stress axis : x y z
#
# Youngs Moduli (GPa) = 59.61025 54.05877 47.21182
#
# Poissons Ratio (x) = 0.44685 0.10369
# Poissons Ratio (y) = 0.49273 0.24471
# Poissons Ratio (z) = 0.13092 0.28020
#
# Static dielectric constant tensor:
#      x y z
#    x 3.741820 0.000000 0.000000 
#    y 0.000000 3.883970 0.000000 
#    z 0.000000 0.000000 3.535910 
# 
# 
# High freq. dielectric constant tensor:
#      x y z
#    x 1.820720 0.000000 0.000000 
#    y 0.000000 1.816170 0.000000 
#    z 0.000000 0.000000 1.793540 
# 
# From -- ./inp_files/2721.got.cif
#   From: 2010.03.12/outbox.cif.g09.slc.cpg/sg36_2_cif.got.tgz:2721.got - 2010.04.14 02:13:53.
