data_PCOD8176959
_publ_section_title
;
Structure prediction by ZEFSAII (Michael W. Deem and Ramdas Pophale) SiO2 
 PCOD8176959
Probable space group: C C C 2
;
_chemical_formula_sum "Si O2"
_cell_formula_units_Z 60
_cell_length_a 14.343397
_cell_length_b 15.806578
_cell_length_c 12.139232
_cell_angle_alpha 90.000000
_cell_angle_beta 90.000000
_cell_angle_gamma 90.000000
_cell_volume 2752.206964
_symmetry_space_group_name_H-M "C C C 2"
_symmetry_group_IT_number 37
_symmetry_cell_setting 'orthorhombic'
loop_
_space_group_symop_operation_xyz
x,y,z
-x,-y,z
-x,y,1/2+z
x,-y,1/2+z
1/2+x,1/2+y,z
1/2-x,1/2-y,z
1/2-x,1/2+y,1/2+z
1/2+x,1/2-y,1/2+z
loop_
_atom_site_type_symbol
_atom_site_label
_atom_site_fract_x
_atom_site_fract_y
_atom_site_fract_z
Si Si1 0.399042 0.785369 0.434940
Si Si2 0.664964 0.548462 0.442945
Si Si3 0.505594 0.100097 0.765489
Si Si4 0.000000 0.000000 0.798237
Si Si5 0.434492 0.795771 0.080860
Si Si6 0.632767 0.626693 0.677179
Si Si7 0.787246 0.868200 0.894458
Si Si8 0.813639 0.330155 0.864138
O O1 0.448370 0.852647 0.358372
O O2 0.463173 0.768153 0.540038
O O3 0.298299 0.826634 0.458495
O O4 0.379351 0.691643 0.389324
O O5 0.569085 0.554441 0.375335
O O6 0.661817 0.596414 0.557439
O O7 0.689555 0.451032 0.463709
O O8 0.746535 0.589711 0.371667
O O9 0.454992 0.118269 0.649036
O O10 0.609911 0.140794 0.773156
O O11 0.500000 0.000000 0.788085
O O12 0.049847 0.067896 0.720840
O O13 0.397364 0.724637 0.165038
O O14 0.362269 0.810364 0.981688
O O15 0.722105 0.616600 0.761148
O O16 0.750000 0.250000 0.826542
#
# Coordination Sequence:
#
# PCOD8176959 Si02
#       8
#     8   8   8   4   8   8   8   8
#     4  10  23  44  67  97 138 175 224 290 349 409
#     4  11  24  42  68 101 138 178 230 282 348 417
#     4  11  25  45  72  99 137 183 240 290 357 426
#     4  10  26  40  66 104 142 178 224 292 350 414
#     4  11  25  42  72  96 135 186 229 284 352 425
#     4  11  23  40  70  99 133 183 228 277 348 421
#     4  10  23  43  66 100 134 176 226 289 342 418
#     4  11  25  45  68 102 141 183 232 299 348 422
#
# _framework density 21.800685999999999
#
# number of rings (size 3 to 8) (size 9 to 14) (size 15 to 20)
#    0.000    1.333    2.667    1.200    9.333    3.200 
#    7.200    0.000    0.000    0.000    0.000    0.000 
#    0.000    0.000    0.000    0.000    0.000    0.000 
#
# Total GULP energy -371772.091870 kJ/mol
# GULP energy per Si atom -12392.403062 kJ/mol
# Density = 2.175107 g / cm^3
# Si number density = 21.800686 Si / 1000 Ang^3
#
#
#
# Elastic Constant Matrix: (Units=GPa)
#
#
# Indices 1 2 3 4 5 6 
#
# 1 104.7580 37.9682 10.0553 0.0000 0.0000 0.0000
# 2 37.9682 135.1683 3.2202 0.0000 0.0000 0.0000
# 3 10.0553 3.2202 38.4179 0.0000 0.0000 0.0000
# 4 0.0000 0.0000 0.0000 29.0283 0.0000 0.0000
# 5 0.0000 0.0000 0.0000 0.0000 8.9559 0.0000
# 6 0.0000 0.0000 0.0000 0.0000 0.0000 38.9304
#
#
#
# Elastic Compliance Matrix: (Units=1/GPa)
#
#
# Indices 1 2 3 4 5 6 
#
# 1 0.010880 -0.002994 -0.002597 0.000000 0.000000 0.000000
# 2 -0.002994 0.008237 0.000093 0.000000 0.000000 0.000000
# 3 -0.002597 0.000093 0.026701 0.000000 0.000000 0.000000
# 4 0.000000 0.000000 0.000000 0.034449 0.000000 0.000000
# 5 0.000000 0.000000 0.000000 0.000000 0.111659 0.000000
# 6 0.000000 0.000000 0.000000 0.000000 0.000000 0.025687
#
#
# Mechanical properties :
#
#
# Convention : Reuss Voigt Hill
#
# Bulk Modulus (GPa) = 28.71661 42.31465 35.51563
# Shear Modulus (GPa) = 20.81452 30.52295 25.66873
#
# Velocity S-wave (km/s) = 3.09328 3.74584 3.43509
# Velocity P-wave (km/s) = 5.09497 6.17740 5.66211
#
# Compressibility (1/GPa) = 0.03482305
#
# Stress axis : x y z
#
# Youngs Moduli (GPa) = 91.90892 121.40240 37.45129
#
# Poissons Ratio (x) = 0.36352 0.09725
# Poissons Ratio (y) = 0.27521 -0.00349
# Poissons Ratio (z) = 0.23867 -0.01133
#
# Static dielectric constant tensor:
#      x y z
#    x 4.334180 0.000000 0.000000 
#    y 0.000000 4.047720 0.000000 
#    z 0.000000 0.000000 3.911590 
# 
# 
# High freq. dielectric constant tensor:
#      x y z
#    x 1.866730 0.000000 0.000000 
#    y 0.000000 1.869710 0.000000 
#    z 0.000000 0.000000 1.841920 
# 
# From -- ./inp_files/7947.got.cif
#   From: 2010.03.12/outbox.cif.g09.slc.cpg/sg37_4_cif.got.tgz:7947.got - 2010.04.14 02:25:27.
