data_PCOD8176720
_publ_section_title
;
Structure prediction by ZEFSAII (Michael W. Deem and Ramdas Pophale) SiO2 
 PCOD8176720
Probable space group: C C C 2
;
_chemical_formula_sum "Si O2"
_cell_formula_units_Z 64
_cell_length_a 12.301123
_cell_length_b 13.666025
_cell_length_c 18.421544
_cell_angle_alpha 90.000000
_cell_angle_beta 90.000000
_cell_angle_gamma 90.000000
_cell_volume 3096.798869
_symmetry_space_group_name_H-M "C C C 2"
_symmetry_group_IT_number 37
_symmetry_cell_setting 'orthorhombic'
loop_
_space_group_symop_operation_xyz
x,y,z
-x,-y,z
-x,y,1/2+z
x,-y,1/2+z
1/2+x,1/2+y,z
1/2-x,1/2-y,z
1/2-x,1/2+y,1/2+z
1/2+x,1/2-y,1/2+z
loop_
_atom_site_type_symbol
_atom_site_label
_atom_site_fract_x
_atom_site_fract_y
_atom_site_fract_z
Si Si1 0.406652 0.067069 0.772280
Si Si2 0.373858 0.777341 0.538639
Si Si3 0.999889 0.296673 0.390854
Si Si4 0.461125 0.390096 0.574829
Si Si5 0.188474 0.439963 0.397659
Si Si6 0.926684 0.095142 0.912504
Si Si7 0.123969 0.488061 0.043290
Si Si8 0.744385 0.864111 0.646407
O O1 0.454618 0.158039 0.816641
O O2 0.309220 0.109781 0.723426
O O3 0.500000 0.000000 0.730758
O O4 0.359343 0.992345 0.828958
O O5 0.250000 0.750000 0.528584
O O6 0.419683 0.803856 0.459317
O O7 0.443491 0.693402 0.581780
O O8 0.368357 0.881191 0.582405
O O9 0.115179 0.344525 0.414058
O O10 0.013877 0.182936 0.371031
O O11 0.500000 0.500000 0.578379
O O12 0.407023 0.373834 0.496331
O O13 0.371934 0.389733 0.639132
O O14 0.310587 0.415252 0.375361
O O15 0.190817 0.510806 0.467795
O O16 0.000000 0.000000 0.903933
O O17 0.168729 0.577093 0.090722
O O18 0.000000 0.500000 0.021293
O O19 0.750000 0.750000 0.628783
#
# Coordination Sequence:
#
# PCOD8176720 Si02
#       8
#     8   8   8   8   8   8   8   8
#     4  10  23  44  62  90 130 174 221 267 334 409
#     4  11  22  35  64 100 130 170 215 283 344 396
#     4  10  21  38  63  93 131 166 211 271 332 394
#     4  10  22  41  59  93 135 169 217 271 342 398
#     4  11  20  39  65  94 128 169 218 272 325 392
#     4  10  22  35  62  99 131 163 211 278 335 392
#     4  12  21  38  63  97 128 169 224 277 333 394
#     4  12  26  40  64  94 132 178 216 282 333 404
#
# _framework density 20.666502999999999
#
# number of rings (size 3 to 8) (size 9 to 14) (size 15 to 20)
#    0.000    1.250    3.750    2.625    5.250    1.500 
#    0.000    1.875    0.000    6.000    0.000    0.000 
#    0.000    0.000    0.000    0.000    0.000    0.000 
#
# Total GULP energy -396475.070202 kJ/mol
# GULP energy per Si atom -12389.845944 kJ/mol
# Density = 2.061947 g / cm^3
# Si number density = 20.666503 Si / 1000 Ang^3
#
#
#
# Elastic Constant Matrix: (Units=GPa)
#
#
# Indices 1 2 3 4 5 6 
#
# 1 75.3104 46.2475 27.9554 0.0000 0.0000 0.0000
# 2 46.2475 170.2757 38.0202 0.0000 0.0000 0.0000
# 3 27.9554 38.0202 56.6182 0.0000 0.0000 0.0000
# 4 0.0000 0.0000 0.0000 2.9179 0.0000 0.0000
# 5 0.0000 0.0000 0.0000 0.0000 18.0406 0.0000
# 6 0.0000 0.0000 0.0000 0.0000 0.0000 31.0503
#
#
#
# Elastic Compliance Matrix: (Units=1/GPa)
#
#
# Indices 1 2 3 4 5 6 
#
# 1 0.017764 -0.003372 -0.006507 0.000000 0.000000 0.000000
# 2 -0.003372 0.007549 -0.003404 0.000000 0.000000 0.000000
# 3 -0.006507 -0.003404 0.023161 0.000000 0.000000 0.000000
# 4 0.000000 0.000000 0.000000 0.342708 0.000000 0.000000
# 5 0.000000 0.000000 0.000000 0.000000 0.055430 0.000000
# 6 0.000000 0.000000 0.000000 0.000000 0.000000 0.032206
#
#
# Mechanical properties :
#
#
# Convention : Reuss Voigt Hill
#
# Bulk Modulus (GPa) = 45.64545 58.51673 52.08109
# Shear Modulus (GPa) = 9.75253 23.06718 16.40985
#
# Velocity S-wave (km/s) = 2.17468 3.34453 2.82091
# Velocity P-wave (km/s) = 5.33294 6.57957 5.98878
#
# Compressibility (1/GPa) = 0.02190799
#
# Stress axis : x y z
#
# Youngs Moduli (GPa) = 56.29216 132.47161 43.17608
#
# Poissons Ratio (x) = 0.44669 0.28094
# Poissons Ratio (y) = 0.18982 0.14698
# Poissons Ratio (z) = 0.36629 0.45096
#
# Static dielectric constant tensor:
#      x y z
#    x 4.915980 0.000000 0.000000 
#    y 0.000000 4.388930 0.000000 
#    z 0.000000 0.000000 3.497930 
# 
# 
# High freq. dielectric constant tensor:
#      x y z
#    x 1.819440 0.000000 0.000000 
#    y 0.000000 1.832920 0.000000 
#    z 0.000000 0.000000 1.764560 
# 
# From -- ./inp_files/15079.got.cif
#   From: 2010.03.12/outbox.cif.g09.slc.cpg/sg37_8_cif.got.tgz:15079.got - 2010.04.14 02:25:27.
