data_PCOD8176438
_publ_section_title
;
Structure prediction by ZEFSAII (Michael W. Deem and Ramdas Pophale) SiO2 
 PCOD8176438
Probable space group: C C C 2
;
_chemical_formula_sum "Si O2"
_cell_formula_units_Z 56
_cell_length_a 15.610170
_cell_length_b 5.152248
_cell_length_c 31.554594
_cell_angle_alpha 90.000000
_cell_angle_beta 90.000000
_cell_angle_gamma 90.000000
_cell_volume 2537.856073
_symmetry_space_group_name_H-M "C C C 2"
_symmetry_group_IT_number 37
_symmetry_cell_setting 'orthorhombic'
loop_
_space_group_symop_operation_xyz
x,y,z
-x,-y,z
-x,y,1/2+z
x,-y,1/2+z
1/2+x,1/2+y,z
1/2-x,1/2-y,z
1/2-x,1/2+y,1/2+z
1/2+x,1/2-y,1/2+z
loop_
_atom_site_type_symbol
_atom_site_label
_atom_site_fract_x
_atom_site_fract_y
_atom_site_fract_z
Si Si1 0.351393 0.241232 0.896670
Si Si2 0.148300 0.756049 0.753010
Si Si3 0.148348 0.259293 0.703278
Si Si4 0.555833 0.254865 0.482394
Si Si5 0.402546 0.066138 0.611945
Si Si6 0.852258 0.758570 0.348035
Si Si7 0.901479 0.065645 0.571986
O O1 0.250000 0.250000 0.895935
O O2 0.379556 0.192120 0.944696
O O3 0.387738 0.506699 0.876794
O O4 0.387784 0.007017 0.868074
O O5 0.250000 0.750000 0.754263
O O6 0.117136 0.479331 0.735875
O O7 0.112174 0.795134 0.800396
O O8 0.115233 0.985849 0.722123
O O9 0.250000 0.250000 0.696688
O O10 0.103401 0.328048 0.659348
O O11 0.500000 0.500000 0.467955
O O12 0.609723 0.338495 0.523815
O O13 0.500000 0.000000 0.493179
O O14 0.358270 0.285171 0.581495
O O15 0.500000 0.000000 0.598958
O O16 0.358347 0.785578 0.602776
O O17 0.750000 0.750000 0.347563
O O18 0.000000 0.000000 0.583600
#
# Coordination Sequence:
#
# PCOD8176438 Si02
#       7
#     8   8   8   8   8   8   8
#     4  10  20  34  54  81 108 134 172 220 264 305
#     4   9  17  30  50  74 100 133 171 208 247 300
#     4  10  19  31  49  75 103 129 165 212 258 301
#     4  11  21  36  57  79 105 138 177 215 258 312
#     4  10  19  33  52  72  96 129 168 207 249 298
#     4   9  17  31  52  76 103 137 175 212 252 305
#     4   9  18  33  53  73  95 130 173 208 240 299
#
# _framework density 22.065871000000001
#
# number of rings (size 3 to 8) (size 9 to 14) (size 15 to 20)
#    0.000    2.286    0.000    4.714    0.000    3.429 
#    0.000    1.429    0.000    8.571    0.000    0.000 
#    0.000    0.000    0.000    0.000    0.000    0.000 
#
# Total GULP energy -347028.471494 kJ/mol
# GULP energy per Si atom -12393.873982 kJ/mol
# Density = 2.201565 g / cm^3
# Si number density = 22.065871 Si / 1000 Ang^3
#
#
#
# Elastic Constant Matrix: (Units=GPa)
#
#
# Indices 1 2 3 4 5 6 
#
# 1 5.0554 13.4940 10.4169 0.0000 0.0000 0.0000
# 2 13.4940 192.7562 74.5908 0.0000 0.0000 0.0000
# 3 10.4169 74.5908 170.1094 0.0000 0.0000 0.0000
# 4 0.0000 0.0000 0.0000 45.3079 0.0000 0.0000
# 5 0.0000 0.0000 0.0000 0.0000 22.6631 0.0000
# 6 0.0000 0.0000 0.0000 0.0000 0.0000 10.0015
#
#
#
# Elastic Compliance Matrix: (Units=1/GPa)
#
#
# Indices 1 2 3 4 5 6 
#
# 1 0.255123 -0.014229 -0.009384 0.000000 0.000000 0.000000
# 2 -0.014229 0.007042 -0.002216 0.000000 0.000000 0.000000
# 3 -0.009384 -0.002216 0.007425 0.000000 0.000000 0.000000
# 4 0.000000 0.000000 0.000000 0.022071 0.000000 0.000000
# 5 0.000000 0.000000 0.000000 0.000000 0.044125 0.000000
# 6 0.000000 0.000000 0.000000 0.000000 0.000000 0.099985
#
#
# Mechanical properties :
#
#
# Convention : Reuss Voigt Hill
#
# Bulk Modulus (GPa) = 4.58859 62.76937 33.67898
# Shear Modulus (GPa) = 8.92744 33.55581 21.24162
#
# Velocity S-wave (km/s) = 2.01360 3.90386 3.10602
# Velocity P-wave (km/s) = 2.73681 6.98772 5.30653
#
# Compressibility (1/GPa) = 0.21793172
#
# Stress axis : x y z
#
# Youngs Moduli (GPa) = 3.91968 142.01193 134.67956
#
# Poissons Ratio (x) = 2.02066 1.26378
# Poissons Ratio (y) = 0.05577 0.29850
# Poissons Ratio (z) = 0.03678 0.31475
#
# Static dielectric constant tensor:
#      x y z
#    x 3.310980 0.000000 0.000000 
#    y 0.000000 4.735190 0.000000 
#    z 0.000000 0.000000 3.925300 
# 
# 
# High freq. dielectric constant tensor:
#      x y z
#    x 1.802780 0.000000 0.000000 
#    y 0.000000 1.899450 0.000000 
#    z 0.000000 0.000000 1.875840 
# 
# From -- ./inp_files/20551.got.cif
#   From: 2010.03.12/outbox.cif.g09.slc.cpg/sg37_11_cif.got.tgz:20551.got - 2010.04.14 02:25:27.
