data_PCOD8176626
_publ_section_title
;
Structure prediction by ZEFSAII (Michael W. Deem and Ramdas Pophale) SiO2 
 PCOD8176626
Probable space group: C C C 2
;
_chemical_formula_sum "Si O2"
_cell_formula_units_Z 60
_cell_length_a 26.223194
_cell_length_b 11.895350
_cell_length_c 8.668621
_cell_angle_alpha 90.000000
_cell_angle_beta 90.000000
_cell_angle_gamma 90.000000
_cell_volume 2704.038236
_symmetry_space_group_name_H-M "C C C 2"
_symmetry_group_IT_number 37
_symmetry_cell_setting 'orthorhombic'
loop_
_space_group_symop_operation_xyz
x,y,z
-x,-y,z
-x,y,1/2+z
x,-y,1/2+z
1/2+x,1/2+y,z
1/2-x,1/2-y,z
1/2-x,1/2+y,1/2+z
1/2+x,1/2-y,1/2+z
loop_
_atom_site_type_symbol
_atom_site_label
_atom_site_fract_x
_atom_site_fract_y
_atom_site_fract_z
Si Si1 0.835829 0.255427 0.577670
Si Si2 0.441864 0.489001 0.947423
Si Si3 0.969720 0.335477 0.183288
Si Si4 0.248875 0.912612 0.520055
Si Si5 0.226559 0.864284 0.169356
Si Si6 0.380595 0.309819 0.766441
Si Si7 0.431858 0.326760 0.233618
Si Si8 0.500000 0.000000 0.427619
O O1 0.800627 0.145003 0.596829
O O2 0.800566 0.365333 0.598856
O O3 0.858583 0.263203 0.406366
O O4 0.882041 0.249405 0.699882
O O5 0.500000 0.500000 0.900342
O O6 0.413436 0.412647 0.825575
O O7 0.424708 0.619194 0.906699
O O8 0.434192 0.435706 0.116847
O O9 0.918082 0.266159 0.165479
O O10 0.962708 0.425912 0.320732
O O11 0.018598 0.253217 0.211503
O O12 0.970993 0.406961 0.027293
O O13 0.248886 0.888549 0.338485
O O14 0.245682 0.044074 0.548540
O O15 0.250000 0.750000 0.105225
O O16 0.165258 0.858506 0.163494
#
# Coordination Sequence:
#
# PCOD8176626 Si02
#       8
#     8   8   8   8   8   8   8   4
#     4   9  19  41  65  95 126 182 209 269 338 390
#     4  11  21  35  58  96 131 170 204 257 322 393
#     4  11  23  44  62  91 132 173 228 271 314 399
#     4  10  20  43  72  90 136 167 218 278 337 392
#     4  11  22  45  67  99 130 170 216 283 333 395
#     4  10  20  39  66  93 131 167 212 265 332 387
#     4  11  23  37  62  93 134 169 219 260 325 392
#     4  10  24  44  64  84 128 182 228 272 314 358
#
# _framework density 22.189036999999999
#
# number of rings (size 3 to 8) (size 9 to 14) (size 15 to 20)
#    0.000    1.600    4.000    2.800    0.000    0.000 
#    9.600    1.333    0.000    0.000    0.000    0.000 
#    0.000    0.000    0.000    0.000    0.000    0.000 
#
# Total GULP energy -371718.498132 kJ/mol
# GULP energy per Si atom -12390.616604 kJ/mol
# Density = 2.213853 g / cm^3
# Si number density = 22.189037 Si / 1000 Ang^3
#
#
#
# Elastic Constant Matrix: (Units=GPa)
#
#
# Indices 1 2 3 4 5 6 
#
# 1 138.0120 50.9809 22.1590 0.0000 0.0000 0.0000
# 2 50.9809 132.3817 46.4505 0.0000 0.0000 0.0000
# 3 22.1590 46.4505 46.6328 0.0000 0.0000 0.0000
# 4 0.0000 0.0000 0.0000 19.8886 0.0000 0.0000
# 5 0.0000 0.0000 0.0000 0.0000 47.2051 0.0000
# 6 0.0000 0.0000 0.0000 0.0000 0.0000 30.2479
#
#
#
# Elastic Compliance Matrix: (Units=1/GPa)
#
#
# Indices 1 2 3 4 5 6 
#
# 1 0.008491 -0.002850 -0.001195 0.000000 0.000000 0.000000
# 2 -0.002850 0.012570 -0.011166 0.000000 0.000000 0.000000
# 3 -0.001195 -0.011166 0.033134 0.000000 0.000000 0.000000
# 4 0.000000 0.000000 0.000000 0.050280 0.000000 0.000000
# 5 0.000000 0.000000 0.000000 0.000000 0.021184 0.000000
# 6 0.000000 0.000000 0.000000 0.000000 0.000000 0.033060
#
#
# Mechanical properties :
#
#
# Convention : Reuss Voigt Hill
#
# Bulk Modulus (GPa) = 42.06766 61.80079 51.93423
# Shear Modulus (GPa) = 25.37220 32.63073 29.00147
#
# Velocity S-wave (km/s) = 3.38517 3.83897 3.61919
# Velocity P-wave (km/s) = 5.85484 6.89657 6.39694
#
# Compressibility (1/GPa) = 0.02377123
#
# Stress axis : x y z
#
# Youngs Moduli (GPa) = 117.77770 79.55741 30.18005
#
# Poissons Ratio (x) = 0.22676 0.03608
# Poissons Ratio (y) = 0.33570 0.33699
# Poissons Ratio (z) = 0.14079 0.88834
#
# Static dielectric constant tensor:
#      x y z
#    x 4.111950 0.000000 0.000000 
#    y 0.000000 4.233520 0.000000 
#    z 0.000000 0.000000 3.866320 
# 
# 
# High freq. dielectric constant tensor:
#      x y z
#    x 1.873090 0.000000 0.000000 
#    y 0.000000 1.876510 0.000000 
#    z 0.000000 0.000000 1.857310 
# 
# From -- ./inp_files/4808.got.cif
#   From: 2010.03.12/outbox.cif.g09.slc.cpg/sg37_3_cif.got.tgz:4808.got - 2010.04.14 02:25:27.
