data_PCOD8176834
_publ_section_title
;
Structure prediction by ZEFSAII (Michael W. Deem and Ramdas Pophale) SiO2 
 PCOD8176834
Probable space group: C C C 2
;
_chemical_formula_sum "Si O2"
_cell_formula_units_Z 60
_cell_length_a 17.718655
_cell_length_b 17.708401
_cell_length_c 9.252768
_cell_angle_alpha 90.000000
_cell_angle_beta 90.000000
_cell_angle_gamma 90.000000
_cell_volume 2903.232206
_symmetry_space_group_name_H-M "C C C 2"
_symmetry_group_IT_number 37
_symmetry_cell_setting 'orthorhombic'
loop_
_space_group_symop_operation_xyz
x,y,z
-x,-y,z
-x,y,1/2+z
x,-y,1/2+z
1/2+x,1/2+y,z
1/2-x,1/2-y,z
1/2-x,1/2+y,1/2+z
1/2+x,1/2-y,1/2+z
loop_
_atom_site_type_symbol
_atom_site_label
_atom_site_fract_x
_atom_site_fract_y
_atom_site_fract_z
Si Si1 0.570692 0.074001 0.026270
Si Si2 0.250000 0.750000 0.004204
Si Si3 0.085985 0.432403 0.188023
Si Si4 0.572712 0.542116 0.880255
Si Si5 0.513488 0.686298 0.291647
Si Si6 0.864948 0.081028 0.668920
Si Si7 0.090287 0.258883 0.571980
Si Si8 0.777217 0.329796 0.727064
O O1 0.486893 0.083626 0.090746
O O2 0.617809 0.010607 0.116979
O O3 0.566927 0.053399 0.856198
O O4 0.609432 0.154066 0.048388
O O5 0.175468 0.776098 0.095466
O O6 0.220361 0.682298 0.899967
O O7 0.142108 0.360317 0.170305
O O8 0.500000 0.500000 0.948533
O O9 0.547178 0.621020 0.814735
O O10 0.611170 0.491133 0.760334
O O11 0.633157 0.556686 0.003383
O O12 0.581853 0.653666 0.196039
O O13 0.549462 0.720825 0.435014
O O14 0.465549 0.749691 0.207713
O O15 0.779647 0.102184 0.699093
O O16 0.750000 0.250000 0.651799
#
# Coordination Sequence:
#
# PCOD8176834 Si02
#       8
#     8   4   8   8   8   8   8   8
#     4  11  23  40  67  94 125 167 224 280 332 395
#     4  10  22  42  64  94 132 174 218 272 344 396
#     4  11  23  43  64  97 126 168 222 279 337 402
#     4  10  22  38  61  99 134 168 219 263 326 395
#     4  11  22  38  68  97 131 178 221 273 319 403
#     4  11  22  39  63  98 131 176 215 267 331 404
#     4  12  23  41  70  96 132 174 230 275 338 399
#     4  10  22  41  65  93 129 177 221 267 344 408
#
# _framework density 20.666620999999999
#
# number of rings (size 3 to 8) (size 9 to 14) (size 15 to 20)
#    0.400    0.800    4.000    3.600    3.733    1.067 
#    2.400    0.000    4.400    0.800    0.000    0.000 
#    0.000    0.000    0.000    0.000    0.000    0.000 
#
# Total GULP energy -371744.615605 kJ/mol
# GULP energy per Si atom -12391.487187 kJ/mol
# Density = 2.061958 g / cm^3
# Si number density = 20.666621 Si / 1000 Ang^3
#
#
#
# Elastic Constant Matrix: (Units=GPa)
#
#
# Indices 1 2 3 4 5 6 
#
# 1 108.2847 29.1274 38.3124 0.0000 0.0000 0.0000
# 2 29.1274 103.4632 16.5862 0.0000 0.0000 0.0000
# 3 38.3124 16.5862 78.1307 0.0000 0.0000 0.0000
# 4 0.0000 0.0000 0.0000 30.3586 0.0000 0.0000
# 5 0.0000 0.0000 0.0000 0.0000 21.4066 0.0000
# 6 0.0000 0.0000 0.0000 0.0000 0.0000 34.4874
#
#
#
# Elastic Compliance Matrix: (Units=1/GPa)
#
#
# Indices 1 2 3 4 5 6 
#
# 1 0.011753 -0.002469 -0.005239 0.000000 0.000000 0.000000
# 2 -0.002469 0.010524 -0.001024 0.000000 0.000000 0.000000
# 3 -0.005239 -0.001024 0.015585 0.000000 0.000000 0.000000
# 4 0.000000 0.000000 0.000000 0.032940 0.000000 0.000000
# 5 0.000000 0.000000 0.000000 0.000000 0.046715 0.000000
# 6 0.000000 0.000000 0.000000 0.000000 0.000000 0.028996
#
#
# Mechanical properties :
#
#
# Convention : Reuss Voigt Hill
#
# Bulk Modulus (GPa) = 49.02040 50.88120 49.95080
# Shear Modulus (GPa) = 29.27825 30.97401 30.12613
#
# Velocity S-wave (km/s) = 3.76798 3.87556 3.82215
# Velocity P-wave (km/s) = 6.53463 6.68581 6.61065
#
# Compressibility (1/GPa) = 0.02039967
#
# Stress axis : x y z
#
# Youngs Moduli (GPa) = 85.08762 95.01742 64.16280
#
# Poissons Ratio (x) = 0.23458 0.33615
# Poissons Ratio (y) = 0.21006 0.06568
# Poissons Ratio (z) = 0.44577 0.09726
#
# Static dielectric constant tensor:
#      x y z
#    x 3.671670 0.000000 0.000000 
#    y 0.000000 4.088130 0.000000 
#    z 0.000000 0.000000 3.605660 
# 
# 
# High freq. dielectric constant tensor:
#      x y z
#    x 1.804020 0.000000 0.000000 
#    y 0.000000 1.816520 0.000000 
#    z 0.000000 0.000000 1.791780 
# 
# From -- ./inp_files/4103.got.cif
#   From: 2010.03.12/outbox.cif.g09.slc.cpg/sg37_3_cif.got.tgz:4103.got - 2010.04.14 02:25:27.
