data_PCOD8176847
_publ_section_title
;
Structure prediction by ZEFSAII (Michael W. Deem and Ramdas Pophale) SiO2 
 PCOD8176847
Probable space group: C C C 2
;
_chemical_formula_sum "Si O2"
_cell_formula_units_Z 64
_cell_length_a 6.336185
_cell_length_b 18.604448
_cell_length_c 26.478916
_cell_angle_alpha 90.000000
_cell_angle_beta 90.000000
_cell_angle_gamma 90.000000
_cell_volume 3121.367038
_symmetry_space_group_name_H-M "C C C 2"
_symmetry_group_IT_number 37
_symmetry_cell_setting 'orthorhombic'
loop_
_space_group_symop_operation_xyz
x,y,z
-x,-y,z
-x,y,1/2+z
x,-y,1/2+z
1/2+x,1/2+y,z
1/2-x,1/2-y,z
1/2-x,1/2+y,1/2+z
1/2+x,1/2-y,1/2+z
loop_
_atom_site_type_symbol
_atom_site_label
_atom_site_fract_x
_atom_site_fract_y
_atom_site_fract_z
Si Si1 0.551019 0.919437 0.497330
Si Si2 0.448981 0.919437 0.287240
Si Si3 0.142138 0.176635 0.846966
Si Si4 0.162210 0.175628 0.028928
Si Si5 0.357862 0.323365 0.437604
Si Si6 0.379898 0.572459 0.084383
Si Si7 0.662210 0.324372 0.755642
Si Si8 0.120102 0.072459 0.700187
O O1 0.337974 0.875403 0.504905
O O2 0.687635 0.883748 0.452688
O O3 0.672564 0.919956 0.550607
O O4 0.500000 0.000000 0.479674
O O5 0.312365 0.883748 0.331881
O O6 0.662026 0.875403 0.279665
O O7 0.327436 0.919956 0.233963
O O8 0.500000 0.000000 0.304896
O O9 0.250000 0.250000 0.866185
O O10 1.000000 0.145045 0.892285
O O11 0.001562 0.196687 0.799034
O O12 0.250000 0.250000 0.051297
O O13 0.042211 0.137294 0.074878
O O14 0.998438 0.196687 0.985535
O O15 0.250000 0.250000 0.418385
O O16 0.500000 0.500000 0.069299
O O17 0.306114 0.572711 0.142285
O O18 0.750000 0.250000 0.733273
O O19 0.542211 0.362706 0.709692
O O20 0.000000 0.000000 0.715271
#
# Coordination Sequence:
#
# PCOD8176847 Si02
#       8
#     8   8   8   8   8   8   8   8
#     4  11  23  42  66  93 131 168 206 264 320 370
#     4  11  23  42  66  93 131 168 206 264 320 370
#     4  11  24  41  69  93 121 165 215 258 311 389
#     4  11  22  41  64  93 127 168 208 262 320 373
#     4  11  24  41  69  93 121 165 215 258 311 389
#     4  10  22  39  64  96 127 169 218 259 310 381
#     4  11  22  41  64  93 127 168 208 262 320 373
#     4  10  22  39  64  96 127 169 218 259 310 381
#
# _framework density 20.503836
#
# number of rings (size 3 to 8) (size 9 to 14) (size 15 to 20)
#    0.000    1.250    5.000    0.750    0.000    2.000 
#    0.000    5.000    0.000    0.000    0.000    0.000 
#    0.000    0.000    0.000    0.000    0.000    0.000 
#
# Total GULP energy -396979.848516 kJ/mol
# GULP energy per Si atom -12405.620266 kJ/mol
# Density = 2.045717 g / cm^3
# Si number density = 20.503836 Si / 1000 Ang^3
#
#
#
# Elastic Constant Matrix: (Units=GPa)
#
#
# Indices 1 2 3 4 5 6 
#
# 1 87.1880 38.9615 18.4287 0.0000 0.0000 0.0000
# 2 38.9615 146.9436 20.5236 0.0000 0.0000 0.0000
# 3 18.4287 20.5236 71.0164 0.0000 0.0000 0.0000
# 4 0.0000 0.0000 0.0000 -6.8253 0.0000 0.0000
# 5 0.0000 0.0000 0.0000 0.0000 2.9600 0.0000
# 6 0.0000 0.0000 0.0000 0.0000 0.0000 39.5787
#
#
#
# Elastic Compliance Matrix: (Units=1/GPa)
#
#
# Indices 1 2 3 4 5 6 
#
# 1 0.013444 -0.003207 -0.002562 0.000000 0.000000 0.000000
# 2 -0.003207 0.007856 -0.001438 0.000000 0.000000 0.000000
# 3 -0.002562 -0.001438 0.015162 0.000000 0.000000 0.000000
# 4 0.000000 0.000000 0.000000 -0.146515 0.000000 0.000000
# 5 0.000000 0.000000 0.000000 0.000000 0.337841 0.000000
# 6 0.000000 0.000000 0.000000 0.000000 0.000000 0.025266
#
#
# Mechanical properties :
#
#
# Convention : Reuss Voigt Hill
#
# Bulk Modulus (GPa) = 45.35547 51.21950 48.28749
# Shear Modulus (GPa) = 18.19385 22.29163 20.24274
#
# Velocity S-wave (km/s) = 2.98206 3.30084 3.14549
# Velocity P-wave (km/s) = 5.83313 6.28984 6.06578
#
# Compressibility (1/GPa) = 0.02204806
#
# Stress axis : x y z
#
# Youngs Moduli (GPa) = 74.38270 127.28321 65.95542
#
# Poissons Ratio (x) = 0.40817 0.16897
# Poissons Ratio (y) = 0.23853 0.09487
# Poissons Ratio (z) = 0.19056 0.18308
#
# Static dielectric constant tensor:
#      x y z
#    x 3.941180 0.000000 0.000000 
#    y 0.000000 3.852650 0.000000 
#    z 0.000000 0.000000 3.439870 
# 
# 
# High freq. dielectric constant tensor:
#      x y z
#    x 1.818230 0.000000 0.000000 
#    y 0.000000 1.810790 0.000000 
#    z 0.000000 0.000000 1.785730 
# 
# From -- ./inp_files/19550.got.cif
#   From: 2010.03.12/outbox.cif.g09.slc.cpg/sg37_10_cif.got.tgz:19550.got - 2010.04.14 02:25:27.
