data_PCOD8176616
_publ_section_title
;
Structure prediction by ZEFSAII (Michael W. Deem and Ramdas Pophale) SiO2 
 PCOD8176616
Probable space group: C C C 2
;
_chemical_formula_sum "Si O2"
_cell_formula_units_Z 36
_cell_length_a 10.981067
_cell_length_b 10.815779
_cell_length_c 14.224806
_cell_angle_alpha 90.000000
_cell_angle_beta 90.000000
_cell_angle_gamma 90.000000
_cell_volume 1689.463051
_symmetry_space_group_name_H-M "C C C 2"
_symmetry_group_IT_number 37
_symmetry_cell_setting 'orthorhombic'
loop_
_space_group_symop_operation_xyz
x,y,z
-x,-y,z
-x,y,1/2+z
x,-y,1/2+z
1/2+x,1/2+y,z
1/2-x,1/2-y,z
1/2-x,1/2+y,1/2+z
1/2+x,1/2-y,1/2+z
loop_
_atom_site_type_symbol
_atom_site_label
_atom_site_fract_x
_atom_site_fract_y
_atom_site_fract_z
Si Si1 0.507676 0.140557 0.094630
Si Si2 0.939311 0.761500 0.911789
Si Si3 0.140750 0.671304 0.782105
Si Si4 0.757685 0.916826 0.826851
Si Si5 0.250000 0.750000 0.161444
O O1 0.450191 0.138911 0.198150
O O2 0.643704 0.194601 0.096718
O O3 0.500000 0.000000 0.055711
O O4 0.438121 0.230473 0.022322
O O5 0.876437 0.897035 0.895173
O O6 0.855437 0.664717 0.858337
O O7 0.072596 0.747558 0.864747
O O8 0.250000 0.750000 0.738347
O O9 0.207279 0.554153 0.828026
O O10 0.797489 0.866736 0.723679
#
# Coordination Sequence:
#
# PCOD8176616 Si02
#       5
#     8   8   8   8   4
#     4  12  22  41  70 100 129 173 234 280 333 417
#     4  10  23  41  67  93 127 172 227 273 336 401
#     4  12  24  39  65  96 135 178 220 271 347 406
#     4  10  20  45  66  86 132 178 213 280 334 397
#     4  10  20  38  70  88 126 170 222 268 336 386
#
# _framework density 21.308547000000001
#
# number of rings (size 3 to 8) (size 9 to 14) (size 15 to 20)
#    0.000    1.333    6.667    2.000    4.667    0.889 
#    0.000    0.000    4.889    0.000    0.000    0.000 
#    0.000    0.000    0.000    0.000    0.000    0.000 
#
# Total GULP energy -223077.563433 kJ/mol
# GULP energy per Si atom -12393.197969 kJ/mol
# Density = 2.126005 g / cm^3
# Si number density = 21.308547 Si / 1000 Ang^3
#
#
#
# Elastic Constant Matrix: (Units=GPa)
#
#
# Indices 1 2 3 4 5 6 
#
# 1 120.4974 69.2134 34.2606 0.0000 0.0000 0.0000
# 2 69.2134 46.8543 20.1787 0.0000 0.0000 0.0000
# 3 34.2606 20.1787 93.4057 0.0000 0.0000 0.0000
# 4 0.0000 0.0000 0.0000 21.3686 0.0000 0.0000
# 5 0.0000 0.0000 0.0000 0.0000 15.6789 0.0000
# 6 0.0000 0.0000 0.0000 0.0000 0.0000 43.6944
#
#
#
# Elastic Compliance Matrix: (Units=1/GPa)
#
#
# Indices 1 2 3 4 5 6 
#
# 1 0.055491 -0.080716 -0.002917 0.000000 0.000000 0.000000
# 2 -0.080716 0.140939 -0.000841 0.000000 0.000000 0.000000
# 3 -0.002917 -0.000841 0.011958 0.000000 0.000000 0.000000
# 4 0.000000 0.000000 0.000000 0.046798 0.000000 0.000000
# 5 0.000000 0.000000 0.000000 0.000000 0.063780 0.000000
# 6 0.000000 0.000000 0.000000 0.000000 0.000000 0.022886
#
#
# Mechanical properties :
#
#
# Convention : Reuss Voigt Hill
#
# Bulk Modulus (GPa) = 25.35489 56.45142 40.90316
# Shear Modulus (GPa) = 9.54299 25.28871 17.41585
#
# Velocity S-wave (km/s) = 2.11854 3.44872 2.86198
# Velocity P-wave (km/s) = 4.23191 6.51215 5.49168
#
# Compressibility (1/GPa) = 0.03944013
#
# Stress axis : x y z
#
# Youngs Moduli (GPa) = 18.02093 7.09528 83.62941
#
# Poissons Ratio (x) = 0.57270 0.24391
# Poissons Ratio (y) = 1.45457 0.07037
# Poissons Ratio (z) = 0.05256 0.00597
#
# Static dielectric constant tensor:
#      x y z
#    x 4.171050 0.000000 0.000000 
#    y 0.000000 4.305270 0.000000 
#    z 0.000000 0.000000 3.724750 
# 
# 
# High freq. dielectric constant tensor:
#      x y z
#    x 1.843260 0.000000 0.000000 
#    y 0.000000 1.818670 0.000000 
#    z 0.000000 0.000000 1.824090 
# 
# From -- ./inp_files/11266.got.cif
#   From: 2010.03.12/outbox.cif.g09.slc.cpg/sg37_6_cif.got.tgz:11266.got - 2010.04.14 02:25:27.
