data_PCOD8176160
_publ_section_title
;
Structure prediction by ZEFSAII (Michael W. Deem and Ramdas Pophale) SiO2 
 PCOD8176160
Probable space group: C M C 21
;
_chemical_formula_sum "Si O2"
_cell_formula_units_Z 64
_cell_length_a 30.517424
_cell_length_b 8.033624
_cell_length_c 12.095025
_cell_angle_alpha 90.000000
_cell_angle_beta 90.000000
_cell_angle_gamma 90.000000
_cell_volume 2965.282971
_symmetry_space_group_name_H-M "C M C 21"
_symmetry_group_IT_number 36
_symmetry_cell_setting 'orthorhombic'
loop_
_space_group_symop_operation_xyz
x,y,z
-x,-y,1/2+z
x,-y,1/2+z
-x,y,z
1/2+x,1/2+y,z
1/2-x,1/2-y,1/2+z
1/2+x,1/2-y,1/2+z
1/2-x,1/2+y,z
loop_
_atom_site_type_symbol
_atom_site_label
_atom_site_fract_x
_atom_site_fract_y
_atom_site_fract_z
Si Si1 0.051813 0.048450 0.996560
Si Si2 0.683900 0.434686 0.214367
Si Si3 0.235705 0.551060 0.861113
Si Si4 0.600323 0.720805 0.818229
Si Si5 0.403574 0.125846 0.540503
Si Si6 0.739249 0.692790 0.525357
Si Si7 0.448445 0.796026 0.608094
Si Si8 0.321071 0.812872 0.183472
O O1 0.076286 0.062491 0.877305
O O2 0.000000 0.048653 0.978440
O O3 0.065882 0.212171 0.068931
O O4 0.068006 0.878938 0.055246
O O5 0.723464 0.375085 0.292162
O O6 0.642027 0.328335 0.246521
O O7 0.671217 0.627185 0.228239
O O8 0.698237 0.393058 0.087513
O O9 0.250922 0.368015 0.898408
O O10 0.226832 0.620478 0.987096
O O11 0.192413 0.563750 0.784572
O O12 0.565929 0.806651 0.735619
O O13 0.614230 0.851567 0.914611
O O14 0.364360 0.113575 0.628283
O O15 0.429788 0.953600 0.542011
O O16 0.782568 0.697334 0.596054
O O17 0.500000 0.806868 0.601096
#
# Coordination Sequence:
#
# PCOD8176160 Si02
#       8
#     8   8   8   8   8   8   8   8
#     4   9  21  45  71 100 137 180 231 285 357 427
#     4  11  23  41  65  92 133 178 230 281 342 409
#     4  11  23  40  63  89 126 183 220 277 342 403
#     4  10  24  43  71  97 137 181 229 287 349 411
#     4  10  24  43  67 103 141 176 227 291 347 414
#     4  11  23  40  64  90 129 181 221 280 337 405
#     4  11  23  45  73 102 138 181 226 285 355 425
#     4  11  23  41  64  97 131 174 236 276 343 412
#
# _framework density 21.583100999999999
#
# number of rings (size 3 to 8) (size 9 to 14) (size 15 to 20)
#    0.750    0.750    2.500    2.250    0.000    3.000 
#    6.750    0.000    0.000    0.000    0.000    0.000 
#    0.000    0.000    0.000    0.000    0.000    0.000 
#
# Total GULP energy -396549.327546 kJ/mol
# GULP energy per Si atom -12392.166486 kJ/mol
# Density = 2.153398 g / cm^3
# Si number density = 21.583101 Si / 1000 Ang^3
#
#
#
# Elastic Constant Matrix: (Units=GPa)
#
#
# Indices 1 2 3 4 5 6 
#
# 1 93.9821 42.4652 43.9725 0.0000 0.0000 0.0000
# 2 42.4652 101.4017 42.1114 0.0000 0.0000 0.0000
# 3 43.9725 42.1114 112.8458 0.0000 0.0000 0.0000
# 4 0.0000 0.0000 0.0000 22.8656 0.0000 0.0000
# 5 0.0000 0.0000 0.0000 0.0000 38.2516 0.0000
# 6 0.0000 0.0000 0.0000 0.0000 0.0000 33.2217
#
#
#
# Elastic Compliance Matrix: (Units=1/GPa)
#
#
# Indices 1 2 3 4 5 6 
#
# 1 0.014509 -0.004412 -0.004007 0.000000 0.000000 0.000000
# 2 -0.004412 0.013012 -0.003137 0.000000 0.000000 0.000000
# 3 -0.004007 -0.003137 0.011594 0.000000 0.000000 0.000000
# 4 0.000000 0.000000 0.000000 0.043734 0.000000 0.000000
# 5 0.000000 0.000000 0.000000 0.000000 0.026143 0.000000
# 6 0.000000 0.000000 0.000000 0.000000 0.000000 0.030101
#
#
# Mechanical properties :
#
#
# Convention : Reuss Voigt Hill
#
# Bulk Modulus (GPa) = 62.48813 62.81420 62.65117
# Shear Modulus (GPa) = 29.84411 30.84647 30.34529
#
# Velocity S-wave (km/s) = 3.72257 3.78457 3.75370
# Velocity P-wave (km/s) = 6.89144 6.94722 6.91939
#
# Compressibility (1/GPa) = 0.01600304
#
# Stress axis : x y z
#
# Youngs Moduli (GPa) = 68.92433 76.85230 86.25422
#
# Poissons Ratio (x) = 0.33906 0.34564
# Poissons Ratio (y) = 0.30408 0.27055
# Poissons Ratio (z) = 0.27619 0.24106
#
# Static dielectric constant tensor:
#      x y z
#    x 3.683240 0.000000 0.000000 
#    y 0.000000 3.981960 0.000000 
#    z 0.000000 0.000000 3.923040 
# 
# 
# High freq. dielectric constant tensor:
#      x y z
#    x 1.838090 0.000000 0.000000 
#    y 0.000000 1.853150 0.000000 
#    z 0.000000 0.000000 1.850040 
# 
# From -- ./inp_files/9759.got.cif
#   From: 2010.03.12/outbox.cif.g09.slc.cpg/sg36_5_cif.got.tgz:9759.got - 2010.04.14 02:13:53.
