data_PCOD8176707
_publ_section_title
;
Structure prediction by ZEFSAII (Michael W. Deem and Ramdas Pophale) SiO2 
 PCOD8176707
Probable space group: C C C 2
;
_chemical_formula_sum "Si O2"
_cell_formula_units_Z 64
_cell_length_a 16.770946
_cell_length_b 9.585493
_cell_length_c 18.857196
_cell_angle_alpha 90.000000
_cell_angle_beta 90.000000
_cell_angle_gamma 90.000000
_cell_volume 3031.441069
_symmetry_space_group_name_H-M "C C C 2"
_symmetry_group_IT_number 37
_symmetry_cell_setting 'orthorhombic'
loop_
_space_group_symop_operation_xyz
x,y,z
-x,-y,z
-x,y,1/2+z
x,-y,1/2+z
1/2+x,1/2+y,z
1/2-x,1/2-y,z
1/2-x,1/2+y,1/2+z
1/2+x,1/2-y,1/2+z
loop_
_atom_site_type_symbol
_atom_site_label
_atom_site_fract_x
_atom_site_fract_y
_atom_site_fract_z
Si Si1 0.630063 0.161417 0.662460
Si Si2 0.072851 0.731028 0.515255
Si Si3 0.579763 0.076522 0.807361
Si Si4 0.706437 0.538873 0.175569
Si Si5 0.140404 0.982803 0.036857
Si Si6 0.738768 0.911763 0.811847
Si Si7 0.792719 0.548072 0.965580
Si Si8 0.097066 0.292125 0.452255
O O1 0.576868 0.156926 0.591862
O O2 0.571206 0.143061 0.729588
O O3 0.671417 0.308492 0.672502
O O4 0.698733 0.043027 0.657191
O O5 0.148536 0.681824 0.467991
O O6 0.992283 0.680898 0.478637
O O7 0.072407 0.899853 0.523870
O O8 0.599019 0.197112 0.866160
O O9 0.500000 0.000000 0.831696
O O10 0.647595 0.959224 0.802145
O O11 0.652820 0.443523 0.120678
O O12 0.700303 0.484050 0.256451
O O13 0.127775 0.854323 0.983898
O O14 0.225267 0.059400 0.024749
O O15 0.750000 0.750000 0.798357
O O16 0.758054 0.955103 0.892491
O O17 0.844489 0.410495 0.981218
#
# Coordination Sequence:
#
# PCOD8176707 Si02
#       8
#     8   8   8   8   8   8   8   8
#     4   9  19  38  64  88 116 167 207 251 311 376
#     4  11  21  41  65  88 124 166 210 255 313 378
#     4  10  22  41  62  89 127 164 209 254 311 387
#     4   9  19  38  61  89 123 156 207 262 307 364
#     4  11  22  39  63  91 123 160 209 259 310 369
#     4  10  21  37  61  89 122 158 201 258 311 359
#     4  11  22  38  62  92 118 163 211 253 302 380
#     4  11  24  38  61  91 128 159 205 264 315 363
#
# _framework density 21.112072000000001
#
# number of rings (size 3 to 8) (size 9 to 14) (size 15 to 20)
#    0.000    1.750    1.250    3.750    1.750    2.000 
#    2.250    0.000    0.000    0.000    0.000    0.000 
#    0.000    0.000    0.000    0.000    0.000    0.000 
#
# Total GULP energy -396550.927195 kJ/mol
# GULP energy per Si atom -12392.216475 kJ/mol
# Density = 2.106402 g / cm^3
# Si number density = 21.112072 Si / 1000 Ang^3
#
#
#
# Elastic Constant Matrix: (Units=GPa)
#
#
# Indices 1 2 3 4 5 6 
#
# 1 44.0048 2.6708 28.9981 0.0000 0.0000 0.0000
# 2 2.6708 73.6623 41.6295 0.0000 0.0000 0.0000
# 3 28.9981 41.6295 146.2977 0.0000 0.0000 0.0000
# 4 0.0000 0.0000 0.0000 27.1007 0.0000 0.0000
# 5 0.0000 0.0000 0.0000 0.0000 28.0667 0.0000
# 6 0.0000 0.0000 0.0000 0.0000 0.0000 25.5590
#
#
#
# Elastic Compliance Matrix: (Units=1/GPa)
#
#
# Indices 1 2 3 4 5 6 
#
# 1 0.026488 0.002391 -0.005931 0.000000 0.000000 0.000000
# 2 0.002391 0.016393 -0.005139 0.000000 0.000000 0.000000
# 3 -0.005931 -0.005139 0.009473 0.000000 0.000000 0.000000
# 4 0.000000 0.000000 0.000000 0.036899 0.000000 0.000000
# 5 0.000000 0.000000 0.000000 0.000000 0.035629 0.000000
# 6 0.000000 0.000000 0.000000 0.000000 0.000000 0.039125
#
#
# Mechanical properties :
#
#
# Convention : Reuss Voigt Hill
#
# Bulk Modulus (GPa) = 28.57330 45.61798 37.09564
# Shear Modulus (GPa) = 25.90275 28.85636 27.37956
#
# Velocity S-wave (km/s) = 3.50654 3.70106 3.60511
# Velocity P-wave (km/s) = 5.47338 6.31809 5.91084
#
# Compressibility (1/GPa) = 0.03499770
#
# Stress axis : x y z
#
# Youngs Moduli (GPa) = 37.75321 61.00239 105.56172
#
# Poissons Ratio (x) = -0.14587 0.62605
# Poissons Ratio (y) = -0.09028 0.54244
# Poissons Ratio (z) = 0.22390 0.31347
#
# Static dielectric constant tensor:
#      x y z
#    x 3.663030 0.000000 0.000000 
#    y 0.000000 3.622470 0.000000 
#    z 0.000000 0.000000 4.268360 
# 
# 
# High freq. dielectric constant tensor:
#      x y z
#    x 1.812670 0.000000 0.000000 
#    y 0.000000 1.811680 0.000000 
#    z 0.000000 0.000000 1.845000 
# 
# From -- ./inp_files/17356.got.cif
#   From: 2010.03.12/outbox.cif.g09.slc.cpg/sg37_9_cif.got.tgz:17356.got - 2010.04.14 02:25:27.
