data_PCOD8176242
_publ_section_title
;
Structure prediction by ZEFSAII (Michael W. Deem and Ramdas Pophale) SiO2 
 PCOD8176242
Probable space group: C M C 21
;
_chemical_formula_sum "Si O2"
_cell_formula_units_Z 64
_cell_length_a 14.350887
_cell_length_b 16.329290
_cell_length_c 12.594768
_cell_angle_alpha 90.000000
_cell_angle_beta 90.000000
_cell_angle_gamma 90.000000
_cell_volume 2951.455359
_symmetry_space_group_name_H-M "C M C 21"
_symmetry_group_IT_number 36
_symmetry_cell_setting 'orthorhombic'
loop_
_space_group_symop_operation_xyz
x,y,z
-x,-y,1/2+z
x,-y,1/2+z
-x,y,z
1/2+x,1/2+y,z
1/2-x,1/2-y,1/2+z
1/2+x,1/2-y,1/2+z
1/2-x,1/2+y,z
loop_
_atom_site_type_symbol
_atom_site_label
_atom_site_fract_x
_atom_site_fract_y
_atom_site_fract_z
Si Si1 0.814417 0.886649 0.457130
Si Si2 0.163952 0.676379 0.810930
Si Si3 0.893168 0.511104 0.322119
Si Si4 0.600884 0.329368 0.925273
Si Si5 0.204357 0.613721 0.497668
Si Si6 0.728557 0.978086 0.640892
Si Si7 0.105889 0.748711 0.594778
Si Si8 0.603115 0.486324 0.796729
O O1 0.766759 0.831799 0.364616
O O2 0.735776 0.924051 0.535119
O O3 0.877974 0.836948 0.541251
O O4 0.871510 0.959319 0.400725
O O5 0.116672 0.586864 0.811677
O O6 0.104439 0.736062 0.885730
O O7 0.170068 0.722509 0.695930
O O8 0.822310 0.547814 0.408106
O O9 0.855103 0.555019 0.214959
O O10 0.000000 0.535384 0.343706
O O11 0.500000 0.339948 0.984932
O O12 0.690588 0.351314 0.994798
O O13 0.602450 0.390560 0.825274
O O14 0.196457 0.569241 0.610386
O O15 0.129760 0.686794 0.498271
O O16 0.825511 0.994006 0.700824
O O17 0.000000 0.740601 0.632351
O O18 0.500000 0.513468 0.758264
#
# Coordination Sequence:
#
# PCOD8176242 Si02
#       8
#     8   8   8   8   8   8   8   8
#     4  12  24  44  71  99 139 182 225 284 345 404
#     4  12  23  44  66  99 134 176 225 284 331 399
#     4  12  25  43  67  96 133 175 225 277 337 406
#     4  11  22  40  65  92 128 170 215 270 331 391
#     4  12  23  43  65  93 134 172 219 279 339 399
#     4  12  22  42  66  98 127 178 219 271 342 403
#     4  12  26  42  69 101 134 181 231 275 340 413
#     4  11  23  42  67  98 135 172 223 282 335 403
#
# _framework density 21.684217
#
# number of rings (size 3 to 8) (size 9 to 14) (size 15 to 20)
#    0.000    0.250    7.500    2.625    0.000    3.000 
#    0.000    0.000    0.000    0.000    0.000    0.000 
#    0.000    0.000    0.000    0.000    0.000    0.000 
#
# Total GULP energy -396465.862832 kJ/mol
# GULP energy per Si atom -12389.558214 kJ/mol
# Density = 2.163486 g / cm^3
# Si number density = 21.684217 Si / 1000 Ang^3
#
#
#
# Elastic Constant Matrix: (Units=GPa)
#
#
# Indices 1 2 3 4 5 6 
#
# 1 116.4500 23.7324 32.2203 0.0000 0.0000 0.0000
# 2 23.7324 86.1583 22.6098 0.0000 0.0000 0.0000
# 3 32.2203 22.6098 80.7352 0.0000 0.0000 0.0000
# 4 0.0000 0.0000 0.0000 25.3711 0.0000 0.0000
# 5 0.0000 0.0000 0.0000 0.0000 24.3168 0.0000
# 6 0.0000 0.0000 0.0000 0.0000 0.0000 28.3725
#
#
#
# Elastic Compliance Matrix: (Units=1/GPa)
#
#
# Indices 1 2 3 4 5 6 
#
# 1 0.009913 -0.001827 -0.003444 0.000000 0.000000 0.000000
# 2 -0.001827 0.012864 -0.002874 0.000000 0.000000 0.000000
# 3 -0.003444 -0.002874 0.014566 0.000000 0.000000 0.000000
# 4 0.000000 0.000000 0.000000 0.039415 0.000000 0.000000
# 5 0.000000 0.000000 0.000000 0.000000 0.041124 0.000000
# 6 0.000000 0.000000 0.000000 0.000000 0.000000 0.035245
#
#
# Mechanical properties :
#
#
# Convention : Reuss Voigt Hill
#
# Bulk Modulus (GPa) = 47.49954 48.94094 48.22024
# Shear Modulus (GPa) = 28.33940 29.26415 28.80177
#
# Velocity S-wave (km/s) = 3.61905 3.67762 3.64845
# Velocity P-wave (km/s) = 6.27822 6.37590 6.32724
#
# Compressibility (1/GPa) = 0.02105284
#
# Stress axis : x y z
#
# Youngs Moduli (GPa) = 100.88103 77.73780 68.65516
#
# Poissons Ratio (x) = 0.14199 0.23648
# Poissons Ratio (y) = 0.18426 0.19728
# Poissons Ratio (z) = 0.34748 0.22338
#
# Static dielectric constant tensor:
#      x y z
#    x 3.889040 0.000000 0.000000 
#    y 0.000000 4.097250 0.000000 
#    z 0.000000 0.000000 3.791820 
# 
# 
# High freq. dielectric constant tensor:
#      x y z
#    x 1.845810 0.000000 0.000000 
#    y 0.000000 1.860240 0.000000 
#    z 0.000000 0.000000 1.845310 
# 
# From -- ./inp_files/8642.got.cif
#   From: 2010.03.12/outbox.cif.g09.slc.cpg/sg36_5_cif.got.tgz:8642.got - 2010.04.14 02:13:53.
