data_PCOD8176628
_publ_section_title
;
Structure prediction by ZEFSAII (Michael W. Deem and Ramdas Pophale) SiO2 
 PCOD8176628
Probable space group: C C C 2
;
_chemical_formula_sum "Si O2"
_cell_formula_units_Z 64
_cell_length_a 13.193490
_cell_length_b 16.426161
_cell_length_c 14.614987
_cell_angle_alpha 90.000000
_cell_angle_beta 90.000000
_cell_angle_gamma 90.000000
_cell_volume 3167.336466
_symmetry_space_group_name_H-M "C C C 2"
_symmetry_group_IT_number 37
_symmetry_cell_setting 'orthorhombic'
loop_
_space_group_symop_operation_xyz
x,y,z
-x,-y,z
-x,y,1/2+z
x,-y,1/2+z
1/2+x,1/2+y,z
1/2-x,1/2-y,z
1/2-x,1/2+y,1/2+z
1/2+x,1/2-y,1/2+z
loop_
_atom_site_type_symbol
_atom_site_label
_atom_site_fract_x
_atom_site_fract_y
_atom_site_fract_z
Si Si1 0.423998 0.065113 0.975960
Si Si2 0.914324 0.684215 0.426608
Si Si3 0.815938 0.322957 0.620960
Si Si4 0.740423 0.047221 0.910595
Si Si5 0.466117 0.727073 0.746105
Si Si6 0.895337 0.958483 0.568749
Si Si7 0.157201 0.073882 0.227588
Si Si8 0.132121 0.228101 0.610623
O O1 0.492317 0.123044 0.913553
O O2 0.500000 0.000000 0.026207
O O3 0.350643 0.017566 0.906267
O O4 0.358723 0.116166 0.046550
O O5 0.805766 0.639242 0.412869
O O6 0.937275 0.753072 0.351070
O O7 0.916467 0.717932 0.529817
O O8 0.750000 0.250000 0.574504
O O9 0.904536 0.284467 0.678994
O O10 0.750044 0.373598 0.691672
O O11 0.813731 0.036877 0.825024
O O12 0.805474 0.023149 0.998684
O O13 0.441298 0.631624 0.733707
O O14 0.581335 0.742963 0.710921
O O15 0.898230 0.862129 0.579927
O O16 0.867271 0.997382 0.665343
O O17 0.000000 0.000000 0.533069
O O18 0.250000 0.250000 0.620596
#
# Coordination Sequence:
#
# PCOD8176628 Si02
#       8
#     8   8   8   8   8   8   8   8
#     4  10  22  41  62 100 133 166 215 279 343 393
#     4  11  23  43  70 100 130 172 231 279 334 410
#     4  10  20  39  68  91 120 168 219 271 323 392
#     4  11  23  43  70  98 131 176 223 275 339 410
#     4  11  23  42  69  96 130 175 229 277 332 398
#     4  12  25  43  64  96 137 174 220 276 337 405
#     4  11  23  42  67  95 130 173 223 269 330 408
#     4  12  25  43  70  98 136 179 231 285 337 404
#
# _framework density 20.206253
#
# number of rings (size 3 to 8) (size 9 to 14) (size 15 to 20)
#    0.000    1.000    6.250    0.750    0.000    1.500 
#    4.500    0.625    0.000    0.000    0.000    0.000 
#    0.000    0.000    0.000    0.000    0.000    0.000 
#
# Total GULP energy -396680.158275 kJ/mol
# GULP energy per Si atom -12396.254946 kJ/mol
# Density = 2.016026 g / cm^3
# Si number density = 20.206253 Si / 1000 Ang^3
#
#
#
# Elastic Constant Matrix: (Units=GPa)
#
#
# Indices 1 2 3 4 5 6 
#
# 1 109.1114 27.7433 32.4403 0.0000 0.0000 0.0000
# 2 27.7433 77.2616 14.6627 0.0000 0.0000 0.0000
# 3 32.4403 14.6627 94.2648 0.0000 0.0000 0.0000
# 4 0.0000 0.0000 0.0000 40.1151 0.0000 0.0000
# 5 0.0000 0.0000 0.0000 0.0000 14.0846 0.0000
# 6 0.0000 0.0000 0.0000 0.0000 0.0000 33.5676
#
#
#
# Elastic Compliance Matrix: (Units=1/GPa)
#
#
# Indices 1 2 3 4 5 6 
#
# 1 0.010980 -0.003324 -0.003262 0.000000 0.000000 0.000000
# 2 -0.003324 0.014343 -0.001087 0.000000 0.000000 0.000000
# 3 -0.003262 -0.001087 0.011900 0.000000 0.000000 0.000000
# 4 0.000000 0.000000 0.000000 0.024928 0.000000 0.000000
# 5 0.000000 0.000000 0.000000 0.000000 0.070999 0.000000
# 6 0.000000 0.000000 0.000000 0.000000 0.000000 0.029791
#
#
# Mechanical properties :
#
#
# Convention : Reuss Voigt Hill
#
# Bulk Modulus (GPa) = 45.70867 47.81448 46.76157
# Shear Modulus (GPa) = 26.94280 31.27289 29.10785
#
# Velocity S-wave (km/s) = 3.65552 3.93833 3.79956
# Velocity P-wave (km/s) = 6.36296 6.66297 6.51469
#
# Compressibility (1/GPa) = 0.02187769
#
# Stress axis : x y z
#
# Youngs Moduli (GPa) = 91.07674 69.72119 84.03378
#
# Poissons Ratio (x) = 0.23173 0.27408
# Poissons Ratio (y) = 0.30271 0.09136
# Poissons Ratio (z) = 0.29706 0.07580
#
# Static dielectric constant tensor:
#      x y z
#    x 3.910430 0.000000 0.000000 
#    y 0.000000 3.456820 0.000000 
#    z 0.000000 0.000000 3.479110 
# 
# 
# High freq. dielectric constant tensor:
#      x y z
#    x 1.801490 0.000000 0.000000 
#    y 0.000000 1.800200 0.000000 
#    z 0.000000 0.000000 1.771220 
# 
# From -- ./inp_files/11794.got.cif
#   From: 2010.03.12/outbox.cif.g09.slc.cpg/sg37_6_cif.got.tgz:11794.got - 2010.04.14 02:25:27.
