data_PCOD8176887
_publ_section_title
;
Structure prediction by ZEFSAII (Michael W. Deem and Ramdas Pophale) SiO2 
 PCOD8176887
Probable space group: C C C 2
;
_chemical_formula_sum "Si O2"
_cell_formula_units_Z 60
_cell_length_a 19.767406
_cell_length_b 26.344369
_cell_length_c 5.231409
_cell_angle_alpha 90.000000
_cell_angle_beta 90.000000
_cell_angle_gamma 90.000000
_cell_volume 2724.307702
_symmetry_space_group_name_H-M "C C C 2"
_symmetry_group_IT_number 37
_symmetry_cell_setting 'orthorhombic'
loop_
_space_group_symop_operation_xyz
x,y,z
-x,-y,z
-x,y,1/2+z
x,-y,1/2+z
1/2+x,1/2+y,z
1/2-x,1/2-y,z
1/2-x,1/2+y,1/2+z
1/2+x,1/2-y,1/2+z
loop_
_atom_site_type_symbol
_atom_site_label
_atom_site_fract_x
_atom_site_fract_y
_atom_site_fract_z
Si Si1 0.378556 0.195385 0.088230
Si Si2 0.040005 0.210250 0.996031
Si Si3 0.423910 0.977883 0.068253
Si Si4 0.750000 0.750000 0.285151
Si Si5 0.371699 0.868250 0.080144
Si Si6 0.358948 0.624980 0.484809
Si Si7 0.721162 0.641925 0.474895
Si Si8 0.423704 0.521583 0.517007
O O1 0.441380 0.230980 0.020033
O O2 0.308740 0.227191 0.104423
O O3 0.396742 0.170649 0.362001
O O4 0.373484 0.154542 0.863898
O O5 0.107105 0.178378 0.046085
O O6 0.985886 0.196488 0.213937
O O7 0.420778 0.916950 0.072111
O O8 0.500000 0.000000 0.064881
O O9 0.386157 0.000558 0.316997
O O10 0.723612 0.703759 0.463783
O O11 0.294509 0.882744 0.018168
O O12 0.326422 0.624721 0.205447
O O13 0.417738 0.582227 0.496244
O O14 0.303694 0.617757 0.707296
O O15 0.500000 0.500000 0.534462
O O16 0.385977 0.503302 0.774203
#
# Coordination Sequence:
#
# PCOD8176887 Si02
#       8
#     8   8   8   4   8   8   8   8
#     4  11  24  43  66 103 143 182 222 277 338 411
#     4  12  27  43  62  97 143 187 221 277 339 411
#     4  10  22  45  70  98 126 173 231 279 341 406
#     4  10  22  42  72 100 138 192 224 268 328 428
#     4  11  24  43  71 103 135 178 231 283 342 407
#     4  12  25  43  69  98 139 181 231 280 345 404
#     4  11  24  40  70 103 140 175 230 278 338 407
#     4  10  23  42  66  90 121 171 235 282 334 396
#
# _framework density 22.023944
#
# number of rings (size 3 to 8) (size 9 to 14) (size 15 to 20)
#    0.000    1.067    1.333    4.800    7.467    1.067 
#   14.400    4.000    0.000    0.000    0.000    0.000 
#    0.000    0.000    0.000    0.000    0.000    0.000 
#
# Total GULP energy -371937.293443 kJ/mol
# GULP energy per Si atom -12397.909781 kJ/mol
# Density = 2.197382 g / cm^3
# Si number density = 22.023944 Si / 1000 Ang^3
#
#
#
# Elastic Constant Matrix: (Units=GPa)
#
#
# Indices 1 2 3 4 5 6 
#
# 1 66.1415 34.6271 17.1403 0.0000 0.0000 0.0000
# 2 34.6271 111.7215 31.4345 0.0000 0.0000 0.0000
# 3 17.1403 31.4345 155.1334 0.0000 0.0000 0.0000
# 4 0.0000 0.0000 0.0000 37.9138 0.0000 0.0000
# 5 0.0000 0.0000 0.0000 0.0000 14.6837 0.0000
# 6 0.0000 0.0000 0.0000 0.0000 0.0000 46.0966
#
#
#
# Elastic Compliance Matrix: (Units=1/GPa)
#
#
# Indices 1 2 3 4 5 6 
#
# 1 0.018170 -0.005373 -0.000919 0.000000 0.000000 0.000000
# 2 -0.005373 0.011081 -0.001652 0.000000 0.000000 0.000000
# 3 -0.000919 -0.001652 0.006882 0.000000 0.000000 0.000000
# 4 0.000000 0.000000 0.000000 0.026376 0.000000 0.000000
# 5 0.000000 0.000000 0.000000 0.000000 0.068103 0.000000
# 6 0.000000 0.000000 0.000000 0.000000 0.000000 0.021694
#
#
# Mechanical properties :
#
#
# Convention : Reuss Voigt Hill
#
# Bulk Modulus (GPa) = 49.39219 55.48890 52.44055
# Shear Modulus (GPa) = 28.58102 36.39179 32.48640
#
# Velocity S-wave (km/s) = 3.60630 4.06935 3.84480
# Velocity P-wave (km/s) = 6.30998 6.87961 6.60094
#
# Compressibility (1/GPa) = 0.02024612
#
# Stress axis : x y z
#
# Youngs Moduli (GPa) = 55.03506 90.24535 145.30129
#
# Poissons Ratio (x) = 0.48490 0.13351
# Poissons Ratio (y) = 0.29571 0.23999
# Poissons Ratio (z) = 0.05057 0.14905
#
# Static dielectric constant tensor:
#      x y z
#    x 3.719010 0.000000 0.000000 
#    y 0.000000 3.918660 0.000000 
#    z 0.000000 0.000000 5.539680 
# 
# 
# High freq. dielectric constant tensor:
#      x y z
#    x 1.841390 0.000000 0.000000 
#    y 0.000000 1.861020 0.000000 
#    z 0.000000 0.000000 1.896250 
# 
# From -- ./inp_files/1070.got.cif
#   From: 2010.03.12/outbox.cif.g09.slc.cpg/sg37_1_cif.got.tgz:1070.got - 2010.04.14 02:25:27.
