data_PCOD8176455
_publ_section_title
;
Structure prediction by ZEFSAII (Michael W. Deem and Ramdas Pophale) SiO2 
 PCOD8176455
Probable space group: C C C 2
;
_chemical_formula_sum "Si O2"
_cell_formula_units_Z 64
_cell_length_a 7.713727
_cell_length_b 17.006646
_cell_length_c 23.841454
_cell_angle_alpha 90.000000
_cell_angle_beta 90.000000
_cell_angle_gamma 90.000000
_cell_volume 3127.632189
_symmetry_space_group_name_H-M "C C C 2"
_symmetry_group_IT_number 37
_symmetry_cell_setting 'orthorhombic'
loop_
_space_group_symop_operation_xyz
x,y,z
-x,-y,z
-x,y,1/2+z
x,-y,1/2+z
1/2+x,1/2+y,z
1/2-x,1/2-y,z
1/2-x,1/2+y,1/2+z
1/2+x,1/2-y,1/2+z
loop_
_atom_site_type_symbol
_atom_site_label
_atom_site_fract_x
_atom_site_fract_y
_atom_site_fract_z
Si Si1 0.951801 0.913078 0.783290
Si Si2 0.739108 0.655743 0.962232
Si Si3 0.242583 0.157546 0.089180
Si Si4 0.577157 0.656455 0.392478
Si Si5 0.125389 0.327181 0.774133
Si Si6 0.950254 0.665700 0.390660
Si Si7 0.445565 0.413395 0.655925
Si Si8 0.540954 0.090397 0.166844
O O1 0.744831 0.903640 0.784754
O O2 0.010689 0.895836 0.719472
O O3 0.033053 0.850891 0.826382
O O4 0.000000 0.000000 0.803326
O O5 0.750000 0.750000 0.957177
O O6 0.568733 0.617737 0.932454
O O7 0.902555 0.622240 0.926884
O O8 0.746591 0.625325 0.025617
O O9 0.250000 0.250000 0.089114
O O10 0.404950 0.116663 0.119610
O O11 0.054657 0.142522 0.115785
O O12 0.769048 0.619052 0.400316
O O13 0.579207 0.746254 0.411882
O O14 0.250000 0.250000 0.767449
O O15 0.016140 0.347883 0.718166
O O16 0.993771 0.323872 0.825176
O O17 0.500000 0.500000 0.638528
O O18 0.240196 0.401322 0.645872
O O19 0.500000 0.000000 0.184164
#
# Coordination Sequence:
#
# PCOD8176455 Si02
#       8
#     8   8   8   8   8   8   8   8
#     4  10  21  36  58  86 126 161 193 245 313 368
#     4   9  19  40  58  84 123 153 202 256 308 353
#     4  11  25  40  66  94 122 163 211 267 308 371
#     4  10  19  34  60  89 116 160 200 243 307 370
#     4  11  21  38  63  94 131 160 203 267 305 370
#     4  10  19  33  63  91 117 155 200 250 305 363
#     4  10  22  42  63  88 126 168 202 253 316 378
#     4  11  25  42  63  91 128 172 209 251 324 385
#
# _framework density 20.462765999999998
#
# number of rings (size 3 to 8) (size 9 to 14) (size 15 to 20)
#    0.000    1.750    3.750    0.375    5.250    1.000 
#    0.000    3.125    2.750    0.000    0.000    0.000 
#    0.000    0.000    0.000    0.000    0.000    0.000 
#
# Total GULP energy -396529.114097 kJ/mol
# GULP energy per Si atom -12391.534816 kJ/mol
# Density = 2.041619 g / cm^3
# Si number density = 20.462766 Si / 1000 Ang^3
#
#
#
# Elastic Constant Matrix: (Units=GPa)
#
#
# Indices 1 2 3 4 5 6 
#
# 1 166.5710 25.2834 83.4207 0.0000 0.0000 0.0000
# 2 25.2834 46.2809 27.5624 0.0000 0.0000 0.0000
# 3 83.4207 27.5624 139.8505 0.0000 0.0000 0.0000
# 4 0.0000 0.0000 0.0000 44.1350 0.0000 0.0000
# 5 0.0000 0.0000 0.0000 0.0000 94.9363 0.0000
# 6 0.0000 0.0000 0.0000 0.0000 0.0000 21.6595
#
#
#
# Elastic Compliance Matrix: (Units=1/GPa)
#
#
# Indices 1 2 3 4 5 6 
#
# 1 0.008703 -0.001884 -0.004820 0.000000 0.000000 0.000000
# 2 -0.001884 0.024888 -0.003781 0.000000 0.000000 0.000000
# 3 -0.004820 -0.003781 0.010771 0.000000 0.000000 0.000000
# 4 0.000000 0.000000 0.000000 0.022658 0.000000 0.000000
# 5 0.000000 0.000000 0.000000 0.000000 0.010533 0.000000
# 6 0.000000 0.000000 0.000000 0.000000 0.000000 0.046169
#
#
# Mechanical properties :
#
#
# Convention : Reuss Voigt Hill
#
# Bulk Modulus (GPa) = 42.75038 69.47063 56.11050
# Shear Modulus (GPa) = 32.78867 46.57520 39.68193
#
# Velocity S-wave (km/s) = 4.00729 4.77602 4.40844
# Velocity P-wave (km/s) = 6.50756 8.02728 7.30704
#
# Compressibility (1/GPa) = 0.02339161
#
# Stress axis : x y z
#
# Youngs Moduli (GPa) = 114.89652 40.17944 92.84157
#
# Poissons Ratio (x) = 0.07570 0.44752
# Poissons Ratio (y) = 0.21647 0.35106
# Poissons Ratio (z) = 0.55384 0.15193
#
# Static dielectric constant tensor:
#      x y z
#    x 2.617830 0.000000 0.000000 
#    y 0.000000 3.432960 0.000000 
#    z 0.000000 0.000000 3.753880 
# 
# 
# High freq. dielectric constant tensor:
#      x y z
#    x 1.813450 0.000000 0.000000 
#    y 0.000000 1.769050 0.000000 
#    z 0.000000 0.000000 1.792200 
# 
# From -- ./inp_files/16519.got.cif
#   From: 2010.03.12/outbox.cif.g09.slc.cpg/sg37_9_cif.got.tgz:16519.got - 2010.04.14 02:25:27.
