data_PCOD8176736
_publ_section_title
;
Structure prediction by ZEFSAII (Michael W. Deem and Ramdas Pophale) SiO2 
 PCOD8176736
Probable space group: C C C 2
;
_chemical_formula_sum "Si O2"
_cell_formula_units_Z 48
_cell_length_a 15.529876
_cell_length_b 8.649585
_cell_length_c 18.508952
_cell_angle_alpha 90.000000
_cell_angle_beta 90.000000
_cell_angle_gamma 90.000000
_cell_volume 2486.251671
_symmetry_space_group_name_H-M "C C C 2"
_symmetry_group_IT_number 37
_symmetry_cell_setting 'orthorhombic'
loop_
_space_group_symop_operation_xyz
x,y,z
-x,-y,z
-x,y,1/2+z
x,-y,1/2+z
1/2+x,1/2+y,z
1/2-x,1/2-y,z
1/2-x,1/2+y,1/2+z
1/2+x,1/2-y,1/2+z
loop_
_atom_site_type_symbol
_atom_site_label
_atom_site_fract_x
_atom_site_fract_y
_atom_site_fract_z
Si Si1 0.748666 0.432259 0.199160
Si Si2 0.094784 0.072638 0.285705
Si Si3 0.167304 0.138296 0.436158
Si Si4 0.910034 0.557907 0.451466
Si Si5 0.257849 0.931354 0.541981
Si Si6 0.090159 0.567020 0.783147
O O1 0.750000 0.250000 0.205441
O O2 0.656897 0.493229 0.227446
O O3 0.761528 0.481226 0.117110
O O4 0.828288 0.497167 0.243597
O O5 0.137505 0.049775 0.364297
O O6 0.087715 0.252005 0.267539
O O7 0.000000 0.000000 0.282876
O O8 0.250000 0.250000 0.420909
O O9 0.094674 0.257003 0.464846
O O10 0.180039 0.005721 0.495770
O O11 0.842835 0.459641 0.496355
O O12 0.897900 0.522952 0.366784
O O13 0.000000 0.500000 0.481280
O O14 0.250000 0.750000 0.554836
O O15 0.000000 0.500000 0.753272
#
# Coordination Sequence:
#
# PCOD8176736 Si02
#       6
#     8   8   8   8   8   8
#     4  12  24  40  60  83 118 158 197 241 291 346
#     4  11  22  38  61  90 119 152 195 240 287 344
#     4   9  19  38  60  82 116 153 189 235 288 344
#     4   9  19  37  60  86 115 148 187 234 286 343
#     4  11  23  38  58  83 114 153 194 237 291 347
#     4  10  21  39  63  90 120 152 191 239 291 344
#
# _framework density 19.306169000000001
#
# number of rings (size 3 to 8) (size 9 to 14) (size 15 to 20)
#    0.000    1.667    0.000    7.000    0.000    7.333 
#    0.000    5.833    0.000    0.000    0.000    0.000 
#    0.000    0.000    0.000    0.000    0.000    0.000 
#
# Total GULP energy -297586.689443 kJ/mol
# GULP energy per Si atom -12399.445393 kJ/mol
# Density = 1.926223 g / cm^3
# Si number density = 19.306169 Si / 1000 Ang^3
#
#
#
# Elastic Constant Matrix: (Units=GPa)
#
#
# Indices 1 2 3 4 5 6 
#
# 1 128.2781 55.3256 55.0158 0.0000 0.0000 0.0000
# 2 55.3256 127.5577 44.1929 0.0000 0.0000 0.0000
# 3 55.0158 44.1929 73.6514 0.0000 0.0000 0.0000
# 4 0.0000 0.0000 0.0000 35.4088 0.0000 0.0000
# 5 0.0000 0.0000 0.0000 0.0000 0.1489 0.0000
# 6 0.0000 0.0000 0.0000 0.0000 0.0000 38.2265
#
#
#
# Elastic Compliance Matrix: (Units=1/GPa)
#
#
# Indices 1 2 3 4 5 6 
#
# 1 0.012157 -0.002685 -0.007470 0.000000 0.000000 0.000000
# 2 -0.002685 0.010490 -0.004289 0.000000 0.000000 0.000000
# 3 -0.007470 -0.004289 0.021731 0.000000 0.000000 0.000000
# 4 0.000000 0.000000 0.000000 0.028242 0.000000 0.000000
# 5 0.000000 0.000000 0.000000 0.000000 6.717881 0.000000
# 6 0.000000 0.000000 0.000000 0.000000 0.000000 0.026160
#
#
# Mechanical properties :
#
#
# Convention : Reuss Voigt Hill
#
# Bulk Modulus (GPa) = 64.55559 70.95063 67.75311
# Shear Modulus (GPa) = 0.72985 26.42036 13.57511
#
# Velocity S-wave (km/s) = 0.61552 3.70333 2.65457
# Velocity P-wave (km/s) = 5.83228 7.42403 6.67577
#
# Compressibility (1/GPa) = 0.01549053
#
# Stress axis : x y z
#
# Youngs Moduli (GPa) = 82.25447 95.32925 46.01739
#
# Poissons Ratio (x) = 0.25595 0.34376
# Poissons Ratio (y) = 0.22085 0.19735
# Poissons Ratio (z) = 0.61446 0.40884
#
# Static dielectric constant tensor:
#      x y z
#    x 3.789960 0.000000 0.000000 
#    y 0.000000 3.653540 0.000000 
#    z 0.000000 0.000000 3.535190 
# 
# 
# High freq. dielectric constant tensor:
#      x y z
#    x 1.758280 0.000000 0.000000 
#    y 0.000000 1.763010 0.000000 
#    z 0.000000 0.000000 1.747740 
# 
# From -- ./inp_files/15232.got.cif
#   From: 2010.03.12/outbox.cif.g09.slc.cpg/sg37_8_cif.got.tgz:15232.got - 2010.04.14 02:25:27.
