data_PCOD8176518
_publ_section_title
;
Structure prediction by ZEFSAII (Michael W. Deem and Ramdas Pophale) SiO2 
 PCOD8176518
Probable space group: C C C 2
;
_chemical_formula_sum "Si O2"
_cell_formula_units_Z 60
_cell_length_a 19.147100
_cell_length_b 11.432044
_cell_length_c 12.501743
_cell_angle_alpha 90.000000
_cell_angle_beta 90.000000
_cell_angle_gamma 90.000000
_cell_volume 2736.512647
_symmetry_space_group_name_H-M "C C C 2"
_symmetry_group_IT_number 37
_symmetry_cell_setting 'orthorhombic'
loop_
_space_group_symop_operation_xyz
x,y,z
-x,-y,z
-x,y,1/2+z
x,-y,1/2+z
1/2+x,1/2+y,z
1/2-x,1/2-y,z
1/2-x,1/2+y,1/2+z
1/2+x,1/2-y,1/2+z
loop_
_atom_site_type_symbol
_atom_site_label
_atom_site_fract_x
_atom_site_fract_y
_atom_site_fract_z
Si Si1 0.670436 0.262732 0.134590
Si Si2 0.603133 0.676057 0.975252
Si Si3 0.461940 0.789758 0.000902
Si Si4 0.323886 0.449767 0.801345
Si Si5 0.821514 0.191219 0.692179
Si Si6 0.825213 0.622788 0.844168
Si Si7 0.601487 0.899504 0.306247
Si Si8 0.500000 0.000000 0.647311
O O1 0.750000 0.250000 0.089048
O O2 0.614598 0.254487 0.038242
O O3 0.657992 0.389125 0.188452
O O4 0.655566 0.164141 0.224071
O O5 0.615556 0.570267 0.890201
O O6 0.637063 0.797107 0.932208
O O7 0.519416 0.687087 0.990612
O O8 0.636827 0.644764 0.089365
O O9 0.492754 0.882790 0.081475
O O10 0.456701 0.851408 0.886437
O O11 0.309519 0.585188 0.776183
O O12 0.258834 0.378369 0.853865
O O13 0.750000 0.250000 0.653269
O O14 0.862809 0.288512 0.755324
O O15 0.845977 0.487694 0.866437
O O16 0.568120 0.982422 0.217822
#
# Coordination Sequence:
#
# PCOD8176518 Si02
#       8
#     8   8   8   8   8   8   8   4
#     4   9  21  43  70  98 134 184 237 285 345 416
#     4  11  24  44  71 101 139 190 237 282 359 421
#     4  12  25  41  69 104 140 184 226 291 359 419
#     4  10  23  44  71  97 138 189 238 286 346 420
#     4  12  25  45  68 104 143 182 237 296 346 415
#     4  10  19  43  70 100 136 180 232 298 345 411
#     4  12  25  39  69 105 141 173 230 295 353 413
#     4  12  22  44  68 102 142 176 226 288 362 412
#
# _framework density 21.925718
#
# number of rings (size 3 to 8) (size 9 to 14) (size 15 to 20)
#    0.000    1.067    4.000    4.000    1.867    1.600 
#    4.800    4.000    0.000    0.000    0.000    0.000 
#    0.000    0.000    0.000    0.000    0.000    0.000 
#
# Total GULP energy -371978.670868 kJ/mol
# GULP energy per Si atom -12399.289029 kJ/mol
# Density = 2.187581 g / cm^3
# Si number density = 21.925718 Si / 1000 Ang^3
#
#
#
# Elastic Constant Matrix: (Units=GPa)
#
#
# Indices 1 2 3 4 5 6 
#
# 1 120.3459 25.2358 40.3329 0.0000 0.0000 0.0000
# 2 25.2358 86.8240 17.6658 0.0000 0.0000 0.0000
# 3 40.3329 17.6658 77.2803 0.0000 0.0000 0.0000
# 4 0.0000 0.0000 0.0000 18.1796 0.0000 0.0000
# 5 0.0000 0.0000 0.0000 0.0000 73.5816 0.0000
# 6 0.0000 0.0000 0.0000 0.0000 0.0000 28.6353
#
#
#
# Elastic Compliance Matrix: (Units=1/GPa)
#
#
# Indices 1 2 3 4 5 6 
#
# 1 0.010395 -0.002011 -0.004966 0.000000 0.000000 0.000000
# 2 -0.002011 0.012468 -0.001801 0.000000 0.000000 0.000000
# 3 -0.004966 -0.001801 0.015943 0.000000 0.000000 0.000000
# 4 0.000000 0.000000 0.000000 0.055007 0.000000 0.000000
# 5 0.000000 0.000000 0.000000 0.000000 0.013590 0.000000
# 6 0.000000 0.000000 0.000000 0.000000 0.000000 0.034922
#
#
# Mechanical properties :
#
#
# Convention : Reuss Voigt Hill
#
# Bulk Modulus (GPa) = 47.05399 50.10212 48.57805
# Shear Modulus (GPa) = 29.94649 37.49369 33.72009
#
# Velocity S-wave (km/s) = 3.69970 4.13974 3.92589
# Velocity P-wave (km/s) = 6.30537 6.76390 6.53866
#
# Compressibility (1/GPa) = 0.02125218
#
# Stress axis : x y z
#
# Youngs Moduli (GPa) = 96.19741 80.20240 62.72303
#
# Poissons Ratio (x) = 0.16130 0.31146
# Poissons Ratio (y) = 0.19346 0.11294
# Poissons Ratio (z) = 0.47768 0.14441
#
# Static dielectric constant tensor:
#      x y z
#    x 3.870330 0.000000 0.000000 
#    y 0.000000 3.919990 0.000000 
#    z 0.000000 0.000000 3.841970 
# 
# 
# High freq. dielectric constant tensor:
#      x y z
#    x 1.864280 0.000000 0.000000 
#    y 0.000000 1.857700 0.000000 
#    z 0.000000 0.000000 1.854820 
# 
# From -- ./inp_files/8643.got.cif
#   From: 2010.03.12/outbox.cif.g09.slc.cpg/sg37_5_cif.got.tgz:8643.got - 2010.04.14 02:25:27.
