data_PCOD8176196
_publ_section_title
;
Structure prediction by ZEFSAII (Michael W. Deem and Ramdas Pophale) SiO2 
 PCOD8176196
Probable space group: C M C 21
;
_chemical_formula_sum "Si O2"
_cell_formula_units_Z 48
_cell_length_a 17.212647
_cell_length_b 15.053469
_cell_length_c 8.671161
_cell_angle_alpha 90.000000
_cell_angle_beta 90.000000
_cell_angle_gamma 90.000000
_cell_volume 2246.784943
_symmetry_space_group_name_H-M "C M C 21"
_symmetry_group_IT_number 36
_symmetry_cell_setting 'orthorhombic'
loop_
_space_group_symop_operation_xyz
x,y,z
-x,-y,1/2+z
x,-y,1/2+z
-x,y,z
1/2+x,1/2+y,z
1/2-x,1/2-y,1/2+z
1/2+x,1/2-y,1/2+z
1/2-x,1/2+y,z
loop_
_atom_site_type_symbol
_atom_site_label
_atom_site_fract_x
_atom_site_fract_y
_atom_site_fract_z
Si Si1 0.690808 0.972534 0.669430
Si Si2 0.357599 0.762712 0.342786
Si Si3 0.912944 0.911815 0.978237
Si Si4 0.222341 0.188897 0.057188
Si Si5 0.912657 0.457071 0.395190
Si Si6 0.167377 0.933876 0.296808
O O1 0.737020 0.879857 0.676934
O O2 0.661842 0.985247 0.496170
O O3 0.606781 0.976951 0.753853
O O4 0.746155 0.052797 0.726135
O O5 0.413625 0.683202 0.394313
O O6 0.286626 0.756498 0.463999
O O7 0.329062 0.752792 0.165158
O O8 0.406389 0.853292 0.351970
O O9 0.888050 0.904973 0.157410
O O10 0.000000 0.949939 0.975846
O O11 0.858422 0.975878 0.879290
O O12 0.168065 0.140614 0.929956
O O13 0.000000 0.477005 0.455213
#
# Coordination Sequence:
#
# PCOD8176196 Si02
#       6
#     8   8   8   8   8   8
#     4  11  20  40  64  90 119 162 217 256 299 372
#     4  11  23  39  62  92 132 161 208 259 325 377
#     4  12  24  39  62  92 131 165 204 265 323 377
#     4  11  23  38  67  98 118 166 213 268 304 374
#     4  11  24  40  62  93 128 165 205 259 322 374
#     4  12  21  42  65  93 121 167 223 259 308 380
#
# _framework density 21.363862000000001
#
# number of rings (size 3 to 8) (size 9 to 14) (size 15 to 20)
#    0.000    0.667    6.667    2.500    0.000    0.000 
#    0.000    2.500    0.000    0.000    0.000    0.000 
#    0.000    0.000    0.000    0.000    0.000    0.000 
#
# Total GULP energy -297460.264901 kJ/mol
# GULP energy per Si atom -12394.177704 kJ/mol
# Density = 2.131524 g / cm^3
# Si number density = 21.363862 Si / 1000 Ang^3
#
#
#
# Elastic Constant Matrix: (Units=GPa)
#
#
# Indices 1 2 3 4 5 6 
#
# 1 100.8795 9.7722 30.5357 0.0000 0.0000 0.0000
# 2 9.7722 26.5824 28.0515 0.0000 0.0000 0.0000
# 3 30.5357 28.0515 85.4820 0.0000 0.0000 0.0000
# 4 0.0000 0.0000 0.0000 37.9191 0.0000 0.0000
# 5 0.0000 0.0000 0.0000 0.0000 31.3760 0.0000
# 6 0.0000 0.0000 0.0000 0.0000 0.0000 25.8058
#
#
#
# Elastic Compliance Matrix: (Units=1/GPa)
#
#
# Indices 1 2 3 4 5 6 
#
# 1 0.011115 0.000159 -0.004023 0.000000 0.000000 0.000000
# 2 0.000159 0.057549 -0.018942 0.000000 0.000000 0.000000
# 3 -0.004023 -0.018942 0.019351 0.000000 0.000000 0.000000
# 4 0.000000 0.000000 0.000000 0.026372 0.000000 0.000000
# 5 0.000000 0.000000 0.000000 0.000000 0.031871 0.000000
# 6 0.000000 0.000000 0.000000 0.000000 0.000000 0.038751
#
#
# Mechanical properties :
#
#
# Convention : Reuss Voigt Hill
#
# Bulk Modulus (GPa) = 23.58264 38.85140 31.21702
# Shear Modulus (GPa) = 20.42855 28.65916 24.54386
#
# Velocity S-wave (km/s) = 3.09564 3.66659 3.39314
# Velocity P-wave (km/s) = 4.88260 6.01251 5.47677
#
# Compressibility (1/GPa) = 0.04240407
#
# Stress axis : x y z
#
# Youngs Moduli (GPa) = 89.96811 17.37649 51.67642
#
# Poissons Ratio (x) = -0.00276 0.20787
# Poissons Ratio (y) = -0.01429 0.97884
# Poissons Ratio (z) = 0.36191 0.32914
#
# Static dielectric constant tensor:
#      x y z
#    x 3.673230 0.000000 0.000000 
#    y 0.000000 3.676680 0.000000 
#    z 0.000000 0.000000 4.012140 
# 
# 
# High freq. dielectric constant tensor:
#      x y z
#    x 1.832550 0.000000 0.000000 
#    y 0.000000 1.822710 0.000000 
#    z 0.000000 0.000000 1.853560 
# 
# From -- ./inp_files/3995.got.cif
#   From: 2010.03.12/outbox.cif.g09.slc.cpg/sg36_2_cif.got.tgz:3995.got - 2010.04.14 02:13:53.
