data_PCOD8176181
_publ_section_title
;
Structure prediction by ZEFSAII (Michael W. Deem and Ramdas Pophale) SiO2 
 PCOD8176181
Probable space group: C M C 21
;
_chemical_formula_sum "Si O2"
_cell_formula_units_Z 64
_cell_length_a 25.319327
_cell_length_b 9.125507
_cell_length_c 11.861943
_cell_angle_alpha 90.000000
_cell_angle_beta 90.000000
_cell_angle_gamma 90.000000
_cell_volume 2740.722045
_symmetry_space_group_name_H-M "C M C 21"
_symmetry_group_IT_number 36
_symmetry_cell_setting 'orthorhombic'
loop_
_space_group_symop_operation_xyz
x,y,z
-x,-y,1/2+z
x,-y,1/2+z
-x,y,z
1/2+x,1/2+y,z
1/2-x,1/2-y,1/2+z
1/2+x,1/2-y,1/2+z
1/2-x,1/2+y,z
loop_
_atom_site_type_symbol
_atom_site_label
_atom_site_fract_x
_atom_site_fract_y
_atom_site_fract_z
Si Si1 0.121459 0.592246 0.886090
Si Si2 0.938731 0.064971 0.008425
Si Si3 0.059723 0.300947 0.828606
Si Si4 0.238020 0.413820 0.430951
Si Si5 0.811291 0.920676 0.234121
Si Si6 0.898009 0.230933 0.600631
Si Si7 0.125610 0.212443 0.189732
Si Si8 0.274892 0.171686 0.576278
O O1 0.100423 0.428885 0.862800
O O2 0.183886 0.625776 0.866528
O O3 0.097262 0.700792 0.792012
O O4 0.107065 0.633412 0.014957
O O5 0.923685 0.167530 0.112955
O O6 0.000000 0.028493 0.011835
O O7 0.908221 0.911200 0.022261
O O8 0.923120 0.149496 0.892378
O O9 0.057764 0.269384 0.694004
O O10 0.000000 0.344120 0.865774
O O11 0.292214 0.388365 0.361352
O O12 0.246590 0.325554 0.547668
O O13 0.227999 0.583690 0.459052
O O14 0.846355 0.792009 0.179105
O O15 0.756675 0.924714 0.166563
O O16 0.841633 0.073606 0.233762
O O17 0.164851 0.313827 0.116631
#
# Coordination Sequence:
#
# PCOD8176181 Si02
#       8
#     8   8   8   8   8   8   8   8
#     4  12  27  45  72 107 146 192 240 296 371 436
#     4  10  25  50  77 102 137 188 246 302 367 439
#     4  11  28  50  75 108 145 184 239 312 374 434
#     4  12  26  40  67  99 142 187 233 289 354 420
#     4  11  25  42  68 100 143 185 238 291 348 428
#     4  11  27  47  76 106 144 193 246 299 363 443
#     4  11  25  44  70 104 142 188 242 293 361 435
#     4  12  24  42  64  98 140 185 235 288 350 421
#
# _framework density 23.351512
#
# number of rings (size 3 to 8) (size 9 to 14) (size 15 to 20)
#    0.000    0.750    3.750    1.875   10.500    1.500 
#    0.000    0.000    0.000    0.000    0.000    0.000 
#    0.000    0.000    0.000    0.000    0.000    0.000 
#
# Total GULP energy -396696.450859 kJ/mol
# GULP energy per Si atom -12396.764089 kJ/mol
# Density = 2.329836 g / cm^3
# Si number density = 23.351512 Si / 1000 Ang^3
#
#
#
# Elastic Constant Matrix: (Units=GPa)
#
#
# Indices 1 2 3 4 5 6 
#
# 1 56.7340 16.9294 21.6866 0.0000 0.0000 0.0000
# 2 16.9294 100.5418 49.1654 0.0000 0.0000 0.0000
# 3 21.6866 49.1654 112.9438 0.0000 0.0000 0.0000
# 4 0.0000 0.0000 0.0000 43.6891 0.0000 0.0000
# 5 0.0000 0.0000 0.0000 0.0000 34.6852 0.0000
# 6 0.0000 0.0000 0.0000 0.0000 0.0000 22.8783
#
#
#
# Elastic Compliance Matrix: (Units=1/GPa)
#
#
# Indices 1 2 3 4 5 6 
#
# 1 0.019282 -0.001825 -0.002908 0.000000 0.000000 0.000000
# 2 -0.001825 0.012809 -0.005225 0.000000 0.000000 0.000000
# 3 -0.002908 -0.005225 0.011687 0.000000 0.000000 0.000000
# 4 0.000000 0.000000 0.000000 0.022889 0.000000 0.000000
# 5 0.000000 0.000000 0.000000 0.000000 0.028831 0.000000
# 6 0.000000 0.000000 0.000000 0.000000 0.000000 0.043710
#
#
# Mechanical properties :
#
#
# Convention : Reuss Voigt Hill
#
# Bulk Modulus (GPa) = 41.90846 49.53138 45.71992
# Shear Modulus (GPa) = 29.92629 32.41307 31.16968
#
# Velocity S-wave (km/s) = 3.58377 3.72970 3.65746
# Velocity P-wave (km/s) = 5.92539 6.30910 6.12025
#
# Compressibility (1/GPa) = 0.02386153
#
# Stress axis : x y z
#
# Youngs Moduli (GPa) = 51.86117 78.07271 85.56523
#
# Poissons Ratio (x) = 0.14246 0.24883
# Poissons Ratio (y) = 0.09463 0.44711
# Poissons Ratio (z) = 0.15082 0.40796
#
# Static dielectric constant tensor:
#      x y z
#    x 4.007450 0.000000 0.000000 
#    y 0.000000 4.078910 0.000000 
#    z 0.000000 0.000000 4.227230 
# 
# 
# High freq. dielectric constant tensor:
#      x y z
#    x 1.912900 0.000000 0.000000 
#    y 0.000000 1.923170 0.000000 
#    z 0.000000 0.000000 1.932160 
# 
# From -- ./inp_files/9758.got.cif
#   From: 2010.03.12/outbox.cif.g09.slc.cpg/sg36_5_cif.got.tgz:9758.got - 2010.04.14 02:13:53.
