data_PCOD8176914
_publ_section_title
;
Structure prediction by ZEFSAII (Michael W. Deem and Ramdas Pophale) SiO2 
 PCOD8176914
Probable space group: C C C 2
;
_chemical_formula_sum "Si O2"
_cell_formula_units_Z 36
_cell_length_a 7.357760
_cell_length_b 21.787281
_cell_length_c 9.394654
_cell_angle_alpha 90.000000
_cell_angle_beta 90.000000
_cell_angle_gamma 90.000000
_cell_volume 1506.015502
_symmetry_space_group_name_H-M "C C C 2"
_symmetry_group_IT_number 37
_symmetry_cell_setting 'orthorhombic'
loop_
_space_group_symop_operation_xyz
x,y,z
-x,-y,z
-x,y,1/2+z
x,-y,1/2+z
1/2+x,1/2+y,z
1/2-x,1/2-y,z
1/2-x,1/2+y,1/2+z
1/2+x,1/2-y,1/2+z
loop_
_atom_site_type_symbol
_atom_site_label
_atom_site_fract_x
_atom_site_fract_y
_atom_site_fract_z
Si Si1 0.410215 0.792520 0.419490
Si Si2 0.069609 0.930928 0.010390
Si Si3 0.786465 0.115062 0.715480
Si Si4 0.089317 0.375941 0.657043
Si Si5 0.750000 0.750000 0.294209
O O1 0.250000 0.750000 0.484410
O O2 0.512057 0.839771 0.521498
O O3 0.338527 0.829522 0.279650
O O4 0.566606 0.742798 0.384704
O O5 0.247884 0.920926 0.108332
O O6 0.901194 0.893020 0.072474
O O7 0.102580 0.908842 0.850287
O O8 0.000000 0.000000 0.011796
O O9 0.585109 0.083371 0.711264
O O10 0.734606 0.187068 0.706642
#
# Coordination Sequence:
#
# PCOD8176914 Si02
#       5
#     8   8   8   8   4
#     4  11  25  40  71 109 159 202 242 311 384 465
#     4  12  27  52  78 108 149 208 264 317 379 464
#     4  11  27  46  75 116 151 203 254 315 396 454
#     4  11  25  47  68 115 151 200 262 312 388 454
#     4  10  22  44  70 112 160 192 240 314 380 464
#
# _framework density 23.904135
#
# number of rings (size 3 to 8) (size 9 to 14) (size 15 to 20)
#    0.000    0.889    4.444    2.000   14.000    0.889 
#    0.000    2.222    0.000    0.000    0.000    0.000 
#    0.000    0.000    0.000    0.000    0.000    0.000 
#
# Total GULP energy -223035.196103 kJ/mol
# GULP energy per Si atom -12390.844228 kJ/mol
# Density = 2.384973 g / cm^3
# Si number density = 23.904135 Si / 1000 Ang^3
#
#
#
# Elastic Constant Matrix: (Units=GPa)
#
#
# Indices 1 2 3 4 5 6 
#
# 1 139.3064 62.1645 11.8000 0.0000 0.0000 0.0000
# 2 62.1645 107.9962 33.7580 0.0000 0.0000 0.0000
# 3 11.8000 33.7580 80.2796 0.0000 0.0000 0.0000
# 4 0.0000 0.0000 0.0000 24.0521 0.0000 0.0000
# 5 0.0000 0.0000 0.0000 0.0000 21.9308 0.0000
# 6 0.0000 0.0000 0.0000 0.0000 0.0000 45.4342
#
#
#
# Elastic Compliance Matrix: (Units=1/GPa)
#
#
# Indices 1 2 3 4 5 6 
#
# 1 0.009738 -0.005939 0.001066 0.000000 0.000000 0.000000
# 2 -0.005939 0.014282 -0.005133 0.000000 0.000000 0.000000
# 3 0.001066 -0.005133 0.014458 0.000000 0.000000 0.000000
# 4 0.000000 0.000000 0.000000 0.041576 0.000000 0.000000
# 5 0.000000 0.000000 0.000000 0.000000 0.045598 0.000000
# 6 0.000000 0.000000 0.000000 0.000000 0.000000 0.022010
#
#
# Mechanical properties :
#
#
# Convention : Reuss Voigt Hill
#
# Bulk Modulus (GPa) = 54.14949 60.33636 57.24292
# Shear Modulus (GPa) = 28.76365 32.94073 30.85219
#
# Velocity S-wave (km/s) = 3.47261 3.71622 3.59648
# Velocity P-wave (km/s) = 6.22741 6.61131 6.42223
#
# Compressibility (1/GPa) = 0.01846740
#
# Stress axis : x y z
#
# Youngs Moduli (GPa) = 102.68815 70.01593 69.16481
#
# Poissons Ratio (x) = 0.41580 -0.07372
# Poissons Ratio (y) = 0.60983 0.35502
# Poissons Ratio (z) = -0.10945 0.35939
#
# Static dielectric constant tensor:
#      x y z
#    x 6.057320 0.000000 0.000000 
#    y 0.000000 3.921030 0.000000 
#    z 0.000000 0.000000 4.445780 
# 
# 
# High freq. dielectric constant tensor:
#      x y z
#    x 1.977550 0.000000 0.000000 
#    y 0.000000 1.916850 0.000000 
#    z 0.000000 0.000000 1.962030 
# 
# From -- ./inp_files/2122.got.cif
#   From: 2010.03.12/outbox.cif.g09.slc.cpg/sg37_2_cif.got.tgz:2122.got - 2010.04.14 02:25:27.
