data_PCOD8176691
_publ_section_title
;
Structure prediction by ZEFSAII (Michael W. Deem and Ramdas Pophale) SiO2 
 PCOD8176691
Probable space group: C C C 2
;
_chemical_formula_sum "Si O2"
_cell_formula_units_Z 56
_cell_length_a 16.949097
_cell_length_b 29.565176
_cell_length_c 5.219467
_cell_angle_alpha 90.000000
_cell_angle_beta 90.000000
_cell_angle_gamma 90.000000
_cell_volume 2615.490759
_symmetry_space_group_name_H-M "C C C 2"
_symmetry_group_IT_number 37
_symmetry_cell_setting 'orthorhombic'
loop_
_space_group_symop_operation_xyz
x,y,z
-x,-y,z
-x,y,1/2+z
x,-y,1/2+z
1/2+x,1/2+y,z
1/2-x,1/2-y,z
1/2-x,1/2+y,1/2+z
1/2+x,1/2-y,1/2+z
loop_
_atom_site_type_symbol
_atom_site_label
_atom_site_fract_x
_atom_site_fract_y
_atom_site_fract_z
Si Si1 0.337196 0.157330 0.243170
Si Si2 0.448139 0.241253 0.234555
Si Si3 0.855524 0.885353 0.711778
Si Si4 0.657589 0.671846 0.212255
Si Si5 0.966790 0.449452 0.132218
Si Si6 0.412687 0.480598 0.751327
Si Si7 0.177099 0.601346 0.242163
O O1 0.404542 0.193873 0.199483
O O2 0.251105 0.180291 0.220967
O O3 0.348403 0.137560 0.527504
O O4 0.344410 0.119342 0.023919
O O5 0.487772 0.245671 0.511658
O O6 0.383240 0.280032 0.214353
O O7 0.870808 0.857762 0.453252
O O8 0.917130 0.926502 0.723043
O O9 0.769403 0.909002 0.716443
O O10 0.868423 0.853024 0.952705
O O11 0.873241 0.444821 0.192219
O O12 0.000000 0.500000 0.088847
O O13 0.013941 0.424618 0.363160
O O14 0.500000 0.500000 0.791970
O O15 0.367866 0.504188 0.511910
#
# Coordination Sequence:
#
# PCOD8176691 Si02
#       7
#     8   8   8   8   8   8   8
#     4  10  22  40  66  86 124 164 204 253 300 363
#     4  12  25  41  59  99 130 158 203 252 308 363
#     4  10  21  41  64  89 120 159 212 253 292 366
#     4  10  22  43  64  89 122 167 206 247 307 360
#     4  10  21  37  54  81 119 154 194 246 308 364
#     4  10  21  40  58  89 120 154 201 241 312 368
#     4  10  21  38  62  91 113 162 214 249 299 356
#
# _framework density 21.410895
#
# number of rings (size 3 to 8) (size 9 to 14) (size 15 to 20)
#    0.000    1.714    0.000    3.857    0.000    3.429 
#   20.571    5.714    0.000    0.000    0.000    0.000 
#    0.000    0.000    0.000    0.000    0.000    0.000 
#
# Total GULP energy -347114.073361 kJ/mol
# GULP energy per Si atom -12396.931191 kJ/mol
# Density = 2.136216 g / cm^3
# Si number density = 21.410895 Si / 1000 Ang^3
#
#
#
# Elastic Constant Matrix: (Units=GPa)
#
#
# Indices 1 2 3 4 5 6 
#
# 1 61.7343 31.4232 7.6459 0.0000 0.0000 0.0000
# 2 31.4232 55.4483 -2.9274 0.0000 0.0000 0.0000
# 3 7.6459 -2.9274 130.6132 0.0000 0.0000 0.0000
# 4 0.0000 0.0000 0.0000 18.8886 0.0000 0.0000
# 5 0.0000 0.0000 0.0000 0.0000 16.1616 0.0000
# 6 0.0000 0.0000 0.0000 0.0000 0.0000 45.6505
#
#
#
# Elastic Compliance Matrix: (Units=1/GPa)
#
#
# Indices 1 2 3 4 5 6 
#
# 1 0.023115 -0.013186 -0.001649 0.000000 0.000000 0.000000
# 2 -0.013186 0.025579 0.001345 0.000000 0.000000 0.000000
# 3 -0.001649 0.001345 0.007783 0.000000 0.000000 0.000000
# 4 0.000000 0.000000 0.000000 0.052942 0.000000 0.000000
# 5 0.000000 0.000000 0.000000 0.000000 0.061875 0.000000
# 6 0.000000 0.000000 0.000000 0.000000 0.000000 0.021906
#
#
# Mechanical properties :
#
#
# Convention : Reuss Voigt Hill
#
# Bulk Modulus (GPa) = 33.90225 35.56436 34.73330
# Shear Modulus (GPa) = 21.73815 30.25041 25.99428
#
# Velocity S-wave (km/s) = 3.18981 3.76287 3.48813
# Velocity P-wave (km/s) = 5.42540 5.96032 5.69914
#
# Compressibility (1/GPa) = 0.02949656
#
# Stress axis : x y z
#
# Youngs Moduli (GPa) = 43.26276 39.09503 128.48755
#
# Poissons Ratio (x) = 0.51552 0.21183
# Poissons Ratio (y) = 0.57048 -0.17284
# Poissons Ratio (z) = 0.07132 -0.05259
#
# Static dielectric constant tensor:
#      x y z
#    x 3.817030 0.000000 0.000000 
#    y 0.000000 3.586350 0.000000 
#    z 0.000000 0.000000 5.081940 
# 
# 
# High freq. dielectric constant tensor:
#      x y z
#    x 1.830900 0.000000 0.000000 
#    y 0.000000 1.822510 0.000000 
#    z 0.000000 0.000000 1.876860 
# 
# From -- ./inp_files/645.got.cif
#   From: 2010.03.12/outbox.cif.g09.slc.cpg/sg37_1_cif.got.tgz:645.got - 2010.04.14 02:25:27.
