data_PCOD8176218
_publ_section_title
;
Structure prediction by ZEFSAII (Michael W. Deem and Ramdas Pophale) SiO2 
 PCOD8176218
Probable space group: C M C 21
;
_chemical_formula_sum "Si O2"
_cell_formula_units_Z 48
_cell_length_a 28.216585
_cell_length_b 4.899570
_cell_length_c 16.442253
_cell_angle_alpha 90.000000
_cell_angle_beta 90.000000
_cell_angle_gamma 90.000000
_cell_volume 2273.127228
_symmetry_space_group_name_H-M "C M C 21"
_symmetry_group_IT_number 36
_symmetry_cell_setting 'orthorhombic'
loop_
_space_group_symop_operation_xyz
x,y,z
-x,-y,1/2+z
x,-y,1/2+z
-x,y,z
1/2+x,1/2+y,z
1/2-x,1/2-y,1/2+z
1/2+x,1/2-y,1/2+z
1/2-x,1/2+y,z
loop_
_atom_site_type_symbol
_atom_site_label
_atom_site_fract_x
_atom_site_fract_y
_atom_site_fract_z
Si Si1 0.000000 0.176657 0.147810
Si Si2 0.139756 0.882920 0.537005
Si Si3 0.717686 0.799702 0.923593
Si Si4 0.368195 0.151360 0.307124
Si Si5 0.000000 0.677028 0.038220
Si Si6 0.905131 0.389266 0.463556
Si Si7 0.395696 0.661278 0.209976
O O1 0.000000 0.865192 0.117828
O O2 0.951670 0.224919 0.198742
O O3 0.000000 0.367806 0.068971
O O4 0.190228 0.756368 0.508842
O O5 0.100826 0.648140 0.522837
O O6 0.132800 0.957757 0.631574
O O7 0.133171 0.152326 0.481637
O O8 0.762845 0.605331 0.919369
O O9 0.682693 0.775836 0.846149
O O10 0.391681 0.434684 0.280200
O O11 0.401405 0.997925 0.372289
O O12 0.367094 0.937900 0.232548
O O13 0.044189 0.742336 0.980614
#
# Coordination Sequence:
#
# PCOD8176218 Si02
#       7
#     4   8   8   8   4   8   8
#     4  12  24  38  64  96 134 178 222 262 324 382
#     4  11  22  41  66  93 126 167 220 268 330 392
#     4  11  23  45  70  93 122 167 219 271 327 398
#     4  11  25  41  64  95 134 173 210 274 345 389
#     4  12  20  38  62  94 122 176 234 270 296 386
#     4  11  21  39  62  91 125 174 223 264 316 387
#     4  12  23  42  63  98 137 175 212 269 330 394
#
# _framework density 21.116282999999999
#
# number of rings (size 3 to 8) (size 9 to 14) (size 15 to 20)
#    0.000    0.667    3.333    7.000    0.000    1.333 
#    0.000    5.000    0.000    0.000    0.000    0.000 
#    0.000    0.000    0.000    0.000    0.000    0.000 
#
# Total GULP energy -297573.497702 kJ/mol
# GULP energy per Si atom -12398.895738 kJ/mol
# Density = 2.106822 g / cm^3
# Si number density = 21.116283 Si / 1000 Ang^3
#
#
#
# Elastic Constant Matrix: (Units=GPa)
#
#
# Indices 1 2 3 4 5 6 
#
# 1 108.2243 23.5339 52.9896 0.0000 0.0000 0.0000
# 2 23.5339 97.3101 15.4642 0.0000 0.0000 0.0000
# 3 52.9896 15.4642 78.0016 0.0000 0.0000 0.0000
# 4 0.0000 0.0000 0.0000 42.7970 0.0000 0.0000
# 5 0.0000 0.0000 0.0000 0.0000 38.2125 0.0000
# 6 0.0000 0.0000 0.0000 0.0000 0.0000 36.9049
#
#
#
# Elastic Compliance Matrix: (Units=1/GPa)
#
#
# Indices 1 2 3 4 5 6 
#
# 1 0.014199 -0.001963 -0.009257 0.000000 0.000000 0.000000
# 2 -0.001963 0.010882 -0.000824 0.000000 0.000000 0.000000
# 3 -0.009257 -0.000824 0.019272 0.000000 0.000000 0.000000
# 4 0.000000 0.000000 0.000000 0.023366 0.000000 0.000000
# 5 0.000000 0.000000 0.000000 0.000000 0.026169 0.000000
# 6 0.000000 0.000000 0.000000 0.000000 0.000000 0.027097
#
#
# Mechanical properties :
#
#
# Convention : Reuss Voigt Hill
#
# Bulk Modulus (GPa) = 49.34390 51.94572 50.64481
# Shear Modulus (GPa) = 32.93170 36.35275 34.64222
#
# Velocity S-wave (km/s) = 3.95339 4.15366 4.05476
# Velocity P-wave (km/s) = 6.65263 6.90341 6.77918
#
# Compressibility (1/GPa) = 0.02026593
#
# Stress axis : x y z
#
# Youngs Moduli (GPa) = 70.42521 91.89409 51.88785
#
# Poissons Ratio (x) = 0.18038 0.48033
# Poissons Ratio (y) = 0.13824 0.04275
# Poissons Ratio (z) = 0.65193 0.07571
#
# Static dielectric constant tensor:
#      x y z
#    x 3.693490 0.000000 0.000000 
#    y 0.000000 3.919470 0.000000 
#    z 0.000000 0.000000 3.716940 
# 
# 
# High freq. dielectric constant tensor:
#      x y z
#    x 1.817480 0.000000 0.000000 
#    y 0.000000 1.852150 0.000000 
#    z 0.000000 0.000000 1.816820 
# 
# From -- ./inp_files/13085.got.cif
#   From: 2010.03.12/outbox.cif.g09.slc.cpg/sg36_7_cif.got.tgz:13085.got - 2010.04.14 02:13:53.
