data_PCOD8176588
_publ_section_title
;
Structure prediction by ZEFSAII (Michael W. Deem and Ramdas Pophale) SiO2 
 PCOD8176588
Probable space group: C C C 2
;
_chemical_formula_sum "Si O2"
_cell_formula_units_Z 60
_cell_length_a 22.758208
_cell_length_b 14.747937
_cell_length_c 8.982911
_cell_angle_alpha 90.000000
_cell_angle_beta 90.000000
_cell_angle_gamma 90.000000
_cell_volume 3014.993866
_symmetry_space_group_name_H-M "C C C 2"
_symmetry_group_IT_number 37
_symmetry_cell_setting 'orthorhombic'
loop_
_space_group_symop_operation_xyz
x,y,z
-x,-y,z
-x,y,1/2+z
x,-y,1/2+z
1/2+x,1/2+y,z
1/2-x,1/2-y,z
1/2-x,1/2+y,1/2+z
1/2+x,1/2-y,1/2+z
loop_
_atom_site_type_symbol
_atom_site_label
_atom_site_fract_x
_atom_site_fract_y
_atom_site_fract_z
Si Si1 0.612178 0.289583 0.140160
Si Si2 0.016681 0.129399 0.185267
Si Si3 0.619476 0.726150 0.289115
Si Si4 0.339384 0.094603 0.650911
Si Si5 0.333355 0.919548 0.801307
Si Si6 0.000000 0.000000 0.933822
Si Si7 0.275236 0.349011 0.804471
Si Si8 0.774243 0.148797 0.637806
O O1 0.550277 0.333983 0.188777
O O2 0.621197 0.183708 0.188308
O O3 0.662675 0.349710 0.217732
O O4 0.617928 0.293333 0.963783
O O5 0.057479 0.216439 0.203958
O O6 0.036378 0.065062 0.323887
O O7 0.034551 0.070635 0.040029
O O8 0.634454 0.828905 0.248725
O O9 0.663160 0.652129 0.219159
O O10 0.334184 0.074606 0.477665
O O11 0.272687 0.097628 0.709583
O O12 0.367514 0.007077 0.733702
O O13 0.267391 0.916577 0.734760
O O14 0.250000 0.250000 0.823853
O O15 0.281885 0.390713 0.970428
O O16 0.750000 0.250000 0.636889
#
# Coordination Sequence:
#
# PCOD8176588 Si02
#       8
#     8   8   8   8   8   4   8   8
#     4  10  21  38  61  83 118 157 191 234 294 344
#     4  11  22  44  61  88 114 148 185 238 292 341
#     4  10  21  38  61  83 118 157 191 234 294 344
#     4  10  20  37  57  85 118 155 195 239 283 338
#     4  10  20  37  57  85 118 155 195 239 283 338
#     4  10  24  42  64  82 118 142 192 238 280 344
#     4   9  18  33  55  83 113 149 190 232 281 336
#     4   9  18  33  55  83 113 149 190 232 281 336
#
# _framework density 19.900538000000001
#
# number of rings (size 3 to 8) (size 9 to 14) (size 15 to 20)
#    0.000    2.133    1.333    1.600    1.867    4.267 
#    4.800    0.667    0.000    3.200    0.000    0.000 
#    0.000    0.000    0.000    0.000    0.000    0.000 
#
# Total GULP energy -371679.654748 kJ/mol
# GULP energy per Si atom -12389.321825 kJ/mol
# Density = 1.985524 g / cm^3
# Si number density = 19.900538 Si / 1000 Ang^3
#
#
#
# Elastic Constant Matrix: (Units=GPa)
#
#
# Indices 1 2 3 4 5 6 
#
# 1 105.8005 37.5027 33.0766 0.0000 0.0000 0.0000
# 2 37.5027 97.4460 46.7927 0.0000 0.0000 0.0000
# 3 33.0766 46.7927 111.5099 0.0000 0.0000 0.0000
# 4 0.0000 0.0000 0.0000 31.8001 0.0000 0.0000
# 5 0.0000 0.0000 0.0000 0.0000 21.4783 0.0000
# 6 0.0000 0.0000 0.0000 0.0000 0.0000 16.0353
#
#
#
# Elastic Compliance Matrix: (Units=1/GPa)
#
#
# Indices 1 2 3 4 5 6 
#
# 1 0.011259 -0.003418 -0.001905 0.000000 0.000000 0.000000
# 2 -0.003418 0.013889 -0.004815 0.000000 0.000000 0.000000
# 3 -0.001905 -0.004815 0.011553 0.000000 0.000000 0.000000
# 4 0.000000 0.000000 0.000000 0.031446 0.000000 0.000000
# 5 0.000000 0.000000 0.000000 0.000000 0.046559 0.000000
# 6 0.000000 0.000000 0.000000 0.000000 0.000000 0.062362
#
#
# Mechanical properties :
#
#
# Convention : Reuss Voigt Hill
#
# Bulk Modulus (GPa) = 60.87998 61.05559 60.96778
# Shear Modulus (GPa) = 24.65232 27.02170 25.83701
#
# Velocity S-wave (km/s) = 3.52344 3.68888 3.60711
# Velocity P-wave (km/s) = 6.87106 6.99219 6.93189
#
# Compressibility (1/GPa) = 0.01642576
#
# Stress axis : x y z
#
# Youngs Moduli (GPa) = 88.81746 71.99687 86.55543
#
# Poissons Ratio (x) = 0.24610 0.16492
# Poissons Ratio (y) = 0.30359 0.41672
# Poissons Ratio (z) = 0.16923 0.34663
#
# Static dielectric constant tensor:
#      x y z
#    x 3.418370 0.000000 0.000000 
#    y 0.000000 3.838810 0.000000 
#    z 0.000000 0.000000 3.864300 
# 
# 
# High freq. dielectric constant tensor:
#      x y z
#    x 1.742070 0.000000 0.000000 
#    y 0.000000 1.779270 0.000000 
#    z 0.000000 0.000000 1.795230 
# 
# From -- ./inp_files/4646.got.cif
#   From: 2010.03.12/outbox.cif.g09.slc.cpg/sg37_3_cif.got.tgz:4646.got - 2010.04.14 02:25:27.
