data_PCOD8176065
_publ_section_title
;
Structure prediction by ZEFSAII (Michael W. Deem and Ramdas Pophale) SiO2 
 PCOD8176065
Probable space group: C M C 21
;
_chemical_formula_sum "Si O2"
_cell_formula_units_Z 64
_cell_length_a 8.649959
_cell_length_b 23.789436
_cell_length_c 14.978682
_cell_angle_alpha 90.000000
_cell_angle_beta 90.000000
_cell_angle_gamma 90.000000
_cell_volume 3082.277923
_symmetry_space_group_name_H-M "C M C 21"
_symmetry_group_IT_number 36
_symmetry_cell_setting 'orthorhombic'
loop_
_space_group_symop_operation_xyz
x,y,z
-x,-y,1/2+z
x,-y,1/2+z
-x,y,z
1/2+x,1/2+y,z
1/2-x,1/2-y,1/2+z
1/2+x,1/2-y,1/2+z
1/2-x,1/2+y,z
loop_
_atom_site_type_symbol
_atom_site_label
_atom_site_fract_x
_atom_site_fract_y
_atom_site_fract_z
Si Si1 0.318274 0.297004 0.045340
Si Si2 0.682266 0.426383 0.047519
Si Si3 0.317952 0.497130 0.384704
Si Si4 0.817862 0.234172 0.879051
Si Si5 0.320986 0.729296 0.201288
Si Si6 0.674136 0.879070 0.421171
Si Si7 0.827670 0.375480 0.626188
Si Si8 0.819178 0.504323 0.191519
O O1 0.500000 0.290447 0.026824
O O2 0.279142 0.272783 0.142877
O O3 0.265065 0.361785 0.040043
O O4 0.223516 0.261355 0.973624
O O5 0.500000 0.431404 0.052674
O O6 0.745234 0.460205 0.960911
O O7 0.746613 0.451604 0.139823
O O8 0.500000 0.502898 0.374715
O O9 0.275030 0.434424 0.411778
O O10 0.241512 0.512091 0.291165
O O11 0.733492 0.269600 0.803053
O O12 0.757552 0.170571 0.867883
O O13 0.000000 0.235021 0.865377
O O14 0.500000 0.744865 0.192294
O O15 0.295114 0.665093 0.172225
O O16 0.500000 0.888803 0.384112
O O17 0.668026 0.859972 0.522967
O O18 0.773208 0.439471 0.638250
O O19 0.000000 0.366871 0.667191
O O20 0.000000 0.494025 0.194467
#
# Coordination Sequence:
#
# PCOD8176065 Si02
#       8
#     8   8   8   8   8   8   8   8
#     4  11  24  45  67  94 132 171 215 268 322 384
#     4  10  24  44  66  92 128 171 213 262 320 382
#     4  11  24  42  65  96 131 170 214 262 320 383
#     4  12  26  44  67  97 130 171 216 266 324 385
#     4  12  26  43  67  97 129 172 217 265 323 386
#     4  11  22  42  69  95 127 167 214 268 321 379
#     4  10  22  42  67  95 128 166 211 269 325 380
#     4  11  24  42  66  96 129 168 214 264 321 379
#
# _framework density 20.763862
#
# number of rings (size 3 to 8) (size 9 to 14) (size 15 to 20)
#    0.000    1.000    2.500    3.750    3.500    3.000 
#    0.000    0.000    0.000    0.000    0.000    0.000 
#    0.000    0.000    0.000    0.000    0.000    0.000 
#
# Total GULP energy -396982.701749 kJ/mol
# GULP energy per Si atom -12405.709430 kJ/mol
# Density = 2.071660 g / cm^3
# Si number density = 20.763862 Si / 1000 Ang^3
#
#
#
# Elastic Constant Matrix: (Units=GPa)
#
#
# Indices 1 2 3 4 5 6 
#
# 1 40.1896 38.1064 23.4371 0.0000 0.0000 0.0000
# 2 38.1064 98.4596 9.9506 0.0000 0.0000 0.0000
# 3 23.4371 9.9506 72.9920 0.0000 0.0000 0.0000
# 4 0.0000 0.0000 0.0000 30.5724 0.0000 0.0000
# 5 0.0000 0.0000 0.0000 0.0000 31.8699 0.0000
# 6 0.0000 0.0000 0.0000 0.0000 0.0000 30.1462
#
#
#
# Elastic Compliance Matrix: (Units=1/GPa)
#
#
# Indices 1 2 3 4 5 6 
#
# 1 0.049720 -0.017876 -0.013528 0.000000 0.000000 0.000000
# 2 -0.017876 0.016725 0.003460 0.000000 0.000000 0.000000
# 3 -0.013528 0.003460 0.017572 0.000000 0.000000 0.000000
# 4 0.000000 0.000000 0.000000 0.032709 0.000000 0.000000
# 5 0.000000 0.000000 0.000000 0.000000 0.031378 0.000000
# 6 0.000000 0.000000 0.000000 0.000000 0.000000 0.033172
#
#
# Mechanical properties :
#
#
# Convention : Reuss Voigt Hill
#
# Bulk Modulus (GPa) = 35.54958 39.40326 37.47642
# Shear Modulus (GPa) = 20.28062 27.86083 24.07073
#
# Velocity S-wave (km/s) = 3.12865 3.66703 3.40849
# Velocity P-wave (km/s) = 5.49630 6.07844 5.79469
#
# Compressibility (1/GPa) = 0.02812973
#
# Stress axis : x y z
#
# Youngs Moduli (GPa) = 20.11250 59.78987 56.90821
#
# Poissons Ratio (x) = 1.06880 0.76984
# Poissons Ratio (y) = 0.35953 -0.19689
# Poissons Ratio (z) = 0.27208 -0.20686
#
# Static dielectric constant tensor:
#      x y z
#    x 3.751740 0.000000 0.000000 
#    y 0.000000 3.946080 0.000000 
#    z 0.000000 0.000000 3.907190 
# 
# 
# High freq. dielectric constant tensor:
#      x y z
#    x 1.816860 0.000000 0.000000 
#    y 0.000000 1.823850 0.000000 
#    z 0.000000 0.000000 1.817370 
# 
# From -- ./inp_files/11072.got.cif
#   From: 2010.03.12/outbox.cif.g09.slc.cpg/sg36_6_cif.got.tgz:11072.got - 2010.04.14 02:13:53.
