data_PCOD8176070
_publ_section_title
;
Structure prediction by ZEFSAII (Michael W. Deem and Ramdas Pophale) SiO2 
 PCOD8176070
Probable space group: C M C 21
;
_chemical_formula_sum "Si O2"
_cell_formula_units_Z 64
_cell_length_a 28.514192
_cell_length_b 13.052887
_cell_length_c 7.956896
_cell_angle_alpha 90.000000
_cell_angle_beta 90.000000
_cell_angle_gamma 90.000000
_cell_volume 2961.497222
_symmetry_space_group_name_H-M "C M C 21"
_symmetry_group_IT_number 36
_symmetry_cell_setting 'orthorhombic'
loop_
_space_group_symop_operation_xyz
x,y,z
-x,-y,1/2+z
x,-y,1/2+z
-x,y,z
1/2+x,1/2+y,z
1/2-x,1/2-y,1/2+z
1/2+x,1/2-y,1/2+z
1/2-x,1/2+y,z
loop_
_atom_site_type_symbol
_atom_site_label
_atom_site_fract_x
_atom_site_fract_y
_atom_site_fract_z
Si Si1 0.894994 0.961564 0.346510
Si Si2 0.446252 0.126845 0.649926
Si Si3 0.695112 0.097970 0.255911
Si Si4 0.733860 0.890237 0.126052
Si Si5 0.340916 0.610064 0.544697
Si Si6 0.554958 0.363173 0.649732
Si Si7 0.177509 0.315004 0.428402
Si Si8 0.891396 0.501264 0.383020
O O1 0.878921 0.889343 0.194698
O O2 0.925865 0.890351 0.465685
O O3 0.848645 0.005442 0.440053
O O4 0.924204 0.061568 0.289967
O O5 0.500000 0.117274 0.589735
O O6 0.432855 0.244440 0.688725
O O7 0.437676 0.055565 0.812374
O O8 0.408886 0.081255 0.520526
O O9 0.711074 0.132668 0.442864
O O10 0.725402 0.003255 0.193111
O O11 0.639294 0.070264 0.255654
O O12 0.704095 0.184501 0.112085
O O13 0.789148 0.880819 0.116090
O O14 0.711913 0.814297 0.267132
O O15 0.350877 0.707979 0.424025
O O16 0.500000 0.380413 0.648823
O O17 0.144612 0.413716 0.441186
#
# Coordination Sequence:
#
# PCOD8176070 Si02
#       8
#     8   8   8   8   8   8   8   8
#     4  10  23  44  66  90 129 169 211 276 340 379
#     4  11  23  37  62  95 127 165 204 260 331 391
#     4  11  21  39  65  87 123 176 213 259 318 376
#     4  11  22  41  61  93 129 167 221 264 318 377
#     4  11  25  43  62  95 130 168 218 277 330 390
#     4  10  22  42  68  96 124 165 220 268 327 399
#     4  11  24  41  63  95 123 176 223 258 322 382
#     4  11  20  41  60  87 131 164 207 260 306 396
#
# _framework density 21.610690999999999
#
# number of rings (size 3 to 8) (size 9 to 14) (size 15 to 20)
#    0.000    1.250    3.750    3.000    3.500    0.000 
#    2.250    0.000    0.000    6.000    0.000    0.000 
#    0.000    0.000    0.000    0.000    0.000    0.000 
#
# Total GULP energy -396544.608277 kJ/mol
# GULP energy per Si atom -12392.019009 kJ/mol
# Density = 2.156150 g / cm^3
# Si number density = 21.610691 Si / 1000 Ang^3
#
#
#
# Elastic Constant Matrix: (Units=GPa)
#
#
# Indices 1 2 3 4 5 6 
#
# 1 93.1792 24.8640 21.2257 0.0000 0.0000 0.0000
# 2 24.8640 52.0335 15.3423 0.0000 0.0000 0.0000
# 3 21.2257 15.3423 110.7777 0.0000 0.0000 0.0000
# 4 0.0000 0.0000 0.0000 30.6624 0.0000 0.0000
# 5 0.0000 0.0000 0.0000 0.0000 30.5966 0.0000
# 6 0.0000 0.0000 0.0000 0.0000 0.0000 16.2833
#
#
#
# Elastic Compliance Matrix: (Units=1/GPa)
#
#
# Indices 1 2 3 4 5 6 
#
# 1 0.012582 -0.005527 -0.001645 0.000000 0.000000 0.000000
# 2 -0.005527 0.022465 -0.002052 0.000000 0.000000 0.000000
# 3 -0.001645 -0.002052 0.009627 0.000000 0.000000 0.000000
# 4 0.000000 0.000000 0.000000 0.032613 0.000000 0.000000
# 5 0.000000 0.000000 0.000000 0.000000 0.032683 0.000000
# 6 0.000000 0.000000 0.000000 0.000000 0.000000 0.061413
#
#
# Mechanical properties :
#
#
# Convention : Reuss Voigt Hill
#
# Bulk Modulus (GPa) = 38.13335 42.09493 40.11414
# Shear Modulus (GPa) = 25.17979 28.47904 26.82941
#
# Velocity S-wave (km/s) = 3.41714 3.63412 3.52730
# Velocity P-wave (km/s) = 5.76654 6.09345 5.93225
#
# Compressibility (1/GPa) = 0.02622377
#
# Stress axis : x y z
#
# Youngs Moduli (GPa) = 79.48119 44.51463 103.87926
#
# Poissons Ratio (x) = 0.24603 0.17091
# Poissons Ratio (y) = 0.43929 0.21319
# Poissons Ratio (z) = 0.13077 0.09136
#
# Static dielectric constant tensor:
#      x y z
#    x 3.833220 0.000000 0.000000 
#    y 0.000000 4.026920 0.000000 
#    z 0.000000 0.000000 4.207550 
# 
# 
# High freq. dielectric constant tensor:
#      x y z
#    x 1.841470 0.000000 0.000000 
#    y 0.000000 1.852400 0.000000 
#    z 0.000000 0.000000 1.858290 
# 
# From -- ./inp_files/6075.got.cif
#   From: 2010.03.12/outbox.cif.g09.slc.cpg/sg36_4_cif.got.tgz:6075.got - 2010.04.14 02:13:53.
