data_PCOD8176129
_publ_section_title
;
Structure prediction by ZEFSAII (Michael W. Deem and Ramdas Pophale) SiO2 
 PCOD8176129
Probable space group: C M C 21
;
_chemical_formula_sum "Si O2"
_cell_formula_units_Z 60
_cell_length_a 30.226835
_cell_length_b 16.755399
_cell_length_c 5.278428
_cell_angle_alpha 90.000000
_cell_angle_beta 90.000000
_cell_angle_gamma 90.000000
_cell_volume 2673.326796
_symmetry_space_group_name_H-M "C M C 21"
_symmetry_group_IT_number 36
_symmetry_cell_setting 'orthorhombic'
loop_
_space_group_symop_operation_xyz
x,y,z
-x,-y,1/2+z
x,-y,1/2+z
-x,y,z
1/2+x,1/2+y,z
1/2-x,1/2-y,1/2+z
1/2+x,1/2-y,1/2+z
1/2-x,1/2+y,z
loop_
_atom_site_type_symbol
_atom_site_label
_atom_site_fract_x
_atom_site_fract_y
_atom_site_fract_z
Si Si1 0.630449 0.330790 0.970920
Si Si2 0.905726 0.551972 0.536192
Si Si3 0.155428 0.324346 0.238766
Si Si4 0.696208 0.286654 0.354157
Si Si5 0.500000 0.047554 0.448229
Si Si6 0.226914 0.360592 0.580965
Si Si7 0.202558 0.049800 0.312819
Si Si8 0.550865 0.448857 0.973731
O O1 0.623101 0.239427 0.875354
O O2 0.667051 0.376774 0.795162
O O3 0.649912 0.323768 0.255957
O O4 0.582901 0.372651 0.974921
O O5 0.899065 0.493148 0.302016
O O6 0.870976 0.623690 0.532773
O O7 0.954467 0.593314 0.514749
O O8 0.182066 0.385360 0.430510
O O9 0.191377 0.273165 0.088949
O O10 0.728808 0.361125 0.404722
O O11 0.718453 0.232403 0.137762
O O12 0.500000 0.026963 0.148664
O O13 0.245127 0.419503 0.803246
O O14 0.193165 0.009414 0.581336
O O15 0.560962 0.500444 0.222799
O O16 0.500000 0.418887 0.974480
#
# Coordination Sequence:
#
# PCOD8176129 Si02
#       8
#     8   8   8   8   4   8   8   8
#     4  11  24  41  65  98 133 173 229 279 325 410
#     4  10  23  43  67  97 129 165 213 262 330 404
#     4  11  25  39  68  92 131 179 218 279 338 388
#     4  11  21  40  65  87 124 179 221 270 337 387
#     4   8  16  38  68  88 120 162 194 244 312 398
#     4  11  22  40  60  86 127 176 222 271 322 401
#     4  12  26  40  62  94 128 174 226 277 324 376
#     4  10  23  44  72 100 136 182 219 272 346 401
#
# _framework density 22.443946
#
# number of rings (size 3 to 8) (size 9 to 14) (size 15 to 20)
#    0.000    1.333    2.667    2.400    7.467    1.067 
#    1.200    0.000    1.467    0.000    0.000    0.000 
#    0.000    0.000    0.000    0.000    0.000    0.000 
#
# Total GULP energy -371658.801151 kJ/mol
# GULP energy per Si atom -12388.626705 kJ/mol
# Density = 2.239286 g / cm^3
# Si number density = 22.443946 Si / 1000 Ang^3
#
#
#
# Elastic Constant Matrix: (Units=GPa)
#
#
# Indices 1 2 3 4 5 6 
#
# 1 82.0890 24.0670 12.1909 0.0000 0.0000 0.0000
# 2 24.0670 44.8312 13.2902 0.0000 0.0000 0.0000
# 3 12.1909 13.2902 103.4149 0.0000 0.0000 0.0000
# 4 0.0000 0.0000 0.0000 22.0020 0.0000 0.0000
# 5 0.0000 0.0000 0.0000 0.0000 22.8557 0.0000
# 6 0.0000 0.0000 0.0000 0.0000 0.0000 42.7510
#
#
#
# Elastic Compliance Matrix: (Units=1/GPa)
#
#
# Indices 1 2 3 4 5 6 
#
# 1 0.014511 -0.007572 -0.000738 0.000000 0.000000 0.000000
# 2 -0.007572 0.027140 -0.002595 0.000000 0.000000 0.000000
# 3 -0.000738 -0.002595 0.010090 0.000000 0.000000 0.000000
# 4 0.000000 0.000000 0.000000 0.045450 0.000000 0.000000
# 5 0.000000 0.000000 0.000000 0.000000 0.043753 0.000000
# 6 0.000000 0.000000 0.000000 0.000000 0.000000 0.023391
#
#
# Mechanical properties :
#
#
# Convention : Reuss Voigt Hill
#
# Bulk Modulus (GPa) = 33.40830 36.60347 35.00588
# Shear Modulus (GPa) = 25.49431 29.57421 27.53426
#
# Velocity S-wave (km/s) = 3.37398 3.63394 3.50637
# Velocity P-wave (km/s) = 5.48597 5.82680 5.65895
#
# Compressibility (1/GPa) = 0.02993268
#
# Stress axis : x y z
#
# Youngs Moduli (GPa) = 68.91195 36.84604 99.10540
#
# Poissons Ratio (x) = 0.27898 0.07310
# Poissons Ratio (y) = 0.52177 0.25721
# Poissons Ratio (z) = 0.05083 0.09563
#
# Static dielectric constant tensor:
#      x y z
#    x 4.136060 0.000000 0.000000 
#    y 0.000000 3.896710 0.000000 
#    z 0.000000 0.000000 4.220140 
# 
# 
# High freq. dielectric constant tensor:
#      x y z
#    x 1.876600 0.000000 0.000000 
#    y 0.000000 1.859270 0.000000 
#    z 0.000000 0.000000 1.902180 
# 
# From -- ./inp_files/1773.got.cif
#   From: 2010.03.12/outbox.cif.g09.slc.cpg/sg36_1_cif.got.tgz:1773.got - 2010.04.14 02:13:53.
