data_PCOD8176784
_publ_section_title
;
Structure prediction by ZEFSAII (Michael W. Deem and Ramdas Pophale) SiO2 
 PCOD8176784
Probable space group: C C C 2
;
_chemical_formula_sum "Si O2"
_cell_formula_units_Z 32
_cell_length_a 7.533004
_cell_length_b 30.558654
_cell_length_c 5.383377
_cell_angle_alpha 90.000000
_cell_angle_beta 90.000000
_cell_angle_gamma 90.000000
_cell_volume 1239.245110
_symmetry_space_group_name_H-M "C C C 2"
_symmetry_group_IT_number 37
_symmetry_cell_setting 'orthorhombic'
loop_
_space_group_symop_operation_xyz
x,y,z
-x,-y,z
-x,y,1/2+z
x,-y,1/2+z
1/2+x,1/2+y,z
1/2-x,1/2-y,z
1/2-x,1/2+y,1/2+z
1/2+x,1/2-y,1/2+z
loop_
_atom_site_type_symbol
_atom_site_label
_atom_site_fract_x
_atom_site_fract_y
_atom_site_fract_z
Si Si1 0.589677 0.667157 0.553460
Si Si2 0.201411 0.981992 0.059970
Si Si3 0.887767 0.605375 0.590202
Si Si4 0.547338 0.762760 0.038984
O O1 0.512316 0.648173 0.295250
O O2 0.794631 0.652902 0.575899
O O3 0.579053 0.719831 0.554309
O O4 0.225886 0.929713 0.072891
O O5 0.296526 0.998094 0.805570
O O6 0.000000 0.000000 0.051738
O O7 0.982442 0.599846 0.855906
O O8 0.511444 0.789949 0.293031
O O9 0.750000 0.750000 0.018739
#
# Coordination Sequence:
#
# PCOD8176784 Si02
#       4
#     8   8   8   8
#     4  10  23  43  69  95 134 182 220 270 334 401
#     4  10  23  40  65  97 126 182 226 269 335 402
#     4  12  26  43  68 101 135 174 226 287 336 392
#     4  10  21  42  67 103 131 175 222 271 329 402
#
# _framework density 25.822172999999999
#
# number of rings (size 3 to 8) (size 9 to 14) (size 15 to 20)
#    0.000    1.500    0.000    3.750    7.000    3.000 
#    0.000   30.000    0.000    0.000    0.000    0.000 
#    0.000    0.000    0.000    0.000    0.000    0.000 
#
# Total GULP energy -198239.044924 kJ/mol
# GULP energy per Si atom -12389.940308 kJ/mol
# Density = 2.576340 g / cm^3
# Si number density = 25.822173 Si / 1000 Ang^3
#
#
#
# Elastic Constant Matrix: (Units=GPa)
#
#
# Indices 1 2 3 4 5 6 
#
# 1 67.4841 13.4455 13.2338 0.0000 0.0000 0.0000
# 2 13.4455 66.2258 -26.1917 0.0000 0.0000 0.0000
# 3 13.2338 -26.1917 261.5919 0.0000 0.0000 0.0000
# 4 0.0000 0.0000 0.0000 16.5296 0.0000 0.0000
# 5 0.0000 0.0000 0.0000 0.0000 30.9027 0.0000
# 6 0.0000 0.0000 0.0000 0.0000 0.0000 51.7578
#
#
#
# Elastic Compliance Matrix: (Units=1/GPa)
#
#
# Indices 1 2 3 4 5 6 
#
# 1 0.015777 -0.003664 -0.001165 0.000000 0.000000 0.000000
# 2 -0.003664 0.016573 0.001845 0.000000 0.000000 0.000000
# 3 -0.001165 0.001845 0.004066 0.000000 0.000000 0.000000
# 4 0.000000 0.000000 0.000000 0.060497 0.000000 0.000000
# 5 0.000000 0.000000 0.000000 0.000000 0.032360 0.000000
# 6 0.000000 0.000000 0.000000 0.000000 0.000000 0.019321
#
#
# Mechanical properties :
#
#
# Convention : Reuss Voigt Hill
#
# Bulk Modulus (GPa) = 32.84258 44.03081 38.43669
# Shear Modulus (GPa) = 30.35604 46.15896 38.25750
#
# Velocity S-wave (km/s) = 3.43239 4.23255 3.85330
# Velocity P-wave (km/s) = 5.33430 6.40114 5.89192
#
# Compressibility (1/GPa) = 0.03044828
#
# Stress axis : x y z
#
# Youngs Moduli (GPa) = 63.38445 60.33813 245.91862
#
# Poissons Ratio (x) = 0.22107 0.28649
# Poissons Ratio (y) = 0.23223 -0.45365
# Poissons Ratio (z) = 0.07384 -0.11131
#
# Static dielectric constant tensor:
#      x y z
#    x 4.311130 0.000000 0.000000 
#    y 0.000000 4.414540 0.000000 
#    z 0.000000 0.000000 7.158180 
# 
# 
# High freq. dielectric constant tensor:
#      x y z
#    x 2.020020 0.000000 0.000000 
#    y 0.000000 1.999790 0.000000 
#    z 0.000000 0.000000 2.084200 
# 
# From -- ./inp_files/170.got.cif
#   From: 2010.03.12/outbox.cif.g09.slc.cpg/sg37_1_cif.got.tgz:170.got - 2010.04.14 02:25:27.
