data_PCOD8176198
_publ_section_title
;
Structure prediction by ZEFSAII (Michael W. Deem and Ramdas Pophale) SiO2 
 PCOD8176198
Probable space group: C M C 21
;
_chemical_formula_sum "Si O2"
_cell_formula_units_Z 64
_cell_length_a 9.197749
_cell_length_b 23.216570
_cell_length_c 17.353023
_cell_angle_alpha 90.000000
_cell_angle_beta 90.000000
_cell_angle_gamma 90.000000
_cell_volume 3705.567716
_symmetry_space_group_name_H-M "C M C 21"
_symmetry_group_IT_number 36
_symmetry_cell_setting 'orthorhombic'
loop_
_space_group_symop_operation_xyz
x,y,z
-x,-y,1/2+z
x,-y,1/2+z
-x,y,z
1/2+x,1/2+y,z
1/2-x,1/2-y,1/2+z
1/2+x,1/2-y,1/2+z
1/2-x,1/2+y,z
loop_
_atom_site_type_symbol
_atom_site_label
_atom_site_fract_x
_atom_site_fract_y
_atom_site_fract_z
Si Si1 0.334573 0.726974 0.488290
Si Si2 0.330163 0.565663 0.405531
Si Si3 0.828935 0.936976 0.363335
Si Si4 0.827930 0.382413 0.220672
Si Si5 0.670406 0.832721 0.850383
Si Si6 0.839263 0.221614 0.775083
Si Si7 0.339674 0.672906 0.946660
Si Si8 0.835161 0.115098 0.570536
O O1 0.500000 0.733971 0.459763
O O2 0.240160 0.696055 0.424482
O O3 0.268291 0.791072 0.502914
O O4 0.326578 0.685086 0.562394
O O5 0.500000 0.576444 0.392664
O O6 0.285110 0.500002 0.391642
O O7 0.245371 0.604626 0.342015
O O8 0.285316 0.583089 0.492309
O O9 0.740012 0.922338 0.286595
O O10 0.787627 0.893061 0.433107
O O11 0.000000 0.931194 0.344167
O O12 0.778598 0.315627 0.229025
O O13 0.771474 0.405422 0.138388
O O14 0.000000 0.386298 0.224623
O O15 0.500000 0.840914 0.864192
O O16 0.698819 0.790341 0.776653
O O17 0.842609 0.201885 0.863206
O O18 0.000000 0.211737 0.738506
O O19 0.500000 0.674273 0.984295
O O20 0.000000 0.096945 0.591005
#
# Coordination Sequence:
#
# PCOD8176198 Si02
#       8
#     8   8   8   8   8   8   8   8
#     4   9  16  26  43  66  90 117 149 183 223 275
#     4   9  18  32  51  72  93 125 168 203 234 282
#     4   9  18  33  50  69  96 129 163 198 238 286
#     4  11  21  30  46  72  96 122 159 201 242 285
#     4   9  16  26  43  67  93 118 144 182 232 275
#     4   8  15  28  44  63  90 122 148 176 226 283
#     4   8  14  25  43  66  91 117 144 181 229 272
#     4   9  18  32  48  67  93 124 157 196 244 294
#
# _framework density 17.271308999999999
#
# number of rings (size 3 to 8) (size 9 to 14) (size 15 to 20)
#    0.000    3.000    0.000    4.125    0.000    8.000 
#    0.000    0.000    0.000    1.500    0.000    5.250 
#    0.000    0.000    0.000    0.000    0.000    0.000 
#
# Total GULP energy -396475.316138 kJ/mol
# GULP energy per Si atom -12389.853629 kJ/mol
# Density = 1.723200 g / cm^3
# Si number density = 17.271309 Si / 1000 Ang^3
#
#
#
# Elastic Constant Matrix: (Units=GPa)
#
#
# Indices 1 2 3 4 5 6 
#
# 1 92.0256 56.2845 36.4142 0.0000 0.0000 0.0000
# 2 56.2845 140.7561 35.7861 0.0000 0.0000 0.0000
# 3 36.4142 35.7861 50.5513 0.0000 0.0000 0.0000
# 4 0.0000 0.0000 0.0000 14.2680 0.0000 0.0000
# 5 0.0000 0.0000 0.0000 0.0000 19.7358 0.0000
# 6 0.0000 0.0000 0.0000 0.0000 0.0000 25.4920
#
#
#
# Elastic Compliance Matrix: (Units=1/GPa)
#
#
# Indices 1 2 3 4 5 6 
#
# 1 0.017321 -0.004578 -0.009236 0.000000 0.000000 0.000000
# 2 -0.004578 0.009874 -0.003692 0.000000 0.000000 0.000000
# 3 -0.009236 -0.003692 0.029049 0.000000 0.000000 0.000000
# 4 0.000000 0.000000 0.000000 0.070087 0.000000 0.000000
# 5 0.000000 0.000000 0.000000 0.000000 0.050669 0.000000
# 6 0.000000 0.000000 0.000000 0.000000 0.000000 0.039228
#
#
# Mechanical properties :
#
#
# Convention : Reuss Voigt Hill
#
# Bulk Modulus (GPa) = 47.10087 60.03361 53.56724
# Shear Modulus (GPa) = 19.35595 22.22237 20.78916
#
# Velocity S-wave (km/s) = 3.35132 3.59090 3.47318
# Velocity P-wave (km/s) = 6.50427 7.21300 6.86778
#
# Compressibility (1/GPa) = 0.02123103
#
# Stress axis : x y z
#
# Youngs Moduli (GPa) = 57.73217 101.27812 34.42471
#
# Poissons Ratio (x) = 0.46366 0.31796
# Poissons Ratio (y) = 0.26430 0.12710
# Poissons Ratio (z) = 0.53324 0.37392
#
# Static dielectric constant tensor:
#      x y z
#    x 3.342650 0.000000 0.000000 
#    y 0.000000 3.907940 0.000000 
#    z 0.000000 0.000000 2.888750 
# 
# 
# High freq. dielectric constant tensor:
#      x y z
#    x 1.667330 0.000000 0.000000 
#    y 0.000000 1.664900 0.000000 
#    z 0.000000 0.000000 1.618100 
# 
# From -- ./inp_files/14078.got.cif
#   From: 2010.03.12/outbox.cif.g09.slc.cpg/sg36_8_cif.got.tgz:14078.got - 2010.04.14 02:13:53.
