data_PCOD8176346
_publ_section_title
;
Structure prediction by ZEFSAII (Michael W. Deem and Ramdas Pophale) SiO2 
 PCOD8176346
Probable space group: C M C 21
;
_chemical_formula_sum "Si O2"
_cell_formula_units_Z 56
_cell_length_a 13.877007
_cell_length_b 24.001016
_cell_length_c 9.779590
_cell_angle_alpha 90.000000
_cell_angle_beta 90.000000
_cell_angle_gamma 90.000000
_cell_volume 3257.212416
_symmetry_space_group_name_H-M "C M C 21"
_symmetry_group_IT_number 36
_symmetry_cell_setting 'orthorhombic'
loop_
_space_group_symop_operation_xyz
x,y,z
-x,-y,1/2+z
x,-y,1/2+z
-x,y,z
1/2+x,1/2+y,z
1/2-x,1/2-y,1/2+z
1/2+x,1/2-y,1/2+z
1/2-x,1/2+y,z
loop_
_atom_site_type_symbol
_atom_site_label
_atom_site_fract_x
_atom_site_fract_y
_atom_site_fract_z
Si Si1 0.708477 0.453531 0.430680
Si Si2 0.500000 0.469525 0.469016
Si Si3 0.891436 0.754258 0.406097
Si Si4 0.211219 0.059541 0.240223
Si Si5 0.783125 0.675216 0.221473
Si Si6 0.889476 0.255548 0.218723
Si Si7 0.779025 0.334921 0.404578
Si Si8 0.500000 0.440944 0.760337
O O1 0.595276 0.436648 0.419398
O O2 0.730221 0.509656 0.346238
O O3 0.732107 0.465147 0.589662
O O4 0.770052 0.401163 0.375936
O O5 0.500000 0.483052 0.630512
O O6 0.500000 0.530364 0.405925
O O7 0.869524 0.704175 0.302149
O O8 0.876852 0.730575 0.558879
O O9 0.823653 0.806604 0.373049
O O10 0.000000 0.775055 0.383321
O O11 0.281291 0.111062 0.271432
O O12 0.103805 0.089208 0.247883
O O13 0.681300 0.704834 0.258090
O O14 0.807074 0.677655 0.060922
O O15 0.861081 0.310421 0.305437
O O16 0.000000 0.238651 0.252456
#
# Coordination Sequence:
#
# PCOD8176346 Si02
#       8
#     8   4   8   8   8   8   8   4
#     4   9  17  28  44  66  93 124 154 186 226 272
#     4   8  14  24  38  58  86 118 150 178 211 260
#     4   9  18  32  50  70  93 123 157 193 233 276
#     4   9  17  28  44  66  93 124 154 186 226 272
#     4   9  18  31  48  71  96 123 156 191 231 277
#     4   9  18  32  50  70  93 123 157 193 233 276
#     4   9  18  31  48  71  96 123 156 191 231 277
#     4   8  14  24  38  58  86 118 150 178 211 260
#
# _framework density 17.192613999999999
#
# number of rings (size 3 to 8) (size 9 to 14) (size 15 to 20)
#    0.000    3.143    0.000    0.000    2.000    1.714 
#    0.000    0.000    0.000    0.857    0.000    0.000 
#    0.000    0.000    0.000    0.000    0.000    0.000 
#
# Total GULP energy -346878.841739 kJ/mol
# GULP energy per Si atom -12388.530062 kJ/mol
# Density = 1.715348 g / cm^3
# Si number density = 17.192614 Si / 1000 Ang^3
#
#
#
# Elastic Constant Matrix: (Units=GPa)
#
#
# Indices 1 2 3 4 5 6 
#
# 1 47.4617 11.4417 17.7201 0.0000 0.0000 0.0000
# 2 11.4417 77.8042 33.6079 0.0000 0.0000 0.0000
# 3 17.7201 33.6079 54.1058 0.0000 0.0000 0.0000
# 4 0.0000 0.0000 0.0000 27.9391 0.0000 0.0000
# 5 0.0000 0.0000 0.0000 0.0000 24.5188 0.0000
# 6 0.0000 0.0000 0.0000 0.0000 0.0000 18.5657
#
#
#
# Elastic Compliance Matrix: (Units=1/GPa)
#
#
# Indices 1 2 3 4 5 6 
#
# 1 0.024007 -0.000183 -0.007749 0.000000 0.000000 0.000000
# 2 -0.000183 0.017567 -0.010852 0.000000 0.000000 0.000000
# 3 -0.007749 -0.010852 0.027761 0.000000 0.000000 0.000000
# 4 0.000000 0.000000 0.000000 0.035792 0.000000 0.000000
# 5 0.000000 0.000000 0.000000 0.000000 0.040785 0.000000
# 6 0.000000 0.000000 0.000000 0.000000 0.000000 0.053863
#
#
# Mechanical properties :
#
#
# Convention : Reuss Voigt Hill
#
# Bulk Modulus (GPa) = 31.47904 33.87903 32.67903
# Shear Modulus (GPa) = 20.16689 21.97820 21.07254
#
# Velocity S-wave (km/s) = 3.42862 3.57928 3.50476
# Velocity P-wave (km/s) = 5.83295 6.06878 5.95203
#
# Compressibility (1/GPa) = 0.03176717
#
# Stress axis : x y z
#
# Youngs Moduli (GPa) = 41.65492 56.92406 36.02218
#
# Poissons Ratio (x) = 0.01044 0.27912
# Poissons Ratio (y) = 0.00764 0.39091
# Poissons Ratio (z) = 0.32276 0.61773
#
# Static dielectric constant tensor:
#      x y z
#    x 3.125270 0.000000 0.000000 
#    y 0.000000 2.984250 0.000000 
#    z 0.000000 0.000000 3.255980 
# 
# 
# High freq. dielectric constant tensor:
#      x y z
#    x 1.641640 0.000000 0.000000 
#    y 0.000000 1.642070 0.000000 
#    z 0.000000 0.000000 1.665710 
# 
# From -- ./inp_files/7864.got.cif
#   From: 2010.03.12/outbox.cif.g09.slc.cpg/sg36_4_cif.got.tgz:7864.got - 2010.04.14 02:13:53.
