data_PCOD8176713
_publ_section_title
;
Structure prediction by ZEFSAII (Michael W. Deem and Ramdas Pophale) SiO2 
 PCOD8176713
Probable space group: C C C 2
;
_chemical_formula_sum "Si O2"
_cell_formula_units_Z 60
_cell_length_a 13.135782
_cell_length_b 25.545716
_cell_length_c 8.798271
_cell_angle_alpha 90.000000
_cell_angle_beta 90.000000
_cell_angle_gamma 90.000000
_cell_volume 2952.373828
_symmetry_space_group_name_H-M "C C C 2"
_symmetry_group_IT_number 37
_symmetry_cell_setting 'orthorhombic'
loop_
_space_group_symop_operation_xyz
x,y,z
-x,-y,z
-x,y,1/2+z
x,-y,1/2+z
1/2+x,1/2+y,z
1/2-x,1/2-y,z
1/2-x,1/2+y,1/2+z
1/2+x,1/2-y,1/2+z
loop_
_atom_site_type_symbol
_atom_site_label
_atom_site_fract_x
_atom_site_fract_y
_atom_site_fract_z
Si Si1 0.129737 0.658761 0.179530
Si Si2 0.250000 0.250000 0.558216
Si Si3 0.564197 0.134818 0.853000
Si Si4 0.628025 0.597759 0.167735
Si Si5 0.239135 0.805430 0.765291
Si Si6 0.550083 0.445082 0.353396
Si Si7 0.251706 0.943053 0.176288
Si Si8 0.692815 0.959787 0.330799
O O1 0.171661 0.718415 0.166505
O O2 0.220888 0.617476 0.208797
O O3 0.048472 0.654009 0.313721
O O4 0.068016 0.642082 0.032013
O O5 0.201163 0.206464 0.441297
O O6 0.649509 0.168989 0.769340
O O7 0.588214 0.073491 0.817054
O O8 0.659069 0.658803 0.176940
O O9 0.534609 0.592140 0.282337
O O10 0.722998 0.562709 0.216197
O O11 0.598317 0.583407 0.997441
O O12 0.250000 0.750000 0.676615
O O13 0.500000 0.500000 0.401871
O O14 0.635982 0.454340 0.225724
O O15 0.326364 0.980519 0.277072
O O16 0.261443 0.957152 0.999668
#
# Coordination Sequence:
#
# PCOD8176713 Si02
#       8
#     8   4   8   8   8   8   8   8
#     4  10  21  40  64  93 122 162 210 260 317 376
#     4   8  18  42  66  84 126 166 212 270 326 372
#     4   9  20  38  64  88 119 157 204 258 314 375
#     4  11  22  38  60  90 128 164 213 254 317 386
#     4   8  18  41  62  87 116 166 204 266 322 368
#     4  12  24  38  60  96 131 174 208 259 317 386
#     4  11  23  39  62  90 129 168 210 258 311 379
#     4  10  21  38  59  89 124 167 205 254 311 372
#
# _framework density 20.32263
#
# number of rings (size 3 to 8) (size 9 to 14) (size 15 to 20)
#    0.400    1.600    1.333    2.800    0.000    3.733 
#    4.800    2.667    2.933    0.000    0.000    0.000 
#    0.000    0.000    0.000    0.000    0.000    0.000 
#
# Total GULP energy -371830.184839 kJ/mol
# GULP energy per Si atom -12394.339495 kJ/mol
# Density = 2.027637 g / cm^3
# Si number density = 20.322630 Si / 1000 Ang^3
#
#
#
# Elastic Constant Matrix: (Units=GPa)
#
#
# Indices 1 2 3 4 5 6 
#
# 1 68.0224 39.5583 28.4544 0.0000 0.0000 0.0000
# 2 39.5583 127.7856 31.1622 0.0000 0.0000 0.0000
# 3 28.4544 31.1622 73.2831 0.0000 0.0000 0.0000
# 4 0.0000 0.0000 0.0000 30.7930 0.0000 0.0000
# 5 0.0000 0.0000 0.0000 0.0000 29.8128 0.0000
# 6 0.0000 0.0000 0.0000 0.0000 0.0000 31.8351
#
#
#
# Elastic Compliance Matrix: (Units=1/GPa)
#
#
# Indices 1 2 3 4 5 6 
#
# 1 0.019845 -0.004758 -0.005682 0.000000 0.000000 0.000000
# 2 -0.004758 0.009872 -0.002350 0.000000 0.000000 0.000000
# 3 -0.005682 -0.002350 0.016851 0.000000 0.000000 0.000000
# 4 0.000000 0.000000 0.000000 0.032475 0.000000 0.000000
# 5 0.000000 0.000000 0.000000 0.000000 0.033543 0.000000
# 6 0.000000 0.000000 0.000000 0.000000 0.000000 0.031412
#
#
# Mechanical properties :
#
#
# Convention : Reuss Voigt Hill
#
# Bulk Modulus (GPa) = 47.64788 51.93787 49.79288
# Shear Modulus (GPa) = 28.31683 29.81595 29.06639
#
# Velocity S-wave (km/s) = 3.73683 3.83447 3.78596
# Velocity P-wave (km/s) = 6.48962 6.72431 6.60801
#
# Compressibility (1/GPa) = 0.02098729
#
# Stress axis : x y z
#
# Youngs Moduli (GPa) = 50.39120 101.30079 59.34195
#
# Poissons Ratio (x) = 0.48195 0.33720
# Poissons Ratio (y) = 0.23974 0.13948
# Poissons Ratio (z) = 0.28633 0.23810
#
# Static dielectric constant tensor:
#      x y z
#    x 3.479010 0.000000 0.000000 
#    y 0.000000 3.972580 0.000000 
#    z 0.000000 0.000000 3.537410 
# 
# 
# High freq. dielectric constant tensor:
#      x y z
#    x 1.774800 0.000000 0.000000 
#    y 0.000000 1.798470 0.000000 
#    z 0.000000 0.000000 1.785280 
# 
# From -- ./inp_files/3045.got.cif
#   From: 2010.03.12/outbox.cif.g09.slc.cpg/sg37_2_cif.got.tgz:3045.got - 2010.04.14 02:25:27.
