data_PCOD8176509
_publ_section_title
;
Structure prediction by ZEFSAII (Michael W. Deem and Ramdas Pophale) SiO2 
 PCOD8176509
Probable space group: C C C 2
;
_chemical_formula_sum "Si O2"
_cell_formula_units_Z 56
_cell_length_a 14.506061
_cell_length_b 18.468946
_cell_length_c 9.888776
_cell_angle_alpha 90.000000
_cell_angle_beta 90.000000
_cell_angle_gamma 90.000000
_cell_volume 2649.318367
_symmetry_space_group_name_H-M "C C C 2"
_symmetry_group_IT_number 37
_symmetry_cell_setting 'orthorhombic'
loop_
_space_group_symop_operation_xyz
x,y,z
-x,-y,z
-x,y,1/2+z
x,-y,1/2+z
1/2+x,1/2+y,z
1/2-x,1/2-y,z
1/2-x,1/2+y,1/2+z
1/2+x,1/2-y,1/2+z
loop_
_atom_site_type_symbol
_atom_site_label
_atom_site_fract_x
_atom_site_fract_y
_atom_site_fract_z
Si Si1 0.558342 0.391531 0.535810
Si Si2 0.511051 0.740170 0.680630
Si Si3 0.171280 0.552009 0.999447
Si Si4 0.127909 0.044178 0.562383
Si Si5 0.147954 0.583197 0.306526
Si Si6 0.339012 0.350306 0.783659
Si Si7 0.526463 0.832887 0.417064
O O1 0.541824 0.334997 0.655529
O O2 0.624223 0.457549 0.580191
O O3 0.460417 0.423942 0.483430
O O4 0.608500 0.344351 0.424032
O O5 0.621090 0.719896 0.701691
O O6 0.503306 0.800059 0.563399
O O7 0.456235 0.767936 0.812515
O O8 0.279533 0.570800 0.987539
O O9 0.158759 0.476446 0.922917
O O10 0.114641 0.615101 0.925992
O O11 0.140324 0.546018 0.157667
O O12 0.129732 0.074336 0.714946
O O13 0.228749 0.644720 0.304454
O O14 0.056341 0.624251 0.346890
#
# Coordination Sequence:
#
# PCOD8176509 Si02
#       7
#     8   8   8   8   8   8   8
#     4  10  19  40  67  98 131 175 226 288 344 410
#     4  11  24  44  69  99 138 186 232 276 358 418
#     4  11  24  45  68 105 133 182 234 291 345 416
#     4   9  21  38  66 101 132 174 224 294 350 403
#     4  11  25  44  72  99 137 186 237 293 345 406
#     4  10  21  43  68  97 137 180 236 282 350 422
#     4  12  25  45  68  98 141 187 231 284 344 426
#
# _framework density 21.137511
#
# number of rings (size 3 to 8) (size 9 to 14) (size 15 to 20)
#    0.000    1.429    4.286    0.429    2.000    6.286 
#    2.571    0.000    3.143    0.000    0.000    0.000 
#    0.000    0.000    0.000    0.000    0.000    0.000 
#
# Total GULP energy -346976.470776 kJ/mol
# GULP energy per Si atom -12392.016813 kJ/mol
# Density = 2.108940 g / cm^3
# Si number density = 21.137511 Si / 1000 Ang^3
#
#
#
# Elastic Constant Matrix: (Units=GPa)
#
#
# Indices 1 2 3 4 5 6 
#
# 1 131.9360 52.7235 45.9192 0.0000 0.0000 0.0000
# 2 52.7235 72.6973 38.1195 0.0000 0.0000 0.0000
# 3 45.9192 38.1195 102.3654 0.0000 0.0000 0.0000
# 4 0.0000 0.0000 0.0000 40.5270 0.0000 0.0000
# 5 0.0000 0.0000 0.0000 0.0000 28.3030 0.0000
# 6 0.0000 0.0000 0.0000 0.0000 0.0000 46.3928
#
#
#
# Elastic Compliance Matrix: (Units=1/GPa)
#
#
# Indices 1 2 3 4 5 6 
#
# 1 0.011155 -0.006793 -0.002474 0.000000 0.000000 0.000000
# 2 -0.006793 0.021230 -0.004859 0.000000 0.000000 0.000000
# 3 -0.002474 -0.004859 0.012688 0.000000 0.000000 0.000000
# 4 0.000000 0.000000 0.000000 0.024675 0.000000 0.000000
# 5 0.000000 0.000000 0.000000 0.000000 0.035332 0.000000
# 6 0.000000 0.000000 0.000000 0.000000 0.000000 0.021555
#
#
# Mechanical properties :
#
#
# Convention : Reuss Voigt Hill
#
# Bulk Modulus (GPa) = 59.44769 64.50257 61.97513
# Shear Modulus (GPa) = 31.15390 34.39366 32.77378
#
# Velocity S-wave (km/s) = 3.84326 4.03816 3.94191
# Velocity P-wave (km/s) = 6.91951 7.23355 7.07827
#
# Compressibility (1/GPa) = 0.01682151
#
# Stress axis : x y z
#
# Youngs Moduli (GPa) = 89.64513 47.10387 78.81343
#
# Poissons Ratio (x) = 0.31996 0.19502
# Poissons Ratio (y) = 0.60893 0.38292
# Poissons Ratio (z) = 0.22182 0.22886
#
# Static dielectric constant tensor:
#      x y z
#    x 3.923720 0.000000 0.000000 
#    y 0.000000 4.021780 0.000000 
#    z 0.000000 0.000000 3.973330 
# 
# 
# High freq. dielectric constant tensor:
#      x y z
#    x 1.823680 0.000000 0.000000 
#    y 0.000000 1.834250 0.000000 
#    z 0.000000 0.000000 1.824040 
# 
# From -- ./inp_files/3637.got.cif
#   From: 2010.03.12/outbox.cif.g09.slc.cpg/sg37_2_cif.got.tgz:3637.got - 2010.04.14 02:25:27.
