data_PCOD8176118
_publ_section_title
;
Structure prediction by ZEFSAII (Michael W. Deem and Ramdas Pophale) SiO2 
 PCOD8176118
Probable space group: C M C 21
;
_chemical_formula_sum "Si O2"
_cell_formula_units_Z 48
_cell_length_a 28.339780
_cell_length_b 5.413508
_cell_length_c 13.191926
_cell_angle_alpha 90.000000
_cell_angle_beta 90.000000
_cell_angle_gamma 90.000000
_cell_volume 2023.873966
_symmetry_space_group_name_H-M "C M C 21"
_symmetry_group_IT_number 36
_symmetry_cell_setting 'orthorhombic'
loop_
_space_group_symop_operation_xyz
x,y,z
-x,-y,1/2+z
x,-y,1/2+z
-x,y,z
1/2+x,1/2+y,z
1/2-x,1/2-y,1/2+z
1/2+x,1/2-y,1/2+z
1/2-x,1/2+y,z
loop_
_atom_site_type_symbol
_atom_site_label
_atom_site_fract_x
_atom_site_fract_y
_atom_site_fract_z
Si Si1 0.857396 0.069590 0.565900
Si Si2 0.909666 0.944019 0.380985
Si Si3 0.000000 0.608103 0.609522
Si Si4 0.836413 0.766125 0.747276
Si Si5 0.221778 0.275871 0.437368
Si Si6 0.000000 0.110864 0.481331
Si Si7 0.911368 0.399026 0.706359
O O1 0.879690 0.878764 0.482953
O O2 0.824539 0.925741 0.646976
O O3 0.824911 0.268498 0.507025
O O4 0.903666 0.192054 0.619041
O O5 0.925082 0.702736 0.317913
O O6 0.955066 0.103890 0.408424
O O7 0.877736 0.104638 0.308382
O O8 0.000000 0.870841 0.554704
O O9 0.047608 0.591526 0.676772
O O10 0.000000 0.371509 0.537096
O O11 0.790643 0.727583 0.817247
O O12 0.858450 0.508028 0.712164
O O13 0.247816 0.531450 0.462431
#
# Coordination Sequence:
#
# PCOD8176118 Si02
#       7
#     8   8   4   8   8   4   8
#     4  10  23  45  70 100 137 187 233 290 362 425
#     4  10  23  42  67 100 139 189 233 292 349 422
#     4  12  27  43  70 107 140 190 238 292 337 420
#     4  10  25  43  74  98 143 183 238 292 365 424
#     4  11  28  47  71 106 140 178 235 294 359 433
#     4  12  25  43  68  99 144 186 242 284 347 410
#     4  11  24  43  71 103 145 192 237 298 350 427
#
# _framework density 23.716889999999999
#
# number of rings (size 3 to 8) (size 9 to 14) (size 15 to 20)
#    0.000    1.333    1.667    1.500   14.000    3.333 
#    0.000    0.000    0.000    0.000    0.000    0.000 
#    0.000    0.000    0.000    0.000    0.000    0.000 
#
# Total GULP energy -297520.258342 kJ/mol
# GULP energy per Si atom -12396.677431 kJ/mol
# Density = 2.366291 g / cm^3
# Si number density = 23.716890 Si / 1000 Ang^3
#
#
#
# Elastic Constant Matrix: (Units=GPa)
#
#
# Indices 1 2 3 4 5 6 
#
# 1 60.0638 -5.3151 19.4741 0.0000 0.0000 0.0000
# 2 -5.3151 61.9601 13.5471 0.0000 0.0000 0.0000
# 3 19.4741 13.5471 119.0475 0.0000 0.0000 0.0000
# 4 0.0000 0.0000 0.0000 19.8706 0.0000 0.0000
# 5 0.0000 0.0000 0.0000 0.0000 32.9141 0.0000
# 6 0.0000 0.0000 0.0000 0.0000 0.0000 28.1948
#
#
#
# Elastic Compliance Matrix: (Units=1/GPa)
#
#
# Indices 1 2 3 4 5 6 
#
# 1 0.017876 0.002228 -0.003178 0.000000 0.000000 0.000000
# 2 0.002228 0.016829 -0.002280 0.000000 0.000000 0.000000
# 3 -0.003178 -0.002280 0.009179 0.000000 0.000000 0.000000
# 4 0.000000 0.000000 0.000000 0.050326 0.000000 0.000000
# 5 0.000000 0.000000 0.000000 0.000000 0.030382 0.000000
# 6 0.000000 0.000000 0.000000 0.000000 0.000000 0.035468
#
#
# Mechanical properties :
#
#
# Convention : Reuss Voigt Hill
#
# Bulk Modulus (GPa) = 26.71907 32.94264 29.83085
# Shear Modulus (GPa) = 27.93393 30.42025 29.17709
#
# Velocity S-wave (km/s) = 3.43564 3.58528 3.51126
# Velocity P-wave (km/s) = 5.19889 5.57307 5.38923
#
# Compressibility (1/GPa) = 0.03742646
#
# Stress axis : x y z
#
# Youngs Moduli (GPa) = 55.93942 59.42132 108.94126
#
# Poissons Ratio (x) = -0.13241 0.34620
# Poissons Ratio (y) = -0.12465 0.24834
# Poissons Ratio (z) = 0.17777 0.13546
#
# Static dielectric constant tensor:
#      x y z
#    x 4.209010 0.000000 0.000000 
#    y 0.000000 4.085550 0.000000 
#    z 0.000000 0.000000 4.705240 
# 
# 
# High freq. dielectric constant tensor:
#      x y z
#    x 1.932350 0.000000 0.000000 
#    y 0.000000 1.923810 0.000000 
#    z 0.000000 0.000000 1.959760 
# 
# From -- ./inp_files/13087.got.cif
#   From: 2010.03.12/outbox.cif.g09.slc.cpg/sg36_7_cif.got.tgz:13087.got - 2010.04.14 02:13:53.
