data_PCOD8176689
_publ_section_title
;
Structure prediction by ZEFSAII (Michael W. Deem and Ramdas Pophale) SiO2 
 PCOD8176689
Probable space group: C C C 2
;
_chemical_formula_sum "Si O2"
_cell_formula_units_Z 56
_cell_length_a 29.827121
_cell_length_b 5.914996
_cell_length_c 14.570994
_cell_angle_alpha 90.000000
_cell_angle_beta 90.000000
_cell_angle_gamma 90.000000
_cell_volume 2570.721150
_symmetry_space_group_name_H-M "C C C 2"
_symmetry_group_IT_number 37
_symmetry_cell_setting 'orthorhombic'
loop_
_space_group_symop_operation_xyz
x,y,z
-x,-y,z
-x,y,1/2+z
x,-y,1/2+z
1/2+x,1/2+y,z
1/2-x,1/2-y,z
1/2-x,1/2+y,1/2+z
1/2+x,1/2-y,1/2+z
loop_
_atom_site_type_symbol
_atom_site_label
_atom_site_fract_x
_atom_site_fract_y
_atom_site_fract_z
Si Si1 0.431509 0.648653 0.022780
Si Si2 0.074441 0.744301 0.389301
Si Si3 0.676466 0.000480 0.639702
Si Si4 0.107257 0.170909 0.708393
Si Si5 0.000000 0.500000 0.482910
Si Si6 0.250000 0.250000 0.739478
Si Si7 0.350881 0.065891 0.442750
Si Si8 0.814401 0.126997 0.781838
O O1 0.414807 0.547872 0.120549
O O2 0.441439 0.446428 0.954281
O O3 0.389902 0.777378 0.979260
O O4 0.477356 0.795435 0.041684
O O5 0.067513 0.791538 0.281673
O O6 0.126398 0.660682 0.401006
O O7 0.040698 0.548438 0.414980
O O8 0.627735 0.912480 0.674773
O O9 0.710092 0.807666 0.671535
O O10 0.679060 0.018297 0.529113
O O11 0.691446 0.234194 0.686879
O O12 0.141169 0.016447 0.766262
O O13 0.270180 0.464323 0.798649
O O14 0.320713 0.198997 0.367327
#
# Coordination Sequence:
#
# PCOD8176689 Si02
#       8
#     8   8   8   8   4   4   8   8
#     4  10  21  40  59  90 125 163 207 267 317 391
#     4  11  20  40  61  94 120 164 208 271 313 386
#     4  10  21  41  60  90 127 165 209 268 313 392
#     4  10  21  36  67  89 118 163 215 258 323 375
#     4  10  24  38  58  86 134 164 208 260 324 382
#     4  10  24  40  60  90 138 168 206 266 332 380
#     4  10  21  37  68  92 119 164 220 261 324 383
#     4  11  20  41  66  96 127 168 215 272 320 398
#
# _framework density 21.783773
#
# number of rings (size 3 to 8) (size 9 to 14) (size 15 to 20)
#    0.000    1.714    2.857    1.714    0.000    0.571 
#    2.571    2.857    0.000    0.000    0.000    0.000 
#    0.000    0.000    0.000    0.000    0.000    0.000 
#
# Total GULP energy -346889.705931 kJ/mol
# GULP energy per Si atom -12388.918069 kJ/mol
# Density = 2.173419 g / cm^3
# Si number density = 21.783773 Si / 1000 Ang^3
#
#
#
# Elastic Constant Matrix: (Units=GPa)
#
#
# Indices 1 2 3 4 5 6 
#
# 1 75.2861 22.1230 41.7433 0.0000 0.0000 0.0000
# 2 22.1230 91.6360 43.4614 0.0000 0.0000 0.0000
# 3 41.7433 43.4614 150.9505 0.0000 0.0000 0.0000
# 4 0.0000 0.0000 0.0000 25.5423 0.0000 0.0000
# 5 0.0000 0.0000 0.0000 0.0000 14.4524 0.0000
# 6 0.0000 0.0000 0.0000 0.0000 0.0000 36.1670
#
#
#
# Elastic Compliance Matrix: (Units=1/GPa)
#
#
# Indices 1 2 3 4 5 6 
#
# 1 0.016012 -0.002045 -0.003839 0.000000 0.000000 0.000000
# 2 -0.002045 0.012900 -0.003149 0.000000 0.000000 0.000000
# 3 -0.003839 -0.003149 0.008593 0.000000 0.000000 0.000000
# 4 0.000000 0.000000 0.000000 0.039151 0.000000 0.000000
# 5 0.000000 0.000000 0.000000 0.000000 0.069193 0.000000
# 6 0.000000 0.000000 0.000000 0.000000 0.000000 0.027649
#
#
# Mechanical properties :
#
#
# Convention : Reuss Voigt Hill
#
# Bulk Modulus (GPa) = 51.44145 59.16978 55.30561
# Shear Modulus (GPa) = 25.24703 29.26866 27.25784
#
# Velocity S-wave (km/s) = 3.40808 3.66949 3.54120
# Velocity P-wave (km/s) = 6.25720 6.72122 6.49336
#
# Compressibility (1/GPa) = 0.01943958
#
# Stress axis : x y z
#
# Youngs Moduli (GPa) = 62.45219 77.52088 116.37499
#
# Poissons Ratio (x) = 0.15852 0.44679
# Poissons Ratio (y) = 0.12771 0.36642
# Poissons Ratio (z) = 0.23977 0.24408
#
# Static dielectric constant tensor:
#      x y z
#    x 4.028460 0.000000 0.000000 
#    y 0.000000 4.079590 0.000000 
#    z 0.000000 0.000000 3.944230 
# 
# 
# High freq. dielectric constant tensor:
#      x y z
#    x 1.844200 0.000000 0.000000 
#    y 0.000000 1.854750 0.000000 
#    z 0.000000 0.000000 1.849680 
# 
# From -- ./inp_files/9925.got.cif
#   From: 2010.03.12/outbox.cif.g09.slc.cpg/sg37_5_cif.got.tgz:9925.got - 2010.04.14 02:25:27.
