data_PCOD8176153
_publ_section_title
;
Structure prediction by ZEFSAII (Michael W. Deem and Ramdas Pophale) SiO2 
 PCOD8176153
Probable space group: C M C 21
;
_chemical_formula_sum "Si O2"
_cell_formula_units_Z 36
_cell_length_a 10.552765
_cell_length_b 14.814179
_cell_length_c 9.227834
_cell_angle_alpha 90.000000
_cell_angle_beta 90.000000
_cell_angle_gamma 90.000000
_cell_volume 1442.592361
_symmetry_space_group_name_H-M "C M C 21"
_symmetry_group_IT_number 36
_symmetry_cell_setting 'orthorhombic'
loop_
_space_group_symop_operation_xyz
x,y,z
-x,-y,1/2+z
x,-y,1/2+z
-x,y,z
1/2+x,1/2+y,z
1/2-x,1/2-y,1/2+z
1/2+x,1/2-y,1/2+z
1/2-x,1/2+y,z
loop_
_atom_site_type_symbol
_atom_site_label
_atom_site_fract_x
_atom_site_fract_y
_atom_site_fract_z
Si Si1 0.760077 0.565031 0.312560
Si Si2 0.642774 0.568004 0.005945
Si Si3 0.268993 0.755388 0.975900
Si Si4 0.000000 0.499921 0.469477
Si Si5 0.500000 0.197561 0.992406
Si Si6 0.500000 0.824591 0.151213
O O1 0.735789 0.553214 0.142683
O O2 0.644992 0.520012 0.403432
O O3 0.776348 0.671109 0.347878
O O4 0.880911 0.507686 0.362217
O O5 0.500000 0.583399 0.060989
O O6 0.692880 0.655844 0.916648
O O7 0.125520 0.752306 0.041034
O O8 0.370687 0.776414 0.100624
O O9 0.000000 0.404271 0.556534
O O10 0.000000 0.573647 0.595149
O O11 0.500000 0.181733 0.821340
#
# Coordination Sequence:
#
# PCOD8176153 Si02
#       6
#     8   8   8   4   4   4
#     4  11  27  45  73 109 141 196 239 305 368 442
#     4  12  26  48  73 103 152 194 243 299 370 447
#     4  11  25  44  72 103 139 195 241 295 364 431
#     4  10  24  42  70  99 142 173 244 291 377 415
#     4  12  24  44  73 104 141 190 241 305 368 424
#     4  10  24  48  67  97 151 185 231 314 357 443
#
# _framework density 24.955074
#
# number of rings (size 3 to 8) (size 9 to 14) (size 15 to 20)
#    0.000    0.889    3.333    2.000    9.333    2.667 
#    0.000    3.333    0.000    0.000    0.000    0.000 
#    0.000    0.000    0.000    0.000    0.000    0.000 
#
# Total GULP energy -223218.197330 kJ/mol
# GULP energy per Si atom -12401.010963 kJ/mol
# Density = 2.489828 g / cm^3
# Si number density = 24.955074 Si / 1000 Ang^3
#
#
#
# Elastic Constant Matrix: (Units=GPa)
#
#
# Indices 1 2 3 4 5 6 
#
# 1 145.6030 8.7537 -1.6855 0.0000 0.0000 0.0000
# 2 8.7537 105.7702 39.7723 0.0000 0.0000 0.0000
# 3 -1.6855 39.7723 85.0092 0.0000 0.0000 0.0000
# 4 0.0000 0.0000 0.0000 27.4907 0.0000 0.0000
# 5 0.0000 0.0000 0.0000 0.0000 23.1800 0.0000
# 6 0.0000 0.0000 0.0000 0.0000 0.0000 46.1106
#
#
#
# Elastic Compliance Matrix: (Units=1/GPa)
#
#
# Indices 1 2 3 4 5 6 
#
# 1 0.006919 -0.000757 0.000492 0.000000 0.000000 0.000000
# 2 -0.000757 0.011556 -0.005421 0.000000 0.000000 0.000000
# 3 0.000492 -0.005421 0.014310 0.000000 0.000000 0.000000
# 4 0.000000 0.000000 0.000000 0.036376 0.000000 0.000000
# 5 0.000000 0.000000 0.000000 0.000000 0.043141 0.000000
# 6 0.000000 0.000000 0.000000 0.000000 0.000000 0.021687
#
#
# Mechanical properties :
#
#
# Convention : Reuss Voigt Hill
#
# Bulk Modulus (GPa) = 46.70744 47.78484 47.24614
# Shear Modulus (GPa) = 32.78695 38.65904 35.72299
#
# Velocity S-wave (km/s) = 3.62862 3.94019 3.78761
# Velocity P-wave (km/s) = 6.02604 6.31586 6.17265
#
# Compressibility (1/GPa) = 0.02140987
#
# Stress axis : x y z
#
# Youngs Moduli (GPa) = 144.52496 86.53688 69.88284
#
# Poissons Ratio (x) = 0.06555 -0.03435
# Poissons Ratio (y) = 0.10948 0.37887
# Poissons Ratio (z) = -0.07105 0.46916
#
# Static dielectric constant tensor:
#      x y z
#    x 4.918120 0.000000 0.000000 
#    y 0.000000 4.780330 0.000000 
#    z 0.000000 0.000000 3.880710 
# 
# 
# High freq. dielectric constant tensor:
#      x y z
#    x 2.017540 0.000000 0.000000 
#    y 0.000000 2.007150 0.000000 
#    z 0.000000 0.000000 1.961440 
# 
# From -- ./inp_files/7503.got.cif
#   From: 2010.03.12/outbox.cif.g09.slc.cpg/sg36_4_cif.got.tgz:7503.got - 2010.04.14 02:13:53.
