data_PCOD8176027
_publ_section_title
;
Structure prediction by ZEFSAII (Michael W. Deem and Ramdas Pophale) SiO2 
 PCOD8176027
Probable space group: C M C 21
;
_chemical_formula_sum "Si O2"
_cell_formula_units_Z 64
_cell_length_a 8.657636
_cell_length_b 15.335927
_cell_length_c 23.969281
_cell_angle_alpha 90.000000
_cell_angle_beta 90.000000
_cell_angle_gamma 90.000000
_cell_volume 3182.470319
_symmetry_space_group_name_H-M "C M C 21"
_symmetry_group_IT_number 36
_symmetry_cell_setting 'orthorhombic'
loop_
_space_group_symop_operation_xyz
x,y,z
-x,-y,1/2+z
x,-y,1/2+z
-x,y,z
1/2+x,1/2+y,z
1/2-x,1/2-y,1/2+z
1/2+x,1/2-y,1/2+z
1/2-x,1/2+y,z
loop_
_atom_site_type_symbol
_atom_site_label
_atom_site_fract_x
_atom_site_fract_y
_atom_site_fract_z
Si Si1 0.681427 0.878991 0.707040
Si Si2 0.181591 0.466760 0.281557
Si Si3 0.682702 0.887487 0.581090
Si Si4 0.317842 0.767801 0.011417
Si Si5 0.827535 0.727773 0.385461
Si Si6 0.180672 0.956205 0.012928
Si Si7 0.325583 0.975444 0.898009
Si Si8 0.822689 0.273390 0.274698
O O1 0.500000 0.890747 0.705100
O O2 0.744768 0.877825 0.644239
O O3 0.718143 0.788916 0.737699
O O4 0.756173 0.960234 0.741051
O O5 0.246097 0.472893 0.345044
O O6 0.216332 0.372026 0.255855
O O7 0.000000 0.484379 0.286947
O O8 0.500000 0.901866 0.577549
O O9 0.726166 0.798781 0.549861
O O10 0.768157 0.971335 0.556781
O O11 0.500000 0.758777 0.021508
O O12 0.270008 0.866594 0.025889
O O13 0.274386 0.744848 0.947492
O O14 0.825798 0.624457 0.379931
O O15 0.709993 0.766838 0.340665
O O16 0.000000 0.762736 0.373104
O O17 0.000000 0.938509 0.018236
O O18 0.218250 0.992587 0.951284
O O19 0.500000 0.005388 0.913358
O O20 0.000000 0.249985 0.263754
#
# Coordination Sequence:
#
# PCOD8176027 Si02
#       8
#     8   8   8   8   8   8   8   8
#     4  10  22  44  64  81 116 163 205 245 297 363
#     4   9  19  37  59  84 115 157 198 238 294 360
#     4  11  24  41  65  91 118 163 215 258 306 365
#     4  10  22  41  63  89 123 164 205 253 310 365
#     4   9  18  35  59  84 117 159 196 239 300 364
#     4  11  23  39  60  91 128 161 202 254 307 367
#     4   9  17  35  61  84 117 162 202 243 298 363
#     4  11  22  34  57  92 120 151 197 252 302 351
#
# _framework density 20.110164000000001
#
# number of rings (size 3 to 8) (size 9 to 14) (size 15 to 20)
#    0.000    2.000    1.250    3.000    1.750    4.500 
#    0.000    3.125    0.000    0.000    0.000    0.000 
#    0.000    0.000    0.000    0.000    0.000    0.000 
#
# Total GULP energy -396822.773639 kJ/mol
# GULP energy per Si atom -12400.711676 kJ/mol
# Density = 2.006439 g / cm^3
# Si number density = 20.110164 Si / 1000 Ang^3
#
#
#
# Elastic Constant Matrix: (Units=GPa)
#
#
# Indices 1 2 3 4 5 6 
#
# 1 43.1264 9.1401 17.3885 0.0000 0.0000 0.0000
# 2 9.1401 84.8046 49.5796 0.0000 0.0000 0.0000
# 3 17.3885 49.5796 119.8906 0.0000 0.0000 0.0000
# 4 0.0000 0.0000 0.0000 24.4968 0.0000 0.0000
# 5 0.0000 0.0000 0.0000 0.0000 23.1573 0.0000
# 6 0.0000 0.0000 0.0000 0.0000 0.0000 31.1699
#
#
#
# Elastic Compliance Matrix: (Units=1/GPa)
#
#
# Indices 1 2 3 4 5 6 
#
# 1 0.024664 -0.000748 -0.003268 0.000000 0.000000 0.000000
# 2 -0.000748 0.015574 -0.006332 0.000000 0.000000 0.000000
# 3 -0.003268 -0.006332 0.011434 0.000000 0.000000 0.000000
# 4 0.000000 0.000000 0.000000 0.040822 0.000000 0.000000
# 5 0.000000 0.000000 0.000000 0.000000 0.043183 0.000000
# 6 0.000000 0.000000 0.000000 0.000000 0.000000 0.032082
#
#
# Mechanical properties :
#
#
# Convention : Reuss Voigt Hill
#
# Bulk Modulus (GPa) = 32.28304 44.44867 38.36585
# Shear Modulus (GPa) = 25.15352 27.21238 26.18295
#
# Velocity S-wave (km/s) = 3.54048 3.68253 3.61221
# Velocity P-wave (km/s) = 5.72724 6.34287 6.04290
#
# Compressibility (1/GPa) = 0.03097602
#
# Stress axis : x y z
#
# Youngs Moduli (GPa) = 40.54538 64.20790 87.46202
#
# Poissons Ratio (x) = 0.04801 0.28582
# Poissons Ratio (y) = 0.03031 0.55383
# Poissons Ratio (z) = 0.13250 0.40658
#
# Static dielectric constant tensor:
#      x y z
#    x 3.456620 0.000000 0.000000 
#    y 0.000000 3.614020 0.000000 
#    z 0.000000 0.000000 3.855870 
# 
# 
# High freq. dielectric constant tensor:
#      x y z
#    x 1.767990 0.000000 0.000000 
#    y 0.000000 1.790290 0.000000 
#    z 0.000000 0.000000 1.785700 
# 
# From -- ./inp_files/16564.got.cif
#   From: 2010.03.12/outbox.cif.g09.slc.cpg/sg36_9_cif.got.tgz:16564.got - 2010.04.14 02:13:53.
