data_PCOD8176857
_publ_section_title
;
Structure prediction by ZEFSAII (Michael W. Deem and Ramdas Pophale) SiO2 
 PCOD8176857
Probable space group: C C C 2
;
_chemical_formula_sum "Si O2"
_cell_formula_units_Z 48
_cell_length_a 5.358841
_cell_length_b 13.904361
_cell_length_c 29.405340
_cell_angle_alpha 90.000000
_cell_angle_beta 90.000000
_cell_angle_gamma 90.000000
_cell_volume 2191.028928
_symmetry_space_group_name_H-M "C C C 2"
_symmetry_group_IT_number 37
_symmetry_cell_setting 'orthorhombic'
loop_
_space_group_symop_operation_xyz
x,y,z
-x,-y,z
-x,y,1/2+z
x,-y,1/2+z
1/2+x,1/2+y,z
1/2-x,1/2-y,z
1/2-x,1/2+y,1/2+z
1/2+x,1/2-y,1/2+z
loop_
_atom_site_type_symbol
_atom_site_label
_atom_site_fract_x
_atom_site_fract_y
_atom_site_fract_z
Si Si1 0.250000 0.250000 0.067870
Si Si2 0.500000 0.000000 0.750339
Si Si3 0.250000 0.750000 0.886865
Si Si4 0.000000 0.000000 0.691879
Si Si5 0.889951 0.347340 0.325058
Si Si6 0.500893 0.706419 0.154840
Si Si7 0.259248 0.061511 0.006893
Si Si8 0.875481 0.099817 0.412429
O O1 0.488940 0.262430 0.101678
O O2 0.262414 0.153732 0.038975
O O3 0.458292 0.093875 0.780740
O O4 0.249445 0.987519 0.721580
O O5 0.360935 0.829351 0.853316
O O6 0.451741 0.695110 0.917816
O O7 0.985407 0.908237 0.659383
O O8 0.750000 0.250000 0.309812
O O9 0.727675 0.406280 0.361445
O O10 0.250000 0.750000 0.177271
O O11 0.750000 0.750000 0.179935
O O12 0.500000 0.000000 0.021049
O O13 0.310473 0.103908 0.955627
O O14 0.000000 0.000000 0.011814
O O15 0.000000 0.000000 0.421823
#
# Coordination Sequence:
#
# PCOD8176857 Si02
#       8
#     4   4   4   4   8   8   8   8
#     4  10  28  44  81 100 144 178 232 285 356 424
#     4  12  28  44  72 102 140 178 238 284 348 414
#     4  10  22  40  65  92 130 192 236 275 340 396
#     4  12  28  48  74 108 136 182 228 302 350 430
#     4  10  24  41  65  95 135 188 228 286 334 409
#     4  10  25  48  76 105 137 181 219 287 363 428
#     4  11  28  43  67 109 142 184 235 290 335 413
#     4  10  23  40  65  93 138 186 232 278 338 397
#
# _framework density 21.907516000000001
#
# number of rings (size 3 to 8) (size 9 to 14) (size 15 to 20)
#    0.500    1.000    0.000    2.000   18.667    2.000 
#    0.000    0.000    0.000    0.000    0.000    0.000 
#    0.000    0.000    0.000    0.000    0.000    0.000 
#
# Total GULP energy -297314.511353 kJ/mol
# GULP energy per Si atom -12388.104640 kJ/mol
# Density = 2.185765 g / cm^3
# Si number density = 21.907516 Si / 1000 Ang^3
#
#
#
# Elastic Constant Matrix: (Units=GPa)
#
#
# Indices 1 2 3 4 5 6 
#
# 1 144.8271 51.8861 33.7865 0.0000 0.0000 0.0000
# 2 51.8861 146.3082 56.1558 0.0000 0.0000 0.0000
# 3 33.7865 56.1558 90.0203 0.0000 0.0000 0.0000
# 4 0.0000 0.0000 0.0000 63.4361 0.0000 0.0000
# 5 0.0000 0.0000 0.0000 0.0000 36.0441 0.0000
# 6 0.0000 0.0000 0.0000 0.0000 0.0000 23.0487
#
#
#
# Elastic Compliance Matrix: (Units=1/GPa)
#
#
# Indices 1 2 3 4 5 6 
#
# 1 0.008090 -0.002240 -0.001639 0.000000 0.000000 0.000000
# 2 -0.002240 0.009607 -0.005152 0.000000 0.000000 0.000000
# 3 -0.001639 -0.005152 0.014938 0.000000 0.000000 0.000000
# 4 0.000000 0.000000 0.000000 0.015764 0.000000 0.000000
# 5 0.000000 0.000000 0.000000 0.000000 0.027744 0.000000
# 6 0.000000 0.000000 0.000000 0.000000 0.000000 0.043386
#
#
# Mechanical properties :
#
#
# Convention : Reuss Voigt Hill
#
# Bulk Modulus (GPa) = 68.62389 73.86803 71.24596
# Shear Modulus (GPa) = 35.10073 40.46093 37.78083
#
# Velocity S-wave (km/s) = 4.00712 4.30222 4.15729
# Velocity P-wave (km/s) = 7.26648 7.64657 7.45895
#
# Compressibility (1/GPa) = 0.01457218
#
# Stress axis : x y z
#
# Youngs Moduli (GPa) = 123.61600 104.09429 66.94462
#
# Poissons Ratio (x) = 0.23315 0.10972
# Poissons Ratio (y) = 0.27687 0.34491
# Poissons Ratio (z) = 0.20260 0.53631
#
# Static dielectric constant tensor:
#      x y z
#    x 3.977000 0.000000 0.000000 
#    y 0.000000 3.955840 0.000000 
#    z 0.000000 0.000000 3.843740 
# 
# 
# High freq. dielectric constant tensor:
#      x y z
#    x 1.864810 0.000000 0.000000 
#    y 0.000000 1.878900 0.000000 
#    z 0.000000 0.000000 1.850370 
# 
# From -- ./inp_files/19455.got.cif
#   From: 2010.03.12/outbox.cif.g09.slc.cpg/sg37_10_cif.got.tgz:19455.got - 2010.04.14 02:25:27.
