data_PCOD8176943
_publ_section_title
;
Structure prediction by ZEFSAII (Michael W. Deem and Ramdas Pophale) SiO2 
 PCOD8176943
Probable space group: C C C 2
;
_chemical_formula_sum "Si O2"
_cell_formula_units_Z 44
_cell_length_a 21.368611
_cell_length_b 8.936907
_cell_length_c 11.338615
_cell_angle_alpha 90.000000
_cell_angle_beta 90.000000
_cell_angle_gamma 90.000000
_cell_volume 2165.327247
_symmetry_space_group_name_H-M "C C C 2"
_symmetry_group_IT_number 37
_symmetry_cell_setting 'orthorhombic'
loop_
_space_group_symop_operation_xyz
x,y,z
-x,-y,z
-x,y,1/2+z
x,-y,1/2+z
1/2+x,1/2+y,z
1/2-x,1/2-y,z
1/2-x,1/2+y,1/2+z
1/2+x,1/2-y,1/2+z
loop_
_atom_site_type_symbol
_atom_site_label
_atom_site_fract_x
_atom_site_fract_y
_atom_site_fract_z
Si Si1 0.250000 0.750000 0.067770
Si Si2 0.100523 0.717720 0.682952
Si Si3 0.629882 0.893936 0.629992
Si Si4 0.638937 0.318398 0.926122
Si Si5 0.440845 0.413997 0.989922
Si Si6 0.524171 0.158355 0.311439
O O1 0.296212 0.851419 0.148592
O O2 0.292378 0.646831 0.979936
O O3 0.123703 0.571603 0.611848
O O4 0.144120 0.746050 0.796441
O O5 0.104717 0.856108 0.593002
O O6 0.027720 0.708060 0.717571
O O7 0.605428 0.804119 0.513616
O O8 0.590711 0.851303 0.745698
O O9 0.599587 0.470377 0.912487
O O10 0.500000 0.500000 0.045665
O O11 0.468236 0.278306 0.913680
O O12 0.500000 0.000000 0.365251
#
# Coordination Sequence:
#
# PCOD8176943 Si02
#       6
#     4   8   8   8   8   8
#     4   8  22  48  70  92 142 176 228 292 326 406
#     4  11  24  40  69  98 137 179 223 284 353 406
#     4   9  22  45  68  97 132 182 231 278 341 412
#     4  10  23  44  65  98 135 178 229 287 331 403
#     4  12  25  38  67 102 142 174 231 279 355 403
#     4  10  23  39  68  99 137 178 222 289 347 417
#
# _framework density 20.320253999999998
#
# number of rings (size 3 to 8) (size 9 to 14) (size 15 to 20)
#    1.091    0.727    1.818    1.091   10.182    0.727 
#    6.545    0.000    0.000    0.000    0.000    0.000 
#    0.000    0.000    0.000    0.000    0.000    0.000 
#
# Total GULP energy -272626.356366 kJ/mol
# GULP energy per Si atom -12392.107108 kJ/mol
# Density = 2.027400 g / cm^3
# Si number density = 20.320254 Si / 1000 Ang^3
#
#
#
# Elastic Constant Matrix: (Units=GPa)
#
#
# Indices 1 2 3 4 5 6 
#
# 1 117.3530 36.2384 28.7183 0.0000 0.0000 0.0000
# 2 36.2384 122.5990 63.5208 0.0000 0.0000 0.0000
# 3 28.7183 63.5208 88.8794 0.0000 0.0000 0.0000
# 4 0.0000 0.0000 0.0000 25.4431 0.0000 0.0000
# 5 0.0000 0.0000 0.0000 0.0000 33.0683 0.0000
# 6 0.0000 0.0000 0.0000 0.0000 0.0000 24.6739
#
#
#
# Elastic Compliance Matrix: (Units=1/GPa)
#
#
# Indices 1 2 3 4 5 6 
#
# 1 0.009535 -0.001941 -0.001694 0.000000 0.000000 0.000000
# 2 -0.001941 0.013348 -0.008913 0.000000 0.000000 0.000000
# 3 -0.001694 -0.008913 0.018168 0.000000 0.000000 0.000000
# 4 0.000000 0.000000 0.000000 0.039303 0.000000 0.000000
# 5 0.000000 0.000000 0.000000 0.000000 0.030240 0.000000
# 6 0.000000 0.000000 0.000000 0.000000 0.000000 0.040529
#
#
# Mechanical properties :
#
#
# Convention : Reuss Voigt Hill
#
# Bulk Modulus (GPa) = 62.66880 65.08737 63.87809
# Shear Modulus (GPa) = 27.54251 29.99399 28.76825
#
# Velocity S-wave (km/s) = 3.68560 3.84613 3.76672
# Velocity P-wave (km/s) = 7.00136 7.19888 7.10081
#
# Compressibility (1/GPa) = 0.01595690
#
# Stress axis : x y z
#
# Youngs Moduli (GPa) = 104.87521 74.91684 55.04113
#
# Poissons Ratio (x) = 0.14540 0.09323
# Poissons Ratio (y) = 0.20354 0.49056
# Poissons Ratio (z) = 0.17765 0.66770
#
# Static dielectric constant tensor:
#      x y z
#    x 3.550290 0.000000 0.000000 
#    y 0.000000 3.780850 0.000000 
#    z 0.000000 0.000000 3.366730 
# 
# 
# High freq. dielectric constant tensor:
#      x y z
#    x 1.778800 0.000000 0.000000 
#    y 0.000000 1.798080 0.000000 
#    z 0.000000 0.000000 1.778630 
# 
# From -- ./inp_files/8811.got.cif
#   From: 2010.03.12/outbox.cif.g09.slc.cpg/sg37_5_cif.got.tgz:8811.got - 2010.04.14 02:25:27.
