data_PCOD8176372
_publ_section_title
;
Structure prediction by ZEFSAII (Michael W. Deem and Ramdas Pophale) SiO2 
 PCOD8176372
Probable space group: C C C 2
;
_chemical_formula_sum "Si O2"
_cell_formula_units_Z 64
_cell_length_a 9.526806
_cell_length_b 21.969624
_cell_length_c 16.248731
_cell_angle_alpha 90.000000
_cell_angle_beta 90.000000
_cell_angle_gamma 90.000000
_cell_volume 3400.865016
_symmetry_space_group_name_H-M "C C C 2"
_symmetry_group_IT_number 37
_symmetry_cell_setting 'orthorhombic'
loop_
_space_group_symop_operation_xyz
x,y,z
-x,-y,z
-x,y,1/2+z
x,-y,1/2+z
1/2+x,1/2+y,z
1/2-x,1/2-y,z
1/2-x,1/2+y,1/2+z
1/2+x,1/2-y,1/2+z
loop_
_atom_site_type_symbol
_atom_site_label
_atom_site_fract_x
_atom_site_fract_y
_atom_site_fract_z
Si Si1 0.675140 0.429427 0.414070
Si Si2 0.350301 0.483404 0.194800
Si Si3 0.516406 0.685930 0.187521
Si Si4 0.526428 0.176905 0.689137
Si Si5 0.253050 0.389726 0.738150
Si Si6 0.740561 0.683171 0.326242
Si Si7 0.255998 0.379132 0.086356
Si Si8 0.641614 0.437659 0.876065
O O1 0.730081 0.390557 0.336623
O O2 0.742903 0.394289 0.490251
O O3 0.506723 0.427804 0.420371
O O4 0.719506 0.501609 0.411053
O O5 0.500000 0.500000 0.153635
O O6 0.253979 0.541436 0.207516
O O7 0.260422 0.442028 0.135254
O O8 0.387024 0.447754 0.278990
O O9 0.474917 0.755286 0.169228
O O10 0.375241 0.647526 0.193490
O O11 0.598679 0.681718 0.273260
O O12 0.611332 0.662419 0.111771
O O13 0.394701 0.136052 0.710493
O O14 0.627435 0.174645 0.767538
O O15 0.609174 0.153275 0.608508
O O16 0.750000 0.750000 0.370962
O O17 0.733077 0.624764 0.388292
#
# Coordination Sequence:
#
# PCOD8176372 Si02
#       8
#     8   8   8   8   8   8   8   8
#     4  10  21  32  60  89 121 146 189 260 305 341
#     4  11  17  33  60  83 112 151 201 246 273 355
#     4  10  18  37  62  85 110 153 206 242 276 360
#     4  10  22  35  59  87 116 158 198 240 291 356
#     4  11  20  36  61  89 115 147 205 253 293 341
#     4   9  16  32  59  83 111 151 198 236 276 346
#     4  11  21  37  60  86 117 154 197 240 312 349
#     4  10  16  34  55  91 114 144 206 248 280 344
#
# _framework density 18.818743000000001
#
# number of rings (size 3 to 8) (size 9 to 14) (size 15 to 20)
#    0.000    1.750    7.500    1.500    1.750    0.500 
#    0.000    2.500    8.250    0.000    0.000    0.000 
#    0.000    0.000    0.000    0.000    0.000    0.000 
#
# Total GULP energy -396679.552875 kJ/mol
# GULP energy per Si atom -12396.236027 kJ/mol
# Density = 1.877591 g / cm^3
# Si number density = 18.818743 Si / 1000 Ang^3
#
#
#
# Elastic Constant Matrix: (Units=GPa)
#
#
# Indices 1 2 3 4 5 6 
#
# 1 80.9190 36.7129 18.5247 0.0000 0.0000 0.0000
# 2 36.7129 146.2820 33.3954 0.0000 0.0000 0.0000
# 3 18.5247 33.3954 67.6874 0.0000 0.0000 0.0000
# 4 0.0000 0.0000 0.0000 23.5588 0.0000 0.0000
# 5 0.0000 0.0000 0.0000 0.0000 5.9844 0.0000
# 6 0.0000 0.0000 0.0000 0.0000 0.0000 28.2899
#
#
#
# Elastic Compliance Matrix: (Units=1/GPa)
#
#
# Indices 1 2 3 4 5 6 
#
# 1 0.014287 -0.003035 -0.002413 0.000000 0.000000 0.000000
# 2 -0.003035 0.008349 -0.003288 0.000000 0.000000 0.000000
# 3 -0.002413 -0.003288 0.017057 0.000000 0.000000 0.000000
# 4 0.000000 0.000000 0.000000 0.042447 0.000000 0.000000
# 5 0.000000 0.000000 0.000000 0.000000 0.167100 0.000000
# 6 0.000000 0.000000 0.000000 0.000000 0.000000 0.035348
#
#
# Mechanical properties :
#
#
# Convention : Reuss Voigt Hill
#
# Bulk Modulus (GPa) = 45.00407 52.46160 48.73284
# Shear Modulus (GPa) = 16.15683 25.31699 20.73691
#
# Velocity S-wave (km/s) = 2.93328 3.67182 3.32313
# Velocity P-wave (km/s) = 5.95303 6.77600 6.37781
#
# Compressibility (1/GPa) = 0.02222021
#
# Stress axis : x y z
#
# Youngs Moduli (GPa) = 69.99206 119.78194 58.62852
#
# Poissons Ratio (x) = 0.36353 0.14146
# Poissons Ratio (y) = 0.21242 0.19279
# Poissons Ratio (z) = 0.16888 0.39389
#
# Static dielectric constant tensor:
#      x y z
#    x 3.261460 0.000000 0.000000 
#    y 0.000000 4.018410 0.000000 
#    z 0.000000 0.000000 3.102560 
# 
# 
# High freq. dielectric constant tensor:
#      x y z
#    x 1.709180 0.000000 0.000000 
#    y 0.000000 1.757080 0.000000 
#    z 0.000000 0.000000 1.686360 
# 
# From -- ./inp_files/11015.got.cif
#   From: 2010.03.12/outbox.cif.g09.slc.cpg/sg37_6_cif.got.tgz:11015.got - 2010.04.14 02:25:27.
