data_PCOD8176892
_publ_section_title
;
Structure prediction by ZEFSAII (Michael W. Deem and Ramdas Pophale) SiO2 
 PCOD8176892
Probable space group: C C C 2
;
_chemical_formula_sum "Si O2"
_cell_formula_units_Z 44
_cell_length_a 11.181998
_cell_length_b 28.858521
_cell_length_c 5.223735
_cell_angle_alpha 90.000000
_cell_angle_beta 90.000000
_cell_angle_gamma 90.000000
_cell_volume 1685.677993
_symmetry_space_group_name_H-M "C C C 2"
_symmetry_group_IT_number 37
_symmetry_cell_setting 'orthorhombic'
loop_
_space_group_symop_operation_xyz
x,y,z
-x,-y,z
-x,y,1/2+z
x,-y,1/2+z
1/2+x,1/2+y,z
1/2-x,1/2-y,z
1/2-x,1/2+y,1/2+z
1/2+x,1/2-y,1/2+z
loop_
_atom_site_type_symbol
_atom_site_label
_atom_site_fract_x
_atom_site_fract_y
_atom_site_fract_z
Si Si1 0.574637 0.572581 0.338250
Si Si2 0.750000 0.750000 0.126528
Si Si3 0.634896 0.169407 0.370855
Si Si4 0.373289 0.869852 0.868624
Si Si5 0.075933 0.821284 0.865866
Si Si6 0.826072 0.528297 0.385556
O O1 0.478997 0.561859 0.559574
O O2 0.621639 0.625456 0.350128
O O3 0.685575 0.538903 0.384991
O O4 0.657538 0.776933 0.939232
O O5 0.816719 0.785850 0.311805
O O6 0.699523 0.153747 0.105458
O O7 0.495722 0.158733 0.320855
O O8 0.693748 0.137799 0.596773
O O9 0.399316 0.923801 0.915563
O O10 0.974530 0.812442 0.650062
O O11 0.863779 0.496482 0.623209
#
# Coordination Sequence:
#
# PCOD8176892 Si02
#       6
#     8   4   8   8   8   8
#     4  10  22  43  64  94 142 183 224 294 371 417
#     4  12  26  42  76 106 140 186 258 304 344 436
#     4  10  24  42  70  96 133 191 227 281 357 420
#     4  10  23  47  66  96 146 181 220 297 369 414
#     4  10  25  43  66 100 143 187 236 296 364 434
#     4  12  25  41  71 105 133 181 245 290 352 446
#
# _framework density 26.102257999999999
#
# number of rings (size 3 to 8) (size 9 to 14) (size 15 to 20)
#    0.000    1.455    0.000    3.273    5.091    9.455 
#    0.000   10.909    0.000    0.000    0.000    0.000 
#    0.000    0.000    0.000    0.000    0.000    0.000 
#
# Total GULP energy -272786.185539 kJ/mol
# GULP energy per Si atom -12399.372070 kJ/mol
# Density = 2.604285 g / cm^3
# Si number density = 26.102258 Si / 1000 Ang^3
#
#
#
# Elastic Constant Matrix: (Units=GPa)
#
#
# Indices 1 2 3 4 5 6 
#
# 1 42.6331 12.4088 -13.1605 0.0000 0.0000 0.0000
# 2 12.4088 131.6193 36.9487 0.0000 0.0000 0.0000
# 3 -13.1605 36.9487 189.3289 0.0000 0.0000 0.0000
# 4 0.0000 0.0000 0.0000 45.5212 0.0000 0.0000
# 5 0.0000 0.0000 0.0000 0.0000 -0.5695 0.0000
# 6 0.0000 0.0000 0.0000 0.0000 0.0000 50.7862
#
#
#
# Elastic Compliance Matrix: (Units=1/GPa)
#
#
# Indices 1 2 3 4 5 6 
#
# 1 0.025053 -0.003016 0.002330 0.000000 0.000000 0.000000
# 2 -0.003016 0.008401 -0.001849 0.000000 0.000000 0.000000
# 3 0.002330 -0.001849 0.005805 0.000000 0.000000 0.000000
# 4 0.000000 0.000000 0.000000 0.021968 0.000000 0.000000
# 5 0.000000 0.000000 0.000000 0.000000 -1.756072 0.000000
# 6 0.000000 0.000000 0.000000 0.000000 0.000000 0.019690
#
#
# Mechanical properties :
#
#
# Convention : Reuss Voigt Hill
#
# Bulk Modulus (GPa) = 29.24958 48.44170 38.84564
# Shear Modulus (GPa) = -3.01443 40.97322 18.97939
#
# Velocity S-wave (km/s) = -1.07581 3.96627 2.69944
# Velocity P-wave (km/s) = 3.11239 6.29077 4.96290
#
# Compressibility (1/GPa) = 0.03418852
#
# Stress axis : x y z
#
# Youngs Moduli (GPa) = 39.91527 119.03162 172.27543
#
# Poissons Ratio (x) = 0.35901 -0.40141
# Poissons Ratio (y) = 0.12039 0.31857
# Poissons Ratio (z) = -0.09301 0.22011
#
# Static dielectric constant tensor:
#      x y z
#    x 4.465700 0.000000 0.000000 
#    y 0.000000 4.769930 0.000000 
#    z 0.000000 0.000000 5.578640 
# 
# 
# High freq. dielectric constant tensor:
#      x y z
#    x 2.039830 0.000000 0.000000 
#    y 0.000000 2.045090 0.000000 
#    z 0.000000 0.000000 2.074290 
# 
# From -- ./inp_files/559.got.cif
#   From: 2010.03.12/outbox.cif.g09.slc.cpg/sg37_1_cif.got.tgz:559.got - 2010.04.14 02:25:27.
