data_PCOD8176743
_publ_section_title
;
Structure prediction by ZEFSAII (Michael W. Deem and Ramdas Pophale) SiO2 
 PCOD8176743
Probable space group: C C C 2
;
_chemical_formula_sum "Si O2"
_cell_formula_units_Z 60
_cell_length_a 27.065036
_cell_length_b 10.786110
_cell_length_c 8.967874
_cell_angle_alpha 90.000000
_cell_angle_beta 90.000000
_cell_angle_gamma 90.000000
_cell_volume 2617.959670
_symmetry_space_group_name_H-M "C C C 2"
_symmetry_group_IT_number 37
_symmetry_cell_setting 'orthorhombic'
loop_
_space_group_symop_operation_xyz
x,y,z
-x,-y,z
-x,y,1/2+z
x,-y,1/2+z
1/2+x,1/2+y,z
1/2-x,1/2-y,z
1/2-x,1/2+y,1/2+z
1/2+x,1/2-y,1/2+z
loop_
_atom_site_type_symbol
_atom_site_label
_atom_site_fract_x
_atom_site_fract_y
_atom_site_fract_z
Si Si1 0.610820 0.210872 0.565750
Si Si2 0.110675 0.372114 0.602060
Si Si3 0.632041 0.367138 0.286223
Si Si4 0.442512 0.990760 0.380507
Si Si5 0.064709 0.901354 0.743168
Si Si6 0.255966 0.609631 0.242702
Si Si7 0.697646 0.039821 0.530482
Si Si8 0.000000 0.000000 0.493620
O O1 0.614852 0.321680 0.446771
O O2 0.570622 0.112792 0.505207
O O3 0.592242 0.268963 0.722956
O O4 0.665074 0.152787 0.596249
O O5 0.119382 0.233433 0.658382
O O6 0.072346 0.379646 0.462873
O O7 0.091167 0.461579 0.736531
O O8 0.162505 0.419538 0.533954
O O9 0.603312 0.488213 0.239433
O O10 0.688821 0.406423 0.299044
O O11 0.500000 0.000000 0.336764
O O12 0.032286 0.906586 0.892181
O O13 0.030761 0.908303 0.596754
O O14 0.250000 0.750000 0.181133
O O15 0.214579 0.585671 0.368700
O O16 0.246320 0.501535 0.121185
#
# Coordination Sequence:
#
# PCOD8176743 Si02
#       8
#     8   8   8   8   8   8   8   4
#     4  10  22  43  67  96 141 181 219 298 347 406
#     4  10  21  42  64  97 137 177 223 289 347 404
#     4  11  23  43  69  94 138 187 225 285 353 408
#     4  10  21  39  66 101 135 175 231 279 351 418
#     4  11  23  46  65  99 139 184 236 281 353 408
#     4  12  24  44  74  99 143 183 234 290 355 434
#     4  11  23  45  72 101 139 182 231 293 360 416
#     4  10  24  42  68  94 136 184 238 288 322 428
#
# _framework density 22.918613000000001
#
# number of rings (size 3 to 8) (size 9 to 14) (size 15 to 20)
#    0.000    1.333    4.000    2.000    1.867    2.133 
#   12.000    2.000    0.000    0.000    0.000    0.000 
#    0.000    0.000    0.000    0.000    0.000    0.000 
#
# Total GULP energy -371825.436542 kJ/mol
# GULP energy per Si atom -12394.181218 kJ/mol
# Density = 2.286645 g / cm^3
# Si number density = 22.918613 Si / 1000 Ang^3
#
#
#
# Elastic Constant Matrix: (Units=GPa)
#
#
# Indices 1 2 3 4 5 6 
#
# 1 105.0223 21.6379 15.5781 0.0000 0.0000 0.0000
# 2 21.6379 64.5388 26.7686 0.0000 0.0000 0.0000
# 3 15.5781 26.7686 64.1642 0.0000 0.0000 0.0000
# 4 0.0000 0.0000 0.0000 30.9129 0.0000 0.0000
# 5 0.0000 0.0000 0.0000 0.0000 39.9284 0.0000
# 6 0.0000 0.0000 0.0000 0.0000 0.0000 32.2024
#
#
#
# Elastic Compliance Matrix: (Units=1/GPa)
#
#
# Indices 1 2 3 4 5 6 
#
# 1 0.010315 -0.002926 -0.001284 0.000000 0.000000 0.000000
# 2 -0.002926 0.019567 -0.007453 0.000000 0.000000 0.000000
# 3 -0.001284 -0.007453 0.019006 0.000000 0.000000 0.000000
# 4 0.000000 0.000000 0.000000 0.032349 0.000000 0.000000
# 5 0.000000 0.000000 0.000000 0.000000 0.025045 0.000000
# 6 0.000000 0.000000 0.000000 0.000000 0.000000 0.031054
#
#
# Mechanical properties :
#
#
# Convention : Reuss Voigt Hill
#
# Bulk Modulus (GPa) = 39.11890 40.18828 39.65359
# Shear Modulus (GPa) = 29.55426 31.92477 30.73952
#
# Velocity S-wave (km/s) = 3.59490 3.73629 3.66628
# Velocity P-wave (km/s) = 5.85976 6.01552 5.93815
#
# Compressibility (1/GPa) = 0.02556309
#
# Stress axis : x y z
#
# Youngs Moduli (GPa) = 96.94603 51.10740 52.61543
#
# Poissons Ratio (x) = 0.14953 0.06754
# Poissons Ratio (y) = 0.28365 0.39212
# Poissons Ratio (z) = 0.12445 0.38088
#
# Static dielectric constant tensor:
#      x y z
#    x 4.304670 0.000000 0.000000 
#    y 0.000000 4.096080 0.000000 
#    z 0.000000 0.000000 4.218520 
# 
# 
# High freq. dielectric constant tensor:
#      x y z
#    x 1.912300 0.000000 0.000000 
#    y 0.000000 1.898150 0.000000 
#    z 0.000000 0.000000 1.902460 
# 
# From -- ./inp_files/4790.got.cif
#   From: 2010.03.12/outbox.cif.g09.slc.cpg/sg37_3_cif.got.tgz:4790.got - 2010.04.14 02:25:27.
