data_PCOD8176717
_publ_section_title
;
Structure prediction by ZEFSAII (Michael W. Deem and Ramdas Pophale) SiO2 
 PCOD8176717
Probable space group: C C C 2
;
_chemical_formula_sum "Si O2"
_cell_formula_units_Z 48
_cell_length_a 8.968233
_cell_length_b 15.633850
_cell_length_c 16.114068
_cell_angle_alpha 90.000000
_cell_angle_beta 90.000000
_cell_angle_gamma 90.000000
_cell_volume 2259.321399
_symmetry_space_group_name_H-M "C C C 2"
_symmetry_group_IT_number 37
_symmetry_cell_setting 'orthorhombic'
loop_
_space_group_symop_operation_xyz
x,y,z
-x,-y,z
-x,y,1/2+z
x,-y,1/2+z
1/2+x,1/2+y,z
1/2-x,1/2-y,z
1/2-x,1/2+y,1/2+z
1/2+x,1/2-y,1/2+z
loop_
_atom_site_type_symbol
_atom_site_label
_atom_site_fract_x
_atom_site_fract_y
_atom_site_fract_z
Si Si1 0.956229 0.091484 0.927970
Si Si2 0.181334 0.657969 0.850431
Si Si3 0.408355 0.750765 0.360483
Si Si4 0.414444 0.755727 0.170507
Si Si5 0.101862 0.415092 0.174226
Si Si6 0.570236 0.588235 0.113559
O O1 0.778345 0.106633 0.918460
O O2 0.031321 0.155285 0.863779
O O3 0.000000 0.000000 0.893306
O O4 0.015405 0.105712 0.020169
O O5 0.250000 0.750000 0.822429
O O6 0.155184 0.600647 0.768871
O O7 0.025418 0.680420 0.898192
O O8 0.250000 0.750000 0.408256
O O9 0.387060 0.778689 0.265939
O O10 0.250000 0.750000 0.127005
O O11 0.508444 0.835827 0.135165
O O12 0.509238 0.668588 0.165072
O O13 0.251209 0.422188 0.118354
O O14 0.000000 0.500000 0.168958
O O15 0.500000 0.500000 0.147570
#
# Coordination Sequence:
#
# PCOD8176717 Si02
#       6
#     8   8   8   8   8   8
#     4  10  22  37  55  81 115 157 198 240 294 357
#     4   9  19  38  61  84 115 154 197 246 300 358
#     4   9  19  36  57  86 114 144 193 244 294 354
#     4  10  21  38  62  90 119 153 198 248 301 358
#     4  11  22  38  63  93 122 155 201 258 309 358
#     4  11  23  39  56  84 123 163 203 244 300 363
#
# _framework density 21.245317
#
# number of rings (size 3 to 8) (size 9 to 14) (size 15 to 20)
#    0.000    2.000    0.000    4.500    0.000   10.000 
#    0.000    3.333    0.000    0.000    0.000    0.000 
#    0.000    0.000    0.000    0.000    0.000    0.000 
#
# Total GULP energy -297388.838863 kJ/mol
# GULP energy per Si atom -12391.201619 kJ/mol
# Density = 2.119696 g / cm^3
# Si number density = 21.245317 Si / 1000 Ang^3
#
#
#
# Elastic Constant Matrix: (Units=GPa)
#
#
# Indices 1 2 3 4 5 6 
#
# 1 223.5845 85.4266 43.9484 0.0000 0.0000 0.0000
# 2 85.4266 148.3496 19.9441 0.0000 0.0000 0.0000
# 3 43.9484 19.9441 49.2464 0.0000 0.0000 0.0000
# 4 0.0000 0.0000 0.0000 16.2175 0.0000 0.0000
# 5 0.0000 0.0000 0.0000 0.0000 24.7419 0.0000
# 6 0.0000 0.0000 0.0000 0.0000 0.0000 40.3552
#
#
#
# Elastic Compliance Matrix: (Units=1/GPa)
#
#
# Indices 1 2 3 4 5 6 
#
# 1 0.006589 -0.003177 -0.004594 0.000000 0.000000 0.000000
# 2 -0.003177 0.008661 -0.000672 0.000000 0.000000 0.000000
# 3 -0.004594 -0.000672 0.024678 0.000000 0.000000 0.000000
# 4 0.000000 0.000000 0.000000 0.061662 0.000000 0.000000
# 5 0.000000 0.000000 0.000000 0.000000 0.040417 0.000000
# 6 0.000000 0.000000 0.000000 0.000000 0.000000 0.024780
#
#
# Mechanical properties :
#
#
# Convention : Reuss Voigt Hill
#
# Bulk Modulus (GPa) = 43.39939 79.97987 61.68963
# Shear Modulus (GPa) = 26.12963 34.38702 30.25832
#
# Velocity S-wave (km/s) = 3.51080 4.02751 3.77800
# Velocity P-wave (km/s) = 6.07506 7.70424 6.93764
#
# Compressibility (1/GPa) = 0.02304180
#
# Stress axis : x y z
#
# Youngs Moduli (GPa) = 151.75937 115.46529 40.52193
#
# Poissons Ratio (x) = 0.36682 0.18615
# Poissons Ratio (y) = 0.48212 0.02724
# Poissons Ratio (z) = 0.69717 0.07763
#
# Static dielectric constant tensor:
#      x y z
#    x 4.674020 0.000000 0.000000 
#    y 0.000000 3.909570 0.000000 
#    z 0.000000 0.000000 3.329740 
# 
# 
# High freq. dielectric constant tensor:
#      x y z
#    x 1.860190 0.000000 0.000000 
#    y 0.000000 1.836070 0.000000 
#    z 0.000000 0.000000 1.793100 
# 
# From -- ./inp_files/14467.got.cif
#   From: 2010.03.12/outbox.cif.g09.slc.cpg/sg37_8_cif.got.tgz:14467.got - 2010.04.14 02:25:27.
