data_PCOD8176448
_publ_section_title
;
Structure prediction by ZEFSAII (Michael W. Deem and Ramdas Pophale) SiO2 
 PCOD8176448
Probable space group: C C C 2
;
_chemical_formula_sum "Si O2"
_cell_formula_units_Z 60
_cell_length_a 25.866380
_cell_length_b 8.029545
_cell_length_c 14.281294
_cell_angle_alpha 90.000000
_cell_angle_beta 90.000000
_cell_angle_gamma 90.000000
_cell_volume 2966.157102
_symmetry_space_group_name_H-M "C C C 2"
_symmetry_group_IT_number 37
_symmetry_cell_setting 'orthorhombic'
loop_
_space_group_symop_operation_xyz
x,y,z
-x,-y,z
-x,y,1/2+z
x,-y,1/2+z
1/2+x,1/2+y,z
1/2-x,1/2-y,z
1/2-x,1/2+y,1/2+z
1/2+x,1/2-y,1/2+z
loop_
_atom_site_type_symbol
_atom_site_label
_atom_site_fract_x
_atom_site_fract_y
_atom_site_fract_z
Si Si1 0.557168 0.465394 0.167250
Si Si2 0.627326 0.744503 0.533175
Si Si3 0.557168 0.034605 0.492585
Si Si4 0.333385 0.074448 0.706974
Si Si5 0.127326 0.255497 0.126659
Si Si6 0.416152 0.750000 0.329917
Si Si7 0.833385 0.074448 0.452861
Si Si8 0.750000 0.250000 0.329917
O O1 0.500000 0.500000 0.128426
O O2 0.584763 0.363261 0.086347
O O3 0.594060 0.624562 0.187950
O O4 0.548857 0.363818 0.263297
O O5 0.666040 0.835787 0.605647
O O6 0.662693 0.625675 0.467362
O O7 0.594060 0.875437 0.471884
O O8 0.584763 0.136737 0.573488
O O9 0.548857 0.136183 0.396538
O O10 0.500000 0.000000 0.531409
O O11 0.382555 0.129391 0.765913
O O12 0.282402 0.126369 0.763687
O O13 0.337308 0.874325 0.692473
O O14 0.166040 0.164213 0.054188
O O15 0.382555 0.629391 0.393922
O O16 0.782402 0.126370 0.396148
#
# Coordination Sequence:
#
# PCOD8176448 Si02
#       8
#     8   8   8   8   8   8   8   4
#     4  10  19  33  54  81 111 149 187 223 267 335
#     4   9  19  35  55  77 110 145 184 226 277 326
#     4  10  19  33  54  81 111 149 187 223 267 335
#     4   9  19  36  55  77 106 144 179 230 281 328
#     4   9  19  35  55  77 110 145 184 226 277 326
#     4   9  20  33  48  76 112 142 176 227 284 315
#     4   9  19  36  55  77 106 144 179 230 281 328
#     4  10  20  36  60  82 112 140 184 236 288 348
#
# _framework density 20.228193000000001
#
# number of rings (size 3 to 8) (size 9 to 14) (size 15 to 20)
#    0.000    2.667    0.000    0.800    0.000    4.267 
#    0.000    2.667    0.000   25.600    0.000    0.000 
#    0.000    0.000    0.000    0.000    0.000    0.000 
#
# Total GULP energy -371879.100051 kJ/mol
# GULP energy per Si atom -12395.970002 kJ/mol
# Density = 2.018215 g / cm^3
# Si number density = 20.228193 Si / 1000 Ang^3
#
#
#
# Elastic Constant Matrix: (Units=GPa)
#
#
# Indices 1 2 3 4 5 6 
#
# 1 96.7239 41.6503 31.6130 0.0000 0.0000 0.0000
# 2 41.6503 121.0949 47.9578 0.0000 0.0000 0.0000
# 3 31.6130 47.9578 75.1961 0.0000 0.0000 0.0000
# 4 0.0000 0.0000 0.0000 21.9416 0.0000 0.0000
# 5 0.0000 0.0000 0.0000 0.0000 6.3484 0.0000
# 6 0.0000 0.0000 0.0000 0.0000 0.0000 21.5380
#
#
#
# Elastic Compliance Matrix: (Units=1/GPa)
#
#
# Indices 1 2 3 4 5 6 
#
# 1 0.012766 -0.003031 -0.003434 0.000000 0.000000 0.000000
# 2 -0.003031 0.011768 -0.006231 0.000000 0.000000 0.000000
# 3 -0.003434 -0.006231 0.018716 0.000000 0.000000 0.000000
# 4 0.000000 0.000000 0.000000 0.045576 0.000000 0.000000
# 5 0.000000 0.000000 0.000000 0.000000 0.157521 0.000000
# 6 0.000000 0.000000 0.000000 0.000000 0.000000 0.046430
#
#
# Mechanical properties :
#
#
# Convention : Reuss Voigt Hill
#
# Bulk Modulus (GPa) = 55.99563 59.49522 57.74542
# Shear Modulus (GPa) = 15.42628 21.41850 18.42239
#
# Velocity S-wave (km/s) = 2.76454 3.25752 3.02110
# Velocity P-wave (km/s) = 6.15892 6.60488 6.38580
#
# Compressibility (1/GPa) = 0.01785854
#
# Stress axis : x y z
#
# Youngs Moduli (GPa) = 78.33177 84.97453 53.42941
#
# Poissons Ratio (x) = 0.25755 0.18348
# Poissons Ratio (y) = 0.23742 0.33293
# Poissons Ratio (z) = 0.26899 0.52949
#
# Static dielectric constant tensor:
#      x y z
#    x 3.366470 0.000000 0.000000 
#    y 0.000000 4.047130 0.000000 
#    z 0.000000 0.000000 3.768990 
# 
# 
# High freq. dielectric constant tensor:
#      x y z
#    x 1.767170 0.000000 0.000000 
#    y 0.000000 1.798990 0.000000 
#    z 0.000000 0.000000 1.784660 
# 
# From -- ./inp_files/13305.got.cif
#   From: 2010.03.12/outbox.cif.g09.slc.cpg/sg37_7_cif.got.tgz:13305.got - 2010.04.14 02:25:27.
