data_PCOD8176067
_publ_section_title
;
Structure prediction by ZEFSAII (Michael W. Deem and Ramdas Pophale) SiO2 
 PCOD8176067
Probable space group: C M C 21
;
_chemical_formula_sum "Si O2"
_cell_formula_units_Z 56
_cell_length_a 9.344720
_cell_length_b 19.694022
_cell_length_c 13.202401
_cell_angle_alpha 90.000000
_cell_angle_beta 90.000000
_cell_angle_gamma 90.000000
_cell_volume 2429.705469
_symmetry_space_group_name_H-M "C M C 21"
_symmetry_group_IT_number 36
_symmetry_cell_setting 'orthorhombic'
loop_
_space_group_symop_operation_xyz
x,y,z
-x,-y,1/2+z
x,-y,1/2+z
-x,y,z
1/2+x,1/2+y,z
1/2-x,1/2-y,1/2+z
1/2+x,1/2-y,1/2+z
1/2-x,1/2+y,z
loop_
_atom_site_type_symbol
_atom_site_label
_atom_site_fract_x
_atom_site_fract_y
_atom_site_fract_z
Si Si1 0.657243 0.055966 0.850700
Si Si2 0.340566 0.621858 0.458076
Si Si3 0.828572 0.753482 0.461920
Si Si4 0.840580 0.978621 0.533864
Si Si5 0.337059 0.792807 0.638051
Si Si6 0.250815 0.576529 0.245938
Si Si7 0.168922 0.302524 0.270754
O O1 0.500000 0.067770 0.893877
O O2 0.696363 0.116708 0.773073
O O3 0.657611 0.985423 0.789409
O O4 0.750443 0.062718 0.951632
O O5 0.500000 0.648365 0.485946
O O6 0.219676 0.676373 0.485823
O O7 0.296358 0.557698 0.527620
O O8 0.349067 0.601582 0.338470
O O9 0.741889 0.808385 0.531131
O O10 0.772108 0.766154 0.350357
O O11 0.000000 0.761525 0.470777
O O12 0.835050 0.951034 0.648261
O O13 0.000000 0.970591 0.493247
O O14 0.500000 0.767813 0.623493
O O15 0.342224 0.859004 0.709532
O O16 0.232626 0.730324 0.669653
O O17 0.000000 0.284134 0.283179
#
# Coordination Sequence:
#
# PCOD8176067 Si02
#       7
#     8   8   8   8   8   8   8
#     4  10  24  44  66  98 136 178 223 276 335 400
#     4  10  22  42  67  99 140 181 225 282 346 410
#     4  12  26  44  68  98 137 180 230 285 342 407
#     4  10  23  41  66 101 134 174 223 278 340 403
#     4  12  26  43  68 100 135 179 229 280 341 409
#     4  11  23  42  72 103 136 180 229 280 338 414
#     4  11  24  44  69  99 136 176 223 279 340 405
#
# _framework density 23.048061000000001
#
# number of rings (size 3 to 8) (size 9 to 14) (size 15 to 20)
#    0.000    1.143    1.429    3.857    2.000    9.143 
#    0.000    0.000    0.000    0.000    0.000    0.000 
#    0.000    0.000    0.000    0.000    0.000    0.000 
#
# Total GULP energy -346967.225996 kJ/mol
# GULP energy per Si atom -12391.686643 kJ/mol
# Density = 2.299560 g / cm^3
# Si number density = 23.048061 Si / 1000 Ang^3
#
#
#
# Elastic Constant Matrix: (Units=GPa)
#
#
# Indices 1 2 3 4 5 6 
#
# 1 153.0585 45.6609 19.3892 0.0000 0.0000 0.0000
# 2 45.6609 104.1630 28.7336 0.0000 0.0000 0.0000
# 3 19.3892 28.7336 79.9044 0.0000 0.0000 0.0000
# 4 0.0000 0.0000 0.0000 39.7709 0.0000 0.0000
# 5 0.0000 0.0000 0.0000 0.0000 31.5727 0.0000
# 6 0.0000 0.0000 0.0000 0.0000 0.0000 23.7125
#
#
#
# Elastic Compliance Matrix: (Units=1/GPa)
#
#
# Indices 1 2 3 4 5 6 
#
# 1 0.007553 -0.003114 -0.000713 0.000000 0.000000 0.000000
# 2 -0.003114 0.011942 -0.003539 0.000000 0.000000 0.000000
# 3 -0.000713 -0.003539 0.013960 0.000000 0.000000 0.000000
# 4 0.000000 0.000000 0.000000 0.025144 0.000000 0.000000
# 5 0.000000 0.000000 0.000000 0.000000 0.031673 0.000000
# 6 0.000000 0.000000 0.000000 0.000000 0.000000 0.042172
#
#
# Mechanical properties :
#
#
# Convention : Reuss Voigt Hill
#
# Bulk Modulus (GPa) = 53.40847 58.29925 55.85386
# Shear Modulus (GPa) = 32.59116 35.23405 33.91261
#
# Velocity S-wave (km/s) = 3.76447 3.91413 3.84003
# Velocity P-wave (km/s) = 6.48983 6.76585 6.62928
#
# Compressibility (1/GPa) = 0.01872362
#
# Stress axis : x y z
#
# Youngs Moduli (GPa) = 132.40137 83.74092 71.63132
#
# Poissons Ratio (x) = 0.26079 0.05106
# Poissons Ratio (y) = 0.41233 0.25347
# Poissons Ratio (z) = 0.09438 0.29632
#
# Static dielectric constant tensor:
#      x y z
#    x 3.856460 0.000000 0.000000 
#    y 0.000000 4.356150 0.000000 
#    z 0.000000 0.000000 4.215980 
# 
# 
# High freq. dielectric constant tensor:
#      x y z
#    x 1.901370 0.000000 0.000000 
#    y 0.000000 1.923770 0.000000 
#    z 0.000000 0.000000 1.916070 
# 
# From -- ./inp_files/10646.got.cif
#   From: 2010.03.12/outbox.cif.g09.slc.cpg/sg36_6_cif.got.tgz:10646.got - 2010.04.14 02:13:53.
