data_PCOD8176915
_publ_section_title
;
Structure prediction by ZEFSAII (Michael W. Deem and Ramdas Pophale) SiO2 
 PCOD8176915
Probable space group: C C C 2
;
_chemical_formula_sum "Si O2"
_cell_formula_units_Z 40
_cell_length_a 21.356106
_cell_length_b 9.713119
_cell_length_c 8.760944
_cell_angle_alpha 90.000000
_cell_angle_beta 90.000000
_cell_angle_gamma 90.000000
_cell_volume 1817.321153
_symmetry_space_group_name_H-M "C C C 2"
_symmetry_group_IT_number 37
_symmetry_cell_setting 'orthorhombic'
loop_
_space_group_symop_operation_xyz
x,y,z
-x,-y,z
-x,y,1/2+z
x,-y,1/2+z
1/2+x,1/2+y,z
1/2-x,1/2-y,z
1/2-x,1/2+y,1/2+z
1/2+x,1/2-y,1/2+z
loop_
_atom_site_type_symbol
_atom_site_label
_atom_site_fract_x
_atom_site_fract_y
_atom_site_fract_z
Si Si1 0.934966 0.159341 0.226710
Si Si2 0.850794 0.443195 0.659800
Si Si3 0.564403 0.931709 0.896137
Si Si4 0.250000 0.750000 0.791590
Si Si5 0.316220 0.248570 0.584617
Si Si6 0.000000 0.000000 0.974221
O O1 0.953882 0.312139 0.277623
O O2 0.862991 0.150517 0.173409
O O3 0.944069 0.052377 0.365048
O O4 0.977261 0.125560 0.079320
O O5 0.891040 0.455467 0.814339
O O6 0.895419 0.366478 0.535987
O O7 0.784448 0.363970 0.685611
O O8 0.839561 0.592208 0.586084
O O9 0.500000 0.000000 0.955522
O O10 0.304423 0.695565 0.909475
O O11 0.250000 0.250000 0.675178
#
# Coordination Sequence:
#
# PCOD8176915 Si02
#       6
#     8   8   8   4   8   4
#     4  10  24  44  68  98 140 178 233 280 345 422
#     4  11  22  44  67 103 130 179 230 282 359 408
#     4  11  24  41  71 104 137 175 229 296 351 418
#     4  10  22  44  70  92 144 174 230 298 340 414
#     4   9  21  44  64  96 135 176 224 286 332 421
#     4  10  24  46  64 102 138 184 230 280 350 416
#
# _framework density 22.010418999999999
#
# number of rings (size 3 to 8) (size 9 to 14) (size 15 to 20)
#    0.600    1.200    2.000    0.600    8.400    1.600 
#   14.400    0.000    0.000    0.000    0.000    0.000 
#    0.000    0.000    0.000    0.000    0.000    0.000 
#
# Total GULP energy -247780.007522 kJ/mol
# GULP energy per Si atom -12389.000376 kJ/mol
# Density = 2.196032 g / cm^3
# Si number density = 22.010419 Si / 1000 Ang^3
#
#
#
# Elastic Constant Matrix: (Units=GPa)
#
#
# Indices 1 2 3 4 5 6 
#
# 1 143.8619 52.2873 76.3090 0.0000 0.0000 0.0000
# 2 52.2873 72.4101 47.6564 0.0000 0.0000 0.0000
# 3 76.3090 47.6564 140.9262 0.0000 0.0000 0.0000
# 4 0.0000 0.0000 0.0000 21.1247 0.0000 0.0000
# 5 0.0000 0.0000 0.0000 0.0000 44.8206 0.0000
# 6 0.0000 0.0000 0.0000 0.0000 0.0000 42.3959
#
#
#
# Elastic Compliance Matrix: (Units=1/GPa)
#
#
# Indices 1 2 3 4 5 6 
#
# 1 0.011101 -0.005222 -0.004245 0.000000 0.000000 0.000000
# 2 -0.005222 0.020220 -0.004010 0.000000 0.000000 0.000000
# 3 -0.004245 -0.004010 0.010751 0.000000 0.000000 0.000000
# 4 0.000000 0.000000 0.000000 0.047338 0.000000 0.000000
# 5 0.000000 0.000000 0.000000 0.000000 0.022311 0.000000
# 6 0.000000 0.000000 0.000000 0.000000 0.000000 0.023587
#
#
# Mechanical properties :
#
#
# Convention : Reuss Voigt Hill
#
# Bulk Modulus (GPa) = 66.14926 78.85596 72.50261
# Shear Modulus (GPa) = 29.88619 33.73129 31.80874
#
# Velocity S-wave (km/s) = 3.68886 3.91898 3.80566
# Velocity P-wave (km/s) = 6.94712 7.50882 7.23342
#
# Compressibility (1/GPa) = 0.01511733
#
# Stress axis : x y z
#
# Youngs Moduli (GPa) = 90.08410 49.45516 93.01839
#
# Poissons Ratio (x) = 0.25826 0.39486
# Poissons Ratio (y) = 0.47042 0.37302
# Poissons Ratio (z) = 0.38240 0.19832
#
# Static dielectric constant tensor:
#      x y z
#    x 4.157540 0.000000 0.000000 
#    y 0.000000 3.594840 0.000000 
#    z 0.000000 0.000000 4.009390 
# 
# 
# High freq. dielectric constant tensor:
#      x y z
#    x 1.868180 0.000000 0.000000 
#    y 0.000000 1.831230 0.000000 
#    z 0.000000 0.000000 1.873490 
# 
# From -- ./inp_files/2235.got.cif
#   From: 2010.03.12/outbox.cif.g09.slc.cpg/sg37_2_cif.got.tgz:2235.got - 2010.04.14 02:25:27.
