data_PCOD8176633
_publ_section_title
;
Structure prediction by ZEFSAII (Michael W. Deem and Ramdas Pophale) SiO2 
 PCOD8176633
Probable space group: C C C 2
;
_chemical_formula_sum "Si O2"
_cell_formula_units_Z 64
_cell_length_a 8.455168
_cell_length_b 13.457608
_cell_length_c 27.498498
_cell_angle_alpha 90.000000
_cell_angle_beta 90.000000
_cell_angle_gamma 90.000000
_cell_volume 3128.953347
_symmetry_space_group_name_H-M "C C C 2"
_symmetry_group_IT_number 37
_symmetry_cell_setting 'orthorhombic'
loop_
_space_group_symop_operation_xyz
x,y,z
-x,-y,z
-x,y,1/2+z
x,-y,1/2+z
1/2+x,1/2+y,z
1/2-x,1/2-y,z
1/2-x,1/2+y,1/2+z
1/2+x,1/2-y,1/2+z
loop_
_atom_site_type_symbol
_atom_site_label
_atom_site_fract_x
_atom_site_fract_y
_atom_site_fract_z
Si Si1 0.878287 0.075091 0.519400
Si Si2 0.118809 0.335172 0.254703
Si Si3 0.913471 0.396367 0.339348
Si Si4 0.342677 0.053895 0.585604
Si Si5 0.097902 0.601583 0.448290
Si Si6 0.822445 0.647939 0.685978
Si Si7 0.320982 0.530519 0.267720
Si Si8 0.082377 0.266038 0.519921
O O1 0.766538 0.093940 0.473869
O O2 0.976188 0.172213 0.538637
O O3 0.796864 0.016846 0.564866
O O4 0.000000 0.000000 0.495252
O O5 0.250000 0.250000 0.249321
O O6 0.208140 0.439388 0.254211
O O7 0.019610 0.323118 0.305245
O O8 0.996235 0.335797 0.209604
O O9 0.885978 0.355673 0.393583
O O10 0.740925 0.414068 0.316004
O O11 0.000000 0.500000 0.344026
O O12 0.328101 0.066012 0.643362
O O13 0.363877 0.164574 0.564747
O O14 0.500000 0.000000 0.569194
O O15 0.000000 0.500000 0.451437
O O16 0.014780 0.686434 0.477579
O O17 0.750000 0.750000 0.665448
O O18 0.692965 0.608840 0.724219
O O19 0.500000 0.500000 0.276666
O O20 0.250000 0.250000 0.493540
#
# Coordination Sequence:
#
# PCOD8176633 Si02
#       8
#     8   8   8   8   8   8   8   8
#     4  12  24  41  65  90 125 171 212 272 323 385
#     4  10  20  41  64  96 131 170 210 259 324 381
#     4   8  19  36  64  91 129 169 209 262 313 380
#     4  12  24  45  65  92 127 168 212 269 328 386
#     4  11  20  41  64  95 128 170 217 263 327 382
#     4  11  24  42  64  93 125 165 210 265 318 386
#     4  10  20  40  64  94 130 167 208 262 318 375
#     4  12  23  42  63  91 127 165 216 266 323 382
#
# _framework density 20.454124
#
# number of rings (size 3 to 8) (size 9 to 14) (size 15 to 20)
#    0.000    1.250    3.750    3.375    0.000    1.500 
#    4.500   10.000    0.000    0.000    0.000    0.000 
#    0.000    0.000    0.000    0.000    0.000    0.000 
#
# Total GULP energy -396521.005184 kJ/mol
# GULP energy per Si atom -12391.281412 kJ/mol
# Density = 2.040757 g / cm^3
# Si number density = 20.454124 Si / 1000 Ang^3
#
#
#
# Elastic Constant Matrix: (Units=GPa)
#
#
# Indices 1 2 3 4 5 6 
#
# 1 159.8543 47.3700 57.2477 0.0000 0.0000 0.0000
# 2 47.3700 94.7383 35.3540 0.0000 0.0000 0.0000
# 3 57.2477 35.3540 134.5917 0.0000 0.0000 0.0000
# 4 0.0000 0.0000 0.0000 27.6302 0.0000 0.0000
# 5 0.0000 0.0000 0.0000 0.0000 22.9481 0.0000
# 6 0.0000 0.0000 0.0000 0.0000 0.0000 50.7533
#
#
#
# Elastic Compliance Matrix: (Units=1/GPa)
#
#
# Indices 1 2 3 4 5 6 
#
# 1 0.008112 -0.003069 -0.002644 0.000000 0.000000 0.000000
# 2 -0.003069 0.012864 -0.002073 0.000000 0.000000 0.000000
# 3 -0.002644 -0.002073 0.009099 0.000000 0.000000 0.000000
# 4 0.000000 0.000000 0.000000 0.036192 0.000000 0.000000
# 5 0.000000 0.000000 0.000000 0.000000 0.043577 0.000000
# 6 0.000000 0.000000 0.000000 0.000000 0.000000 0.019703
#
#
# Mechanical properties :
#
#
# Convention : Reuss Voigt Hill
#
# Bulk Modulus (GPa) = 68.96020 74.34753 71.65387
# Shear Modulus (GPa) = 33.34327 36.88049 35.11188
#
# Velocity S-wave (km/s) = 4.04189 4.25088 4.14770
# Velocity P-wave (km/s) = 7.45455 7.77950 7.61876
#
# Compressibility (1/GPa) = 0.01450112
#
# Stress axis : x y z
#
# Youngs Moduli (GPa) = 123.27065 77.73689 109.89940
#
# Poissons Ratio (x) = 0.23861 0.29060
# Poissons Ratio (y) = 0.37837 0.22787
# Poissons Ratio (z) = 0.32595 0.16119
#
# Static dielectric constant tensor:
#      x y z
#    x 3.888060 0.000000 0.000000 
#    y 0.000000 3.915470 0.000000 
#    z 0.000000 0.000000 3.733340 
# 
# 
# High freq. dielectric constant tensor:
#      x y z
#    x 1.813670 0.000000 0.000000 
#    y 0.000000 1.804260 0.000000 
#    z 0.000000 0.000000 1.790540 
# 
# From -- ./inp_files/20441.got.cif
#   From: 2010.03.12/outbox.cif.g09.slc.cpg/sg37_11_cif.got.tgz:20441.got - 2010.04.14 02:25:27.
