data_PCOD8176019
_publ_section_title
;
Structure prediction by ZEFSAII (Michael W. Deem and Ramdas Pophale) SiO2 
 PCOD8176019
Probable space group: C M C 21
;
_chemical_formula_sum "Si O2"
_cell_formula_units_Z 40
_cell_length_a 10.827072
_cell_length_b 23.674955
_cell_length_c 7.158105
_cell_angle_alpha 90.000000
_cell_angle_beta 90.000000
_cell_angle_gamma 90.000000
_cell_volume 1834.840221
_symmetry_space_group_name_H-M "C M C 21"
_symmetry_group_IT_number 36
_symmetry_cell_setting 'orthorhombic'
loop_
_space_group_symop_operation_xyz
x,y,z
-x,-y,1/2+z
x,-y,1/2+z
-x,y,z
1/2+x,1/2+y,z
1/2-x,1/2-y,1/2+z
1/2+x,1/2-y,1/2+z
1/2-x,1/2+y,z
loop_
_atom_site_type_symbol
_atom_site_label
_atom_site_fract_x
_atom_site_fract_y
_atom_site_fract_z
Si Si1 0.701423 0.325937 0.720120
Si Si2 0.139567 0.124205 0.841436
Si Si3 0.634608 0.921338 0.820758
Si Si4 0.634436 0.272640 0.086432
Si Si5 0.860736 0.454601 0.398107
O O1 0.627556 0.360572 0.562432
O O2 0.775597 0.368949 0.856650
O O3 0.783134 0.282519 0.601971
O O4 0.620873 0.291845 0.869860
O O5 0.181961 0.177823 0.721099
O O6 0.247755 0.078269 0.795613
O O7 0.000000 0.103409 0.782793
O O8 0.500000 0.905543 0.900790
O O9 0.627227 0.928586 0.599762
O O10 0.679971 0.979759 0.914955
O O11 0.500000 0.254148 0.156430
O O12 0.000000 0.450264 0.301601
#
# Coordination Sequence:
#
# PCOD8176019 Si02
#       5
#     8   8   8   8   8
#     4  11  21  40  62  87 120 161 203 248 304 358
#     4  10  22  41  60  88 123 158 200 252 302 360
#     4   9  19  35  59  87 117 150 199 253 297 352
#     4  11  23  39  60  88 122 160 205 250 302 364
#     4   9  19  37  59  86 117 153 198 249 300 358
#
# _framework density 21.800263999999999
#
# number of rings (size 3 to 8) (size 9 to 14) (size 15 to 20)
#    0.000    2.000    2.000    1.200    2.800    0.800 
#    0.000    6.000    0.000    0.000    0.000    0.000 
#    0.000    0.000    0.000    0.000    0.000    0.000 
#
# Total GULP energy -247781.003071 kJ/mol
# GULP energy per Si atom -12389.050154 kJ/mol
# Density = 2.175065 g / cm^3
# Si number density = 21.800264 Si / 1000 Ang^3
#
#
#
# Elastic Constant Matrix: (Units=GPa)
#
#
# Indices 1 2 3 4 5 6 
#
# 1 113.4655 55.3086 -1.4723 0.0000 0.0000 0.0000
# 2 55.3086 87.5507 0.1165 0.0000 0.0000 0.0000
# 3 -1.4723 0.1165 44.6061 0.0000 0.0000 0.0000
# 4 0.0000 0.0000 0.0000 32.3374 0.0000 0.0000
# 5 0.0000 0.0000 0.0000 0.0000 16.3845 0.0000
# 6 0.0000 0.0000 0.0000 0.0000 0.0000 17.9621
#
#
#
# Elastic Compliance Matrix: (Units=1/GPa)
#
#
# Indices 1 2 3 4 5 6 
#
# 1 0.012743 -0.008051 0.000442 0.000000 0.000000 0.000000
# 2 -0.008051 0.016508 -0.000309 0.000000 0.000000 0.000000
# 3 0.000442 -0.000309 0.022434 0.000000 0.000000 0.000000
# 4 0.000000 0.000000 0.000000 0.030924 0.000000 0.000000
# 5 0.000000 0.000000 0.000000 0.000000 0.061033 0.000000
# 6 0.000000 0.000000 0.000000 0.000000 0.000000 0.055673
#
#
# Mechanical properties :
#
#
# Convention : Reuss Voigt Hill
#
# Bulk Modulus (GPa) = 27.89457 39.28088 33.58772
# Shear Modulus (GPa) = 22.01653 26.11476 24.06565
#
# Velocity S-wave (km/s) = 3.18137 3.46484 3.32613
# Velocity P-wave (km/s) = 5.13012 5.83648 5.49466
#
# Compressibility (1/GPa) = 0.03584928
#
# Stress axis : x y z
#
# Youngs Moduli (GPa) = 78.47164 60.57496 44.57550
#
# Poissons Ratio (x) = 0.48769 -0.01969
# Poissons Ratio (y) = 0.63178 0.01377
# Poissons Ratio (z) = -0.03466 0.01871
#
# Static dielectric constant tensor:
#      x y z
#    x 4.090080 0.000000 0.000000 
#    y 0.000000 3.963650 0.000000 
#    z 0.000000 0.000000 3.701020 
# 
# 
# High freq. dielectric constant tensor:
#      x y z
#    x 1.848810 0.000000 0.000000 
#    y 0.000000 1.849400 0.000000 
#    z 0.000000 0.000000 1.852000 
# 
# From -- ./inp_files/2419.got.cif
#   From: 2010.03.12/outbox.cif.g09.slc.cpg/sg36_2_cif.got.tgz:2419.got - 2010.04.14 02:13:53.
