data_PCOD8176749
_publ_section_title
;
Structure prediction by ZEFSAII (Michael W. Deem and Ramdas Pophale) SiO2 
 PCOD8176749
Probable space group: C C C 2
;
_chemical_formula_sum "Si O2"
_cell_formula_units_Z 32
_cell_length_a 6.718052
_cell_length_b 35.817177
_cell_length_c 5.306680
_cell_angle_alpha 90.000000
_cell_angle_beta 90.000000
_cell_angle_gamma 90.000000
_cell_volume 1276.902138
_symmetry_space_group_name_H-M "C C C 2"
_symmetry_group_IT_number 37
_symmetry_cell_setting 'orthorhombic'
loop_
_space_group_symop_operation_xyz
x,y,z
-x,-y,z
-x,y,1/2+z
x,-y,1/2+z
1/2+x,1/2+y,z
1/2-x,1/2-y,z
1/2-x,1/2+y,1/2+z
1/2+x,1/2-y,1/2+z
loop_
_atom_site_type_symbol
_atom_site_label
_atom_site_fract_x
_atom_site_fract_y
_atom_site_fract_z
Si Si1 0.785416 0.365990 0.428740
Si Si2 0.128612 0.787586 0.363888
Si Si3 0.222723 0.984370 0.932883
Si Si4 0.269807 0.897297 0.929109
O O1 0.786160 0.321457 0.390817
O O2 0.671459 0.376002 0.690287
O O3 0.002987 0.383707 0.462530
O O4 0.668746 0.385412 0.194520
O O5 0.250000 0.750000 0.395601
O O6 0.967450 0.789723 0.586976
O O7 0.239526 0.940760 0.882804
O O8 0.329868 0.005174 0.697487
O O9 0.000000 0.000000 0.968859
#
# Coordination Sequence:
#
# PCOD8176749 Si02
#       4
#     8   8   8   8
#     4  10  23  43  68 103 138 186 245 288 365 439
#     4  12  28  49  78 114 153 196 245 307 374 449
#     4  10  21  40  61  98 137 180 236 300 367 433
#     4  10  21  42  72  96 138 192 233 307 361 432
#
# _framework density 25.060654
#
# number of rings (size 3 to 8) (size 9 to 14) (size 15 to 20)
#    0.000    1.500    0.000    3.750    7.000    0.000 
#   27.000   15.000    0.000    0.000    0.000    0.000 
#    0.000    0.000    0.000    0.000    0.000    0.000 
#
# Total GULP energy -198262.470613 kJ/mol
# GULP energy per Si atom -12391.404413 kJ/mol
# Density = 2.500361 g / cm^3
# Si number density = 25.060654 Si / 1000 Ang^3
#
#
#
# Elastic Constant Matrix: (Units=GPa)
#
#
# Indices 1 2 3 4 5 6 
#
# 1 79.7966 11.5188 -38.1867 0.0000 0.0000 0.0000
# 2 11.5188 162.8392 1.8120 0.0000 0.0000 0.0000
# 3 -38.1867 1.8120 234.8417 0.0000 0.0000 0.0000
# 4 0.0000 0.0000 0.0000 45.9541 0.0000 0.0000
# 5 0.0000 0.0000 0.0000 0.0000 -19.5836 0.0000
# 6 0.0000 0.0000 0.0000 0.0000 0.0000 48.8551
#
#
#
# Elastic Compliance Matrix: (Units=1/GPa)
#
#
# Indices 1 2 3 4 5 6 
#
# 1 0.013749 -0.000998 0.002243 0.000000 0.000000 0.000000
# 2 -0.000998 0.006214 -0.000210 0.000000 0.000000 0.000000
# 3 0.002243 -0.000210 0.004625 0.000000 0.000000 0.000000
# 4 0.000000 0.000000 0.000000 0.021761 0.000000 0.000000
# 5 0.000000 0.000000 0.000000 0.000000 -0.051063 0.000000
# 6 0.000000 0.000000 0.000000 0.000000 0.000000 0.020469
#
#
# Mechanical properties :
#
#
# Convention : Reuss Voigt Hill
#
# Bulk Modulus (GPa) = 37.51015 47.52952 42.51983
# Shear Modulus (GPa) = 221.53833 48.53400 135.03617
#
# Velocity S-wave (km/s) = 9.41237 4.40553 7.34852
# Velocity P-wave (km/s) = 11.53793 6.69964 9.43422
#
# Compressibility (1/GPa) = 0.02665945
#
# Stress axis : x y z
#
# Youngs Moduli (GPa) = 72.73009 160.92868 216.23460
#
# Poissons Ratio (x) = 0.16054 -0.48511
# Poissons Ratio (y) = 0.07255 0.04544
# Poissons Ratio (z) = -0.16317 0.03382
#
# Static dielectric constant tensor:
#      x y z
#    x 4.137650 0.000000 0.000000 
#    y 0.000000 4.405490 0.000000 
#    z 0.000000 0.000000 6.804900 
# 
# 
# High freq. dielectric constant tensor:
#      x y z
#    x 1.991090 0.000000 0.000000 
#    y 0.000000 1.998600 0.000000 
#    z 0.000000 0.000000 2.048030 
# 
# From -- ./inp_files/161.got.cif
#   From: 2010.03.12/outbox.cif.g09.slc.cpg/sg37_1_cif.got.tgz:161.got - 2010.04.14 02:25:27.
