data_PCOD8176822
_publ_section_title
;
Structure prediction by ZEFSAII (Michael W. Deem and Ramdas Pophale) SiO2 
 PCOD8176822
Probable space group: C C C 2
;
_chemical_formula_sum "Si O2"
_cell_formula_units_Z 56
_cell_length_a 16.225143
_cell_length_b 19.719115
_cell_length_c 9.421325
_cell_angle_alpha 90.000000
_cell_angle_beta 90.000000
_cell_angle_gamma 90.000000
_cell_volume 3014.310168
_symmetry_space_group_name_H-M "C C C 2"
_symmetry_group_IT_number 37
_symmetry_cell_setting 'orthorhombic'
loop_
_space_group_symop_operation_xyz
x,y,z
-x,-y,z
-x,y,1/2+z
x,-y,1/2+z
1/2+x,1/2+y,z
1/2-x,1/2-y,z
1/2-x,1/2+y,1/2+z
1/2+x,1/2-y,1/2+z
loop_
_atom_site_type_symbol
_atom_site_label
_atom_site_fract_x
_atom_site_fract_y
_atom_site_fract_z
Si Si1 0.089864 0.885179 0.447230
Si Si2 0.954806 0.432576 0.235081
Si Si3 0.314592 0.481907 0.390401
Si Si4 0.200416 0.505326 0.635182
Si Si5 0.842974 0.232944 0.602137
Si Si6 0.432682 0.373775 0.261265
Si Si7 0.090181 0.377309 0.029808
O O1 0.151248 0.820965 0.471193
O O2 0.054027 0.906747 0.603536
O O3 0.018643 0.862288 0.339816
O O4 0.138770 0.946634 0.376036
O O5 0.872535 0.451199 0.148564
O O6 0.934153 0.384569 0.366103
O O7 0.000000 0.500000 0.294016
O O8 0.012601 0.393759 0.126871
O O9 0.275875 0.473711 0.546420
O O10 0.236111 0.476662 0.288136
O O11 0.378007 0.421958 0.360413
O O12 0.168102 0.574707 0.563744
O O13 0.750000 0.250000 0.642217
O O14 0.886960 0.198999 0.740437
O O15 0.889651 0.299919 0.556599
#
# Coordination Sequence:
#
# PCOD8176822 Si02
#       7
#     8   8   8   8   8   8   8
#     4  10  24  40  62  89 120 161 205 256 304 374
#     4  10  22  37  59  96 126 158 204 252 307 371
#     4  12  21  39  62  92 122 163 203 263 320 345
#     4  11  22  36  62  96 123 156 211 253 310 368
#     4  10  23  44  63  87 125 165 210 246 325 372
#     4  10  24  40  61  91 121 159 208 254 308 365
#     4  11  22  38  64  86 127 166 199 253 311 377
#
# _framework density 18.578047999999999
#
# number of rings (size 3 to 8) (size 9 to 14) (size 15 to 20)
#    0.857    0.571    2.857    3.429    6.000    1.143 
#    0.000    0.000    0.000    0.857    0.000    0.000 
#    0.000    0.000    0.000    0.000    0.000    0.000 
#
# Total GULP energy -347167.410577 kJ/mol
# GULP energy per Si atom -12398.836092 kJ/mol
# Density = 1.853576 g / cm^3
# Si number density = 18.578048 Si / 1000 Ang^3
#
#
#
# Elastic Constant Matrix: (Units=GPa)
#
#
# Indices 1 2 3 4 5 6 
#
# 1 102.2671 41.2987 35.0006 0.0000 0.0000 0.0000
# 2 41.2987 114.0691 42.3754 0.0000 0.0000 0.0000
# 3 35.0006 42.3754 68.0737 0.0000 0.0000 0.0000
# 4 0.0000 0.0000 0.0000 27.6301 0.0000 0.0000
# 5 0.0000 0.0000 0.0000 0.0000 43.3345 0.0000
# 6 0.0000 0.0000 0.0000 0.0000 0.0000 30.5817
#
#
#
# Elastic Compliance Matrix: (Units=1/GPa)
#
#
# Indices 1 2 3 4 5 6 
#
# 1 0.012511 -0.002784 -0.004700 0.000000 0.000000 0.000000
# 2 -0.002784 0.012023 -0.006053 0.000000 0.000000 0.000000
# 3 -0.004700 -0.006053 0.020874 0.000000 0.000000 0.000000
# 4 0.000000 0.000000 0.000000 0.036192 0.000000 0.000000
# 5 0.000000 0.000000 0.000000 0.000000 0.023076 0.000000
# 6 0.000000 0.000000 0.000000 0.000000 0.000000 0.032699
#
#
# Mechanical properties :
#
#
# Convention : Reuss Voigt Hill
#
# Bulk Modulus (GPa) = 54.53928 57.97324 56.25626
# Shear Modulus (GPa) = 29.31502 31.35829 30.33665
#
# Velocity S-wave (km/s) = 3.97664 4.11289 4.04534
# Velocity P-wave (km/s) = 7.10672 7.33672 7.22263
#
# Compressibility (1/GPa) = 0.01833541
#
# Stress axis : x y z
#
# Youngs Moduli (GPa) = 79.93018 83.17340 47.90574
#
# Poissons Ratio (x) = 0.23153 0.22515
# Poissons Ratio (y) = 0.22250 0.28997
# Poissons Ratio (z) = 0.37565 0.50345
#
# Static dielectric constant tensor:
#      x y z
#    x 3.679330 0.000000 0.000000 
#    y 0.000000 3.321130 0.000000 
#    z 0.000000 0.000000 3.336920 
# 
# 
# High freq. dielectric constant tensor:
#      x y z
#    x 1.732830 0.000000 0.000000 
#    y 0.000000 1.708200 0.000000 
#    z 0.000000 0.000000 1.717520 
# 
# From -- ./inp_files/4130.got.cif
#   From: 2010.03.12/outbox.cif.g09.slc.cpg/sg37_3_cif.got.tgz:4130.got - 2010.04.14 02:25:27.
