data_PCOD8176530
_publ_section_title
;
Structure prediction by ZEFSAII (Michael W. Deem and Ramdas Pophale) SiO2 
 PCOD8176530
Probable space group: C C C 2
;
_chemical_formula_sum "Si O2"
_cell_formula_units_Z 64
_cell_length_a 18.427086
_cell_length_b 14.516617
_cell_length_c 11.466917
_cell_angle_alpha 90.000000
_cell_angle_beta 90.000000
_cell_angle_gamma 90.000000
_cell_volume 3067.388256
_symmetry_space_group_name_H-M "C C C 2"
_symmetry_group_IT_number 37
_symmetry_cell_setting 'orthorhombic'
loop_
_space_group_symop_operation_xyz
x,y,z
-x,-y,z
-x,y,1/2+z
x,-y,1/2+z
1/2+x,1/2+y,z
1/2-x,1/2-y,z
1/2-x,1/2+y,1/2+z
1/2+x,1/2-y,1/2+z
loop_
_atom_site_type_symbol
_atom_site_label
_atom_site_fract_x
_atom_site_fract_y
_atom_site_fract_z
Si Si1 0.411680 0.788870 0.122490
Si Si2 0.556825 0.720102 0.227263
Si Si3 0.632667 0.422716 0.575671
Si Si4 0.159497 0.884789 0.200438
Si Si5 0.254791 0.857197 0.405122
Si Si6 0.066682 0.621102 0.882617
Si Si7 0.032103 0.093709 0.870698
Si Si8 0.594636 0.913139 0.846051
O O1 0.491458 0.741963 0.136532
O O2 0.350995 0.707144 0.122355
O O3 0.397131 0.865405 0.220662
O O4 0.399434 0.843974 0.002919
O O5 0.620160 0.657168 0.171408
O O6 0.591238 0.814249 0.274767
O O7 0.528245 0.671477 0.347552
O O8 0.645478 0.522756 0.629574
O O9 0.703780 0.406247 0.499226
O O10 0.556807 0.422639 0.503729
O O11 0.235626 0.885619 0.270641
O O12 0.102141 0.872402 0.303256
O O13 0.250000 0.750000 0.424706
O O14 0.338042 0.885246 0.428214
O O15 0.095481 0.523216 0.839163
O O16 0.979860 0.621481 0.903674
O O17 0.000000 0.000000 0.816869
#
# Coordination Sequence:
#
# PCOD8176530 Si02
#       8
#     8   8   8   8   8   8   8   8
#     4  10  21  38  65  92 127 165 207 264 332 389
#     4  10  21  37  59  99 132 160 209 271 330 394
#     4  11  24  37  62  98 128 173 211 262 330 395
#     4  10  22  40  60  92 125 168 214 256 323 406
#     4  11  24  46  65  87 131 182 219 262 326 422
#     4  10  23  39  69  99 122 162 219 289 321 372
#     4  10  20  33  58  89 134 164 201 260 327 394
#     4  10  23  45  62  92 126 165 226 267 327 388
#
# _framework density 20.864654999999999
#
# number of rings (size 3 to 8) (size 9 to 14) (size 15 to 20)
#    0.000    1.750    2.500    0.750    8.750    5.000 
#    2.250    0.000    0.000    1.500    0.000    0.000 
#    0.000    0.000    0.000    0.000    0.000    0.000 
#
# Total GULP energy -396656.043459 kJ/mol
# GULP energy per Si atom -12395.501358 kJ/mol
# Density = 2.081717 g / cm^3
# Si number density = 20.864655 Si / 1000 Ang^3
#
#
#
# Elastic Constant Matrix: (Units=GPa)
#
#
# Indices 1 2 3 4 5 6 
#
# 1 78.9519 37.3447 22.6626 0.0000 0.0000 0.0000
# 2 37.3447 166.7790 54.6550 0.0000 0.0000 0.0000
# 3 22.6626 54.6550 76.0142 0.0000 0.0000 0.0000
# 4 0.0000 0.0000 0.0000 26.1481 0.0000 0.0000
# 5 0.0000 0.0000 0.0000 0.0000 15.8527 0.0000
# 6 0.0000 0.0000 0.0000 0.0000 0.0000 21.5489
#
#
#
# Elastic Compliance Matrix: (Units=1/GPa)
#
#
# Indices 1 2 3 4 5 6 
#
# 1 0.014552 -0.002403 -0.002611 0.000000 0.000000 0.000000
# 2 -0.002403 0.008241 -0.005209 0.000000 0.000000 0.000000
# 3 -0.002611 -0.005209 0.017679 0.000000 0.000000 0.000000
# 4 0.000000 0.000000 0.000000 0.038244 0.000000 0.000000
# 5 0.000000 0.000000 0.000000 0.000000 0.063081 0.000000
# 6 0.000000 0.000000 0.000000 0.000000 0.000000 0.046406
#
#
# Mechanical properties :
#
#
# Convention : Reuss Voigt Hill
#
# Bulk Modulus (GPa) = 49.93312 61.22997 55.58155
# Shear Modulus (GPa) = 23.22090 26.51548 24.86819
#
# Velocity S-wave (km/s) = 3.33968 3.56874 3.45611
# Velocity P-wave (km/s) = 6.23339 6.81111 6.52864
#
# Compressibility (1/GPa) = 0.02002679
#
# Stress axis : x y z
#
# Youngs Moduli (GPa) = 68.71957 121.34396 56.56387
#
# Poissons Ratio (x) = 0.29157 0.14768
# Poissons Ratio (y) = 0.16512 0.29464
# Poissons Ratio (z) = 0.17941 0.63208
#
# Static dielectric constant tensor:
#      x y z
#    x 3.919370 0.000000 0.000000 
#    y 0.000000 3.929950 0.000000 
#    z 0.000000 0.000000 3.605160 
# 
# 
# High freq. dielectric constant tensor:
#      x y z
#    x 1.793080 0.000000 0.000000 
#    y 0.000000 1.837660 0.000000 
#    z 0.000000 0.000000 1.801140 
# 
# From -- ./inp_files/8359.got.cif
#   From: 2010.03.12/outbox.cif.g09.slc.cpg/sg37_5_cif.got.tgz:8359.got - 2010.04.14 02:25:27.
