data_PCOD8176144
_publ_section_title
;
Structure prediction by ZEFSAII (Michael W. Deem and Ramdas Pophale) SiO2 
 PCOD8176144
Probable space group: C M C 21
;
_chemical_formula_sum "Si O2"
_cell_formula_units_Z 48
_cell_length_a 27.084921
_cell_length_b 8.956541
_cell_length_c 9.530945
_cell_angle_alpha 90.000000
_cell_angle_beta 90.000000
_cell_angle_gamma 90.000000
_cell_volume 2312.085313
_symmetry_space_group_name_H-M "C M C 21"
_symmetry_group_IT_number 36
_symmetry_cell_setting 'orthorhombic'
loop_
_space_group_symop_operation_xyz
x,y,z
-x,-y,1/2+z
x,-y,1/2+z
-x,y,z
1/2+x,1/2+y,z
1/2-x,1/2-y,1/2+z
1/2+x,1/2-y,1/2+z
1/2-x,1/2+y,z
loop_
_atom_site_type_symbol
_atom_site_label
_atom_site_fract_x
_atom_site_fract_y
_atom_site_fract_z
Si Si1 0.681693 0.757459 0.391340
Si Si2 0.500000 0.648687 0.578738
Si Si3 0.818307 0.257459 0.088378
Si Si4 0.905734 0.348044 0.574532
Si Si5 0.500000 0.648687 0.900980
Si Si6 0.253033 0.500000 0.989859
Si Si7 0.094266 0.348044 0.905186
O O1 0.654435 0.761565 0.239859
O O2 0.642841 0.763581 0.518574
O O3 0.712457 0.605031 0.396059
O O4 0.718461 0.898268 0.392630
O O5 0.452210 0.745029 0.541693
O O6 0.500000 0.600241 0.739859
O O7 0.500000 0.500000 0.489859
O O8 0.781539 0.398268 0.087088
O O9 0.787543 0.105031 0.083658
O O10 0.857159 0.263581 0.961143
O O11 0.913066 0.500000 0.489859
O O12 0.899772 0.380941 0.739859
O O13 0.547790 0.745029 0.938024
#
# Coordination Sequence:
#
# PCOD8176144 Si02
#       7
#     8   4   8   8   4   8   8
#     4  11  23  41  65  94 129 172 216 264 317 374
#     4  10  25  46  68  98 130 164 207 260 320 383
#     4  11  23  41  65  94 129 172 216 264 317 374
#     4  11  24  43  67  96 129 167 214 262 317 383
#     4  10  25  46  68  98 130 164 207 260 320 383
#     4  10  24  40  62  94 132 168 220 260 320 370
#     4  11  24  43  67  96 129 167 214 262 317 383
#
# _framework density 20.760480000000001
#
# number of rings (size 3 to 8) (size 9 to 14) (size 15 to 20)
#    0.000    1.333    1.667    2.500    2.333    9.333 
#    0.000    0.000    0.000    0.000    0.000    0.000 
#    0.000    0.000    0.000    0.000    0.000    0.000 
#
# Total GULP energy -297620.512980 kJ/mol
# GULP energy per Si atom -12400.854708 kJ/mol
# Density = 2.071323 g / cm^3
# Si number density = 20.760480 Si / 1000 Ang^3
#
#
#
# Elastic Constant Matrix: (Units=GPa)
#
#
# Indices 1 2 3 4 5 6 
#
# 1 146.4830 71.8259 68.6315 0.0000 0.0000 0.0000
# 2 71.8259 119.8201 59.4953 0.0000 0.0000 0.0000
# 3 68.6315 59.4953 150.3184 0.0000 0.0000 0.0000
# 4 0.0000 0.0000 0.0000 25.4162 0.0000 0.0000
# 5 0.0000 0.0000 0.0000 0.0000 17.1729 0.0000
# 6 0.0000 0.0000 0.0000 0.0000 0.0000 -4.1602
#
#
#
# Elastic Compliance Matrix: (Units=1/GPa)
#
#
# Indices 1 2 3 4 5 6 
#
# 1 0.010590 -0.004913 -0.002891 0.000000 0.000000 0.000000
# 2 -0.004913 0.012666 -0.002770 0.000000 0.000000 0.000000
# 3 -0.002891 -0.002770 0.009069 0.000000 0.000000 0.000000
# 4 0.000000 0.000000 0.000000 0.039345 0.000000 0.000000
# 5 0.000000 0.000000 0.000000 0.000000 0.058231 0.000000
# 6 0.000000 0.000000 0.000000 0.000000 0.000000 -0.240373
#
#
# Mechanical properties :
#
#
# Convention : Reuss Voigt Hill
#
# Bulk Modulus (GPa) = 89.46343 90.72522 90.09433
# Shear Modulus (GPa) = -58.41227 22.13038 -18.14094
#
# Velocity S-wave (km/s) = -5.31012 3.26849 -2.95925
# Velocity P-wave (km/s) = 2.36436 7.61839 5.64048
#
# Compressibility (1/GPa) = 0.01117775
#
# Stress axis : x y z
#
# Youngs Moduli (GPa) = 94.42838 78.94934 110.26857
#
# Poissons Ratio (x) = 0.38787 0.31875
# Poissons Ratio (y) = 0.46391 0.30547
# Poissons Ratio (z) = 0.27296 0.21870
#
# Static dielectric constant tensor:
#      x y z
#    x 3.912870 0.000000 0.000000 
#    y 0.000000 3.918180 0.000000 
#    z 0.000000 0.000000 3.735030 
# 
# 
# High freq. dielectric constant tensor:
#      x y z
#    x 1.815850 0.000000 0.000000 
#    y 0.000000 1.825470 0.000000 
#    z 0.000000 0.000000 1.817850 
# 
# From -- ./inp_files/5996.got.cif
#   From: 2010.03.12/outbox.cif.g09.slc.cpg/sg36_3_cif.got.tgz:5996.got - 2010.04.14 02:13:53.
