data_PCOD8176540
_publ_section_title
;
Structure prediction by ZEFSAII (Michael W. Deem and Ramdas Pophale) SiO2 
 PCOD8176540
Probable space group: C C C 2
;
_chemical_formula_sum "Si O2"
_cell_formula_units_Z 48
_cell_length_a 15.530726
_cell_length_b 8.860295
_cell_length_c 18.691945
_cell_angle_alpha 90.000000
_cell_angle_beta 90.000000
_cell_angle_gamma 90.000000
_cell_volume 2572.138997
_symmetry_space_group_name_H-M "C C C 2"
_symmetry_group_IT_number 37
_symmetry_cell_setting 'orthorhombic'
loop_
_space_group_symop_operation_xyz
x,y,z
-x,-y,z
-x,y,1/2+z
x,-y,1/2+z
1/2+x,1/2+y,z
1/2-x,1/2-y,z
1/2-x,1/2+y,1/2+z
1/2+x,1/2-y,1/2+z
loop_
_atom_site_type_symbol
_atom_site_label
_atom_site_fract_x
_atom_site_fract_y
_atom_site_fract_z
Si Si1 0.660608 0.682347 0.092350
Si Si2 0.002862 0.820910 0.186150
Si Si3 0.993570 0.321763 0.339913
Si Si4 0.340856 0.692522 0.428123
Si Si5 0.158503 0.169725 0.587445
Si Si6 0.583106 0.607085 0.441781
O O1 0.750000 0.750000 0.121911
O O2 0.579768 0.732453 0.140326
O O3 0.674847 0.505601 0.096136
O O4 0.641622 0.735842 0.011091
O O5 0.002075 0.727827 0.258471
O O6 0.090968 0.773052 0.146653
O O7 0.000000 0.000000 0.200882
O O8 0.905328 0.276393 0.376296
O O9 0.000000 0.500000 0.346678
O O10 0.069231 0.232062 0.381057
O O11 0.250000 0.750000 0.401649
O O12 0.343893 0.511091 0.416465
O O13 0.250000 0.250000 0.595690
O O14 0.113982 0.199946 0.510880
O O15 0.500000 0.500000 0.459733
#
# Coordination Sequence:
#
# PCOD8176540 Si02
#       6
#     8   8   8   8   8   8
#     4   9  19  37  60  83 106 139 182 224 272 324
#     4  10  20  38  57  75 110 152 181 215 270 333
#     4  11  23  36  53  80 110 145 185 226 271 317
#     4   9  18  36  60  82 106 139 179 223 271 330
#     4  10  20  34  58  86 109 138 179 223 271 327
#     4   9  18  37  58  78 107 145 182 219 272 333
#
# _framework density 18.661511999999998
#
# number of rings (size 3 to 8) (size 9 to 14) (size 15 to 20)
#    0.000    2.333    0.000    5.000    0.000    6.000 
#    0.000    5.833    0.000    0.000    0.000    0.000 
#    0.000    0.000    0.000    0.000    0.000    0.000 
#
# Total GULP energy -297524.364353 kJ/mol
# GULP energy per Si atom -12396.848515 kJ/mol
# Density = 1.861904 g / cm^3
# Si number density = 18.661512 Si / 1000 Ang^3
#
#
#
# Elastic Constant Matrix: (Units=GPa)
#
#
# Indices 1 2 3 4 5 6 
#
# 1 119.8306 43.9167 66.3390 0.0000 0.0000 0.0000
# 2 43.9167 80.1949 58.5778 0.0000 0.0000 0.0000
# 3 66.3390 58.5778 127.4204 0.0000 0.0000 0.0000
# 4 0.0000 0.0000 0.0000 23.5467 0.0000 0.0000
# 5 0.0000 0.0000 0.0000 0.0000 2.6160 0.0000
# 6 0.0000 0.0000 0.0000 0.0000 0.0000 37.0402
#
#
#
# Elastic Compliance Matrix: (Units=1/GPa)
#
#
# Indices 1 2 3 4 5 6 
#
# 1 0.012208 -0.003076 -0.004942 0.000000 0.000000 0.000000
# 2 -0.003076 0.019549 -0.007386 0.000000 0.000000 0.000000
# 3 -0.004942 -0.007386 0.013816 0.000000 0.000000 0.000000
# 4 0.000000 0.000000 0.000000 0.042469 0.000000 0.000000
# 5 0.000000 0.000000 0.000000 0.000000 0.382259 0.000000
# 6 0.000000 0.000000 0.000000 0.000000 0.000000 0.026998
#
#
# Mechanical properties :
#
#
# Convention : Reuss Voigt Hill
#
# Bulk Modulus (GPa) = 67.72043 73.90145 70.81094
# Shear Modulus (GPa) = 9.38037 23.21475 16.29756
#
# Velocity S-wave (km/s) = 2.24444 3.53085 2.95841
# Velocity P-wave (km/s) = 6.56386 7.50397 7.04960
#
# Compressibility (1/GPa) = 0.01476659
#
# Stress axis : x y z
#
# Youngs Moduli (GPa) = 81.91173 51.15421 72.37790
#
# Poissons Ratio (x) = 0.15733 0.35770
# Poissons Ratio (y) = 0.25193 0.53456
# Poissons Ratio (z) = 0.40481 0.37781
#
# Static dielectric constant tensor:
#      x y z
#    x 3.599360 0.000000 0.000000 
#    y 0.000000 3.372960 0.000000 
#    z 0.000000 0.000000 3.460540 
# 
# 
# High freq. dielectric constant tensor:
#      x y z
#    x 1.729000 0.000000 0.000000 
#    y 0.000000 1.713520 0.000000 
#    z 0.000000 0.000000 1.722470 
# 
# From -- ./inp_files/12536.got.cif
#   From: 2010.03.12/outbox.cif.g09.slc.cpg/sg37_7_cif.got.tgz:12536.got - 2010.04.14 02:25:27.
