data_PCOD8176941
_publ_section_title
;
Structure prediction by ZEFSAII (Michael W. Deem and Ramdas Pophale) SiO2 
 PCOD8176941
Probable space group: C C C 2
;
_chemical_formula_sum "Si O2"
_cell_formula_units_Z 60
_cell_length_a 18.235548
_cell_length_b 19.672211
_cell_length_c 7.802196
_cell_angle_alpha 90.000000
_cell_angle_beta 90.000000
_cell_angle_gamma 90.000000
_cell_volume 2798.909453
_symmetry_space_group_name_H-M "C C C 2"
_symmetry_group_IT_number 37
_symmetry_cell_setting 'orthorhombic'
loop_
_space_group_symop_operation_xyz
x,y,z
-x,-y,z
-x,y,1/2+z
x,-y,1/2+z
1/2+x,1/2+y,z
1/2-x,1/2-y,z
1/2-x,1/2+y,1/2+z
1/2+x,1/2-y,1/2+z
loop_
_atom_site_type_symbol
_atom_site_label
_atom_site_fract_x
_atom_site_fract_y
_atom_site_fract_z
Si Si1 0.570335 0.789318 0.213360
Si Si2 0.000000 0.000000 0.420887
Si Si3 0.245879 0.426244 0.789229
Si Si4 0.578486 0.738933 0.597972
Si Si5 0.162193 0.474584 0.496164
Si Si6 0.090189 0.917221 0.172931
Si Si7 0.678387 0.793542 0.904231
Si Si8 0.438764 0.941824 0.717428
O O1 0.593630 0.770538 0.408441
O O2 0.506721 0.740604 0.147506
O O3 0.534911 0.864960 0.185647
O O4 0.639283 0.779616 0.086362
O O5 0.929537 0.971563 0.524754
O O6 0.028311 0.933898 0.315656
O O7 0.202061 0.418555 0.611054
O O8 0.331947 0.428877 0.761736
O O9 0.212172 0.368667 0.909515
O O10 0.224594 0.498892 0.868035
O O11 0.594110 0.658719 0.599408
O O12 0.625510 0.778546 0.742166
O O13 0.127746 0.539509 0.592993
O O14 0.093659 0.437749 0.408295
O O15 0.750000 0.750000 0.882584
O O16 0.500000 0.000000 0.707421
#
# Coordination Sequence:
#
# PCOD8176941 Si02
#       8
#     8   4   8   8   8   8   8   8
#     4  12  27  45  69 106 142 191 240 293 355 427
#     4  10  24  42  76 102 134 170 234 286 370 432
#     4  11  22  44  66  95 139 177 225 284 358 407
#     4  12  26  44  74 102 142 188 239 291 356 430
#     4  10  23  38  63  95 130 175 227 282 343 409
#     4  11  23  46  69 104 132 179 226 295 356 436
#     4  12  26  48  71 101 142 190 235 298 353 424
#     4  11  24  38  62  95 131 181 232 283 331 401
#
# _framework density 21.436921000000002
#
# number of rings (size 3 to 8) (size 9 to 14) (size 15 to 20)
#    0.000    0.800    4.000    2.800    7.467    0.533 
#    2.400    0.000    0.000    0.000    0.000    0.000 
#    0.000    0.000    0.000    0.000    0.000    0.000 
#
# Total GULP energy -371715.994404 kJ/mol
# GULP energy per Si atom -12390.533147 kJ/mol
# Density = 2.138813 g / cm^3
# Si number density = 21.436921 Si / 1000 Ang^3
#
#
#
# Elastic Constant Matrix: (Units=GPa)
#
#
# Indices 1 2 3 4 5 6 
#
# 1 117.5146 11.5477 39.6701 0.0000 0.0000 0.0000
# 2 11.5477 54.5610 -1.9565 0.0000 0.0000 0.0000
# 3 39.6701 -1.9565 114.5890 0.0000 0.0000 0.0000
# 4 0.0000 0.0000 0.0000 26.4384 0.0000 0.0000
# 5 0.0000 0.0000 0.0000 0.0000 39.2887 0.0000
# 6 0.0000 0.0000 0.0000 0.0000 0.0000 28.2922
#
#
#
# Elastic Compliance Matrix: (Units=1/GPa)
#
#
# Indices 1 2 3 4 5 6 
#
# 1 0.009897 -0.002219 -0.003464 0.000000 0.000000 0.000000
# 2 -0.002219 0.018837 0.001090 0.000000 0.000000 0.000000
# 3 -0.003464 0.001090 0.009945 0.000000 0.000000 0.000000
# 4 0.000000 0.000000 0.000000 0.037824 0.000000 0.000000
# 5 0.000000 0.000000 0.000000 0.000000 0.025453 0.000000
# 6 0.000000 0.000000 0.000000 0.000000 0.000000 0.035345
#
#
# Mechanical properties :
#
#
# Convention : Reuss Voigt Hill
#
# Bulk Modulus (GPa) = 33.90754 42.79859 38.35307
# Shear Modulus (GPa) = 31.98614 34.63075 33.30845
#
# Velocity S-wave (km/s) = 3.86697 4.02365 3.94609
# Velocity P-wave (km/s) = 5.98244 6.44939 6.22030
#
# Compressibility (1/GPa) = 0.02949197
#
# Stress axis : x y z
#
# Youngs Moduli (GPa) = 101.04025 53.08758 100.55580
#
# Poissons Ratio (x) = 0.11780 0.34834
# Poissons Ratio (y) = 0.22420 -0.10958
# Poissons Ratio (z) = 0.35002 -0.05785
#
# Static dielectric constant tensor:
#      x y z
#    x 3.821670 0.000000 0.000000 
#    y 0.000000 3.584210 0.000000 
#    z 0.000000 0.000000 4.147280 
# 
# 
# High freq. dielectric constant tensor:
#      x y z
#    x 1.843640 0.000000 0.000000 
#    y 0.000000 1.838800 0.000000 
#    z 0.000000 0.000000 1.852940 
# 
# From -- ./inp_files/4100.got.cif
#   From: 2010.03.12/outbox.cif.g09.slc.cpg/sg37_3_cif.got.tgz:4100.got - 2010.04.14 02:25:27.
