data_PCOD8176319
_publ_section_title
;
Structure prediction by ZEFSAII (Michael W. Deem and Ramdas Pophale) SiO2 
 PCOD8176319
Probable space group: C M C 21
;
_chemical_formula_sum "Si O2"
_cell_formula_units_Z 48
_cell_length_a 9.889941
_cell_length_b 27.215179
_cell_length_c 8.352473
_cell_angle_alpha 90.000000
_cell_angle_beta 90.000000
_cell_angle_gamma 90.000000
_cell_volume 2248.122521
_symmetry_space_group_name_H-M "C M C 21"
_symmetry_group_IT_number 36
_symmetry_cell_setting 'orthorhombic'
loop_
_space_group_symop_operation_xyz
x,y,z
-x,-y,1/2+z
x,-y,1/2+z
-x,y,z
1/2+x,1/2+y,z
1/2-x,1/2-y,1/2+z
1/2+x,1/2-y,1/2+z
1/2-x,1/2+y,z
loop_
_atom_site_type_symbol
_atom_site_label
_atom_site_fract_x
_atom_site_fract_y
_atom_site_fract_z
Si Si1 0.729082 0.895047 0.570900
Si Si2 0.153887 0.203051 0.608669
Si Si3 0.500000 0.538925 0.575421
Si Si4 0.846113 0.296949 0.408682
Si Si5 0.229082 0.895046 0.946453
Si Si6 0.000000 0.566649 0.573126
Si Si7 0.000000 0.066649 0.944227
Si Si8 0.000000 0.538925 0.941931
O O1 0.659337 0.844318 0.521926
O O2 0.633864 0.940501 0.525578
O O3 0.870345 0.899909 0.478623
O O4 0.749998 0.895452 0.758676
O O5 0.203821 0.250000 0.508676
O O6 0.250000 0.195596 0.758676
O O7 0.159337 0.155683 0.495424
O O8 0.000000 0.210441 0.668308
O O9 0.366136 0.559500 0.491774
O O10 0.500000 0.551372 0.761038
O O11 0.500000 0.480338 0.559967
O O12 0.000000 0.289559 0.349043
O O13 0.370345 0.899909 0.038732
O O14 0.000000 0.519663 0.457384
O O15 0.000000 0.551372 0.756314
#
# Coordination Sequence:
#
# PCOD8176319 Si02
#       8
#     8   8   4   8   8   4   4   4
#     4  12  25  44  68 100 137 180 225 280 340 402
#     4  11  25  46  71 102 139 178 226 278 336 406
#     4  12  24  46  65 100 135 178 234 278 340 402
#     4  11  25  46  71 102 139 178 226 278 336 406
#     4  12  25  44  68 100 137 180 225 280 340 402
#     4  12  26  42  71  96 137 182 226 284 336 402
#     4  12  26  42  71  96 137 182 226 284 336 402
#     4  12  24  46  65 100 135 178 234 278 340 402
#
# _framework density 21.351151000000002
#
# number of rings (size 3 to 8) (size 9 to 14) (size 15 to 20)
#    0.000    0.333    1.667    8.000    2.333    0.667 
#    0.000    0.000    0.000    0.000    0.000    0.000 
#    0.000    0.000    0.000    0.000    0.000    0.000 
#
# Total GULP energy -297854.718458 kJ/mol
# GULP energy per Si atom -12410.613269 kJ/mol
# Density = 2.130256 g / cm^3
# Si number density = 21.351151 Si / 1000 Ang^3
#
#
#
# Elastic Constant Matrix: (Units=GPa)
#
#
# Indices 1 2 3 4 5 6 
#
# 1 117.7944 9.0169 30.8309 0.0000 0.0000 0.0000
# 2 9.0169 92.5879 8.2284 0.0000 0.0000 0.0000
# 3 30.8309 8.2284 153.0220 0.0000 0.0000 0.0000
# 4 0.0000 0.0000 0.0000 27.1989 0.0000 0.0000
# 5 0.0000 0.0000 0.0000 0.0000 25.7817 0.0000
# 6 0.0000 0.0000 0.0000 0.0000 0.0000 35.4585
#
#
#
# Elastic Compliance Matrix: (Units=1/GPa)
#
#
# Indices 1 2 3 4 5 6 
#
# 1 0.009009 -0.000720 -0.001777 0.000000 0.000000 0.000000
# 2 -0.000720 0.010910 -0.000442 0.000000 0.000000 0.000000
# 3 -0.001777 -0.000442 0.006917 0.000000 0.000000 0.000000
# 4 0.000000 0.000000 0.000000 0.036766 0.000000 0.000000
# 5 0.000000 0.000000 0.000000 0.000000 0.038787 0.000000
# 6 0.000000 0.000000 0.000000 0.000000 0.000000 0.028202
#
#
# Mechanical properties :
#
#
# Convention : Reuss Voigt Hill
#
# Bulk Modulus (GPa) = 47.70872 51.06184 49.38528
# Shear Modulus (GPa) = 34.85446 38.70969 36.78208
#
# Velocity S-wave (km/s) = 4.04473 4.26256 4.15507
# Velocity P-wave (km/s) = 6.64879 6.94212 6.79704
#
# Compressibility (1/GPa) = 0.02096053
#
# Stress axis : x y z
#
# Youngs Moduli (GPa) = 110.99486 91.66007 144.57772
#
# Poissons Ratio (x) = 0.06595 0.25685
# Poissons Ratio (y) = 0.07986 0.06386
# Poissons Ratio (z) = 0.19719 0.04048
#
# Static dielectric constant tensor:
#      x y z
#    x 4.012910 0.000000 0.000000 
#    y 0.000000 4.316130 0.000000 
#    z 0.000000 0.000000 3.853310 
# 
# 
# High freq. dielectric constant tensor:
#      x y z
#    x 1.854760 0.000000 0.000000 
#    y 0.000000 1.849470 0.000000 
#    z 0.000000 0.000000 1.848350 
# 
# From -- ./inp_files/2781.got.cif
#   From: 2010.03.12/outbox.cif.g09.slc.cpg/sg36_2_cif.got.tgz:2781.got - 2010.04.14 02:13:53.
