data_PCOD8176568
_publ_section_title
;
Structure prediction by ZEFSAII (Michael W. Deem and Ramdas Pophale) SiO2 
 PCOD8176568
Probable space group: C C C 2
;
_chemical_formula_sum "Si O2"
_cell_formula_units_Z 64
_cell_length_a 8.405828
_cell_length_b 23.360701
_cell_length_c 16.999569
_cell_angle_alpha 90.000000
_cell_angle_beta 90.000000
_cell_angle_gamma 90.000000
_cell_volume 3338.137954
_symmetry_space_group_name_H-M "C C C 2"
_symmetry_group_IT_number 37
_symmetry_cell_setting 'orthorhombic'
loop_
_space_group_symop_operation_xyz
x,y,z
-x,-y,z
-x,y,1/2+z
x,-y,1/2+z
1/2+x,1/2+y,z
1/2-x,1/2-y,z
1/2-x,1/2+y,1/2+z
1/2+x,1/2-y,1/2+z
loop_
_atom_site_type_symbol
_atom_site_label
_atom_site_fract_x
_atom_site_fract_y
_atom_site_fract_z
Si Si1 0.318871 0.813204 0.254300
Si Si2 0.184216 0.500490 0.424801
Si Si3 0.684850 0.811816 0.290603
Si Si4 0.113939 0.904744 0.342303
Si Si5 0.316912 0.503682 0.588367
Si Si6 0.822230 0.124701 0.932751
Si Si7 0.110227 0.100670 0.200617
Si Si8 0.690319 0.624741 0.611818
O O1 0.250000 0.750000 0.256120
O O2 0.496976 0.812554 0.284748
O O3 0.220980 0.852353 0.313974
O O4 0.308664 0.837828 0.165402
O O5 0.277634 0.541523 0.365025
O O6 0.210447 0.522700 0.514088
O O7 0.245964 0.436589 0.415154
O O8 0.000000 0.500000 0.402378
O O9 0.750000 0.750000 0.268590
O O10 0.738555 0.828018 0.378597
O O11 0.755835 0.855696 0.227717
O O12 0.010800 0.881154 0.415717
O O13 0.992399 0.923887 0.273470
O O14 0.500000 0.500000 0.559099
O O15 0.297711 0.548563 0.658818
O O16 0.260803 0.441998 0.620227
O O17 0.796016 0.145148 0.021947
O O18 0.991742 0.132963 0.140443
#
# Coordination Sequence:
#
# PCOD8176568 Si02
#       8
#     8   8   8   8   8   8   8   8
#     4  11  23  40  59  81 112 148 188 235 282 331
#     4  11  21  33  54  86 120 148 180 227 279 333
#     4  11  23  40  59  82 111 146 190 236 281 331
#     4  10  20  36  57  81 113 149 189 229 277 333
#     4   9  18  35  56  82 115 149 183 221 276 336
#     4  10  21  38  60  84 113 150 188 229 278 332
#     4   9  19  34  58  83 110 148 189 228 274 332
#     4   9  19  36  58  85 113 148 186 223 276 334
#
# _framework density 19.172366
#
# number of rings (size 3 to 8) (size 9 to 14) (size 15 to 20)
#    0.000    2.000    0.000    5.625    0.000   11.500 
#    0.000    2.500    0.000    6.000    0.000    0.000 
#    0.000    0.000    0.000    0.000    0.000    0.000 
#
# Total GULP energy -396852.962254 kJ/mol
# GULP energy per Si atom -12401.655070 kJ/mol
# Density = 1.912873 g / cm^3
# Si number density = 19.172366 Si / 1000 Ang^3
#
#
#
# Elastic Constant Matrix: (Units=GPa)
#
#
# Indices 1 2 3 4 5 6 
#
# 1 112.8360 36.6048 36.8724 0.0000 0.0000 0.0000
# 2 36.6048 73.6533 30.8872 0.0000 0.0000 0.0000
# 3 36.8724 30.8872 75.3355 0.0000 0.0000 0.0000
# 4 0.0000 0.0000 0.0000 20.5038 0.0000 0.0000
# 5 0.0000 0.0000 0.0000 0.0000 29.0972 0.0000
# 6 0.0000 0.0000 0.0000 0.0000 0.0000 30.8078
#
#
#
# Elastic Compliance Matrix: (Units=1/GPa)
#
#
# Indices 1 2 3 4 5 6 
#
# 1 0.011465 -0.004039 -0.003956 0.000000 0.000000 0.000000
# 2 -0.004039 0.017819 -0.005329 0.000000 0.000000 0.000000
# 3 -0.003956 -0.005329 0.017395 0.000000 0.000000 0.000000
# 4 0.000000 0.000000 0.000000 0.048771 0.000000 0.000000
# 5 0.000000 0.000000 0.000000 0.000000 0.034368 0.000000
# 6 0.000000 0.000000 0.000000 0.000000 0.000000 0.032459
#
#
# Mechanical properties :
#
#
# Convention : Reuss Voigt Hill
#
# Bulk Modulus (GPa) = 49.91997 52.28374 51.10186
# Shear Modulus (GPa) = 25.56203 26.57911 26.07057
#
# Velocity S-wave (km/s) = 3.65536 3.72738 3.69155
# Velocity P-wave (km/s) = 6.62643 6.77156 6.69939
#
# Compressibility (1/GPa) = 0.02003206
#
# Stress axis : x y z
#
# Youngs Moduli (GPa) = 87.21885 56.11882 57.48867
#
# Poissons Ratio (x) = 0.22669 0.22740
# Poissons Ratio (y) = 0.35231 0.30634
# Poissons Ratio (z) = 0.34500 0.29905
#
# Static dielectric constant tensor:
#      x y z
#    x 3.461060 0.000000 0.000000 
#    y 0.000000 3.457210 0.000000 
#    z 0.000000 0.000000 3.686830 
# 
# 
# High freq. dielectric constant tensor:
#      x y z
#    x 1.739240 0.000000 0.000000 
#    y 0.000000 1.740400 0.000000 
#    z 0.000000 0.000000 1.751090 
# 
# From -- ./inp_files/14752.got.cif
#   From: 2010.03.12/outbox.cif.g09.slc.cpg/sg37_8_cif.got.tgz:14752.got - 2010.04.14 02:25:27.
