data_PCOD8176154
_publ_section_title
;
Structure prediction by ZEFSAII (Michael W. Deem and Ramdas Pophale) SiO2 
 PCOD8176154
Probable space group: C M C 21
;
_chemical_formula_sum "Si O2"
_cell_formula_units_Z 56
_cell_length_a 22.070516
_cell_length_b 14.637125
_cell_length_c 7.970290
_cell_angle_alpha 90.000000
_cell_angle_beta 90.000000
_cell_angle_gamma 90.000000
_cell_volume 2574.793429
_symmetry_space_group_name_H-M "C M C 21"
_symmetry_group_IT_number 36
_symmetry_cell_setting 'orthorhombic'
loop_
_space_group_symop_operation_xyz
x,y,z
-x,-y,1/2+z
x,-y,1/2+z
-x,y,z
1/2+x,1/2+y,z
1/2-x,1/2-y,1/2+z
1/2+x,1/2-y,1/2+z
1/2-x,1/2+y,z
loop_
_atom_site_type_symbol
_atom_site_label
_atom_site_fract_x
_atom_site_fract_y
_atom_site_fract_z
Si Si1 0.099282 0.694171 0.071470
Si Si2 0.353200 0.995002 0.507589
Si Si3 0.737168 0.953168 0.255940
Si Si4 0.270212 0.722100 0.568874
Si Si5 0.432376 0.709654 0.237136
Si Si6 0.804831 0.133671 0.228639
Si Si7 0.432957 0.159038 0.428118
O O1 0.166847 0.728724 0.094451
O O2 0.066509 0.712749 0.249666
O O3 0.099618 0.586937 0.027381
O O4 0.064901 0.741686 0.917937
O O5 0.284684 0.964122 0.447689
O O6 0.331956 0.035247 0.685557
O O7 0.385411 0.076982 0.407631
O O8 0.761982 0.852843 0.216101
O O9 0.787569 0.028054 0.204171
O O10 0.217286 0.799085 0.578834
O O11 0.268365 0.670733 0.391266
O O12 0.500000 0.666654 0.207691
O O13 0.378206 0.635158 0.243079
O O14 0.415533 0.776896 0.084661
O O15 0.500000 0.119654 0.461611
#
# Coordination Sequence:
#
# PCOD8176154 Si02
#       7
#     8   8   8   8   8   8   8
#     4  11  23  41  64  91 128 169 207 262 317 379
#     4  12  21  39  55  88 131 160 200 261 307 383
#     4  12  23  37  61  92 127 160 206 260 326 381
#     4  11  23  39  61  94 125 165 206 262 330 382
#     4  10  24  43  63  89 123 168 216 261 316 380
#     4  11  23  39  64  92 126 166 205 270 325 380
#     4  11  24  40  62  90 125 172 214 254 309 379
#
# _framework density 21.749317999999999
#
# number of rings (size 3 to 8) (size 9 to 14) (size 15 to 20)
#    0.000    0.857    4.286    3.857    2.000    1.143 
#    0.000    0.000    0.000    4.286    0.000    0.000 
#    0.000    0.000    0.000    0.000    0.000    0.000 
#
# Total GULP energy -347014.230254 kJ/mol
# GULP energy per Si atom -12393.365366 kJ/mol
# Density = 2.169982 g / cm^3
# Si number density = 21.749318 Si / 1000 Ang^3
#
#
#
# Elastic Constant Matrix: (Units=GPa)
#
#
# Indices 1 2 3 4 5 6 
#
# 1 88.2565 8.1444 12.2783 0.0000 0.0000 0.0000
# 2 8.1444 55.3897 -0.0827 0.0000 0.0000 0.0000
# 3 12.2783 -0.0827 79.9794 0.0000 0.0000 0.0000
# 4 0.0000 0.0000 0.0000 19.5153 0.0000 0.0000
# 5 0.0000 0.0000 0.0000 0.0000 20.8450 0.0000
# 6 0.0000 0.0000 0.0000 0.0000 0.0000 21.7173
#
#
#
# Elastic Compliance Matrix: (Units=1/GPa)
#
#
# Indices 1 2 3 4 5 6 
#
# 1 0.011741 -0.001729 -0.001804 0.000000 0.000000 0.000000
# 2 -0.001729 0.018309 0.000284 0.000000 0.000000 0.000000
# 3 -0.001804 0.000284 0.012780 0.000000 0.000000 0.000000
# 4 0.000000 0.000000 0.000000 0.051242 0.000000 0.000000
# 5 0.000000 0.000000 0.000000 0.000000 0.047973 0.000000
# 6 0.000000 0.000000 0.000000 0.000000 0.000000 0.046046
#
#
# Mechanical properties :
#
#
# Convention : Reuss Voigt Hill
#
# Bulk Modulus (GPa) = 27.52377 29.36731 28.44554
# Shear Modulus (GPa) = 24.18960 25.96788 25.07874
#
# Velocity S-wave (km/s) = 3.33859 3.45913 3.39939
# Velocity P-wave (km/s) = 5.24824 5.43010 5.33994
#
# Compressibility (1/GPa) = 0.03633224
#
# Stress axis : x y z
#
# Youngs Moduli (GPa) = 85.17028 54.61927 78.24423
#
# Poissons Ratio (x) = 0.09444 0.14117
# Poissons Ratio (y) = 0.14727 -0.02225
# Poissons Ratio (z) = 0.15367 -0.01553
#
# Static dielectric constant tensor:
#      x y z
#    x 3.782420 0.000000 0.000000 
#    y 0.000000 3.603880 0.000000 
#    z 0.000000 0.000000 4.174950 
# 
# 
# High freq. dielectric constant tensor:
#      x y z
#    x 1.847440 0.000000 0.000000 
#    y 0.000000 1.823410 0.000000 
#    z 0.000000 0.000000 1.879990 
# 
# From -- ./inp_files/5214.got.cif
#   From: 2010.03.12/outbox.cif.g09.slc.cpg/sg36_3_cif.got.tgz:5214.got - 2010.04.14 02:13:53.
