data_PCOD8176443
_publ_section_title
;
Structure prediction by ZEFSAII (Michael W. Deem and Ramdas Pophale) SiO2 
 PCOD8176443
Probable space group: C C C 2
;
_chemical_formula_sum "Si O2"
_cell_formula_units_Z 60
_cell_length_a 8.295438
_cell_length_b 23.411141
_cell_length_c 14.943246
_cell_angle_alpha 90.000000
_cell_angle_beta 90.000000
_cell_angle_gamma 90.000000
_cell_volume 2902.063082
_symmetry_space_group_name_H-M "C C C 2"
_symmetry_group_IT_number 37
_symmetry_cell_setting 'orthorhombic'
loop_
_space_group_symop_operation_xyz
x,y,z
-x,-y,z
-x,y,1/2+z
x,-y,1/2+z
1/2+x,1/2+y,z
1/2-x,1/2-y,z
1/2-x,1/2+y,1/2+z
1/2+x,1/2-y,1/2+z
loop_
_atom_site_type_symbol
_atom_site_label
_atom_site_fract_x
_atom_site_fract_y
_atom_site_fract_z
Si Si1 0.468429 0.060856 0.356720
Si Si2 0.165459 0.968323 0.112361
Si Si3 0.020655 0.672190 0.082220
Si Si4 0.614871 0.351791 0.410685
Si Si5 0.750000 0.250000 0.521979
Si Si6 0.222829 0.119175 0.458973
Si Si7 0.325237 0.071239 0.023433
Si Si8 0.703847 0.124289 0.240243
O O1 0.284367 0.080370 0.374963
O O2 0.533727 0.053949 0.457133
O O3 0.551081 0.110954 0.301875
O O4 0.500000 0.000000 0.307925
O O5 0.229857 0.934447 0.198311
O O6 0.290014 0.017446 0.085727
O O7 0.148208 0.921830 0.034406
O O8 0.000000 0.000000 0.136013
O O9 0.140750 0.671020 0.168063
O O10 0.892303 0.620393 0.089705
O O11 0.136885 0.662125 0.995496
O O12 0.911061 0.730368 0.078327
O O13 0.709375 0.301478 0.457761
O O14 0.423719 0.343243 0.420626
O O15 0.672681 0.409469 0.462115
O O16 0.657153 0.350750 0.304841
#
# Coordination Sequence:
#
# PCOD8176443 Si02
#       8
#     8   8   8   8   4   8   8   8
#     4  10  19  32  53  86 120 170 200 242 295 375
#     4  11  20  35  59  91 130 175 202 252 303 381
#     4   9  21  40  63  95 119 163 217 273 316 382
#     4  10  21  42  62  90 118 165 212 274 308 379
#     4  10  22  46  76  82 116 168 220 268 334 380
#     4  10  20  36  64  89 127 162 220 248 302 395
#     4   9  18  35  59  82 124 165 216 236 298 382
#     4  10  24  37  54  91 137 152 207 266 323 360
#
# _framework density 20.674945999999998
#
# number of rings (size 3 to 8) (size 9 to 14) (size 15 to 20)
#    0.000    2.133    2.667    0.800    1.867    1.600 
#    0.000    4.000    0.000    0.000    0.000    0.000 
#    0.000    0.000    0.000    0.000    0.000    0.000 
#
# Total GULP energy -371761.986101 kJ/mol
# GULP energy per Si atom -12392.066203 kJ/mol
# Density = 2.062789 g / cm^3
# Si number density = 20.674946 Si / 1000 Ang^3
#
#
#
# Elastic Constant Matrix: (Units=GPa)
#
#
# Indices 1 2 3 4 5 6 
#
# 1 111.8922 24.0317 43.8561 0.0000 0.0000 0.0000
# 2 24.0317 64.2112 30.1899 0.0000 0.0000 0.0000
# 3 43.8561 30.1899 90.9814 0.0000 0.0000 0.0000
# 4 0.0000 0.0000 0.0000 21.4886 0.0000 0.0000
# 5 0.0000 0.0000 0.0000 0.0000 13.3634 0.0000
# 6 0.0000 0.0000 0.0000 0.0000 0.0000 40.2158
#
#
#
# Elastic Compliance Matrix: (Units=1/GPa)
#
#
# Indices 1 2 3 4 5 6 
#
# 1 0.011224 -0.001963 -0.004759 0.000000 0.000000 0.000000
# 2 -0.001963 0.018796 -0.005291 0.000000 0.000000 0.000000
# 3 -0.004759 -0.005291 0.015041 0.000000 0.000000 0.000000
# 4 0.000000 0.000000 0.000000 0.046536 0.000000 0.000000
# 5 0.000000 0.000000 0.000000 0.000000 0.074831 0.000000
# 6 0.000000 0.000000 0.000000 0.000000 0.000000 0.024866
#
#
# Mechanical properties :
#
#
# Convention : Reuss Voigt Hill
#
# Bulk Modulus (GPa) = 47.53939 51.47111 49.50525
# Shear Modulus (GPa) = 22.48895 26.28070 24.38483
#
# Velocity S-wave (km/s) = 3.30167 3.56917 3.43802
# Velocity P-wave (km/s) = 6.13012 6.47570 6.30528
#
# Compressibility (1/GPa) = 0.02103519
#
# Stress axis : x y z
#
# Youngs Moduli (GPa) = 89.09404 53.20332 66.48596
#
# Poissons Ratio (x) = 0.10445 0.31640
# Poissons Ratio (y) = 0.17491 0.35175
# Poissons Ratio (z) = 0.42399 0.28148
#
# Static dielectric constant tensor:
#      x y z
#    x 4.108400 0.000000 0.000000 
#    y 0.000000 3.647890 0.000000 
#    z 0.000000 0.000000 3.600460 
# 
# 
# High freq. dielectric constant tensor:
#      x y z
#    x 1.813880 0.000000 0.000000 
#    y 0.000000 1.786920 0.000000 
#    z 0.000000 0.000000 1.789410 
# 
# From -- ./inp_files/10926.got.cif
#   From: 2010.03.12/outbox.cif.g09.slc.cpg/sg37_6_cif.got.tgz:10926.got - 2010.04.14 02:25:27.
