data_PCOD8176466
_publ_section_title
;
Structure prediction by ZEFSAII (Michael W. Deem and Ramdas Pophale) SiO2 
 PCOD8176466
Probable space group: C C C 2
;
_chemical_formula_sum "Si O2"
_cell_formula_units_Z 64
_cell_length_a 19.592447
_cell_length_b 20.412635
_cell_length_c 8.803313
_cell_angle_alpha 90.000000
_cell_angle_beta 90.000000
_cell_angle_gamma 90.000000
_cell_volume 3520.739510
_symmetry_space_group_name_H-M "C C C 2"
_symmetry_group_IT_number 37
_symmetry_cell_setting 'orthorhombic'
loop_
_space_group_symop_operation_xyz
x,y,z
-x,-y,z
-x,y,1/2+z
x,-y,1/2+z
1/2+x,1/2+y,z
1/2-x,1/2-y,z
1/2-x,1/2+y,1/2+z
1/2+x,1/2-y,1/2+z
loop_
_atom_site_type_symbol
_atom_site_label
_atom_site_fract_x
_atom_site_fract_y
_atom_site_fract_z
Si Si1 0.570400 0.381490 0.967220
Si Si2 0.794311 0.066672 0.468201
Si Si3 0.705689 0.566672 0.327134
Si Si4 0.713330 0.817610 0.470495
Si Si5 0.931732 0.267749 0.324500
Si Si6 0.070400 0.881490 0.328115
Si Si7 0.068267 0.267749 0.470836
Si Si8 0.786670 0.682390 0.824839
O O1 0.631246 0.423368 0.898031
O O2 0.500000 0.408755 0.897668
O O3 0.581091 0.306349 0.914029
O O4 0.570271 0.389127 0.147667
O O5 0.800092 0.060754 0.647667
O O6 0.868755 0.076632 0.397304
O O7 0.743408 0.125119 0.426563
O O8 0.763785 1.000000 0.397668
O O9 0.756592 0.625119 0.368772
O O10 0.750000 0.750000 0.428091
O O11 0.633344 0.812021 0.429299
O O12 0.725463 0.833702 0.647667
O O13 0.918909 0.193651 0.381306
O O14 0.866656 0.312021 0.366036
O O15 1.000000 0.298257 0.397669
O O16 0.944459 0.266255 0.147668
O O17 0.750000 0.750000 0.867243
#
# Coordination Sequence:
#
# PCOD8176466 Si02
#       8
#     8   8   8   8   8   8   8   8
#     4  10  19  35  55  81 114 151 189 229 275 331
#     4  12  25  39  56  81 112 151 192 236 282 336
#     4  12  25  39  56  81 112 151 192 236 282 336
#     4  10  19  37  60  83 113 150 186 229 284 333
#     4   9  18  32  55  83 114 147 180 225 278 329
#     4  10  19  35  55  81 114 151 189 229 275 331
#     4   9  18  32  55  83 114 147 180 225 278 329
#     4  10  19  37  60  83 113 150 186 229 284 333
#
# _framework density 18.177999
#
# number of rings (size 3 to 8) (size 9 to 14) (size 15 to 20)
#    0.000    1.750    2.500    3.000    0.000    3.000 
#    0.000    2.500    0.000    0.750    0.000    5.250 
#    0.000    0.000    0.000    0.000    0.000    0.000 
#
# Total GULP energy -396892.616666 kJ/mol
# GULP energy per Si atom -12402.894271 kJ/mol
# Density = 1.813663 g / cm^3
# Si number density = 18.177999 Si / 1000 Ang^3
#
#
#
# Elastic Constant Matrix: (Units=GPa)
#
#
# Indices 1 2 3 4 5 6 
#
# 1 112.5357 46.9991 48.8630 0.0000 0.0000 0.0000
# 2 46.9991 84.8994 43.8826 0.0000 0.0000 0.0000
# 3 48.8630 43.8826 96.9984 0.0000 0.0000 0.0000
# 4 0.0000 0.0000 0.0000 25.5269 0.0000 0.0000
# 5 0.0000 0.0000 0.0000 0.0000 35.8331 0.0000
# 6 0.0000 0.0000 0.0000 0.0000 0.0000 21.7044
#
#
#
# Elastic Compliance Matrix: (Units=1/GPa)
#
#
# Indices 1 2 3 4 5 6 
#
# 1 0.012756 -0.004882 -0.004217 0.000000 0.000000 0.000000
# 2 -0.004882 0.017242 -0.005341 0.000000 0.000000 0.000000
# 3 -0.004217 -0.005341 0.014850 0.000000 0.000000 0.000000
# 4 0.000000 0.000000 0.000000 0.039174 0.000000 0.000000
# 5 0.000000 0.000000 0.000000 0.000000 0.027907 0.000000
# 6 0.000000 0.000000 0.000000 0.000000 0.000000 0.046074
#
#
# Mechanical properties :
#
#
# Convention : Reuss Voigt Hill
#
# Bulk Modulus (GPa) = 62.62617 63.76923 63.19770
# Shear Modulus (GPa) = 26.01373 26.92545 26.46959
#
# Velocity S-wave (km/s) = 3.78703 3.85283 3.82007
# Velocity P-wave (km/s) = 7.32452 7.41276 7.36877
#
# Compressibility (1/GPa) = 0.01596777
#
# Stress axis : x y z
#
# Youngs Moduli (GPa) = 78.39435 57.99861 67.33878
#
# Poissons Ratio (x) = 0.28313 0.28399
# Poissons Ratio (y) = 0.38270 0.35966
# Poissons Ratio (z) = 0.33062 0.30978
#
# Static dielectric constant tensor:
#      x y z
#    x 3.512240 0.000000 0.000000 
#    y 0.000000 3.227340 0.000000 
#    z 0.000000 0.000000 3.306690 
# 
# 
# High freq. dielectric constant tensor:
#      x y z
#    x 1.709660 0.000000 0.000000 
#    y 0.000000 1.681080 0.000000 
#    z 0.000000 0.000000 1.706820 
# 
# From -- ./inp_files/4150.got.cif
#   From: 2010.03.12/outbox.cif.g09.slc.cpg/sg37_3_cif.got.tgz:4150.got - 2010.04.14 02:25:27.
