data_PCOD8176444
_publ_section_title
;
Structure prediction by ZEFSAII (Michael W. Deem and Ramdas Pophale) SiO2 
 PCOD8176444
Probable space group: C C C 2
;
_chemical_formula_sum "Si O2"
_cell_formula_units_Z 64
_cell_length_a 33.493142
_cell_length_b 17.289025
_cell_length_c 5.113628
_cell_angle_alpha 90.000000
_cell_angle_beta 90.000000
_cell_angle_gamma 90.000000
_cell_volume 2961.116705
_symmetry_space_group_name_H-M "C C C 2"
_symmetry_group_IT_number 37
_symmetry_cell_setting 'orthorhombic'
loop_
_space_group_symop_operation_xyz
x,y,z
-x,-y,z
-x,y,1/2+z
x,-y,1/2+z
1/2+x,1/2+y,z
1/2-x,1/2-y,z
1/2-x,1/2+y,1/2+z
1/2+x,1/2-y,1/2+z
loop_
_atom_site_type_symbol
_atom_site_label
_atom_site_fract_x
_atom_site_fract_y
_atom_site_fract_z
Si Si1 0.147241 0.666574 0.553920
Si Si2 0.169217 0.145582 0.488020
Si Si3 0.021700 0.663184 0.426981
Si Si4 0.194378 0.687191 0.052003
Si Si5 0.587077 0.047469 0.528320
Si Si6 0.524470 0.654619 0.968425
Si Si7 0.744814 0.551217 0.504822
Si Si8 0.383520 0.330115 0.989450
O O1 0.184168 0.678949 0.358538
O O2 0.131484 0.580356 0.491948
O O3 0.115425 0.736478 0.511055
O O4 0.158856 0.661627 0.858679
O O5 0.198793 0.220971 0.492316
O O6 0.197783 0.071106 0.505827
O O7 0.143355 0.137665 0.225156
O O8 0.137553 0.145153 0.721837
O O9 0.063009 0.625870 0.500127
O O10 0.024403 0.753942 0.455274
O O11 0.989063 0.634181 0.637368
O O12 0.232329 0.633563 0.994932
O O13 0.577525 0.983617 0.315058
O O14 0.501834 0.622212 0.710900
O O15 0.571624 0.632741 0.991909
O O16 0.756361 0.499067 0.256806
#
# Coordination Sequence:
#
# PCOD8176444 Si02
#       8
#     8   8   8   8   8   8   8   8
#     4  10  21  37  53  79 104 144 195 243 293 336
#     4  10  22  39  63  89 118 160 201 241 284 354
#     4  10  21  35  49  66  95 134 182 235 289 342
#     4  10  22  39  63  82 115 156 198 242 289 347
#     4  12  24  34  48  67  98 139 190 244 283 345
#     4  10  19  32  55  83 113 145 182 239 300 345
#     4  12  25  41  62  91 126 155 193 244 299 350
#     4  10  19  37  60  83 116 149 192 238 291 346
#
# _framework density 21.613468999999998
#
# number of rings (size 3 to 8) (size 9 to 14) (size 15 to 20)
#    0.000    1.500    1.250    4.125    0.000    4.500 
#    0.000    5.000    0.000    0.000    0.000    0.000 
#    0.000   35.000    0.000    0.000    0.000    0.000 
#
# Total GULP energy -396572.637158 kJ/mol
# GULP energy per Si atom -12392.894911 kJ/mol
# Density = 2.156428 g / cm^3
# Si number density = 21.613469 Si / 1000 Ang^3
#
#
#
# Elastic Constant Matrix: (Units=GPa)
#
#
# Indices 1 2 3 4 5 6 
#
# 1 69.9570 16.3780 8.7647 0.0000 0.0000 0.0000
# 2 16.3780 20.0087 12.8148 0.0000 0.0000 0.0000
# 3 8.7647 12.8148 105.3344 0.0000 0.0000 0.0000
# 4 0.0000 0.0000 0.0000 9.6327 0.0000 0.0000
# 5 0.0000 0.0000 0.0000 0.0000 22.9870 0.0000
# 6 0.0000 0.0000 0.0000 0.0000 0.0000 23.4693
#
#
#
# Elastic Compliance Matrix: (Units=1/GPa)
#
#
# Indices 1 2 3 4 5 6 
#
# 1 0.017693 -0.014684 0.000314 0.000000 0.000000 0.000000
# 2 -0.014684 0.066388 -0.006855 0.000000 0.000000 0.000000
# 3 0.000314 -0.006855 0.010301 0.000000 0.000000 0.000000
# 4 0.000000 0.000000 0.000000 0.103813 0.000000 0.000000
# 5 0.000000 0.000000 0.000000 0.000000 0.043503 0.000000
# 6 0.000000 0.000000 0.000000 0.000000 0.000000 0.042609
#
#
# Mechanical properties :
#
#
# Convention : Reuss Voigt Hill
#
# Bulk Modulus (GPa) = 19.25539 30.13501 24.69520
# Shear Modulus (GPa) = 14.53207 21.70729 18.11968
#
# Velocity S-wave (km/s) = 2.59581 3.17257 2.89857
# Velocity P-wave (km/s) = 4.23233 5.23386 4.75951
#
# Compressibility (1/GPa) = 0.05193351
#
# Stress axis : x y z
#
# Youngs Moduli (GPa) = 56.52027 15.06301 97.07431
#
# Poissons Ratio (x) = 0.22118 -0.03050
# Poissons Ratio (y) = 0.82992 0.66543
# Poissons Ratio (z) = -0.01776 0.10325
#
# Static dielectric constant tensor:
#      x y z
#    x 3.771120 0.000000 0.000000 
#    y 0.000000 3.574310 0.000000 
#    z 0.000000 0.000000 4.148260 
# 
# 
# High freq. dielectric constant tensor:
#      x y z
#    x 1.841930 0.000000 0.000000 
#    y 0.000000 1.821130 0.000000 
#    z 0.000000 0.000000 1.864080 
# 
# From -- ./inp_files/1505.got.cif
#   From: 2010.03.12/outbox.cif.g09.slc.cpg/sg37_1_cif.got.tgz:1505.got - 2010.04.14 02:25:27.
