data_PCOD8176859
_publ_section_title
;
Structure prediction by ZEFSAII (Michael W. Deem and Ramdas Pophale) SiO2 
 PCOD8176859
Probable space group: C C C 2
;
_chemical_formula_sum "Si O2"
_cell_formula_units_Z 52
_cell_length_a 16.408449
_cell_length_b 7.380752
_cell_length_c 20.158551
_cell_angle_alpha 90.000000
_cell_angle_beta 90.000000
_cell_angle_gamma 90.000000
_cell_volume 2441.335443
_symmetry_space_group_name_H-M "C C C 2"
_symmetry_group_IT_number 37
_symmetry_cell_setting 'orthorhombic'
loop_
_space_group_symop_operation_xyz
x,y,z
-x,-y,z
-x,y,1/2+z
x,-y,1/2+z
1/2+x,1/2+y,z
1/2-x,1/2-y,z
1/2-x,1/2+y,1/2+z
1/2+x,1/2-y,1/2+z
loop_
_atom_site_type_symbol
_atom_site_label
_atom_site_fract_x
_atom_site_fract_y
_atom_site_fract_z
Si Si1 0.161070 0.058266 0.566170
Si Si2 0.843693 0.236714 0.323106
Si Si3 0.906484 0.537054 0.412426
Si Si4 0.838788 0.482376 0.048399
Si Si5 0.436049 0.358904 0.692886
Si Si6 0.500000 0.000000 0.129079
Si Si7 0.592963 0.542163 0.425753
O O1 0.168509 0.269098 0.553719
O O2 0.248778 0.953215 0.573468
O O3 0.108961 0.033930 0.632915
O O4 0.114738 0.983245 0.501120
O O5 0.750000 0.250000 0.310847
O O6 0.882433 0.428419 0.346227
O O7 0.875420 0.188357 0.250969
O O8 0.855659 0.079534 0.376284
O O9 0.851041 0.459027 0.472174
O O10 0.889211 0.750372 0.405762
O O11 0.000000 0.500000 0.430657
O O12 0.918164 0.553433 0.087887
O O13 0.500000 0.500000 0.722813
O O14 0.481133 0.175267 0.672182
O O15 0.500000 0.500000 0.412962
#
# Coordination Sequence:
#
# PCOD8176859 Si02
#       7
#     8   8   8   8   8   4   8
#     4   9  20  38  67  95 136 168 214 276 332 376
#     4  12  28  43  66  97 134 176 222 275 338 394
#     4  11  22  40  69  98 130 170 220 274 326 391
#     4   9  18  37  66 100 126 166 218 275 326 384
#     4  11  26  44  65  93 132 177 221 268 328 400
#     4  10  22  40  68  90 128 176 222 262 326 394
#     4  11  22  42  70 100 131 172 225 274 326 395
#
# _framework density 21.299817000000001
#
# number of rings (size 3 to 8) (size 9 to 14) (size 15 to 20)
#    0.000    1.538    2.308    1.846    5.385    3.077 
#    0.000    2.308    0.000    0.000    0.000    0.000 
#    0.000    0.000    0.000    0.000    0.000    0.000 
#
# Total GULP energy -322272.854528 kJ/mol
# GULP energy per Si atom -12395.109790 kJ/mol
# Density = 2.125134 g / cm^3
# Si number density = 21.299817 Si / 1000 Ang^3
#
#
#
# Elastic Constant Matrix: (Units=GPa)
#
#
# Indices 1 2 3 4 5 6 
#
# 1 152.4540 45.9038 62.2475 0.0000 0.0000 0.0000
# 2 45.9038 97.9775 56.0638 0.0000 0.0000 0.0000
# 3 62.2475 56.0638 141.2145 0.0000 0.0000 0.0000
# 4 0.0000 0.0000 0.0000 25.9247 0.0000 0.0000
# 5 0.0000 0.0000 0.0000 0.0000 27.2936 0.0000
# 6 0.0000 0.0000 0.0000 0.0000 0.0000 8.8817
#
#
#
# Elastic Compliance Matrix: (Units=1/GPa)
#
#
# Indices 1 2 3 4 5 6 
#
# 1 0.008397 -0.002350 -0.002769 0.000000 0.000000 0.000000
# 2 -0.002350 0.013864 -0.004468 0.000000 0.000000 0.000000
# 3 -0.002769 -0.004468 0.010076 0.000000 0.000000 0.000000
# 4 0.000000 0.000000 0.000000 0.038573 0.000000 0.000000
# 5 0.000000 0.000000 0.000000 0.000000 0.036639 0.000000
# 6 0.000000 0.000000 0.000000 0.000000 0.000000 0.112591
#
#
# Mechanical properties :
#
#
# Convention : Reuss Voigt Hill
#
# Bulk Modulus (GPa) = 75.96788 80.00848 77.98818
# Shear Modulus (GPa) = 20.51687 27.58207 24.04947
#
# Velocity S-wave (km/s) = 3.10698 3.60244 3.36384
# Velocity P-wave (km/s) = 6.97241 7.41269 7.19592
#
# Compressibility (1/GPa) = 0.01316346
#
# Stress axis : x y z
#
# Youngs Moduli (GPa) = 119.08479 72.12757 99.24754
#
# Poissons Ratio (x) = 0.16951 0.27477
# Poissons Ratio (y) = 0.27986 0.44348
# Poissons Ratio (z) = 0.32969 0.32229
#
# Static dielectric constant tensor:
#      x y z
#    x 4.531590 0.000000 0.000000 
#    y 0.000000 3.814890 0.000000 
#    z 0.000000 0.000000 3.867400 
# 
# 
# High freq. dielectric constant tensor:
#      x y z
#    x 1.851990 0.000000 0.000000 
#    y 0.000000 1.832190 0.000000 
#    z 0.000000 0.000000 1.827960 
# 
# From -- ./inp_files/17128.got.cif
#   From: 2010.03.12/outbox.cif.g09.slc.cpg/sg37_9_cif.got.tgz:17128.got - 2010.04.14 02:25:27.
