data_PCOD8176770
_publ_section_title
;
Structure prediction by ZEFSAII (Michael W. Deem and Ramdas Pophale) SiO2 
 PCOD8176770
Probable space group: C C C 2
;
_chemical_formula_sum "Si O2"
_cell_formula_units_Z 64
_cell_length_a 13.576678
_cell_length_b 8.479423
_cell_length_c 27.455636
_cell_angle_alpha 90.000000
_cell_angle_beta 90.000000
_cell_angle_gamma 90.000000
_cell_volume 3160.758592
_symmetry_space_group_name_H-M "C C C 2"
_symmetry_group_IT_number 37
_symmetry_cell_setting 'orthorhombic'
loop_
_space_group_symop_operation_xyz
x,y,z
-x,-y,z
-x,y,1/2+z
x,-y,1/2+z
1/2+x,1/2+y,z
1/2-x,1/2-y,z
1/2-x,1/2+y,1/2+z
1/2+x,1/2-y,1/2+z
loop_
_atom_site_type_symbol
_atom_site_label
_atom_site_fract_x
_atom_site_fract_y
_atom_site_fract_z
Si Si1 0.945846 0.656830 0.433830
Si Si2 0.600159 0.082615 0.683333
Si Si3 0.647769 0.822195 0.332754
Si Si4 0.334887 0.879160 0.264610
Si Si5 0.844474 0.652103 0.076430
Si Si6 0.425519 0.621735 0.499148
Si Si7 0.470595 0.678179 0.751291
Si Si8 0.231493 0.582568 0.000814
O O1 0.931242 0.673193 0.376381
O O2 0.836500 0.636330 0.455748
O O3 0.000000 0.500000 0.448876
O O4 0.016960 0.798163 0.453436
O O5 0.611317 0.084105 0.625696
O O6 0.589119 0.260838 0.703542
O O7 0.500000 0.000000 0.697259
O O8 0.681026 0.979868 0.714040
O O9 0.750000 0.750000 0.352007
O O10 0.605820 0.693265 0.295360
O O11 0.661726 0.996334 0.309356
O O12 0.250000 0.750000 0.271515
O O13 0.436097 0.784215 0.264415
O O14 0.750000 0.750000 0.092409
O O15 0.825666 0.504340 0.042833
O O16 0.914393 0.760561 0.044032
O O17 0.500000 0.500000 0.522864
O O18 0.323973 0.529582 0.483381
O O19 0.500000 0.500000 0.741256
O O20 0.250000 0.750000 0.026585
#
# Coordination Sequence:
#
# PCOD8176770 Si02
#       8
#     8   8   8   8   8   8   8   8
#     4  12  24  43  67  90 126 173 211 268 330 381
#     4   9  21  37  63  90 127 166 211 260 311 386
#     4  11  24  42  63  95 126 164 210 263 317 386
#     4  10  21  42  64  95 131 168 209 261 321 379
#     4  10  23  40  60  93 126 166 218 261 321 380
#     4  11  24  41  64  91 125 170 213 273 321 387
#     4  10  21  41  64  93 129 167 208 259 318 375
#     4  11  23  42  62  92 127 163 219 265 322 385
#
# _framework density 20.248304000000001
#
# number of rings (size 3 to 8) (size 9 to 14) (size 15 to 20)
#    0.000    1.500    2.500    3.000    1.750    4.500 
#    4.500    5.000    0.000    0.000    0.000    0.000 
#    0.000    0.000    0.000    0.000    0.000    0.000 
#
# Total GULP energy -396428.848905 kJ/mol
# GULP energy per Si atom -12388.401528 kJ/mol
# Density = 2.020222 g / cm^3
# Si number density = 20.248304 Si / 1000 Ang^3
#
#
#
# Elastic Constant Matrix: (Units=GPa)
#
#
# Indices 1 2 3 4 5 6 
#
# 1 83.8763 44.6982 39.2913 0.0000 0.0000 0.0000
# 2 44.6982 151.3950 56.0044 0.0000 0.0000 0.0000
# 3 39.2913 56.0044 125.9700 0.0000 0.0000 0.0000
# 4 0.0000 0.0000 0.0000 161.6553 0.0000 0.0000
# 5 0.0000 0.0000 0.0000 0.0000 55.4445 0.0000
# 6 0.0000 0.0000 0.0000 0.0000 0.0000 43.7411
#
#
#
# Elastic Compliance Matrix: (Units=1/GPa)
#
#
# Indices 1 2 3 4 5 6 
#
# 1 0.015207 -0.003273 -0.003288 0.000000 0.000000 0.000000
# 2 -0.003273 0.008610 -0.002807 0.000000 0.000000 0.000000
# 3 -0.003288 -0.002807 0.010212 0.000000 0.000000 0.000000
# 4 0.000000 0.000000 0.000000 0.006186 0.000000 0.000000
# 5 0.000000 0.000000 0.000000 0.000000 0.018036 0.000000
# 6 0.000000 0.000000 0.000000 0.000000 0.000000 0.022862
#
#
# Mechanical properties :
#
#
# Convention : Reuss Voigt Hill
#
# Bulk Modulus (GPa) = 65.39202 71.24768 68.31985
# Shear Modulus (GPa) = 47.64334 66.91802 57.28068
#
# Velocity S-wave (km/s) = 4.85599 5.75504 5.32452
# Velocity P-wave (km/s) = 7.98787 8.91201 8.46256
#
# Compressibility (1/GPa) = 0.01529238
#
# Stress axis : x y z
#
# Youngs Moduli (GPa) = 65.75943 116.14362 97.92596
#
# Poissons Ratio (x) = 0.38019 0.32197
# Poissons Ratio (y) = 0.21526 0.27486
# Poissons Ratio (z) = 0.21621 0.32600
#
# Static dielectric constant tensor:
#      x y z
#    x 3.907470 0.000000 0.000000 
#    y 0.000000 3.624670 0.000000 
#    z 0.000000 0.000000 3.437680 
# 
# 
# High freq. dielectric constant tensor:
#      x y z
#    x 1.798090 0.000000 0.000000 
#    y 0.000000 1.807930 0.000000 
#    z 0.000000 0.000000 1.778430 
# 
# From -- ./inp_files/18449.got.cif
#   From: 2010.03.12/outbox.cif.g09.slc.cpg/sg37_10_cif.got.tgz:18449.got - 2010.04.14 02:25:27.
