data_PCOD8176581
_publ_section_title
;
Structure prediction by ZEFSAII (Michael W. Deem and Ramdas Pophale) SiO2 
 PCOD8176581
Probable space group: C C C 2
;
_chemical_formula_sum "Si O2"
_cell_formula_units_Z 44
_cell_length_a 9.150663
_cell_length_b 17.382702
_cell_length_c 14.135561
_cell_angle_alpha 90.000000
_cell_angle_beta 90.000000
_cell_angle_gamma 90.000000
_cell_volume 2248.448245
_symmetry_space_group_name_H-M "C C C 2"
_symmetry_group_IT_number 37
_symmetry_cell_setting 'orthorhombic'
loop_
_space_group_symop_operation_xyz
x,y,z
-x,-y,z
-x,y,1/2+z
x,-y,1/2+z
1/2+x,1/2+y,z
1/2-x,1/2-y,z
1/2-x,1/2+y,1/2+z
1/2+x,1/2-y,1/2+z
loop_
_atom_site_type_symbol
_atom_site_label
_atom_site_fract_x
_atom_site_fract_y
_atom_site_fract_z
Si Si1 0.323580 0.139075 0.517040
Si Si2 0.671633 0.174222 0.228684
Si Si3 0.000000 0.500000 0.964847
Si Si4 0.274937 0.462199 0.847168
Si Si5 0.593018 0.233239 0.832970
Si Si6 0.065049 0.103105 0.394157
O O1 0.327605 0.182359 0.616026
O O2 0.426372 0.064522 0.529862
O O3 0.384733 0.194615 0.435628
O O4 0.157425 0.114722 0.490707
O O5 0.750000 0.250000 0.270971
O O6 0.753879 0.094636 0.257524
O O7 0.505607 0.177520 0.268239
O O8 0.878106 0.539651 0.900101
O O9 0.330789 0.549673 0.823886
O O10 0.406674 0.433388 0.915857
O O11 0.750000 0.250000 0.784278
O O12 0.522363 0.317040 0.844490
#
# Coordination Sequence:
#
# PCOD8176581 Si02
#       6
#     8   8   4   8   8   8
#     4  10  22  39  63  89 125 161 204 259 310 370
#     4  12  22  38  64  93 119 165 219 254 308 380
#     4  10  20  40  58  92 122 164 204 252 328 354
#     4  10  20  36  63  87 120 165 206 255 308 374
#     4  10  20  40  62  86 125 165 198 257 314 367
#     4   9  19  39  60  85 123 167 198 250 323 360
#
# _framework density 19.569051999999999
#
# number of rings (size 3 to 8) (size 9 to 14) (size 15 to 20)
#    0.000    1.818    3.636    1.636    0.000    0.727 
#    0.000   11.818    0.000    0.000    0.000    0.000 
#    0.000    0.000    0.000    0.000    0.000    0.000 
#
# Total GULP energy -272554.546368 kJ/mol
# GULP energy per Si atom -12388.843017 kJ/mol
# Density = 1.952451 g / cm^3
# Si number density = 19.569052 Si / 1000 Ang^3
#
#
#
# Elastic Constant Matrix: (Units=GPa)
#
#
# Indices 1 2 3 4 5 6 
#
# 1 125.6960 30.7038 46.0343 0.0000 0.0000 0.0000
# 2 30.7038 103.0540 30.9268 0.0000 0.0000 0.0000
# 3 46.0343 30.9268 90.4425 0.0000 0.0000 0.0000
# 4 0.0000 0.0000 0.0000 23.5513 0.0000 0.0000
# 5 0.0000 0.0000 0.0000 0.0000 19.3811 0.0000
# 6 0.0000 0.0000 0.0000 0.0000 0.0000 33.2391
#
#
#
# Elastic Compliance Matrix: (Units=1/GPa)
#
#
# Indices 1 2 3 4 5 6 
#
# 1 0.010016 -0.001620 -0.004544 0.000000 0.000000 0.000000
# 2 -0.001620 0.011075 -0.002962 0.000000 0.000000 0.000000
# 3 -0.004544 -0.002962 0.014382 0.000000 0.000000 0.000000
# 4 0.000000 0.000000 0.000000 0.042460 0.000000 0.000000
# 5 0.000000 0.000000 0.000000 0.000000 0.051597 0.000000
# 6 0.000000 0.000000 0.000000 0.000000 0.000000 0.030085
#
#
# Mechanical properties :
#
#
# Convention : Reuss Voigt Hill
#
# Bulk Modulus (GPa) = 58.07107 59.39136 58.73122
# Shear Modulus (GPa) = 27.23178 29.33617 28.28397
#
# Velocity S-wave (km/s) = 3.73443 3.87603 3.80589
# Velocity P-wave (km/s) = 6.95226 7.10261 7.02784
#
# Compressibility (1/GPa) = 0.01722028
#
# Stress axis : x y z
#
# Youngs Moduli (GPa) = 99.84424 90.28950 69.52910
#
# Poissons Ratio (x) = 0.14631 0.31592
# Poissons Ratio (y) = 0.16179 0.20598
# Poissons Ratio (z) = 0.45366 0.26748
#
# Static dielectric constant tensor:
#      x y z
#    x 3.816110 0.000000 0.000000 
#    y 0.000000 4.019270 0.000000 
#    z 0.000000 0.000000 2.938570 
# 
# 
# High freq. dielectric constant tensor:
#      x y z
#    x 1.778150 0.000000 0.000000 
#    y 0.000000 1.793260 0.000000 
#    z 0.000000 0.000000 1.698680 
# 
# From -- ./inp_files/10522.got.cif
#   From: 2010.03.12/outbox.cif.g09.slc.cpg/sg37_6_cif.got.tgz:10522.got - 2010.04.14 02:25:27.
