data_PCOD8176306
_publ_section_title
;
Structure prediction by ZEFSAII (Michael W. Deem and Ramdas Pophale) SiO2 
 PCOD8176306
Probable space group: C M C 21
;
_chemical_formula_sum "Si O2"
_cell_formula_units_Z 40
_cell_length_a 9.506468
_cell_length_b 16.346431
_cell_length_c 11.167871
_cell_angle_alpha 90.000000
_cell_angle_beta 90.000000
_cell_angle_gamma 90.000000
_cell_volume 1735.451675
_symmetry_space_group_name_H-M "C M C 21"
_symmetry_group_IT_number 36
_symmetry_cell_setting 'orthorhombic'
loop_
_space_group_symop_operation_xyz
x,y,z
-x,-y,1/2+z
x,-y,1/2+z
-x,y,z
1/2+x,1/2+y,z
1/2-x,1/2-y,1/2+z
1/2+x,1/2-y,1/2+z
1/2-x,1/2+y,z
loop_
_atom_site_type_symbol
_atom_site_label
_atom_site_fract_x
_atom_site_fract_y
_atom_site_fract_z
Si Si1 0.000000 0.556276 0.908280
Si Si2 0.764100 0.308129 0.784285
Si Si3 0.500000 0.381054 0.061869
Si Si4 0.500000 0.800433 0.238320
Si Si5 0.714888 0.466580 0.900569
Si Si6 0.000000 0.295874 0.590249
Si Si7 0.000000 0.901565 0.337848
Si Si8 0.000000 0.734601 0.460231
O O1 0.000000 0.604008 0.780050
O O2 0.872377 0.493890 0.927963
O O3 0.000000 0.626081 0.007017
O O4 0.640614 0.241947 0.788222
O O5 0.703534 0.400231 0.792935
O O6 0.858208 0.300329 0.903037
O O7 0.857443 0.297742 0.666752
O O8 0.500000 0.287741 0.010885
O O9 0.500000 0.365033 0.204382
O O10 0.638362 0.429987 0.018683
O O11 0.500000 0.792067 0.096535
O O12 0.639523 0.546729 0.852811
O O13 0.000000 0.832072 0.439325
#
# Coordination Sequence:
#
# PCOD8176306 Si02
#       8
#     4   8   4   4   8   4   4   4
#     4  12  27  47  69 117 145 189 241 316 374 426
#     4  11  25  49  69 107 144 193 239 307 357 451
#     4  11  25  49  75  98 145 205 238 308 355 462
#     4  12  28  44  83 103 150 197 248 303 366 438
#     4  11  27  45  70 106 150 183 247 302 381 434
#     4  11  26  47  75 102 146 190 250 301 362 444
#     4  11  24  45  74 105 144 197 253 288 368 449
#     4  11  26  48  72 109 144 196 254 294 361 445
#
# _framework density 23.048753999999999
#
# number of rings (size 3 to 8) (size 9 to 14) (size 15 to 20)
#    0.000    0.800    2.000    4.800   11.200    1.600 
#    3.600    0.000    0.000    0.000    0.000    0.000 
#    0.000    0.000    0.000    0.000    0.000    0.000 
#
# Total GULP energy -248042.938417 kJ/mol
# GULP energy per Si atom -12402.146921 kJ/mol
# Density = 2.299629 g / cm^3
# Si number density = 23.048754 Si / 1000 Ang^3
#
#
#
# Elastic Constant Matrix: (Units=GPa)
#
#
# Indices 1 2 3 4 5 6 
#
# 1 123.6293 14.9870 36.6395 0.0000 0.0000 0.0000
# 2 14.9870 111.6423 30.7831 0.0000 0.0000 0.0000
# 3 36.6395 30.7831 117.5886 0.0000 0.0000 0.0000
# 4 0.0000 0.0000 0.0000 37.4876 0.0000 0.0000
# 5 0.0000 0.0000 0.0000 0.0000 4.9722 0.0000
# 6 0.0000 0.0000 0.0000 0.0000 0.0000 321.8789
#
#
#
# Elastic Compliance Matrix: (Units=1/GPa)
#
#
# Indices 1 2 3 4 5 6 
#
# 1 0.008934 -0.000465 -0.002662 0.000000 0.000000 0.000000
# 2 -0.000465 0.009678 -0.002389 0.000000 0.000000 0.000000
# 3 -0.002662 -0.002389 0.009959 0.000000 0.000000 0.000000
# 4 0.000000 0.000000 0.000000 0.026675 0.000000 0.000000
# 5 0.000000 0.000000 0.000000 0.000000 0.201117 0.000000
# 6 0.000000 0.000000 0.000000 0.000000 0.000000 0.003107
#
#
# Mechanical properties :
#
#
# Convention : Reuss Voigt Hill
#
# Bulk Modulus (GPa) = 57.01442 57.51993 57.26718
# Shear Modulus (GPa) = 18.09307 90.89779 54.49543
#
# Velocity S-wave (km/s) = 2.80481 6.28672 4.86774
# Velocity P-wave (km/s) = 5.93965 8.81516 7.51620
#
# Compressibility (1/GPa) = 0.01753942
#
# Stress axis : x y z
#
# Youngs Moduli (GPa) = 111.93177 103.32432 100.41197
#
# Poissons Ratio (x) = 0.04808 0.26729
# Poissons Ratio (y) = 0.05209 0.23985
# Poissons Ratio (z) = 0.29796 0.24680
#
# Static dielectric constant tensor:
#      x y z
#    x 4.438890 0.000000 0.000000 
#    y 0.000000 4.358210 0.000000 
#    z 0.000000 0.000000 3.998250 
# 
# 
# High freq. dielectric constant tensor:
#      x y z
#    x 1.930880 0.000000 0.000000 
#    y 0.000000 1.931200 0.000000 
#    z 0.000000 0.000000 1.896480 
# 
# From -- ./inp_files/6546.got.cif
#   From: 2010.03.12/outbox.cif.g09.slc.cpg/sg36_4_cif.got.tgz:6546.got - 2010.04.14 02:13:53.
