data_PCOD8176244
_publ_section_title
;
Structure prediction by ZEFSAII (Michael W. Deem and Ramdas Pophale) SiO2 
 PCOD8176244
Probable space group: C M C 21
;
_chemical_formula_sum "Si O2"
_cell_formula_units_Z 64
_cell_length_a 18.463778
_cell_length_b 18.209676
_cell_length_c 9.271923
_cell_angle_alpha 90.000000
_cell_angle_beta 90.000000
_cell_angle_gamma 90.000000
_cell_volume 3117.400528
_symmetry_space_group_name_H-M "C M C 21"
_symmetry_group_IT_number 36
_symmetry_cell_setting 'orthorhombic'
loop_
_space_group_symop_operation_xyz
x,y,z
-x,-y,1/2+z
x,-y,1/2+z
-x,y,z
1/2+x,1/2+y,z
1/2-x,1/2-y,1/2+z
1/2+x,1/2-y,1/2+z
1/2-x,1/2+y,z
loop_
_atom_site_type_symbol
_atom_site_label
_atom_site_fract_x
_atom_site_fract_y
_atom_site_fract_z
Si Si1 0.832403 0.326352 0.919990
Si Si2 0.583014 0.360860 0.079625
Si Si3 0.627772 0.198406 0.112609
Si Si4 0.350125 0.943852 0.137784
Si Si5 0.801865 0.060096 0.773078
Si Si6 0.211130 0.826091 0.526421
Si Si7 0.681587 0.391537 0.826574
Si Si8 0.918446 0.436190 0.447892
O O1 0.875966 0.337785 0.771420
O O2 0.835715 0.241281 0.965809
O O3 0.750865 0.355202 0.901635
O O4 0.873049 0.373767 0.041979
O O5 0.500000 0.386344 0.088131
O O6 0.589251 0.276240 0.123009
O O7 0.627342 0.411481 0.190732
O O8 0.610815 0.369346 0.916267
O O9 0.711163 0.207299 0.066976
O O10 0.585791 0.148185 0.997910
O O11 0.264602 0.940630 0.162848
O O12 0.395645 0.943499 0.283019
O O13 0.364946 0.017884 0.049299
O O14 0.780639 0.112066 0.905716
O O15 0.813726 0.979042 0.832320
O O16 0.171722 0.861353 0.664555
O O17 0.000000 0.465570 0.463439
#
# Coordination Sequence:
#
# PCOD8176244 Si02
#       8
#     8   8   8   8   8   8   8   8
#     4  11  23  40  69 103 132 174 225 287 329 392
#     4  12  26  44  67  96 136 182 225 282 354 409
#     4  11  22  42  66  98 134 180 223 269 339 407
#     4  12  24  42  70 103 136 177 230 275 326 399
#     4  12  23  45  69 103 131 172 234 285 342 401
#     4  11  22  40  70 102 132 169 228 288 335 393
#     4  11  24  40  68 100 132 169 224 289 341 403
#     4  12  26  43  67 101 145 185 219 269 336 412
#
# _framework density 20.529924999999999
#
# number of rings (size 3 to 8) (size 9 to 14) (size 15 to 20)
#    0.000    0.500    5.000    4.500    3.500    0.500 
#    0.000    2.500    0.000    0.000    0.000    0.000 
#    0.000    0.000    0.000    0.000    0.000    0.000 
#
# Total GULP energy -397002.707455 kJ/mol
# GULP energy per Si atom -12406.334608 kJ/mol
# Density = 2.048320 g / cm^3
# Si number density = 20.529925 Si / 1000 Ang^3
#
#
#
# Elastic Constant Matrix: (Units=GPa)
#
#
# Indices 1 2 3 4 5 6 
#
# 1 69.7148 15.5731 28.2684 0.0000 0.0000 0.0000
# 2 15.5731 120.0289 35.1774 0.0000 0.0000 0.0000
# 3 28.2684 35.1774 126.1194 0.0000 0.0000 0.0000
# 4 0.0000 0.0000 0.0000 42.4173 0.0000 0.0000
# 5 0.0000 0.0000 0.0000 0.0000 24.0647 0.0000
# 6 0.0000 0.0000 0.0000 0.0000 0.0000 13.6051
#
#
#
# Elastic Compliance Matrix: (Units=1/GPa)
#
#
# Indices 1 2 3 4 5 6 
#
# 1 0.015913 -0.001110 -0.003257 0.000000 0.000000 0.000000
# 2 -0.001110 0.009150 -0.002303 0.000000 0.000000 0.000000
# 3 -0.003257 -0.002303 0.009302 0.000000 0.000000 0.000000
# 4 0.000000 0.000000 0.000000 0.023575 0.000000 0.000000
# 5 0.000000 0.000000 0.000000 0.000000 0.041555 0.000000
# 6 0.000000 0.000000 0.000000 0.000000 0.000000 0.073502
#
#
# Mechanical properties :
#
#
# Convention : Reuss Voigt Hill
#
# Bulk Modulus (GPa) = 47.56550 52.65564 50.11057
# Shear Modulus (GPa) = 25.86042 31.80702 28.83372
#
# Velocity S-wave (km/s) = 3.55300 3.94039 3.75170
# Velocity P-wave (km/s) = 6.32858 6.81220 6.57484
#
# Compressibility (1/GPa) = 0.02102364
#
# Stress axis : x y z
#
# Youngs Moduli (GPa) = 62.84235 109.28448 107.50932
#
# Poissons Ratio (x) = 0.12131 0.35017
# Poissons Ratio (y) = 0.06976 0.24764
# Poissons Ratio (z) = 0.20468 0.25173
#
# Static dielectric constant tensor:
#      x y z
#    x 3.460030 0.000000 0.000000 
#    y 0.000000 3.796870 0.000000 
#    z 0.000000 0.000000 3.939330 
# 
# 
# High freq. dielectric constant tensor:
#      x y z
#    x 1.771840 0.000000 0.000000 
#    y 0.000000 1.816360 0.000000 
#    z 0.000000 0.000000 1.823610 
# 
# From -- ./inp_files/5324.got.cif
#   From: 2010.03.12/outbox.cif.g09.slc.cpg/sg36_3_cif.got.tgz:5324.got - 2010.04.14 02:13:53.
