data_PCOD8176418
_publ_section_title
;
Structure prediction by ZEFSAII (Michael W. Deem and Ramdas Pophale) SiO2 
 PCOD8176418
Probable space group: C C C 2
;
_chemical_formula_sum "Si O2"
_cell_formula_units_Z 56
_cell_length_a 10.614528
_cell_length_b 15.176137
_cell_length_c 17.510400
_cell_angle_alpha 90.000000
_cell_angle_beta 90.000000
_cell_angle_gamma 90.000000
_cell_volume 2820.707105
_symmetry_space_group_name_H-M "C C C 2"
_symmetry_group_IT_number 37
_symmetry_cell_setting 'orthorhombic'
loop_
_space_group_symop_operation_xyz
x,y,z
-x,-y,z
-x,y,1/2+z
x,-y,1/2+z
1/2+x,1/2+y,z
1/2-x,1/2-y,z
1/2-x,1/2+y,1/2+z
1/2+x,1/2-y,1/2+z
loop_
_atom_site_type_symbol
_atom_site_label
_atom_site_fract_x
_atom_site_fract_y
_atom_site_fract_z
Si Si1 0.874083 0.452160 0.343850
Si Si2 0.645436 0.469502 0.767613
Si Si3 0.529162 0.195100 0.434056
Si Si4 0.500000 0.500000 0.489748
Si Si5 0.276618 0.439850 0.096272
Si Si6 0.868236 0.855203 0.407650
Si Si7 0.154013 0.436274 0.492660
Si Si8 0.250000 0.750000 0.532315
O O1 0.750472 0.456461 0.289828
O O2 0.905993 0.349466 0.359743
O O3 0.836187 0.492801 0.425079
O O4 0.000000 0.500000 0.309324
O O5 0.500000 0.500000 0.773444
O O6 0.677113 0.443487 0.682036
O O7 0.672597 0.385517 0.822359
O O8 0.414075 0.254525 0.403448
O O9 0.477740 0.116681 0.489859
O O10 0.626167 0.255516 0.480004
O O11 0.616566 0.475578 0.541170
O O12 0.481534 0.417961 0.433606
O O13 0.165775 0.510351 0.073427
O O14 0.241693 0.338068 0.082750
O O15 0.761394 0.863907 0.473081
#
# Coordination Sequence:
#
# PCOD8176418 Si02
#       8
#     8   8   8   4   8   8   8   4
#     4   9  20  41  62  88 123 165 213 255 308 381
#     4  11  23  40  63  91 129 176 206 252 333 391
#     4  11  21  37  64  97 121 153 220 267 307 366
#     4  10  18  36  64  90 112 156 206 254 306 368
#     4  11  22  41  59  90 128 164 209 260 318 384
#     4  10  20  36  65  91 123 154 207 266 313 372
#     4   9  20  39  64  87 119 162 205 259 317 373
#     4  12  24  36  62  94 124 158 208 276 308 368
#
# _framework density 19.853178
#
# number of rings (size 3 to 8) (size 9 to 14) (size 15 to 20)
#    0.000    1.714    4.286    0.429    2.000    0.000 
#   10.286    0.000    0.000    1.714    0.000    0.000 
#    0.000    0.000    0.000    0.000    0.000    0.000 
#
# Total GULP energy -346930.591576 kJ/mol
# GULP energy per Si atom -12390.378271 kJ/mol
# Density = 1.980799 g / cm^3
# Si number density = 19.853178 Si / 1000 Ang^3
#
#
#
# Elastic Constant Matrix: (Units=GPa)
#
#
# Indices 1 2 3 4 5 6 
#
# 1 98.5833 33.7721 26.9449 0.0000 0.0000 0.0000
# 2 33.7721 104.2870 35.2291 0.0000 0.0000 0.0000
# 3 26.9449 35.2291 94.2734 0.0000 0.0000 0.0000
# 4 0.0000 0.0000 0.0000 30.1315 0.0000 0.0000
# 5 0.0000 0.0000 0.0000 0.0000 19.6704 0.0000
# 6 0.0000 0.0000 0.0000 0.0000 0.0000 39.1948
#
#
#
# Elastic Compliance Matrix: (Units=1/GPa)
#
#
# Indices 1 2 3 4 5 6 
#
# 1 0.011804 -0.003071 -0.002226 0.000000 0.000000 0.000000
# 2 -0.003071 0.011773 -0.003522 0.000000 0.000000 0.000000
# 3 -0.002226 -0.003522 0.012560 0.000000 0.000000 0.000000
# 4 0.000000 0.000000 0.000000 0.033188 0.000000 0.000000
# 5 0.000000 0.000000 0.000000 0.000000 0.050838 0.000000
# 6 0.000000 0.000000 0.000000 0.000000 0.000000 0.025514
#
#
# Mechanical properties :
#
#
# Convention : Reuss Voigt Hill
#
# Bulk Modulus (GPa) = 54.05570 54.33735 54.19652
# Shear Modulus (GPa) = 29.50197 31.21250 30.35724
#
# Velocity S-wave (km/s) = 3.85906 3.96936 3.91460
# Velocity P-wave (km/s) = 6.86610 6.95965 6.91303
#
# Compressibility (1/GPa) = 0.01849944
#
# Stress axis : x y z
#
# Youngs Moduli (GPa) = 84.71629 84.94018 79.61864
#
# Poissons Ratio (x) = 0.26081 0.17726
# Poissons Ratio (y) = 0.26012 0.28041
# Poissons Ratio (z) = 0.18861 0.29915
#
# Static dielectric constant tensor:
#      x y z
#    x 4.696990 0.000000 0.000000 
#    y 0.000000 3.572250 0.000000 
#    z 0.000000 0.000000 3.348420 
# 
# 
# High freq. dielectric constant tensor:
#      x y z
#    x 1.795000 0.000000 0.000000 
#    y 0.000000 1.771380 0.000000 
#    z 0.000000 0.000000 1.734020 
# 
# From -- ./inp_files/11647.got.cif
#   From: 2010.03.12/outbox.cif.g09.slc.cpg/sg37_6_cif.got.tgz:11647.got - 2010.04.14 02:25:27.
