data_PCOD8176194
_publ_section_title
;
Structure prediction by ZEFSAII (Michael W. Deem and Ramdas Pophale) SiO2 
 PCOD8176194
Probable space group: C M C 21
;
_chemical_formula_sum "Si O2"
_cell_formula_units_Z 48
_cell_length_a 18.371321
_cell_length_b 13.673665
_cell_length_c 8.658159
_cell_angle_alpha 90.000000
_cell_angle_beta 90.000000
_cell_angle_gamma 90.000000
_cell_volume 2174.958017
_symmetry_space_group_name_H-M "C M C 21"
_symmetry_group_IT_number 36
_symmetry_cell_setting 'orthorhombic'
loop_
_space_group_symop_operation_xyz
x,y,z
-x,-y,1/2+z
x,-y,1/2+z
-x,y,z
1/2+x,1/2+y,z
1/2-x,1/2-y,1/2+z
1/2+x,1/2-y,1/2+z
1/2-x,1/2+y,z
loop_
_atom_site_type_symbol
_atom_site_label
_atom_site_fract_x
_atom_site_fract_y
_atom_site_fract_z
Si Si1 0.123428 0.955575 0.118190
Si Si2 0.178321 0.362603 0.924075
Si Si3 0.287250 0.955855 0.222894
Si Si4 0.683560 0.774162 0.418875
Si Si5 0.581903 0.629890 0.297814
Si Si6 0.083092 0.751525 0.210703
O O1 0.208197 0.964380 0.149977
O O2 0.087573 0.869323 0.220632
O O3 0.085220 0.059677 0.149918
O O4 0.112221 0.934797 0.938800
O O5 0.189935 0.438839 0.784617
O O6 0.248414 0.295115 0.955282
O O7 0.110822 0.294720 0.871889
O O8 0.159832 0.419264 0.083754
O O9 0.288903 0.879364 0.364381
O O10 0.633671 0.724959 0.283731
O O11 0.635033 0.785513 0.572288
O O12 0.500000 0.666119 0.328281
O O13 0.000000 0.718641 0.181977
#
# Coordination Sequence:
#
# PCOD8176194 Si02
#       6
#     8   8   8   8   8   8
#     4  11  20  38  62  91 131 163 207 268 322 385
#     4  12  23  42  65  96 129 171 218 268 323 385
#     4  12  23  40  66  99 124 165 225 271 311 385
#     4  11  21  41  66  93 130 171 217 267 320 389
#     4  11  22  37  59  93 131 167 203 256 330 395
#     4  11  24  44  66  96 134 173 214 270 331 385
#
# _framework density 22.069391
#
# number of rings (size 3 to 8) (size 9 to 14) (size 15 to 20)
#    0.000    0.667    6.667    4.000    0.000    1.333 
#    0.000    7.500    0.000    0.000    0.000    0.000 
#    0.000    0.000    0.000    0.000    0.000    0.000 
#
# Total GULP energy -297612.775733 kJ/mol
# GULP energy per Si atom -12400.532322 kJ/mol
# Density = 2.201916 g / cm^3
# Si number density = 22.069391 Si / 1000 Ang^3
#
#
#
# Elastic Constant Matrix: (Units=GPa)
#
#
# Indices 1 2 3 4 5 6 
#
# 1 63.3397 14.5058 9.0310 0.0000 0.0000 0.0000
# 2 14.5058 53.0023 -0.7171 0.0000 0.0000 0.0000
# 3 9.0310 -0.7171 50.8187 0.0000 0.0000 0.0000
# 4 0.0000 0.0000 0.0000 37.1234 0.0000 0.0000
# 5 0.0000 0.0000 0.0000 0.0000 27.1110 0.0000
# 6 0.0000 0.0000 0.0000 0.0000 0.0000 20.2664
#
#
#
# Elastic Compliance Matrix: (Units=1/GPa)
#
#
# Indices 1 2 3 4 5 6 
#
# 1 0.017333 -0.004786 -0.003148 0.000000 0.000000 0.000000
# 2 -0.004786 0.020192 0.001136 0.000000 0.000000 0.000000
# 3 -0.003148 0.001136 0.020253 0.000000 0.000000 0.000000
# 4 0.000000 0.000000 0.000000 0.026937 0.000000 0.000000
# 5 0.000000 0.000000 0.000000 0.000000 0.036885 0.000000
# 6 0.000000 0.000000 0.000000 0.000000 0.000000 0.049343
#
#
# Mechanical properties :
#
#
# Convention : Reuss Voigt Hill
#
# Bulk Modulus (GPa) = 22.63398 23.64445 23.13922
# Shear Modulus (GPa) = 25.09182 26.52288 25.80735
#
# Velocity S-wave (km/s) = 3.37553 3.47045 3.42332
# Velocity P-wave (km/s) = 5.04682 5.17645 5.11205
#
# Compressibility (1/GPa) = 0.04418136
#
# Stress axis : x y z
#
# Youngs Moduli (GPa) = 57.69397 49.52360 49.37492
#
# Poissons Ratio (x) = 0.23703 0.15542
# Poissons Ratio (y) = 0.27614 -0.05607
# Poissons Ratio (z) = 0.18161 -0.05623
#
# Static dielectric constant tensor:
#      x y z
#    x 3.902230 0.000000 0.000000 
#    y 0.000000 4.119450 0.000000 
#    z 0.000000 0.000000 4.025020 
# 
# 
# High freq. dielectric constant tensor:
#      x y z
#    x 1.853250 0.000000 0.000000 
#    y 0.000000 1.869920 0.000000 
#    z 0.000000 0.000000 1.863930 
# 
# From -- ./inp_files/4644.got.cif
#   From: 2010.03.12/outbox.cif.g09.slc.cpg/sg36_3_cif.got.tgz:4644.got - 2010.04.14 02:13:53.
