data_PCOD8176336
_publ_section_title
;
Structure prediction by ZEFSAII (Michael W. Deem and Ramdas Pophale) SiO2 
 PCOD8176336
Probable space group: C M C 21
;
_chemical_formula_sum "Si O2"
_cell_formula_units_Z 40
_cell_length_a 10.767944
_cell_length_b 19.559475
_cell_length_c 8.476965
_cell_angle_alpha 90.000000
_cell_angle_beta 90.000000
_cell_angle_gamma 90.000000
_cell_volume 1785.378793
_symmetry_space_group_name_H-M "C M C 21"
_symmetry_group_IT_number 36
_symmetry_cell_setting 'orthorhombic'
loop_
_space_group_symop_operation_xyz
x,y,z
-x,-y,1/2+z
x,-y,1/2+z
-x,y,z
1/2+x,1/2+y,z
1/2-x,1/2-y,1/2+z
1/2+x,1/2-y,1/2+z
1/2-x,1/2+y,z
loop_
_atom_site_type_symbol
_atom_site_label
_atom_site_fract_x
_atom_site_fract_y
_atom_site_fract_z
Si Si1 0.640035 0.538562 0.385740
Si Si2 0.759707 0.917779 0.561770
Si Si3 0.247742 0.663158 0.562026
Si Si4 0.645508 0.712705 0.883300
Si Si5 0.500000 0.911273 0.072582
Si Si6 0.500000 0.060522 0.199811
O O1 0.500000 0.513651 0.416340
O O2 0.655477 0.555218 0.203127
O O3 0.734649 0.477010 0.428481
O O4 0.665998 0.605276 0.488468
O O5 0.815190 0.847914 0.498614
O O6 0.619487 0.904886 0.619435
O O7 0.322720 0.696504 0.704004
O O8 0.220163 0.719379 0.429223
O O9 0.119913 0.631168 0.626287
O O10 0.500000 0.727027 0.901413
O O11 0.500000 0.924613 0.885466
O O12 0.500000 0.979848 0.173858
#
# Coordination Sequence:
#
# PCOD8176336 Si02
#       6
#     8   8   8   8   4   4
#     4  12  24  44  70 103 141 185 238 292 355 436
#     4  12  25  44  73 103 143 189 233 299 364 419
#     4  12  26  48  73 100 143 187 240 298 366 425
#     4  12  28  49  71 104 145 189 241 299 359 442
#     4  12  26  48  74 108 148 183 243 308 362 438
#     4  12  24  46  76 108 148 177 249 302 356 430
#
# _framework density 22.404209000000002
#
# number of rings (size 3 to 8) (size 9 to 14) (size 15 to 20)
#    0.000    0.000    5.000    4.800    2.800    0.000 
#    5.400    0.000    0.000    0.000    0.000    0.000 
#    0.000    0.000    0.000    0.000    0.000    0.000 
#
# Total GULP energy -248190.231210 kJ/mol
# GULP energy per Si atom -12409.511560 kJ/mol
# Density = 2.235322 g / cm^3
# Si number density = 22.404209 Si / 1000 Ang^3
#
#
#
# Elastic Constant Matrix: (Units=GPa)
#
#
# Indices 1 2 3 4 5 6 
#
# 1 112.4543 12.0395 19.5388 0.0000 0.0000 0.0000
# 2 12.0395 51.4716 -5.9406 0.0000 0.0000 0.0000
# 3 19.5388 -5.9406 37.3070 0.0000 0.0000 0.0000
# 4 0.0000 0.0000 0.0000 43.9926 0.0000 0.0000
# 5 0.0000 0.0000 0.0000 0.0000 37.2678 0.0000
# 6 0.0000 0.0000 0.0000 0.0000 0.0000 39.1196
#
#
#
# Elastic Compliance Matrix: (Units=1/GPa)
#
#
# Indices 1 2 3 4 5 6 
#
# 1 0.010238 -0.003070 -0.005851 0.000000 0.000000 0.000000
# 2 -0.003070 0.020712 0.004906 0.000000 0.000000 0.000000
# 3 -0.005851 0.004906 0.030650 0.000000 0.000000 0.000000
# 4 0.000000 0.000000 0.000000 0.022731 0.000000 0.000000
# 5 0.000000 0.000000 0.000000 0.000000 0.026833 0.000000
# 6 0.000000 0.000000 0.000000 0.000000 0.000000 0.025563
#
#
# Mechanical properties :
#
#
# Convention : Reuss Voigt Hill
#
# Bulk Modulus (GPa) = 18.66682 28.05648 23.36165
# Shear Modulus (GPa) = 30.74786 35.78232 33.26509
#
# Velocity S-wave (km/s) = 3.70863 4.00074 3.85745
# Velocity P-wave (km/s) = 5.16609 5.82162 5.50363
#
# Compressibility (1/GPa) = 0.05357099
#
# Stress axis : x y z
#
# Youngs Moduli (GPa) = 97.67814 48.28005 32.62647
#
# Poissons Ratio (x) = 0.14822 0.19089
# Poissons Ratio (y) = 0.29986 -0.16006
# Poissons Ratio (z) = 0.57148 -0.23686
#
# Static dielectric constant tensor:
#      x y z
#    x 4.233170 0.000000 0.000000 
#    y 0.000000 4.183190 0.000000 
#    z 0.000000 0.000000 4.053460 
# 
# 
# High freq. dielectric constant tensor:
#      x y z
#    x 1.895230 0.000000 0.000000 
#    y 0.000000 1.892470 0.000000 
#    z 0.000000 0.000000 1.891470 
# 
# From -- ./inp_files/3080.got.cif
#   From: 2010.03.12/outbox.cif.g09.slc.cpg/sg36_2_cif.got.tgz:3080.got - 2010.04.14 02:13:53.
