data_PCOD8176843
_publ_section_title
;
Structure prediction by ZEFSAII (Michael W. Deem and Ramdas Pophale) SiO2 
 PCOD8176843
Probable space group: C C C 2
;
_chemical_formula_sum "Si O2"
_cell_formula_units_Z 36
_cell_length_a 5.016000
_cell_length_b 21.120702
_cell_length_c 12.064099
_cell_angle_alpha 90.000000
_cell_angle_beta 90.000000
_cell_angle_gamma 90.000000
_cell_volume 1278.088035
_symmetry_space_group_name_H-M "C C C 2"
_symmetry_group_IT_number 37
_symmetry_cell_setting 'orthorhombic'
loop_
_space_group_symop_operation_xyz
x,y,z
-x,-y,z
-x,y,1/2+z
x,-y,1/2+z
1/2+x,1/2+y,z
1/2-x,1/2-y,z
1/2-x,1/2+y,1/2+z
1/2+x,1/2-y,1/2+z
loop_
_atom_site_type_symbol
_atom_site_label
_atom_site_fract_x
_atom_site_fract_y
_atom_site_fract_z
Si Si1 0.321133 0.395137 0.877500
Si Si2 0.678868 0.604862 0.615458
Si Si3 0.322754 0.818604 0.877930
Si Si4 0.677247 0.181396 0.615029
Si Si5 0.000000 0.500000 0.996479
O O1 0.323926 0.401192 0.746479
O O2 0.622453 0.375940 0.918959
O O3 0.125697 0.336510 0.913150
O O4 0.204760 0.460814 0.920798
O O5 0.377549 0.624060 0.574000
O O6 0.874307 0.663489 0.579808
O O7 0.795233 0.539184 0.572160
O O8 0.250000 0.750000 0.927131
O O9 0.295431 0.816278 0.746480
O O10 0.750000 0.250000 0.565828
#
# Coordination Sequence:
#
# PCOD8176843 Si02
#       5
#     8   8   8   8   4
#     4  10  22  39  62  91 124 164 209 259 311 371
#     4  10  22  39  62  91 124 164 209 259 311 371
#     4   9  18  37  65  93 120 154 201 262 326 375
#     4   9  18  37  65  93 120 154 201 262 326 375
#     4  12  26  42  60  88 132 178 218 252 304 376
#
# _framework density 28.167075000000001
#
# number of rings (size 3 to 8) (size 9 to 14) (size 15 to 20)
#    0.000    2.222    0.000    2.000    0.000   10.667 
#    0.000   11.111    0.000    0.000    0.000    0.000 
#    0.000    5.333    0.000    0.000    0.000    0.000 
#
# Total GULP energy -223329.586583 kJ/mol
# GULP energy per Si atom -12407.199255 kJ/mol
# Density = 2.810297 g / cm^3
# Si number density = 28.167075 Si / 1000 Ang^3
#
#
#
# Elastic Constant Matrix: (Units=GPa)
#
#
# Indices 1 2 3 4 5 6 
#
# 1 219.9349 95.8369 63.0937 0.0000 0.0000 0.0000
# 2 95.8369 181.5414 25.9356 0.0000 0.0000 0.0000
# 3 63.0937 25.9356 80.3969 0.0000 0.0000 0.0000
# 4 0.0000 0.0000 0.0000 43.0649 0.0000 0.0000
# 5 0.0000 0.0000 0.0000 0.0000 60.3902 0.0000
# 6 0.0000 0.0000 0.0000 0.0000 0.0000 -41.1296
#
#
#
# Elastic Compliance Matrix: (Units=1/GPa)
#
#
# Indices 1 2 3 4 5 6 
#
# 1 0.007272 -0.003170 -0.004684 0.000000 0.000000 0.000000
# 2 -0.003170 0.007156 0.000179 0.000000 0.000000 0.000000
# 3 -0.004684 0.000179 0.016057 0.000000 0.000000 0.000000
# 4 0.000000 0.000000 0.000000 0.023221 0.000000 0.000000
# 5 0.000000 0.000000 0.000000 0.000000 0.016559 0.000000
# 6 0.000000 0.000000 0.000000 0.000000 0.000000 -0.024313
#
#
# Mechanical properties :
#
#
# Convention : Reuss Voigt Hill
#
# Bulk Modulus (GPa) = 66.07343 94.62286 80.34815
# Shear Modulus (GPa) = 75.36309 32.26556 53.81433
#
# Velocity S-wave (km/s) = 5.17821 3.38820 4.37571
# Velocity P-wave (km/s) = 7.69808 6.99807 7.35640
#
# Compressibility (1/GPa) = 0.01513468
#
# Stress axis : x y z
#
# Youngs Moduli (GPa) = 137.51881 139.74140 62.27960
#
# Poissons Ratio (x) = 0.44292 0.29173
# Poissons Ratio (y) = 0.43588 -0.01114
# Poissons Ratio (z) = 0.64417 -0.02500
#
# Static dielectric constant tensor:
#      x y z
#    x 5.567930 0.000000 0.000000 
#    y 0.000000 4.939020 0.000000 
#    z 0.000000 0.000000 6.101210 
# 
# 
# High freq. dielectric constant tensor:
#      x y z
#    x 2.157740 0.000000 0.000000 
#    y 0.000000 2.123540 0.000000 
#    z 0.000000 0.000000 2.232350 
# 
# From -- ./inp_files/9545.got.cif
#   From: 2010.03.12/outbox.cif.g09.slc.cpg/sg37_5_cif.got.tgz:9545.got - 2010.04.14 02:25:27.
