data_PCOD8176429
_publ_section_title
;
Structure prediction by ZEFSAII (Michael W. Deem and Ramdas Pophale) SiO2 
 PCOD8176429
Probable space group: C C C 2
;
_chemical_formula_sum "Si O2"
_cell_formula_units_Z 60
_cell_length_a 23.466144
_cell_length_b 8.430278
_cell_length_c 15.175529
_cell_angle_alpha 90.000000
_cell_angle_beta 90.000000
_cell_angle_gamma 90.000000
_cell_volume 3002.115983
_symmetry_space_group_name_H-M "C C C 2"
_symmetry_group_IT_number 37
_symmetry_cell_setting 'orthorhombic'
loop_
_space_group_symop_operation_xyz
x,y,z
-x,-y,z
-x,y,1/2+z
x,-y,1/2+z
1/2+x,1/2+y,z
1/2-x,1/2-y,z
1/2-x,1/2+y,1/2+z
1/2+x,1/2-y,1/2+z
loop_
_atom_site_type_symbol
_atom_site_label
_atom_site_fract_x
_atom_site_fract_y
_atom_site_fract_z
Si Si1 0.314457 0.709952 0.269240
Si Si2 0.192562 0.823309 0.073355
Si Si3 0.000000 0.000000 0.783433
Si Si4 0.008661 0.323016 0.894064
Si Si5 0.387798 0.206656 0.434974
Si Si6 0.879010 0.106919 0.755176
Si Si7 0.690078 0.685951 0.096963
Si Si8 0.632722 0.855475 0.934901
O O1 0.250000 0.750000 0.298470
O O2 0.322930 0.761346 0.166844
O O3 0.331341 0.524951 0.278620
O O4 0.354950 0.807650 0.334060
O O5 0.250000 0.750000 0.032331
O O6 0.204589 0.004855 0.085596
O O7 0.139874 0.818980 0.007074
O O8 0.940741 0.028126 0.730331
O O9 0.010444 0.165215 0.834608
O O10 0.065956 0.321852 0.952002
O O11 0.000000 0.500000 0.846535
O O12 0.954562 0.307602 0.959290
O O13 0.383284 0.275504 0.337035
O O14 0.354307 0.041264 0.442619
O O15 0.858621 0.209740 0.671066
O O16 0.750000 0.750000 0.131562
O O17 0.671082 0.763346 0.004957
#
# Coordination Sequence:
#
# PCOD8176429 Si02
#       8
#     8   8   4   8   8   8   8   8
#     4  10  21  38  60  88 119 158 205 252 308 372
#     4  10  22  39  59  88 121 160 207 255 313 378
#     4  10  18  40  68  90 130 164 206 270 312 382
#     4   9  20  37  61  94 126 160 211 259 314 381
#     4  10  22  38  61  88 123 163 202 257 317 376
#     4  10  22  40  63  93 124 164 214 256 320 380
#     4  11  24  40  59  89 126 162 210 264 309 382
#     4  11  21  39  61  88 122 167 204 257 318 369
#
# _framework density 19.985903
#
# number of rings (size 3 to 8) (size 9 to 14) (size 15 to 20)
#    0.000    1.867    1.333    2.000    1.867    5.867 
#    4.800    0.000    0.000    4.800    0.000    0.000 
#    0.000    0.000    0.000    0.000    0.000    0.000 
#
# Total GULP energy -371704.585417 kJ/mol
# GULP energy per Si atom -12390.152847 kJ/mol
# Density = 1.994041 g / cm^3
# Si number density = 19.985903 Si / 1000 Ang^3
#
#
#
# Elastic Constant Matrix: (Units=GPa)
#
#
# Indices 1 2 3 4 5 6 
#
# 1 144.1144 43.6555 56.6538 0.0000 0.0000 0.0000
# 2 43.6555 86.2093 25.9928 0.0000 0.0000 0.0000
# 3 56.6538 25.9928 81.9838 0.0000 0.0000 0.0000
# 4 0.0000 0.0000 0.0000 22.8081 0.0000 0.0000
# 5 0.0000 0.0000 0.0000 0.0000 26.6830 0.0000
# 6 0.0000 0.0000 0.0000 0.0000 0.0000 35.8993
#
#
#
# Elastic Compliance Matrix: (Units=1/GPa)
#
#
# Indices 1 2 3 4 5 6 
#
# 1 0.010363 -0.003415 -0.006078 0.000000 0.000000 0.000000
# 2 -0.003415 0.013951 -0.002063 0.000000 0.000000 0.000000
# 3 -0.006078 -0.002063 0.017052 0.000000 0.000000 0.000000
# 4 0.000000 0.000000 0.000000 0.043844 0.000000 0.000000
# 5 0.000000 0.000000 0.000000 0.000000 0.037477 0.000000
# 6 0.000000 0.000000 0.000000 0.000000 0.000000 0.027856
#
#
# Mechanical properties :
#
#
# Convention : Reuss Voigt Hill
#
# Bulk Modulus (GPa) = 54.78642 62.76797 58.77720
# Shear Modulus (GPa) = 27.81786 29.47845 28.64816
#
# Velocity S-wave (km/s) = 3.73483 3.84469 3.79016
# Velocity P-wave (km/s) = 6.78754 7.15424 6.97330
#
# Compressibility (1/GPa) = 0.01825270
#
# Stress axis : x y z
#
# Youngs Moduli (GPa) = 96.49760 71.67903 58.64362
#
# Poissons Ratio (x) = 0.24478 0.35646
# Poissons Ratio (y) = 0.32954 0.12100
# Poissons Ratio (z) = 0.58656 0.14790
#
# Static dielectric constant tensor:
#      x y z
#    x 3.994970 0.000000 0.000000 
#    y 0.000000 3.824390 0.000000 
#    z 0.000000 0.000000 3.504470 
# 
# 
# High freq. dielectric constant tensor:
#      x y z
#    x 1.798820 0.000000 0.000000 
#    y 0.000000 1.793070 0.000000 
#    z 0.000000 0.000000 1.747510 
# 
# From -- ./inp_files/13122.got.cif
#   From: 2010.03.12/outbox.cif.g09.slc.cpg/sg37_7_cif.got.tgz:13122.got - 2010.04.14 02:25:27.
