data_PCOD8176190
_publ_section_title
;
Structure prediction by ZEFSAII (Michael W. Deem and Ramdas Pophale) SiO2 
 PCOD8176190
Probable space group: C M C 21
;
_chemical_formula_sum "Si O2"
_cell_formula_units_Z 64
_cell_length_a 8.792521
_cell_length_b 20.035732
_cell_length_c 19.877152
_cell_angle_alpha 90.000000
_cell_angle_beta 90.000000
_cell_angle_gamma 90.000000
_cell_volume 3501.650419
_symmetry_space_group_name_H-M "C M C 21"
_symmetry_group_IT_number 36
_symmetry_cell_setting 'orthorhombic'
loop_
_space_group_symop_operation_xyz
x,y,z
-x,-y,1/2+z
x,-y,1/2+z
-x,y,z
1/2+x,1/2+y,z
1/2-x,1/2-y,1/2+z
1/2+x,1/2-y,1/2+z
1/2-x,1/2+y,z
loop_
_atom_site_type_symbol
_atom_site_label
_atom_site_fract_x
_atom_site_fract_y
_atom_site_fract_z
Si Si1 0.321676 0.199192 0.017410
Si Si2 0.680234 0.167413 0.164840
Si Si3 0.820577 0.913438 0.437086
Si Si4 0.179840 0.417282 0.293230
Si Si5 0.177958 0.808469 0.206166
Si Si6 0.819642 0.478006 0.684914
Si Si7 0.175625 0.153903 0.553922
Si Si8 0.679167 0.981170 0.037930
O O1 0.500000 0.184736 0.009392
O O2 0.258477 0.171422 0.088496
O O3 0.287753 0.278257 0.013115
O O4 0.234088 0.160378 0.958652
O O5 0.500000 0.171343 0.158742
O O6 0.733020 0.231016 0.208727
O O7 0.735594 0.098202 0.198377
O O8 0.759263 0.929619 0.363572
O O9 0.759467 0.969883 0.486428
O O10 0.000000 0.915338 0.436174
O O11 0.224351 0.345939 0.262266
O O12 0.244254 0.474808 0.243512
O O13 0.000000 0.421093 0.302481
O O14 0.215225 0.836970 0.132423
O O15 0.000000 0.815712 0.222963
O O16 0.759342 0.502161 0.612581
O O17 0.000000 0.481865 0.684517
O O18 0.000000 0.134647 0.545471
O O19 0.277566 0.095410 0.522023
O O20 0.500000 0.991578 0.031274
#
# Coordination Sequence:
#
# PCOD8176190 Si02
#       8
#     8   8   8   8   8   8   8   8
#     4   9  17  34  58  82 111 147 182 226 281 340
#     4   8  14  29  55  83 109 136 174 223 276 327
#     4  12  25  39  55  80 113 152 195 242 290 342
#     4  11  22  37  56  80 111 151 190 231 284 346
#     4   9  17  31  54  82 111 143 176 222 278 335
#     4   9  17  31  56  85 109 139 186 234 275 328
#     4   9  18  32  55  87 118 144 179 228 284 333
#     4  11  20  35  59  85 114 150 192 236 282 339
#
# _framework density 18.277094999999999
#
# number of rings (size 3 to 8) (size 9 to 14) (size 15 to 20)
#    0.000    2.250    2.500    3.375    0.000    0.500 
#    0.000    3.125    0.000    4.500    0.000    0.000 
#    0.000    0.000    0.000    0.000    0.000    0.000 
#
# Total GULP energy -396753.338852 kJ/mol
# GULP energy per Si atom -12398.541839 kJ/mol
# Density = 1.823550 g / cm^3
# Si number density = 18.277095 Si / 1000 Ang^3
#
#
#
# Elastic Constant Matrix: (Units=GPa)
#
#
# Indices 1 2 3 4 5 6 
#
# 1 75.6688 43.5651 46.1553 0.0000 0.0000 0.0000
# 2 43.5651 145.4189 67.2444 0.0000 0.0000 0.0000
# 3 46.1553 67.2444 113.9374 0.0000 0.0000 0.0000
# 4 0.0000 0.0000 0.0000 27.0686 0.0000 0.0000
# 5 0.0000 0.0000 0.0000 0.0000 23.1190 0.0000
# 6 0.0000 0.0000 0.0000 0.0000 0.0000 29.3314
#
#
#
# Elastic Compliance Matrix: (Units=1/GPa)
#
#
# Indices 1 2 3 4 5 6 
#
# 1 0.018365 -0.002836 -0.005766 0.000000 0.000000 0.000000
# 2 -0.002836 0.009896 -0.004692 0.000000 0.000000 0.000000
# 3 -0.005766 -0.004692 0.013881 0.000000 0.000000 0.000000
# 4 0.000000 0.000000 0.000000 0.036943 0.000000 0.000000
# 5 0.000000 0.000000 0.000000 0.000000 0.043254 0.000000
# 6 0.000000 0.000000 0.000000 0.000000 0.000000 0.034093
#
#
# Mechanical properties :
#
#
# Convention : Reuss Voigt Hill
#
# Bulk Modulus (GPa) = 64.28490 72.10606 68.19548
# Shear Modulus (GPa) = 26.56681 27.77451 27.17066
#
# Velocity S-wave (km/s) = 3.81669 3.90248 3.85982
# Velocity P-wave (km/s) = 7.39402 7.73583 7.56686
#
# Compressibility (1/GPa) = 0.01555575
#
# Stress axis : x y z
#
# Youngs Moduli (GPa) = 54.45108 101.05442 72.03841
#
# Poissons Ratio (x) = 0.28654 0.41538
# Poissons Ratio (y) = 0.15440 0.33798
# Poissons Ratio (z) = 0.31397 0.47411
#
# Static dielectric constant tensor:
#      x y z
#    x 3.096420 0.000000 0.000000 
#    y 0.000000 3.701190 0.000000 
#    z 0.000000 0.000000 3.217560 
# 
# 
# High freq. dielectric constant tensor:
#      x y z
#    x 1.685630 0.000000 0.000000 
#    y 0.000000 1.725810 0.000000 
#    z 0.000000 0.000000 1.683200 
# 
# From -- ./inp_files/13973.got.cif
#   From: 2010.03.12/outbox.cif.g09.slc.cpg/sg36_7_cif.got.tgz:13973.got - 2010.04.14 02:13:53.
