data_PCOD8176638
_publ_section_title
;
Structure prediction by ZEFSAII (Michael W. Deem and Ramdas Pophale) SiO2 
 PCOD8176638
Probable space group: C C C 2
;
_chemical_formula_sum "Si O2"
_cell_formula_units_Z 40
_cell_length_a 12.043213
_cell_length_b 9.164168
_cell_length_c 15.553603
_cell_angle_alpha 90.000000
_cell_angle_beta 90.000000
_cell_angle_gamma 90.000000
_cell_volume 1716.589372
_symmetry_space_group_name_H-M "C C C 2"
_symmetry_group_IT_number 37
_symmetry_cell_setting 'orthorhombic'
loop_
_space_group_symop_operation_xyz
x,y,z
-x,-y,z
-x,y,1/2+z
x,-y,1/2+z
1/2+x,1/2+y,z
1/2-x,1/2-y,z
1/2-x,1/2+y,1/2+z
1/2+x,1/2-y,1/2+z
loop_
_atom_site_type_symbol
_atom_site_label
_atom_site_fract_x
_atom_site_fract_y
_atom_site_fract_z
Si Si1 0.092098 0.606309 0.552560
Si Si2 0.250000 0.750000 0.666407
Si Si3 0.679700 0.053185 0.810206
Si Si4 0.779585 0.906448 0.489921
Si Si5 0.043352 0.700531 0.362507
Si Si6 0.500000 0.500000 0.927187
O O1 0.134085 0.743166 0.610662
O O2 0.209808 0.525574 0.540645
O O3 0.038668 0.652518 0.462577
O O4 0.000000 0.500000 0.598055
O O5 0.253871 0.898265 0.724554
O O6 0.758203 0.091795 0.888435
O O7 0.569149 0.151189 0.817256
O O8 0.645974 0.880244 0.813716
O O9 0.750000 0.750000 0.530338
O O10 0.910659 0.935373 0.494276
O O11 0.053395 0.876014 0.363996
#
# Coordination Sequence:
#
# PCOD8176638 Si02
#       6
#     8   4   8   8   8   4
#     4  11  22  40  63  98 139 186 245 297 353 429
#     4  12  24  36  68 108 140 184 238 300 380 420
#     4  10  20  41  64  94 141 182 233 291 360 431
#     4  11  20  39  67  95 136 184 243 285 347 435
#     4  10  20  40  68  98 131 190 245 286 343 444
#     4  12  20  32  68 106 122 174 242 306 334 404
#
# _framework density 23.302021
#
# number of rings (size 3 to 8) (size 9 to 14) (size 15 to 20)
#    0.000    1.200    7.000    1.200    2.800    2.400 
#    0.000    0.000    8.800   10.800    0.000    0.000 
#    0.000    0.000    0.000    0.000    0.000    0.000 
#
# Total GULP energy -247815.171129 kJ/mol
# GULP energy per Si atom -12390.758556 kJ/mol
# Density = 2.324898 g / cm^3
# Si number density = 23.302021 Si / 1000 Ang^3
#
#
#
# Elastic Constant Matrix: (Units=GPa)
#
#
# Indices 1 2 3 4 5 6 
#
# 1 115.6123 43.6383 25.0522 0.0000 0.0000 0.0000
# 2 43.6383 163.5925 20.4784 0.0000 0.0000 0.0000
# 3 25.0522 20.4784 77.1916 0.0000 0.0000 0.0000
# 4 0.0000 0.0000 0.0000 10.1210 0.0000 0.0000
# 5 0.0000 0.0000 0.0000 0.0000 14.7703 0.0000
# 6 0.0000 0.0000 0.0000 0.0000 0.0000 43.1088
#
#
#
# Elastic Compliance Matrix: (Units=1/GPa)
#
#
# Indices 1 2 3 4 5 6 
#
# 1 0.010118 -0.002367 -0.002656 0.000000 0.000000 0.000000
# 2 -0.002367 0.006876 -0.001056 0.000000 0.000000 0.000000
# 3 -0.002656 -0.001056 0.014097 0.000000 0.000000 0.000000
# 4 0.000000 0.000000 0.000000 0.098804 0.000000 0.000000
# 5 0.000000 0.000000 0.000000 0.000000 0.067703 0.000000
# 6 0.000000 0.000000 0.000000 0.000000 0.000000 0.023197
#
#
# Mechanical properties :
#
#
# Convention : Reuss Voigt Hill
#
# Bulk Modulus (GPa) = 52.81493 59.41493 56.11493
# Shear Modulus (GPa) = 20.89733 31.41519 26.15626
#
# Velocity S-wave (km/s) = 2.99792 3.67573 3.35399
# Velocity P-wave (km/s) = 5.89049 6.60059 6.25563
#
# Compressibility (1/GPa) = 0.01893404
#
# Stress axis : x y z
#
# Youngs Moduli (GPa) = 98.82954 145.42804 70.93715
#
# Poissons Ratio (x) = 0.34417 0.18841
# Poissons Ratio (y) = 0.23389 0.07492
# Poissons Ratio (z) = 0.26250 0.15359
#
# Static dielectric constant tensor:
#      x y z
#    x 4.284070 0.000000 0.000000 
#    y 0.000000 4.581740 0.000000 
#    z 0.000000 0.000000 3.828570 
# 
# 
# High freq. dielectric constant tensor:
#      x y z
#    x 1.923670 0.000000 0.000000 
#    y 0.000000 1.921520 0.000000 
#    z 0.000000 0.000000 1.875450 
# 
# From -- ./inp_files/14890.got.cif
#   From: 2010.03.12/outbox.cif.g09.slc.cpg/sg37_8_cif.got.tgz:14890.got - 2010.04.14 02:25:27.
