data_PCOD8176274
_publ_section_title
;
Structure prediction by ZEFSAII (Michael W. Deem and Ramdas Pophale) SiO2 
 PCOD8176274
Probable space group: C M C 21
;
_chemical_formula_sum "Si O2"
_cell_formula_units_Z 64
_cell_length_a 15.537090
_cell_length_b 17.132593
_cell_length_c 11.191999
_cell_angle_alpha 90.000000
_cell_angle_beta 90.000000
_cell_angle_gamma 90.000000
_cell_volume 2979.205370
_symmetry_space_group_name_H-M "C M C 21"
_symmetry_group_IT_number 36
_symmetry_cell_setting 'orthorhombic'
loop_
_space_group_symop_operation_xyz
x,y,z
-x,-y,1/2+z
x,-y,1/2+z
-x,y,z
1/2+x,1/2+y,z
1/2-x,1/2-y,1/2+z
1/2+x,1/2-y,1/2+z
1/2-x,1/2+y,z
loop_
_atom_site_type_symbol
_atom_site_label
_atom_site_fract_x
_atom_site_fract_y
_atom_site_fract_z
Si Si1 0.596736 0.230704 0.023790
Si Si2 0.096633 0.604936 0.425345
Si Si3 0.190477 0.117869 0.865770
Si Si4 0.403264 0.730705 0.036303
Si Si5 0.250000 0.489092 0.030046
Si Si6 0.403367 0.604937 0.634748
Si Si7 0.190477 0.617869 0.194323
Si Si8 0.188921 0.750000 0.780046
O O1 0.500000 0.199357 0.009636
O O2 0.601664 0.302567 0.114139
O O3 0.654533 0.161450 0.076861
O O4 0.630144 0.258737 0.896001
O O5 0.101664 0.697431 0.445955
O O6 0.164669 0.562295 0.511065
O O7 0.115370 0.591810 0.284957
O O8 0.000000 0.573932 0.453313
O O9 0.115370 0.091810 0.775135
O O10 0.254796 0.171791 0.789546
O O11 0.154532 0.161451 0.983231
O O12 0.238493 0.040696 0.911162
O O13 0.500000 0.699359 0.050458
O O14 0.369855 0.758737 0.164091
O O15 0.335331 0.437704 0.049028
O O16 0.238495 0.540696 0.148932
O O17 0.500000 0.573934 0.606779
O O18 0.254795 0.671791 0.270548
#
# Coordination Sequence:
#
# PCOD8176274 Si02
#       8
#     8   8   8   8   8   8   8   8
#     4  11  23  41  67  98 130 173 229 280 329 390
#     4  11  25  44  68  98 137 178 221 278 338 403
#     4  12  23  43  71  98 130 179 231 275 334 402
#     4  11  23  41  67  98 130 173 229 280 329 390
#     4  12  26  44  66 102 138 182 216 276 350 412
#     4  11  25  44  68  98 137 178 221 278 338 403
#     4  12  23  43  71  98 130 179 231 275 334 402
#     4  12  21  40  67  98 130 170 224 284 328 388
#
# _framework density 21.482237999999999
#
# number of rings (size 3 to 8) (size 9 to 14) (size 15 to 20)
#    0.000    0.500    5.000    3.375    0.000    4.000 
#    0.000    2.500    0.000    0.000    0.000    0.000 
#    0.000    0.000    0.000    0.000    0.000    0.000 
#
# Total GULP energy -397002.738156 kJ/mol
# GULP energy per Si atom -12406.335567 kJ/mol
# Density = 2.143334 g / cm^3
# Si number density = 21.482238 Si / 1000 Ang^3
#
#
#
# Elastic Constant Matrix: (Units=GPa)
#
#
# Indices 1 2 3 4 5 6 
#
# 1 134.5095 31.8767 27.7012 0.0000 0.0000 0.0000
# 2 31.8767 56.0191 -0.0596 0.0000 0.0000 0.0000
# 3 27.7012 -0.0596 101.0617 0.0000 0.0000 0.0000
# 4 0.0000 0.0000 0.0000 37.6276 0.0000 0.0000
# 5 0.0000 0.0000 0.0000 0.0000 25.8092 0.0000
# 6 0.0000 0.0000 0.0000 0.0000 0.0000 24.5858
#
#
#
# Elastic Compliance Matrix: (Units=1/GPa)
#
#
# Indices 1 2 3 4 5 6 
#
# 1 0.009195 -0.005235 -0.002523 0.000000 0.000000 0.000000
# 2 -0.005235 0.020831 0.001447 0.000000 0.000000 0.000000
# 3 -0.002523 0.001447 0.010587 0.000000 0.000000 0.000000
# 4 0.000000 0.000000 0.000000 0.026576 0.000000 0.000000
# 5 0.000000 0.000000 0.000000 0.000000 0.038746 0.000000
# 6 0.000000 0.000000 0.000000 0.000000 0.000000 0.040674
#
#
# Mechanical properties :
#
#
# Convention : Reuss Voigt Hill
#
# Bulk Modulus (GPa) = 35.72509 45.62521 40.67515
# Shear Modulus (GPa) = 29.66271 33.07599 31.36935
#
# Velocity S-wave (km/s) = 3.71995 3.92815 3.82546
# Velocity P-wave (km/s) = 5.92594 6.46981 6.20384
#
# Compressibility (1/GPa) = 0.02799153
#
# Stress axis : x y z
#
# Youngs Moduli (GPa) = 108.75906 48.00460 94.45138
#
# Poissons Ratio (x) = 0.25129 0.23833
# Poissons Ratio (y) = 0.56932 -0.13669
# Poissons Ratio (z) = 0.27444 -0.06947
#
# Static dielectric constant tensor:
#      x y z
#    x 4.030800 0.000000 0.000000 
#    y 0.000000 3.715470 0.000000 
#    z 0.000000 0.000000 3.823970 
# 
# 
# High freq. dielectric constant tensor:
#      x y z
#    x 1.851250 0.000000 0.000000 
#    y 0.000000 1.832010 0.000000 
#    z 0.000000 0.000000 1.853970 
# 
# From -- ./inp_files/8629.got.cif
#   From: 2010.03.12/outbox.cif.g09.slc.cpg/sg36_5_cif.got.tgz:8629.got - 2010.04.14 02:13:53.
