data_PCOD8176763
_publ_section_title
;
Structure prediction by ZEFSAII (Michael W. Deem and Ramdas Pophale) SiO2 
 PCOD8176763
Probable space group: C C C 2
;
_chemical_formula_sum "Si O2"
_cell_formula_units_Z 48
_cell_length_a 8.435700
_cell_length_b 14.420891
_cell_length_c 18.622717
_cell_angle_alpha 90.000000
_cell_angle_beta 90.000000
_cell_angle_gamma 90.000000
_cell_volume 2265.459300
_symmetry_space_group_name_H-M "C C C 2"
_symmetry_group_IT_number 37
_symmetry_cell_setting 'orthorhombic'
loop_
_space_group_symop_operation_xyz
x,y,z
-x,-y,z
-x,y,1/2+z
x,-y,1/2+z
1/2+x,1/2+y,z
1/2-x,1/2-y,z
1/2-x,1/2+y,1/2+z
1/2+x,1/2-y,1/2+z
loop_
_atom_site_type_symbol
_atom_site_label
_atom_site_fract_x
_atom_site_fract_y
_atom_site_fract_z
Si Si1 0.642073 0.339746 0.844450
Si Si2 0.379199 0.325907 0.098901
Si Si3 0.561593 0.739183 0.730567
Si Si4 0.347485 0.340764 0.502383
Si Si5 0.679038 0.997203 0.593800
Si Si6 0.382873 0.932000 0.747529
O O1 0.750000 0.250000 0.848840
O O2 0.475798 0.308341 0.807780
O O3 0.727802 0.414970 0.794359
O O4 0.620369 0.385393 0.923446
O O5 0.250000 0.250000 0.115243
O O6 0.490021 0.330167 0.170027
O O7 0.487048 0.301973 0.031436
O O8 0.291826 0.418420 0.073220
O O9 0.750000 0.750000 0.720473
O O10 0.471887 0.838068 0.722274
O O11 0.250000 0.250000 0.488797
O O12 0.264317 0.407170 0.560664
O O13 0.668544 0.002757 0.680197
O O14 0.500000 0.000000 0.561255
O O15 0.500000 0.000000 0.792604
#
# Coordination Sequence:
#
# PCOD8176763 Si02
#       6
#     8   8   8   8   8   8
#     4   9  20  45  66  92 131 173 211 267 334 388
#     4  12  22  41  66  94 132 172 216 274 320 383
#     4  11  22  40  69  98 126 167 224 272 327 389
#     4  11  25  41  67  98 135 174 216 264 331 395
#     4  11  23  41  65  96 132 170 221 271 321 384
#     4  10  21  40  67  95 129 168 215 269 323 384
#
# _framework density 21.187757000000001
#
# number of rings (size 3 to 8) (size 9 to 14) (size 15 to 20)
#    0.000    1.333    3.333    2.500    7.000    1.333 
#    0.000    7.500    0.000    0.000    0.000    0.000 
#    0.000    0.000    0.000    0.000    0.000    0.000 
#
# Total GULP energy -297317.181047 kJ/mol
# GULP energy per Si atom -12388.215877 kJ/mol
# Density = 2.113953 g / cm^3
# Si number density = 21.187757 Si / 1000 Ang^3
#
#
#
# Elastic Constant Matrix: (Units=GPa)
#
#
# Indices 1 2 3 4 5 6 
#
# 1 134.1049 21.8427 66.7756 0.0000 0.0000 0.0000
# 2 21.8427 68.9386 40.2231 0.0000 0.0000 0.0000
# 3 66.7756 40.2231 142.5824 0.0000 0.0000 0.0000
# 4 0.0000 0.0000 0.0000 26.0241 0.0000 0.0000
# 5 0.0000 0.0000 0.0000 0.0000 28.7496 0.0000
# 6 0.0000 0.0000 0.0000 0.0000 0.0000 33.4425
#
#
#
# Elastic Compliance Matrix: (Units=1/GPa)
#
#
# Indices 1 2 3 4 5 6 
#
# 1 0.009739 -0.000508 -0.004418 0.000000 0.000000 0.000000
# 2 -0.000508 0.017390 -0.004668 0.000000 0.000000 0.000000
# 3 -0.004418 -0.004668 0.010399 0.000000 0.000000 0.000000
# 4 0.000000 0.000000 0.000000 0.038426 0.000000 0.000000
# 5 0.000000 0.000000 0.000000 0.000000 0.034783 0.000000
# 6 0.000000 0.000000 0.000000 0.000000 0.000000 0.029902
#
#
# Mechanical properties :
#
#
# Convention : Reuss Voigt Hill
#
# Bulk Modulus (GPa) = 54.52236 67.03429 60.77833
# Shear Modulus (GPa) = 30.13105 32.09553 31.11329
#
# Velocity S-wave (km/s) = 3.77516 3.89628 3.83620
# Velocity P-wave (km/s) = 6.69263 7.20752 6.95484
#
# Compressibility (1/GPa) = 0.01834110
#
# Stress axis : x y z
#
# Youngs Moduli (GPa) = 102.67505 57.50369 96.15980
#
# Poissons Ratio (x) = 0.02922 0.42483
# Poissons Ratio (y) = 0.05218 0.44886
# Poissons Ratio (z) = 0.45361 0.26842
#
# Static dielectric constant tensor:
#      x y z
#    x 4.204270 0.000000 0.000000 
#    y 0.000000 3.830300 0.000000 
#    z 0.000000 0.000000 3.952850 
# 
# 
# High freq. dielectric constant tensor:
#      x y z
#    x 1.842200 0.000000 0.000000 
#    y 0.000000 1.821810 0.000000 
#    z 0.000000 0.000000 1.818840 
# 
# From -- ./inp_files/14532.got.cif
#   From: 2010.03.12/outbox.cif.g09.slc.cpg/sg37_8_cif.got.tgz:14532.got - 2010.04.14 02:25:27.
