data_PCOD8176097
_publ_section_title
;
Structure prediction by ZEFSAII (Michael W. Deem and Ramdas Pophale) SiO2 
 PCOD8176097
Probable space group: C M C 21
;
_chemical_formula_sum "Si O2"
_cell_formula_units_Z 56
_cell_length_a 9.769228
_cell_length_b 19.713836
_cell_length_c 13.280562
_cell_angle_alpha 90.000000
_cell_angle_beta 90.000000
_cell_angle_gamma 90.000000
_cell_volume 2557.689606
_symmetry_space_group_name_H-M "C M C 21"
_symmetry_group_IT_number 36
_symmetry_cell_setting 'orthorhombic'
loop_
_space_group_symop_operation_xyz
x,y,z
-x,-y,1/2+z
x,-y,1/2+z
-x,y,z
1/2+x,1/2+y,z
1/2-x,1/2-y,1/2+z
1/2+x,1/2-y,1/2+z
1/2-x,1/2+y,z
loop_
_atom_site_type_symbol
_atom_site_label
_atom_site_fract_x
_atom_site_fract_y
_atom_site_fract_z
Si Si1 0.350242 0.959212 0.043370
Si Si2 0.847031 0.853446 0.313715
Si Si3 0.753902 0.315285 0.099649
Si Si4 0.844247 0.429910 0.707591
Si Si5 0.161173 0.993553 0.868368
Si Si6 0.152897 0.246480 0.398960
Si Si7 0.849046 0.182398 0.190273
O O1 0.500000 0.971623 0.991581
O O2 0.343450 0.880123 0.070324
O O3 0.344328 0.001346 0.145634
O O4 0.221960 0.986040 0.979853
O O5 0.838668 0.832990 0.196445
O O6 0.810130 0.932052 0.325649
O O7 0.752122 0.810978 0.389345
O O8 0.000000 0.839507 0.351413
O O9 0.850850 0.252689 0.128960
O O10 0.664322 0.293819 0.003560
O O11 0.747811 0.439862 0.804237
O O12 0.770200 0.367587 0.648297
O O13 0.000000 0.409162 0.736921
O O14 0.000000 0.975177 0.868417
O O15 0.183744 0.195054 0.307951
O O16 0.000000 0.275654 0.389353
O O17 0.000000 0.149518 0.176956
#
# Coordination Sequence:
#
# PCOD8176097 Si02
#       7
#     8   8   8   8   8   8   8
#     4  11  25  43  67  99 130 173 222 274 333 396
#     4  10  23  42  65  97 135 175 220 275 337 396
#     4  11  22  43  70  98 130 175 226 277 329 397
#     4  11  24  43  67  97 132 172 216 272 331 392
#     4  11  24  43  67  98 134 175 221 276 335 400
#     4  10  23  40  64  94 127 169 220 272 329 393
#     4  10  23  42  64  95 132 171 215 270 328 392
#
# _framework density 21.894759000000001
#
# number of rings (size 3 to 8) (size 9 to 14) (size 15 to 20)
#    0.000    1.429    1.429    2.571    2.000    9.143 
#    0.000    0.000    0.000    0.000    0.000    0.000 
#    0.000    0.000    0.000    0.000    0.000    0.000 
#
# Total GULP energy -347167.407484 kJ/mol
# GULP energy per Si atom -12398.835982 kJ/mol
# Density = 2.184493 g / cm^3
# Si number density = 21.894759 Si / 1000 Ang^3
#
#
#
# Elastic Constant Matrix: (Units=GPa)
#
#
# Indices 1 2 3 4 5 6 
#
# 1 170.8722 72.0364 31.3720 0.0000 0.0000 0.0000
# 2 72.0364 110.5045 27.2823 0.0000 0.0000 0.0000
# 3 31.3720 27.2823 81.6974 0.0000 0.0000 0.0000
# 4 0.0000 0.0000 0.0000 29.6357 0.0000 0.0000
# 5 0.0000 0.0000 0.0000 0.0000 26.3055 0.0000
# 6 0.0000 0.0000 0.0000 0.0000 0.0000 33.8262
#
#
#
# Elastic Compliance Matrix: (Units=1/GPa)
#
#
# Indices 1 2 3 4 5 6 
#
# 1 0.008234 -0.004999 -0.001492 0.000000 0.000000 0.000000
# 2 -0.004999 0.012898 -0.002387 0.000000 0.000000 0.000000
# 3 -0.001492 -0.002387 0.013611 0.000000 0.000000 0.000000
# 4 0.000000 0.000000 0.000000 0.033743 0.000000 0.000000
# 5 0.000000 0.000000 0.000000 0.000000 0.038015 0.000000
# 6 0.000000 0.000000 0.000000 0.000000 0.000000 0.029563
#
#
# Mechanical properties :
#
#
# Convention : Reuss Voigt Hill
#
# Bulk Modulus (GPa) = 58.87784 69.38397 64.13091
# Shear Modulus (GPa) = 31.35145 33.44570 32.39858
#
# Velocity S-wave (km/s) = 3.78817 3.91265 3.85091
# Velocity P-wave (km/s) = 6.78847 7.22290 7.00905
#
# Compressibility (1/GPa) = 0.01698432
#
# Stress axis : x y z
#
# Youngs Moduli (GPa) = 121.44986 77.53335 73.47190
#
# Poissons Ratio (x) = 0.38760 0.10965
# Poissons Ratio (y) = 0.60714 0.17541
# Poissons Ratio (z) = 0.18125 0.18511
#
# Static dielectric constant tensor:
#      x y z
#    x 3.960380 0.000000 0.000000 
#    y 0.000000 3.921530 0.000000 
#    z 0.000000 0.000000 3.840580 
# 
# 
# High freq. dielectric constant tensor:
#      x y z
#    x 1.866500 0.000000 0.000000 
#    y 0.000000 1.868770 0.000000 
#    z 0.000000 0.000000 1.852610 
# 
# From -- ./inp_files/10639.got.cif
#   From: 2010.03.12/outbox.cif.g09.slc.cpg/sg36_6_cif.got.tgz:10639.got - 2010.04.14 02:13:53.
