data_PCOD8176491
_publ_section_title
;
Structure prediction by ZEFSAII (Michael W. Deem and Ramdas Pophale) SiO2 
 PCOD8176491
Probable space group: C C C 2
;
_chemical_formula_sum "Si O2"
_cell_formula_units_Z 64
_cell_length_a 17.268813
_cell_length_b 9.687529
_cell_length_c 18.549263
_cell_angle_alpha 90.000000
_cell_angle_beta 90.000000
_cell_angle_gamma 90.000000
_cell_volume 3103.145657
_symmetry_space_group_name_H-M "C C C 2"
_symmetry_group_IT_number 37
_symmetry_cell_setting 'orthorhombic'
loop_
_space_group_symop_operation_xyz
x,y,z
-x,-y,z
-x,y,1/2+z
x,-y,1/2+z
1/2+x,1/2+y,z
1/2-x,1/2-y,z
1/2-x,1/2+y,1/2+z
1/2+x,1/2-y,1/2+z
loop_
_atom_site_type_symbol
_atom_site_label
_atom_site_fract_x
_atom_site_fract_y
_atom_site_fract_z
Si Si1 0.163485 0.745872 0.785880
Si Si2 0.921214 0.711556 0.152214
Si Si3 0.401345 0.288933 0.661931
Si Si4 0.085832 0.037213 0.795727
Si Si5 0.336165 0.789292 0.946381
Si Si6 0.171228 0.953925 0.588184
Si Si7 0.414425 0.500139 0.955390
Si Si8 0.653258 0.033157 0.082246
O O1 0.250000 0.750000 0.754335
O O2 0.103705 0.664607 0.733271
O O3 0.163286 0.663417 0.862580
O O4 0.140512 0.905651 0.791935
O O5 0.860484 0.835430 0.139645
O O6 0.910292 0.585666 0.096661
O O7 0.008253 0.763639 0.147427
O O8 0.384493 0.338492 0.744125
O O9 0.370428 0.402444 0.606582
O O10 0.354392 0.150088 0.643921
O O11 0.084445 0.082966 0.879371
O O12 0.000000 0.000000 0.767892
O O13 0.250000 0.750000 0.972041
O O14 0.392335 0.659713 0.949122
O O15 0.363274 0.908769 0.001723
O O16 0.145240 0.918467 0.506439
O O17 0.263217 0.963566 0.591800
O O18 0.500000 0.500000 0.989409
#
# Coordination Sequence:
#
# PCOD8176491 Si02
#       8
#     8   8   8   8   8   8   8   8
#     4  10  20  36  63  95 125 165 212 260 319 380
#     4  12  25  41  63  95 127 167 212 266 318 375
#     4  12  22  41  64  92 128 166 210 264 318 375
#     4  10  19  37  63  94 128 163 219 267 308 379
#     4  10  19  39  63  90 128 168 213 256 319 388
#     4  12  22  41  66  93 122 167 219 263 306 378
#     4  10  20  34  63  99 124 162 218 267 312 370
#     4  12  25  41  61  94 132 168 205 261 326 383
#
# _framework density 20.624234000000001
#
# number of rings (size 3 to 8) (size 9 to 14) (size 15 to 20)
#    0.000    1.000    5.000    3.000    0.000    0.000 
#    0.000    1.250    0.000    3.000    0.000    0.000 
#    0.000    0.000    0.000    0.000    0.000    0.000 
#
# Total GULP energy -396753.578213 kJ/mol
# GULP energy per Si atom -12398.549319 kJ/mol
# Density = 2.057729 g / cm^3
# Si number density = 20.624234 Si / 1000 Ang^3
#
#
#
# Elastic Constant Matrix: (Units=GPa)
#
#
# Indices 1 2 3 4 5 6 
#
# 1 84.5684 23.2535 23.4594 0.0000 0.0000 0.0000
# 2 23.2535 65.3768 11.4119 0.0000 0.0000 0.0000
# 3 23.4594 11.4119 88.0072 0.0000 0.0000 0.0000
# 4 0.0000 0.0000 0.0000 28.1713 0.0000 0.0000
# 5 0.0000 0.0000 0.0000 0.0000 31.0115 0.0000
# 6 0.0000 0.0000 0.0000 0.0000 0.0000 37.4296
#
#
#
# Elastic Compliance Matrix: (Units=1/GPa)
#
#
# Indices 1 2 3 4 5 6 
#
# 1 0.013904 -0.004398 -0.003136 0.000000 0.000000 0.000000
# 2 -0.004398 0.017041 -0.001037 0.000000 0.000000 0.000000
# 3 -0.003136 -0.001037 0.012333 0.000000 0.000000 0.000000
# 4 0.000000 0.000000 0.000000 0.035497 0.000000 0.000000
# 5 0.000000 0.000000 0.000000 0.000000 0.032246 0.000000
# 6 0.000000 0.000000 0.000000 0.000000 0.000000 0.026717
#
#
# Mechanical properties :
#
#
# Convention : Reuss Voigt Hill
#
# Bulk Modulus (GPa) = 38.26189 39.35577 38.80883
# Shear Modulus (GPa) = 30.56360 31.31098 30.93729
#
# Velocity S-wave (km/s) = 3.85376 3.90059 3.87724
# Velocity P-wave (km/s) = 6.19630 6.27773 6.23715
#
# Compressibility (1/GPa) = 0.02613566
#
# Stress axis : x y z
#
# Youngs Moduli (GPa) = 71.92181 58.68086 81.08214
#
# Poissons Ratio (x) = 0.25808 0.25427
# Poissons Ratio (y) = 0.31631 0.08411
# Poissons Ratio (z) = 0.22555 0.06088
#
# Static dielectric constant tensor:
#      x y z
#    x 3.733270 0.000000 0.000000 
#    y 0.000000 3.510670 0.000000 
#    z 0.000000 0.000000 4.188320 
# 
# 
# High freq. dielectric constant tensor:
#      x y z
#    x 1.812150 0.000000 0.000000 
#    y 0.000000 1.773650 0.000000 
#    z 0.000000 0.000000 1.821810 
# 
# From -- ./inp_files/16570.got.cif
#   From: 2010.03.12/outbox.cif.g09.slc.cpg/sg37_9_cif.got.tgz:16570.got - 2010.04.14 02:25:27.
