data_PCOD8176386
_publ_section_title
;
Structure prediction by ZEFSAII (Michael W. Deem and Ramdas Pophale) SiO2 
 PCOD8176386
Probable space group: C C C 2
;
_chemical_formula_sum "Si O2"
_cell_formula_units_Z 64
_cell_length_a 8.874730
_cell_length_b 23.929619
_cell_length_c 15.454643
_cell_angle_alpha 90.000000
_cell_angle_beta 90.000000
_cell_angle_gamma 90.000000
_cell_volume 3282.085652
_symmetry_space_group_name_H-M "C C C 2"
_symmetry_group_IT_number 37
_symmetry_cell_setting 'orthorhombic'
loop_
_space_group_symop_operation_xyz
x,y,z
-x,-y,z
-x,y,1/2+z
x,-y,1/2+z
1/2+x,1/2+y,z
1/2-x,1/2-y,z
1/2-x,1/2+y,1/2+z
1/2+x,1/2-y,1/2+z
loop_
_atom_site_type_symbol
_atom_site_label
_atom_site_fract_x
_atom_site_fract_y
_atom_site_fract_z
Si Si1 0.571329 0.132807 0.602920
Si Si2 0.080719 0.750000 0.862465
Si Si3 0.072558 0.750000 0.540541
Si Si4 0.427827 0.939953 0.444123
Si Si5 0.423282 0.129367 0.295698
Si Si6 0.076718 0.129367 0.295698
Si Si7 0.927827 0.060047 0.444123
Si Si8 0.071329 0.867193 0.602920
O O1 0.502097 0.194229 0.583493
O O2 0.509903 0.088988 0.531842
O O3 0.524785 0.112557 0.698685
O O4 0.750000 0.136919 0.595160
O O5 0.250000 0.750000 0.901335
O O6 0.055580 0.695945 0.802876
O O7 0.055580 0.804055 0.802876
O O8 0.961340 0.750000 0.939050
O O9 0.250000 0.750000 0.553483
O O10 0.002097 0.805771 0.583493
O O11 0.470681 0.902389 0.362280
O O12 0.250000 0.946598 0.446728
O O13 0.500000 0.000000 0.434242
O O14 0.250000 0.112059 0.312516
O O15 0.024785 0.112557 0.198685
O O16 0.970681 0.097611 0.362280
O O17 0.990097 0.088988 0.531842
O O18 0.000000 0.000000 0.434242
#
# Coordination Sequence:
#
# PCOD8176386 Si02
#       8
#     8   8   8   8   8   8   8   8
#     4   9  19  35  59  85 112 148 187 225 276 336
#     4  10  19  31  55  88 120 148 179 225 281 330
#     4  10  17  33  59  84 114 150 185 223 273 340
#     4  11  23  40  59  82 110 148 192 238 284 330
#     4  10  20  37  59  86 117 150 186 228 278 336
#     4  10  20  37  59  86 117 150 186 228 278 336
#     4  11  23  40  59  82 110 148 192 238 284 330
#     4   9  19  35  59  85 112 148 187 225 276 336
#
# _framework density 19.499797000000001
#
# number of rings (size 3 to 8) (size 9 to 14) (size 15 to 20)
#    0.000    2.000    2.500    1.500    0.000    4.000 
#    0.000    6.250    0.000    1.500    0.000    0.000 
#    0.000    0.000    0.000    0.000    0.000    0.000 
#
# Total GULP energy -396802.954081 kJ/mol
# GULP energy per Si atom -12400.092315 kJ/mol
# Density = 1.945541 g / cm^3
# Si number density = 19.499797 Si / 1000 Ang^3
#
#
#
# Elastic Constant Matrix: (Units=GPa)
#
#
# Indices 1 2 3 4 5 6 
#
# 1 38.0064 31.1971 23.4168 0.0000 0.0000 0.0000
# 2 31.1971 128.0438 52.3602 0.0000 0.0000 0.0000
# 3 23.4168 52.3602 144.6875 0.0000 0.0000 0.0000
# 4 0.0000 0.0000 0.0000 12.1888 0.0000 0.0000
# 5 0.0000 0.0000 0.0000 0.0000 26.9901 0.0000
# 6 0.0000 0.0000 0.0000 0.0000 0.0000 15.5285
#
#
#
# Elastic Compliance Matrix: (Units=1/GPa)
#
#
# Indices 1 2 3 4 5 6 
#
# 1 0.033917 -0.007064 -0.002933 0.000000 0.000000 0.000000
# 2 -0.007064 0.010638 -0.002706 0.000000 0.000000 0.000000
# 3 -0.002933 -0.002706 0.008365 0.000000 0.000000 0.000000
# 4 0.000000 0.000000 0.000000 0.082042 0.000000 0.000000
# 5 0.000000 0.000000 0.000000 0.000000 0.037051 0.000000
# 6 0.000000 0.000000 0.000000 0.000000 0.000000 0.064398
#
#
# Mechanical properties :
#
#
# Convention : Reuss Voigt Hill
#
# Bulk Modulus (GPa) = 36.34610 58.29843 47.32226
# Shear Modulus (GPa) = 18.45094 24.52572 21.48833
#
# Velocity S-wave (km/s) = 3.07939 3.55031 3.32321
# Velocity P-wave (km/s) = 5.59672 6.83872 6.24866
#
# Compressibility (1/GPa) = 0.02751327
#
# Stress axis : x y z
#
# Youngs Moduli (GPa) = 29.48370 94.00540 119.53910
#
# Poissons Ratio (x) = 0.66409 0.35058
# Poissons Ratio (y) = 0.20828 0.32351
# Poissons Ratio (z) = 0.08647 0.25441
#
# Static dielectric constant tensor:
#      x y z
#    x 3.262690 0.000000 0.000000 
#    y 0.000000 3.690580 0.000000 
#    z 0.000000 0.000000 3.666920 
# 
# 
# High freq. dielectric constant tensor:
#      x y z
#    x 1.725900 0.000000 0.000000 
#    y 0.000000 1.763920 0.000000 
#    z 0.000000 0.000000 1.769220 
# 
# From -- ./inp_files/10994.got.cif
#   From: 2010.03.12/outbox.cif.g09.slc.cpg/sg37_6_cif.got.tgz:10994.got - 2010.04.14 02:25:27.
