data_PCOD8176343
_publ_section_title
;
Structure prediction by ZEFSAII (Michael W. Deem and Ramdas Pophale) SiO2 
 PCOD8176343
Probable space group: C M C 21
;
_chemical_formula_sum "Si O2"
_cell_formula_units_Z 40
_cell_length_a 7.588397
_cell_length_b 28.706288
_cell_length_c 8.867306
_cell_angle_alpha 90.000000
_cell_angle_beta 90.000000
_cell_angle_gamma 90.000000
_cell_volume 1931.607029
_symmetry_space_group_name_H-M "C M C 21"
_symmetry_group_IT_number 36
_symmetry_cell_setting 'orthorhombic'
loop_
_space_group_symop_operation_xyz
x,y,z
-x,-y,1/2+z
x,-y,1/2+z
-x,y,z
1/2+x,1/2+y,z
1/2-x,1/2-y,1/2+z
1/2+x,1/2-y,1/2+z
1/2-x,1/2+y,z
loop_
_atom_site_type_symbol
_atom_site_label
_atom_site_fract_x
_atom_site_fract_y
_atom_site_fract_z
Si Si1 0.500000 0.061072 0.903430
Si Si2 0.500000 0.963875 0.755364
Si Si3 0.201491 0.882516 0.253371
Si Si4 0.802317 0.804996 0.869029
Si Si5 0.295726 0.404621 0.904305
Si Si6 0.204538 0.220894 0.682251
O O1 0.674140 0.091460 0.871801
O O2 0.500000 0.018620 0.786248
O O3 0.500000 0.044707 0.076476
O O4 0.676407 0.944489 0.833151
O O5 0.237918 0.827056 0.272587
O O6 0.000000 0.893789 0.296842
O O7 0.239833 0.899248 0.082864
O O8 0.731449 0.856135 0.822504
O O9 0.804203 0.766246 0.741900
O O10 0.000000 0.816495 0.924957
O O11 0.707813 0.784833 0.017351
O O12 0.500000 0.417189 0.871846
O O13 0.000000 0.234415 0.681391
#
# Coordination Sequence:
#
# PCOD8176343 Si02
#       6
#     4   4   8   8   8   8
#     4  12  26  42  64  92 120 154 200 252 305 366
#     4  12  26  42  64  92 120 154 200 252 305 366
#     4   9  20  41  64  86 120 161 200 247 301 356
#     4   9  19  34  53  81 116 154 195 236 286 345
#     4   9  20  41  64  86 120 161 200 247 301 356
#     4   9  19  34  53  81 116 154 195 236 286 345
#
# _framework density 20.708145999999999
#
# number of rings (size 3 to 8) (size 9 to 14) (size 15 to 20)
#    0.000    2.400    0.000    4.200    2.800    4.000 
#    0.000    4.000    0.000    0.000    0.000    0.000 
#    0.000    0.000    0.000    0.000    0.000    0.000 
#
# Total GULP energy -247859.834606 kJ/mol
# GULP energy per Si atom -12392.991730 kJ/mol
# Density = 2.066101 g / cm^3
# Si number density = 20.708146 Si / 1000 Ang^3
#
#
#
# Elastic Constant Matrix: (Units=GPa)
#
#
# Indices 1 2 3 4 5 6 
#
# 1 81.4775 16.8487 12.1443 0.0000 0.0000 0.0000
# 2 16.8487 57.7725 -11.5544 0.0000 0.0000 0.0000
# 3 12.1443 -11.5544 30.8364 0.0000 0.0000 0.0000
# 4 0.0000 0.0000 0.0000 39.2914 0.0000 0.0000
# 5 0.0000 0.0000 0.0000 0.0000 -17.2216 0.0000
# 6 0.0000 0.0000 0.0000 0.0000 0.0000 -20.7028
#
#
#
# Elastic Compliance Matrix: (Units=1/GPa)
#
#
# Indices 1 2 3 4 5 6 
#
# 1 0.014679 -0.005877 -0.007983 0.000000 0.000000 0.000000
# 2 -0.005877 0.021065 0.010208 0.000000 0.000000 0.000000
# 3 -0.007983 0.010208 0.039398 0.000000 0.000000 0.000000
# 4 0.000000 0.000000 0.000000 0.025451 0.000000 0.000000
# 5 0.000000 0.000000 0.000000 0.000000 -0.058067 0.000000
# 6 0.000000 0.000000 0.000000 0.000000 0.000000 -0.048303
#
#
# Mechanical properties :
#
#
# Convention : Reuss Voigt Hill
#
# Bulk Modulus (GPa) = 14.74148 22.77372 18.75760
# Shear Modulus (GPa) = 207.11664 10.44992 108.78328
#
# Velocity S-wave (km/s) = 10.01170 2.24883 7.25573
# Velocity P-wave (km/s) = 11.86506 4.21478 8.90348
#
# Compressibility (1/GPa) = 0.06783577
#
# Stress axis : x y z
#
# Youngs Moduli (GPa) = 68.12623 47.47233 25.38198
#
# Poissons Ratio (x) = 0.27902 0.20263
# Poissons Ratio (y) = 0.40041 -0.25909
# Poissons Ratio (z) = 0.54386 -0.48459
#
# Static dielectric constant tensor:
#      x y z
#    x 3.925660 0.000000 0.000000 
#    y 0.000000 3.746620 0.000000 
#    z 0.000000 0.000000 3.477400 
# 
# 
# High freq. dielectric constant tensor:
#      x y z
#    x 1.811110 0.000000 0.000000 
#    y 0.000000 1.815810 0.000000 
#    z 0.000000 0.000000 1.788550 
# 
# From -- ./inp_files/2452.got.cif
#   From: 2010.03.12/outbox.cif.g09.slc.cpg/sg36_2_cif.got.tgz:2452.got - 2010.04.14 02:13:53.
