data_PCOD8176992
_publ_section_title
;
Structure prediction by ZEFSAII (Michael W. Deem and Ramdas Pophale) SiO2 
 PCOD8176992
Probable space group: C C C 2
;
_chemical_formula_sum "Si O2"
_cell_formula_units_Z 40
_cell_length_a 18.233182
_cell_length_b 8.493050
_cell_length_c 11.797921
_cell_angle_alpha 90.000000
_cell_angle_beta 90.000000
_cell_angle_gamma 90.000000
_cell_volume 1826.970907
_symmetry_space_group_name_H-M "C C C 2"
_symmetry_group_IT_number 37
_symmetry_cell_setting 'orthorhombic'
loop_
_space_group_symop_operation_xyz
x,y,z
-x,-y,z
-x,y,1/2+z
x,-y,1/2+z
1/2+x,1/2+y,z
1/2-x,1/2-y,z
1/2-x,1/2+y,1/2+z
1/2+x,1/2-y,1/2+z
loop_
_atom_site_type_symbol
_atom_site_label
_atom_site_fract_x
_atom_site_fract_y
_atom_site_fract_z
Si Si1 0.330256 0.778549 0.171980
Si Si2 0.618603 0.748028 0.902194
Si Si3 0.920312 0.573301 0.111488
Si Si4 0.081323 0.939721 0.007678
Si Si5 0.473939 0.674715 0.784980
O O1 0.250000 0.750000 0.116243
O O2 0.318703 0.748726 0.306657
O O3 0.386781 0.656943 0.113133
O O4 0.361533 0.954957 0.164735
O O5 0.545397 0.767535 0.825625
O O6 0.616938 0.890467 0.990511
O O7 0.629597 0.591127 0.976808
O O8 0.930777 0.732132 0.186412
O O9 0.000000 0.500000 0.091575
O O10 0.079405 0.832799 0.894510
O O11 0.000000 0.000000 0.038981
O O12 0.500000 0.500000 0.745509
#
# Coordination Sequence:
#
# PCOD8176992 Si02
#       5
#     8   8   8   8   8
#     4  12  28  45  66 104 151 180 227 295 359 421
#     4  10  24  40  68  97 136 177 235 289 350 407
#     4  12  24  39  74 104 141 178 242 291 350 409
#     4   9  22  43  73  96 133 183 240 282 345 417
#     4   9  21  39  71 108 135 176 237 297 342 408
#
# _framework density 21.894161
#
# number of rings (size 3 to 8) (size 9 to 14) (size 15 to 20)
#    0.000    2.000    2.000    2.400   11.200    3.200 
#    0.000    0.000    0.000    0.000    0.000    0.000 
#    0.000    0.000    0.000    0.000    0.000    0.000 
#
# Total GULP energy -247816.408510 kJ/mol
# GULP energy per Si atom -12390.820426 kJ/mol
# Density = 2.184433 g / cm^3
# Si number density = 21.894161 Si / 1000 Ang^3
#
#
#
# Elastic Constant Matrix: (Units=GPa)
#
#
# Indices 1 2 3 4 5 6 
#
# 1 82.1181 51.2343 30.1083 0.0000 0.0000 0.0000
# 2 51.2343 121.1554 67.6028 0.0000 0.0000 0.0000
# 3 30.1083 67.6028 151.6991 0.0000 0.0000 0.0000
# 4 0.0000 0.0000 0.0000 22.5369 0.0000 0.0000
# 5 0.0000 0.0000 0.0000 0.0000 10.9945 0.0000
# 6 0.0000 0.0000 0.0000 0.0000 0.0000 19.5794
#
#
#
# Elastic Compliance Matrix: (Units=1/GPa)
#
#
# Indices 1 2 3 4 5 6 
#
# 1 0.016548 -0.006874 -0.000221 0.000000 0.000000 0.000000
# 2 -0.006874 0.013841 -0.004804 0.000000 0.000000 0.000000
# 3 -0.000221 -0.004804 0.008777 0.000000 0.000000 0.000000
# 4 0.000000 0.000000 0.000000 0.044372 0.000000 0.000000
# 5 0.000000 0.000000 0.000000 0.000000 0.090955 0.000000
# 6 0.000000 0.000000 0.000000 0.000000 0.000000 0.051074
#
#
# Mechanical properties :
#
#
# Convention : Reuss Voigt Hill
#
# Bulk Modulus (GPa) = 65.07267 72.54039 68.80653
# Shear Modulus (GPa) = 19.64740 24.35730 22.00235
#
# Velocity S-wave (km/s) = 2.99888 3.33904 3.17352
# Velocity P-wave (km/s) = 6.46352 6.93324 6.70249
#
# Compressibility (1/GPa) = 0.01536743
#
# Stress axis : x y z
#
# Youngs Moduli (GPa) = 60.43185 72.24697 113.93964
#
# Poissons Ratio (x) = 0.49666 0.02515
# Poissons Ratio (y) = 0.41544 0.54735
# Poissons Ratio (z) = 0.01334 0.34706
#
# Static dielectric constant tensor:
#      x y z
#    x 3.613070 0.000000 0.000000 
#    y 0.000000 3.973410 0.000000 
#    z 0.000000 0.000000 4.284180 
# 
# 
# High freq. dielectric constant tensor:
#      x y z
#    x 1.812240 0.000000 0.000000 
#    y 0.000000 1.860730 0.000000 
#    z 0.000000 0.000000 1.886830 
# 
# From -- ./inp_files/6266.got.cif
#   From: 2010.03.12/outbox.cif.g09.slc.cpg/sg37_4_cif.got.tgz:6266.got - 2010.04.14 02:25:27.
