data_PCOD8176123
_publ_section_title
;
Structure prediction by ZEFSAII (Michael W. Deem and Ramdas Pophale) SiO2 
 PCOD8176123
Probable space group: C M C 21
;
_chemical_formula_sum "Si O2"
_cell_formula_units_Z 40
_cell_length_a 9.863048
_cell_length_b 18.936671
_cell_length_c 9.609001
_cell_angle_alpha 90.000000
_cell_angle_beta 90.000000
_cell_angle_gamma 90.000000
_cell_volume 1794.704779
_symmetry_space_group_name_H-M "C M C 21"
_symmetry_group_IT_number 36
_symmetry_cell_setting 'orthorhombic'
loop_
_space_group_symop_operation_xyz
x,y,z
-x,-y,1/2+z
x,-y,1/2+z
-x,y,z
1/2+x,1/2+y,z
1/2-x,1/2-y,1/2+z
1/2+x,1/2-y,1/2+z
1/2-x,1/2+y,z
loop_
_atom_site_type_symbol
_atom_site_label
_atom_site_fract_x
_atom_site_fract_y
_atom_site_fract_z
Si Si1 0.150837 0.603878 0.741540
Si Si2 0.772414 0.380842 0.936840
Si Si3 0.346279 0.772040 0.436840
Si Si4 0.344768 0.476639 0.436840
Si Si5 0.849163 0.603878 0.132141
O O1 0.142304 0.604529 0.575478
O O2 0.263613 0.549809 0.799883
O O3 0.000000 0.582190 0.795167
O O4 0.188458 0.681538 0.800155
O O5 0.649479 0.437780 0.936840
O O6 0.857697 0.395471 0.798203
O O7 0.736329 0.299305 0.936841
O O8 0.500000 0.747384 0.436840
O O9 0.311542 0.818463 0.573525
O O10 0.500000 0.448450 0.436841
O O11 0.263613 0.450191 0.573798
O O12 0.000000 0.582189 0.078514
#
# Coordination Sequence:
#
# PCOD8176123 Si02
#       5
#     8   8   8   8   8
#     4  10  23  43  65  90 124 164 206 252 303 364
#     4  12  22  36  65  97 125 157 203 255 309 363
#     4   9  20  40  61  87 126 166 203 249 303 360
#     4  11  25  42  62  90 125 165 206 252 308 365
#     4  10  23  43  65  90 124 164 206 252 303 364
#
# _framework density 22.287787000000002
#
# number of rings (size 3 to 8) (size 9 to 14) (size 15 to 20)
#    0.000    1.600    0.000    5.400    0.000    9.600 
#    0.000   12.000    0.000    0.000    0.000    0.000 
#    0.000    0.000    0.000    0.000    0.000    0.000 
#
# Total GULP energy -247827.230652 kJ/mol
# GULP energy per Si atom -12391.361533 kJ/mol
# Density = 2.223706 g / cm^3
# Si number density = 22.287787 Si / 1000 Ang^3
#
#
#
# Elastic Constant Matrix: (Units=GPa)
#
#
# Indices 1 2 3 4 5 6 
#
# 1 135.4640 50.9510 39.0511 0.0000 0.0000 0.0000
# 2 50.9510 139.4843 32.0014 0.0000 0.0000 0.0000
# 3 39.0511 32.0014 183.2898 0.0000 0.0000 0.0000
# 4 0.0000 0.0000 0.0000 19.2792 0.0000 0.0000
# 5 0.0000 0.0000 0.0000 0.0000 9.9728 0.0000
# 6 0.0000 0.0000 0.0000 0.0000 0.0000 23.5566
#
#
#
# Elastic Compliance Matrix: (Units=1/GPa)
#
#
# Indices 1 2 3 4 5 6 
#
# 1 0.008881 -0.002927 -0.001381 0.000000 0.000000 0.000000
# 2 -0.002927 0.008433 -0.000849 0.000000 0.000000 0.000000
# 3 -0.001381 -0.000849 0.005898 0.000000 0.000000 0.000000
# 4 0.000000 0.000000 0.000000 0.051869 0.000000 0.000000
# 5 0.000000 0.000000 0.000000 0.000000 0.100273 0.000000
# 6 0.000000 0.000000 0.000000 0.000000 0.000000 0.042451
#
#
# Mechanical properties :
#
#
# Convention : Reuss Voigt Hill
#
# Bulk Modulus (GPa) = 77.52829 78.02723 77.77776
# Shear Modulus (GPa) = 21.51283 32.97737 27.24510
#
# Velocity S-wave (km/s) = 3.11018 3.85075 3.50011
# Velocity P-wave (km/s) = 6.91074 7.40648 7.16290
#
# Compressibility (1/GPa) = 0.01289852
#
# Stress axis : x y z
#
# Youngs Moduli (GPa) = 112.59760 118.57807 169.54104
#
# Poissons Ratio (x) = 0.34711 0.23415
# Poissons Ratio (y) = 0.32960 0.14389
# Poissons Ratio (z) = 0.15551 0.10064
#
# Static dielectric constant tensor:
#      x y z
#    x 3.619260 0.000000 0.000000 
#    y 0.000000 4.032690 0.000000 
#    z 0.000000 0.000000 4.424830 
# 
# 
# High freq. dielectric constant tensor:
#      x y z
#    x 1.854400 0.000000 0.000000 
#    y 0.000000 1.884100 0.000000 
#    z 0.000000 0.000000 1.891960 
# 
# From -- ./inp_files/6618.got.cif
#   From: 2010.03.12/outbox.cif.g09.slc.cpg/sg36_4_cif.got.tgz:6618.got - 2010.04.14 02:13:53.
