data_PCOD8176576
_publ_section_title
;
Structure prediction by ZEFSAII (Michael W. Deem and Ramdas Pophale) SiO2 
 PCOD8176576
Probable space group: C C C 2
;
_chemical_formula_sum "Si O2"
_cell_formula_units_Z 60
_cell_length_a 11.318744
_cell_length_b 11.677191
_cell_length_c 22.171144
_cell_angle_alpha 90.000000
_cell_angle_beta 90.000000
_cell_angle_gamma 90.000000
_cell_volume 2930.385279
_symmetry_space_group_name_H-M "C C C 2"
_symmetry_group_IT_number 37
_symmetry_cell_setting 'orthorhombic'
loop_
_space_group_symop_operation_xyz
x,y,z
-x,-y,z
-x,y,1/2+z
x,-y,1/2+z
1/2+x,1/2+y,z
1/2-x,1/2-y,z
1/2-x,1/2+y,1/2+z
1/2+x,1/2-y,1/2+z
loop_
_atom_site_type_symbol
_atom_site_label
_atom_site_fract_x
_atom_site_fract_y
_atom_site_fract_z
Si Si1 0.000000 0.500000 0.588210
Si Si2 0.972523 0.879355 0.370268
Si Si3 0.122263 0.306415 0.294613
Si Si4 0.619971 0.196487 0.658716
Si Si5 0.791030 0.418043 0.904197
Si Si6 0.127407 0.701312 0.017665
Si Si7 0.456791 0.374891 0.068237
Si Si8 0.310085 0.368288 0.958618
O O1 0.904552 0.424129 0.625562
O O2 0.919533 0.587429 0.550638
O O3 0.978459 0.778172 0.321127
O O4 0.843017 0.874797 0.399454
O O5 0.068227 0.871739 0.422719
O O6 0.000000 0.000000 0.336307
O O7 0.250000 0.250000 0.291121
O O8 0.081638 0.334406 0.226987
O O9 0.139866 0.416258 0.339433
O O10 0.750000 0.250000 0.653425
O O11 0.543782 0.298717 0.628946
O O12 0.787889 0.542919 0.934099
O O13 0.860035 0.330243 0.947364
O O14 0.250000 0.750000 0.045560
O O15 0.039670 0.808521 0.020955
O O16 0.500000 0.500000 0.087165
O O17 0.334105 0.388076 0.030416
O O18 0.250000 0.250000 0.947176
#
# Coordination Sequence:
#
# PCOD8176576 Si02
#       8
#     4   8   8   8   8   8   8   8
#     4  10  26  42  60  96 126 160 218 258 310 382
#     4   9  18  35  57  83 116 150 196 253 300 371
#     4   9  18  38  63  85 111 158 206 243 310 372
#     4  10  23  42  64  86 122 168 207 262 311 378
#     4  10  20  36  61  87 118 159 199 252 316 379
#     4  11  22  38  63  89 123 161 195 259 323 373
#     4  11  23  37  59  90 119 160 208 254 320 383
#     4  11  22  34  54  89 126 153 195 258 323 377
#
# _framework density 20.475123
#
# number of rings (size 3 to 8) (size 9 to 14) (size 15 to 20)
#    0.000    1.867    0.000    5.200    7.467    0.533 
#    2.400    0.000    0.000    0.000    0.000    0.000 
#    0.000    0.000    0.000    0.000    0.000    0.000 
#
# Total GULP energy -371665.904125 kJ/mol
# GULP energy per Si atom -12388.863471 kJ/mol
# Density = 2.042852 g / cm^3
# Si number density = 20.475123 Si / 1000 Ang^3
#
#
#
# Elastic Constant Matrix: (Units=GPa)
#
#
# Indices 1 2 3 4 5 6 
#
# 1 49.7789 36.8487 34.8024 0.0000 0.0000 0.0000
# 2 36.8487 140.0568 58.7248 0.0000 0.0000 0.0000
# 3 34.8024 58.7248 127.2583 0.0000 0.0000 0.0000
# 4 0.0000 0.0000 0.0000 16.5410 0.0000 0.0000
# 5 0.0000 0.0000 0.0000 0.0000 17.3566 0.0000
# 6 0.0000 0.0000 0.0000 0.0000 0.0000 29.0123
#
#
#
# Elastic Compliance Matrix: (Units=1/GPa)
#
#
# Indices 1 2 3 4 5 6 
#
# 1 0.027446 -0.005051 -0.005175 0.000000 0.000000 0.000000
# 2 -0.005051 0.009783 -0.003133 0.000000 0.000000 0.000000
# 3 -0.005175 -0.003133 0.010719 0.000000 0.000000 0.000000
# 4 0.000000 0.000000 0.000000 0.060456 0.000000 0.000000
# 5 0.000000 0.000000 0.000000 0.000000 0.057615 0.000000
# 6 0.000000 0.000000 0.000000 0.000000 0.000000 0.034468
#
#
# Mechanical properties :
#
#
# Convention : Reuss Voigt Hill
#
# Bulk Modulus (GPa) = 47.10434 64.20509 55.65471
# Shear Modulus (GPa) = 21.34188 25.02983 23.18585
#
# Velocity S-wave (km/s) = 3.23202 3.50015 3.36875
# Velocity P-wave (km/s) = 6.08141 6.91089 6.50938
#
# Compressibility (1/GPa) = 0.02122947
#
# Stress axis : x y z
#
# Youngs Moduli (GPa) = 36.43522 102.22333 93.29256
#
# Poissons Ratio (x) = 0.51635 0.48279
# Poissons Ratio (y) = 0.18404 0.29227
# Poissons Ratio (z) = 0.18855 0.32025
#
# Static dielectric constant tensor:
#      x y z
#    x 3.777590 0.000000 0.000000 
#    y 0.000000 4.196620 0.000000 
#    z 0.000000 0.000000 3.927040 
# 
# 
# High freq. dielectric constant tensor:
#      x y z
#    x 1.786850 0.000000 0.000000 
#    y 0.000000 1.812050 0.000000 
#    z 0.000000 0.000000 1.787700 
# 
# From -- ./inp_files/16925.got.cif
#   From: 2010.03.12/outbox.cif.g09.slc.cpg/sg37_9_cif.got.tgz:16925.got - 2010.04.14 02:25:27.
