data_PCOD8176044
_publ_section_title
;
Structure prediction by ZEFSAII (Michael W. Deem and Ramdas Pophale) SiO2 
 PCOD8176044
Probable space group: C M C 21
;
_chemical_formula_sum "Si O2"
_cell_formula_units_Z 48
_cell_length_a 8.445515
_cell_length_b 27.027395
_cell_length_c 9.855279
_cell_angle_alpha 90.000000
_cell_angle_beta 90.000000
_cell_angle_gamma 90.000000
_cell_volume 2249.568644
_symmetry_space_group_name_H-M "C M C 21"
_symmetry_group_IT_number 36
_symmetry_cell_setting 'orthorhombic'
loop_
_space_group_symop_operation_xyz
x,y,z
-x,-y,1/2+z
x,-y,1/2+z
-x,y,z
1/2+x,1/2+y,z
1/2-x,1/2-y,1/2+z
1/2+x,1/2-y,1/2+z
1/2-x,1/2+y,z
loop_
_atom_site_type_symbol
_atom_site_label
_atom_site_fract_x
_atom_site_fract_y
_atom_site_fract_z
Si Si1 0.683311 0.212249 0.174540
Si Si2 0.681261 0.354627 0.449382
Si Si3 0.316875 0.958846 0.495384
Si Si4 0.816740 0.548322 0.306152
Si Si5 0.316779 0.817007 0.174906
Si Si6 0.315385 0.351604 0.905531
O O1 0.500000 0.226332 0.181616
O O2 0.782777 0.260477 0.133325
O O3 0.739332 0.192895 0.320244
O O4 0.708337 0.170029 0.062563
O O5 0.500000 0.345466 0.490255
O O6 0.715305 0.412784 0.443980
O O7 0.712895 0.330650 0.304370
O O8 0.500000 0.947183 0.465618
O O9 0.287229 0.970511 0.653428
O O10 0.260283 0.006072 0.409523
O O11 0.711318 0.596503 0.330884
O O12 0.000000 0.562411 0.329347
O O13 0.500000 0.824987 0.208997
O O14 0.267615 0.852816 0.051930
O O15 0.500000 0.341052 0.922108
#
# Coordination Sequence:
#
# PCOD8176044 Si02
#       6
#     8   8   8   8   8   8
#     4  12  24  44  69  96 131 174 220 267 323 387
#     4  12  25  43  66  98 135 172 216 270 327 385
#     4  10  22  41  66  96 130 171 217 265 322 386
#     4  10  22  41  66  96 130 171 217 265 322 386
#     4  12  26  44  67  96 131 174 220 269 323 387
#     4  12  25  43  66  98 135 172 216 270 327 385
#
# _framework density 21.337423000000001
#
# number of rings (size 3 to 8) (size 9 to 14) (size 15 to 20)
#    0.000    0.667    1.667    7.000    2.333    0.667 
#    0.000    0.000    0.000    0.000    0.000    0.000 
#    0.000    0.000    0.000    0.000    0.000    0.000 
#
# Total GULP energy -297849.774488 kJ/mol
# GULP energy per Si atom -12410.407270 kJ/mol
# Density = 2.128886 g / cm^3
# Si number density = 21.337423 Si / 1000 Ang^3
#
#
#
# Elastic Constant Matrix: (Units=GPa)
#
#
# Indices 1 2 3 4 5 6 
#
# 1 91.8459 20.7170 27.7155 0.0000 0.0000 0.0000
# 2 20.7170 86.5109 28.3955 0.0000 0.0000 0.0000
# 3 27.7155 28.3955 102.5735 0.0000 0.0000 0.0000
# 4 0.0000 0.0000 0.0000 42.6725 0.0000 0.0000
# 5 0.0000 0.0000 0.0000 0.0000 30.5512 0.0000
# 6 0.0000 0.0000 0.0000 0.0000 0.0000 37.5580
#
#
#
# Elastic Compliance Matrix: (Units=1/GPa)
#
#
# Indices 1 2 3 4 5 6 
#
# 1 0.012166 -0.002018 -0.002729 0.000000 0.000000 0.000000
# 2 -0.002018 0.013049 -0.003067 0.000000 0.000000 0.000000
# 3 -0.002729 -0.003067 0.011336 0.000000 0.000000 0.000000
# 4 0.000000 0.000000 0.000000 0.023434 0.000000 0.000000
# 5 0.000000 0.000000 0.000000 0.000000 0.032732 0.000000
# 6 0.000000 0.000000 0.000000 0.000000 0.000000 0.026626
#
#
# Mechanical properties :
#
#
# Convention : Reuss Voigt Hill
#
# Bulk Modulus (GPa) = 47.79323 48.28738 48.04031
# Shear Modulus (GPa) = 35.22490 35.76314 35.49402
#
# Velocity S-wave (km/s) = 4.06747 4.09843 4.08298
# Velocity P-wave (km/s) = 6.67132 6.71384 6.69262
#
# Compressibility (1/GPa) = 0.02092347
#
# Stress axis : x y z
#
# Youngs Moduli (GPa) = 82.19362 76.63307 88.21828
#
# Poissons Ratio (x) = 0.15463 0.24073
# Poissons Ratio (y) = 0.16586 0.27058
# Poissons Ratio (z) = 0.22429 0.23505
#
# Static dielectric constant tensor:
#      x y z
#    x 3.764140 0.000000 0.000000 
#    y 0.000000 3.768280 0.000000 
#    z 0.000000 0.000000 3.970960 
# 
# 
# High freq. dielectric constant tensor:
#      x y z
#    x 1.837920 0.000000 0.000000 
#    y 0.000000 1.838980 0.000000 
#    z 0.000000 0.000000 1.850860 
# 
# From -- ./inp_files/2703.got.cif
#   From: 2010.03.12/outbox.cif.g09.slc.cpg/sg36_2_cif.got.tgz:2703.got - 2010.04.14 02:13:53.
