data_PCOD8176613
_publ_section_title
;
Structure prediction by ZEFSAII (Michael W. Deem and Ramdas Pophale) SiO2 
 PCOD8176613
Probable space group: C C C 2
;
_chemical_formula_sum "Si O2"
_cell_formula_units_Z 64
_cell_length_a 12.481299
_cell_length_b 16.405290
_cell_length_c 15.213648
_cell_angle_alpha 90.000000
_cell_angle_beta 90.000000
_cell_angle_gamma 90.000000
_cell_volume 3115.136366
_symmetry_space_group_name_H-M "C C C 2"
_symmetry_group_IT_number 37
_symmetry_cell_setting 'orthorhombic'
loop_
_space_group_symop_operation_xyz
x,y,z
-x,-y,z
-x,y,1/2+z
x,-y,1/2+z
1/2+x,1/2+y,z
1/2-x,1/2-y,z
1/2-x,1/2+y,1/2+z
1/2+x,1/2-y,1/2+z
loop_
_atom_site_type_symbol
_atom_site_label
_atom_site_fract_x
_atom_site_fract_y
_atom_site_fract_z
Si Si1 0.771839 0.599942 0.556120
Si Si2 0.651831 0.690203 0.077769
Si Si3 0.102393 0.546516 0.464616
Si Si4 0.524006 0.805875 0.535585
Si Si5 0.148626 0.800636 0.911328
Si Si6 0.277678 0.344452 0.896525
Si Si7 0.898364 0.899642 0.241901
Si Si8 0.363053 0.577093 0.229781
O O1 0.825171 0.517055 0.519448
O O2 0.864075 0.666431 0.579024
O O3 0.686717 0.636013 0.486586
O O4 0.713757 0.585880 0.647249
O O5 0.750000 0.750000 0.068623
O O6 0.540509 0.739435 0.092634
O O7 0.673417 0.635167 0.162640
O O8 0.652633 0.638342 0.985895
O O9 0.174600 0.594713 0.394010
O O10 0.000000 0.500000 0.419919
O O11 0.053567 0.616383 0.526957
O O12 0.556103 0.761386 0.444020
O O13 0.250000 0.750000 0.876863
O O14 0.098901 0.845980 0.828712
O O15 0.250000 0.250000 0.894418
O O16 0.341955 0.360499 0.808184
O O17 0.015774 0.908099 0.199449
O O18 0.849182 0.986407 0.268812
#
# Coordination Sequence:
#
# PCOD8176613 Si02
#       8
#     8   8   8   8   8   8   8   8
#     4  10  22  41  65  87 134 170 213 267 333 383
#     4  11  21  38  65  93 124 166 215 269 327 384
#     4  10  20  39  64  93 127 169 215 268 318 392
#     4  10  20  38  64  96 122 168 218 262 325 389
#     4  10  21  40  65  91 123 171 213 269 324 384
#     4  11  22  39  65  90 127 168 212 269 327 388
#     4  11  24  39  60  91 128 164 219 265 323 397
#     4  11  25  40  59  92 127 170 212 268 325 397
#
# _framework density 20.544847000000001
#
# number of rings (size 3 to 8) (size 9 to 14) (size 15 to 20)
#    0.000    1.500    2.500    3.375    0.000    2.500 
#    0.000    4.375    0.000    0.000    0.000    0.000 
#    0.000    0.000    0.000    0.000    0.000    0.000 
#
# Total GULP energy -396616.153880 kJ/mol
# GULP energy per Si atom -12394.254809 kJ/mol
# Density = 2.049809 g / cm^3
# Si number density = 20.544847 Si / 1000 Ang^3
#
#
#
# Elastic Constant Matrix: (Units=GPa)
#
#
# Indices 1 2 3 4 5 6 
#
# 1 81.3086 37.4821 36.3256 0.0000 0.0000 0.0000
# 2 37.4821 112.2418 49.3930 0.0000 0.0000 0.0000
# 3 36.3256 49.3930 105.8064 0.0000 0.0000 0.0000
# 4 0.0000 0.0000 0.0000 25.0683 0.0000 0.0000
# 5 0.0000 0.0000 0.0000 0.0000 10.0748 0.0000
# 6 0.0000 0.0000 0.0000 0.0000 0.0000 32.9123
#
#
#
# Elastic Compliance Matrix: (Units=1/GPa)
#
#
# Indices 1 2 3 4 5 6 
#
# 1 0.015597 -0.003589 -0.003679 0.000000 0.000000 0.000000
# 2 -0.003589 0.012039 -0.004388 0.000000 0.000000 0.000000
# 3 -0.003679 -0.004388 0.012763 0.000000 0.000000 0.000000
# 4 0.000000 0.000000 0.000000 0.039891 0.000000 0.000000
# 5 0.000000 0.000000 0.000000 0.000000 0.099257 0.000000
# 6 0.000000 0.000000 0.000000 0.000000 0.000000 0.030384
#
#
# Mechanical properties :
#
#
# Convention : Reuss Voigt Hill
#
# Bulk Modulus (GPa) = 58.52745 60.63980 59.58362
# Shear Modulus (GPa) = 20.92587 25.35483 23.14035
#
# Velocity S-wave (km/s) = 3.19493 3.51682 3.35973
# Velocity P-wave (km/s) = 6.49304 6.78753 6.64192
#
# Compressibility (1/GPa) = 0.01708600
#
# Stress axis : x y z
#
# Youngs Moduli (GPa) = 64.11378 83.06435 78.35361
#
# Poissons Ratio (x) = 0.29816 0.28828
# Poissons Ratio (y) = 0.23014 0.34379
# Poissons Ratio (z) = 0.23589 0.36446
#
# Static dielectric constant tensor:
#      x y z
#    x 4.096000 0.000000 0.000000 
#    y 0.000000 4.174840 0.000000 
#    z 0.000000 0.000000 3.393360 
# 
# 
# High freq. dielectric constant tensor:
#      x y z
#    x 1.814470 0.000000 0.000000 
#    y 0.000000 1.821470 0.000000 
#    z 0.000000 0.000000 1.774020 
# 
# From -- ./inp_files/11768.got.cif
#   From: 2010.03.12/outbox.cif.g09.slc.cpg/sg37_6_cif.got.tgz:11768.got - 2010.04.14 02:25:27.
