data_PCOD8176600
_publ_section_title
;
Structure prediction by ZEFSAII (Michael W. Deem and Ramdas Pophale) SiO2 
 PCOD8176600
Probable space group: C C C 2
;
_chemical_formula_sum "Si O2"
_cell_formula_units_Z 64
_cell_length_a 12.010906
_cell_length_b 10.723599
_cell_length_c 23.223089
_cell_angle_alpha 90.000000
_cell_angle_beta 90.000000
_cell_angle_gamma 90.000000
_cell_volume 2991.137104
_symmetry_space_group_name_H-M "C C C 2"
_symmetry_group_IT_number 37
_symmetry_cell_setting 'orthorhombic'
loop_
_space_group_symop_operation_xyz
x,y,z
-x,-y,z
-x,y,1/2+z
x,-y,1/2+z
1/2+x,1/2+y,z
1/2-x,1/2-y,z
1/2-x,1/2+y,1/2+z
1/2+x,1/2-y,1/2+z
loop_
_atom_site_type_symbol
_atom_site_label
_atom_site_fract_x
_atom_site_fract_y
_atom_site_fract_z
Si Si1 0.580737 0.111748 0.135810
Si Si2 0.455964 0.363584 0.427727
Si Si3 0.921608 0.770080 0.203461
Si Si4 0.244533 0.460996 0.201969
Si Si5 0.473893 0.208180 0.325911
Si Si6 0.289048 0.077983 0.399052
Si Si7 0.295656 0.112755 0.812650
Si Si8 0.866200 0.685890 0.510932
O O1 0.532877 0.238528 0.165913
O O2 0.582842 0.124893 0.067330
O O3 0.500000 0.000000 0.152688
O O4 0.703487 0.072759 0.159405
O O5 0.500000 0.500000 0.441312
O O6 0.524715 0.298581 0.376217
O O7 0.327868 0.350739 0.405707
O O8 0.457076 0.286196 0.487296
O O9 0.841140 0.652210 0.200203
O O10 0.863058 0.899589 0.182297
O O11 0.948385 0.792771 0.270536
O O12 0.255603 0.519837 0.265298
O O13 0.365135 0.136629 0.348685
O O14 0.570099 0.111496 0.307600
O O15 0.349874 0.080025 0.461292
O O16 0.263636 0.937902 0.376766
O O17 0.250000 0.250000 0.803145
O O18 0.750000 0.750000 0.527794
#
# Coordination Sequence:
#
# PCOD8176600 Si02
#       8
#     8   8   8   8   8   8   8   8
#     4  10  21  40  63  90 121 158 223 268 316 385
#     4  10  21  39  61  92 126 161 212 263 320 388
#     4  10  20  37  63  91 117 165 219 262 321 384
#     4  10  21  37  61  88 125 166 209 270 319 391
#     4  11  20  34  61  89 122 164 209 256 313 396
#     4  10  21  38  61  90 117 169 213 247 318 389
#     4  12  23  35  58  93 135 163 198 270 333 384
#     4   9  21  41  65  84 120 171 212 261 319 385
#
# _framework density 21.396543999999999
#
# number of rings (size 3 to 8) (size 9 to 14) (size 15 to 20)
#    0.000    1.750    2.500    3.000    1.750    2.500 
#    4.500    0.000    2.750    0.000    0.000    0.000 
#    0.000    0.000    0.000    0.000    0.000    0.000 
#
# Total GULP energy -396590.827252 kJ/mol
# GULP energy per Si atom -12393.463352 kJ/mol
# Density = 2.134784 g / cm^3
# Si number density = 21.396544 Si / 1000 Ang^3
#
#
#
# Elastic Constant Matrix: (Units=GPa)
#
#
# Indices 1 2 3 4 5 6 
#
# 1 62.8974 34.7518 35.7010 0.0000 0.0000 0.0000
# 2 34.7518 93.0979 48.0262 0.0000 0.0000 0.0000
# 3 35.7010 48.0262 136.7233 0.0000 0.0000 0.0000
# 4 0.0000 0.0000 0.0000 24.2984 0.0000 0.0000
# 5 0.0000 0.0000 0.0000 0.0000 18.0427 0.0000
# 6 0.0000 0.0000 0.0000 0.0000 0.0000 35.0432
#
#
#
# Elastic Compliance Matrix: (Units=1/GPa)
#
#
# Indices 1 2 3 4 5 6 
#
# 1 0.021230 -0.006186 -0.003371 0.000000 0.000000 0.000000
# 2 -0.006186 0.014921 -0.003626 0.000000 0.000000 0.000000
# 3 -0.003371 -0.003626 0.009468 0.000000 0.000000 0.000000
# 4 0.000000 0.000000 0.000000 0.041155 0.000000 0.000000
# 5 0.000000 0.000000 0.000000 0.000000 0.055424 0.000000
# 6 0.000000 0.000000 0.000000 0.000000 0.000000 0.028536
#
#
# Mechanical properties :
#
#
# Convention : Reuss Voigt Hill
#
# Bulk Modulus (GPa) = 51.93808 58.85295 55.39551
# Shear Modulus (GPa) = 24.56800 27.09286 25.83043
#
# Velocity S-wave (km/s) = 3.39222 3.56227 3.47828
# Velocity P-wave (km/s) = 6.29838 6.66972 6.48671
#
# Compressibility (1/GPa) = 0.01925370
#
# Stress axis : x y z
#
# Youngs Moduli (GPa) = 47.10338 67.01962 105.62066
#
# Poissons Ratio (x) = 0.41458 0.35601
# Poissons Ratio (y) = 0.29138 0.38298
# Poissons Ratio (z) = 0.15877 0.24301
#
# Static dielectric constant tensor:
#      x y z
#    x 3.883660 0.000000 0.000000 
#    y 0.000000 3.916540 0.000000 
#    z 0.000000 0.000000 3.715920 
# 
# 
# High freq. dielectric constant tensor:
#      x y z
#    x 1.827430 0.000000 0.000000 
#    y 0.000000 1.833650 0.000000 
#    z 0.000000 0.000000 1.825530 
# 
# From -- ./inp_files/18761.got.cif
#   From: 2010.03.12/outbox.cif.g09.slc.cpg/sg37_10_cif.got.tgz:18761.got - 2010.04.14 02:25:27.
