data_PCOD8176313
_publ_section_title
;
Structure prediction by ZEFSAII (Michael W. Deem and Ramdas Pophale) SiO2 
 PCOD8176313
Probable space group: C M C 21
;
_chemical_formula_sum "Si O2"
_cell_formula_units_Z 48
_cell_length_a 17.850480
_cell_length_b 13.509403
_cell_length_c 8.436575
_cell_angle_alpha 90.000000
_cell_angle_beta 90.000000
_cell_angle_gamma 90.000000
_cell_volume 2034.474392
_symmetry_space_group_name_H-M "C M C 21"
_symmetry_group_IT_number 36
_symmetry_cell_setting 'orthorhombic'
loop_
_space_group_symop_operation_xyz
x,y,z
-x,-y,1/2+z
x,-y,1/2+z
-x,y,z
1/2+x,1/2+y,z
1/2-x,1/2-y,1/2+z
1/2+x,1/2-y,1/2+z
1/2-x,1/2+y,z
loop_
_atom_site_type_symbol
_atom_site_label
_atom_site_fract_x
_atom_site_fract_y
_atom_site_fract_z
Si Si1 0.084210 0.442237 0.336720
Si Si2 0.842367 0.865783 0.277806
Si Si3 0.084093 0.252406 0.522001
Si Si4 0.328971 0.085592 0.522098
Si Si5 0.195729 0.050860 0.087851
Si Si6 0.728508 0.285897 0.832575
O O1 0.089183 0.370280 0.492343
O O2 0.135876 0.399758 0.195831
O O3 0.107771 0.550766 0.396740
O O4 0.000000 0.447708 0.270614
O O5 0.897404 0.781981 0.203103
O O6 0.859453 0.896730 0.459364
O O7 0.756309 0.822253 0.270116
O O8 0.850671 0.966702 0.178569
O O9 0.145467 0.204942 0.404535
O O10 0.000000 0.215300 0.479143
O O11 0.291974 0.188667 0.465632
O O12 0.265939 0.000611 0.503146
O O13 0.232910 0.134155 0.195372
#
# Coordination Sequence:
#
# PCOD8176313 Si02
#       6
#     8   8   8   8   8   8
#     4  11  25  43  67 104 154 196 236 304 379 445
#     4  12  24  44  70 107 137 195 242 306 365 437
#     4  11  26  47  68 104 151 192 240 308 371 428
#     4  12  21  41  69 106 140 191 244 301 366 444
#     4  12  23  41  71 104 139 176 254 302 358 424
#     4  12  24  42  76 107 141 190 250 309 360 440
#
# _framework density 23.593316999999999
#
# number of rings (size 3 to 8) (size 9 to 14) (size 15 to 20)
#    0.000    0.333    5.000    4.500    2.333    0.000 
#    0.000    5.000    0.000    0.000    0.000    0.000 
#    0.000    0.000    0.000    0.000    0.000    0.000 
#
# Total GULP energy -297477.466545 kJ/mol
# GULP energy per Si atom -12394.894439 kJ/mol
# Density = 2.353962 g / cm^3
# Si number density = 23.593317 Si / 1000 Ang^3
#
#
#
# Elastic Constant Matrix: (Units=GPa)
#
#
# Indices 1 2 3 4 5 6 
#
# 1 112.9054 28.0432 34.8663 0.0000 0.0000 0.0000
# 2 28.0432 77.1132 23.2597 0.0000 0.0000 0.0000
# 3 34.8663 23.2597 97.0541 0.0000 0.0000 0.0000
# 4 0.0000 0.0000 0.0000 40.6031 0.0000 0.0000
# 5 0.0000 0.0000 0.0000 0.0000 35.1568 0.0000
# 6 0.0000 0.0000 0.0000 0.0000 0.0000 28.5391
#
#
#
# Elastic Compliance Matrix: (Units=1/GPa)
#
#
# Indices 1 2 3 4 5 6 
#
# 1 0.010531 -0.002898 -0.003089 0.000000 0.000000 0.000000
# 2 -0.002898 0.014776 -0.002500 0.000000 0.000000 0.000000
# 3 -0.003089 -0.002500 0.012012 0.000000 0.000000 0.000000
# 4 0.000000 0.000000 0.000000 0.024629 0.000000 0.000000
# 5 0.000000 0.000000 0.000000 0.000000 0.028444 0.000000
# 6 0.000000 0.000000 0.000000 0.000000 0.000000 0.035040
#
#
# Mechanical properties :
#
#
# Convention : Reuss Voigt Hill
#
# Bulk Modulus (GPa) = 49.15079 51.04567 50.09823
# Shear Modulus (GPa) = 33.51521 34.25337 33.88429
#
# Velocity S-wave (km/s) = 3.77309 3.81442 3.79381
# Velocity P-wave (km/s) = 6.31343 6.40955 6.36167
#
# Compressibility (1/GPa) = 0.02034555
#
# Stress axis : x y z
#
# Youngs Moduli (GPa) = 94.96198 67.67767 83.24849
#
# Poissons Ratio (x) = 0.19613 0.25712
# Poissons Ratio (y) = 0.27520 0.20813
# Poissons Ratio (z) = 0.29329 0.16920
#
# Static dielectric constant tensor:
#      x y z
#    x 4.036290 0.000000 0.000000 
#    y 0.000000 4.298600 0.000000 
#    z 0.000000 0.000000 4.330790 
# 
# 
# High freq. dielectric constant tensor:
#      x y z
#    x 1.901720 0.000000 0.000000 
#    y 0.000000 1.938900 0.000000 
#    z 0.000000 0.000000 1.942750 
# 
# From -- ./inp_files/4656.got.cif
#   From: 2010.03.12/outbox.cif.g09.slc.cpg/sg36_3_cif.got.tgz:4656.got - 2010.04.14 02:13:53.
