data_PCOD8176962
_publ_section_title
;
Structure prediction by ZEFSAII (Michael W. Deem and Ramdas Pophale) SiO2 
 PCOD8176962
Probable space group: C C C 2
;
_chemical_formula_sum "Si O2"
_cell_formula_units_Z 56
_cell_length_a 21.814647
_cell_length_b 8.895568
_cell_length_c 13.506639
_cell_angle_alpha 90.000000
_cell_angle_beta 90.000000
_cell_angle_gamma 90.000000
_cell_volume 2621.012945
_symmetry_space_group_name_H-M "C C C 2"
_symmetry_group_IT_number 37
_symmetry_cell_setting 'orthorhombic'
loop_
_space_group_symop_operation_xyz
x,y,z
-x,-y,z
-x,y,1/2+z
x,-y,1/2+z
1/2+x,1/2+y,z
1/2-x,1/2-y,z
1/2-x,1/2+y,1/2+z
1/2+x,1/2-y,1/2+z
loop_
_atom_site_type_symbol
_atom_site_label
_atom_site_fract_x
_atom_site_fract_y
_atom_site_fract_z
Si Si1 0.187918 0.826096 0.119240
Si Si2 0.529399 0.661379 0.121167
Si Si3 0.573010 0.822285 0.723067
Si Si4 0.748896 0.413142 0.717368
Si Si5 0.116898 0.360475 0.241477
Si Si6 0.443942 0.399380 0.896161
Si Si7 0.337822 0.635711 0.892249
O O1 0.250000 0.750000 0.154414
O O2 0.134628 0.746848 0.178922
O O3 0.199151 0.996974 0.153023
O O4 0.178506 0.817706 0.002817
O O5 0.500000 0.500000 0.157190
O O6 0.478887 0.787400 0.142437
O O7 0.592065 0.719864 0.174561
O O8 0.543332 0.656637 0.006164
O O9 0.559188 0.746549 0.828123
O O10 0.569794 0.001320 0.743407
O O11 0.750000 0.250000 0.668150
O O12 0.821014 0.453057 0.710330
O O13 0.723758 0.404955 0.830960
O O14 0.128663 0.282822 0.347307
O O15 0.500000 0.500000 0.857053
O O16 0.381297 0.491418 0.892253
#
# Coordination Sequence:
#
# PCOD8176962 Si02
#       7
#     8   8   8   8   8   8   8
#     4  12  23  43  66 104 140 187 235 291 359 429
#     4  11  25  44  70 100 134 183 241 290 361 430
#     4  12  24  43  72  99 144 181 232 298 359 429
#     4  10  23  43  66  98 140 183 230 287 354 419
#     4  11  24  45  67 101 140 182 227 302 358 419
#     4  11  24  43  69 102 131 181 237 284 344 427
#     4  11  24  42  70  98 143 186 237 291 348 431
#
# _framework density 21.365784000000001
#
# number of rings (size 3 to 8) (size 9 to 14) (size 15 to 20)
#    0.000    0.857    2.857    5.571    6.000    1.143 
#    2.571    5.000    0.000    0.000    0.000    0.000 
#    0.000    0.000    0.000    0.000    0.000    0.000 
#
# Total GULP energy -346930.460421 kJ/mol
# GULP energy per Si atom -12390.373586 kJ/mol
# Density = 2.131715 g / cm^3
# Si number density = 21.365784 Si / 1000 Ang^3
#
#
#
# Elastic Constant Matrix: (Units=GPa)
#
#
# Indices 1 2 3 4 5 6 
#
# 1 111.7316 37.0827 44.5825 0.0000 0.0000 0.0000
# 2 37.0827 118.4919 62.7776 0.0000 0.0000 0.0000
# 3 44.5825 62.7776 132.8650 0.0000 0.0000 0.0000
# 4 0.0000 0.0000 0.0000 29.1412 0.0000 0.0000
# 5 0.0000 0.0000 0.0000 0.0000 35.9318 0.0000
# 6 0.0000 0.0000 0.0000 0.0000 0.0000 39.9660
#
#
#
# Elastic Compliance Matrix: (Units=1/GPa)
#
#
# Indices 1 2 3 4 5 6 
#
# 1 0.010651 -0.001921 -0.002667 0.000000 0.000000 0.000000
# 2 -0.001921 0.011604 -0.004838 0.000000 0.000000 0.000000
# 3 -0.002667 -0.004838 0.010707 0.000000 0.000000 0.000000
# 4 0.000000 0.000000 0.000000 0.034316 0.000000 0.000000
# 5 0.000000 0.000000 0.000000 0.000000 0.027831 0.000000
# 6 0.000000 0.000000 0.000000 0.000000 0.000000 0.025021
#
#
# Mechanical properties :
#
#
# Convention : Reuss Voigt Hill
#
# Bulk Modulus (GPa) = 70.86392 72.44157 71.65275
# Shear Modulus (GPa) = 34.79842 35.58419 35.19131
#
# Velocity S-wave (km/s) = 4.04009 4.08545 4.06283
# Velocity P-wave (km/s) = 7.41634 7.49890 7.45774
#
# Compressibility (1/GPa) = 0.01411155
#
# Stress axis : x y z
#
# Youngs Moduli (GPa) = 93.88369 86.17868 93.39502
#
# Poissons Ratio (x) = 0.16552 0.24904
# Poissons Ratio (y) = 0.18032 0.45187
# Poissons Ratio (z) = 0.25035 0.41695
#
# Static dielectric constant tensor:
#      x y z
#    x 4.716340 0.000000 0.000000 
#    y 0.000000 4.115600 0.000000 
#    z 0.000000 0.000000 3.670820 
# 
# 
# High freq. dielectric constant tensor:
#      x y z
#    x 1.862570 0.000000 0.000000 
#    y 0.000000 1.844510 0.000000 
#    z 0.000000 0.000000 1.826930 
# 
# From -- ./inp_files/12950.got.cif
#   From: 2010.03.12/outbox.cif.g09.slc.cpg/sg37_7_cif.got.tgz:12950.got - 2010.04.14 02:25:27.
