data_PCOD8176639
_publ_section_title
;
Structure prediction by ZEFSAII (Michael W. Deem and Ramdas Pophale) SiO2 
 PCOD8176639
Probable space group: C C C 2
;
_chemical_formula_sum "Si O2"
_cell_formula_units_Z 48
_cell_length_a 16.829133
_cell_length_b 15.037148
_cell_length_c 9.768235
_cell_angle_alpha 90.000000
_cell_angle_beta 90.000000
_cell_angle_gamma 90.000000
_cell_volume 2471.970684
_symmetry_space_group_name_H-M "C C C 2"
_symmetry_group_IT_number 37
_symmetry_cell_setting 'orthorhombic'
loop_
_space_group_symop_operation_xyz
x,y,z
-x,-y,z
-x,y,1/2+z
x,-y,1/2+z
1/2+x,1/2+y,z
1/2-x,1/2-y,z
1/2-x,1/2+y,1/2+z
1/2+x,1/2-y,1/2+z
loop_
_atom_site_type_symbol
_atom_site_label
_atom_site_fract_x
_atom_site_fract_y
_atom_site_fract_z
Si Si1 0.234935 0.999728 0.312290
Si Si2 0.127532 0.001598 0.562637
Si Si3 0.498475 0.231529 0.794749
Si Si4 0.503062 0.643663 0.545769
Si Si5 0.612300 0.920133 0.384204
Si Si6 0.616351 0.917951 0.709959
O O1 0.162720 0.020208 0.211456
O O2 0.293985 0.083571 0.341850
O O3 0.196756 0.976232 0.457330
O O4 0.289066 0.919318 0.248229
O O5 0.054116 0.939063 0.537919
O O6 0.093595 0.103577 0.550632
O O7 0.520056 0.295655 0.672230
O O8 0.482246 0.295295 0.919309
O O9 0.572910 0.169401 0.830593
O O10 0.419941 0.175494 0.757308
O O11 0.601643 0.933324 0.547831
O O12 0.574352 0.004137 0.301013
#
# Coordination Sequence:
#
# PCOD8176639 Si02
#       6
#     8   8   8   8   8   8
#     4  10  20  40  70  90 118 174 206 258 308 388
#     4  11  22  46  64  85 124 168 228 249 316 368
#     4  12  23  41  62 100 130 154 216 253 323 372
#     4  11  26  40  65  90 122 174 207 276 300 367
#     4  10  22  40  66  96 126 166 197 255 322 377
#     4  10  22  40  66  96 126 166 197 255 322 377
#
# _framework density 19.417705999999999
#
# number of rings (size 3 to 8) (size 9 to 14) (size 15 to 20)
#    1.000    0.333    3.333    2.500    2.333    4.000 
#    0.000   10.000    0.000    0.000    0.000    0.000 
#    0.000    0.000    0.000    0.000    0.000    0.000 
#
# Total GULP energy -297363.507524 kJ/mol
# GULP energy per Si atom -12390.146147 kJ/mol
# Density = 1.937351 g / cm^3
# Si number density = 19.417706 Si / 1000 Ang^3
#
#
#
# Elastic Constant Matrix: (Units=GPa)
#
#
# Indices 1 2 3 4 5 6 
#
# 1 92.0939 37.4335 32.4954 0.0000 0.0000 0.0000
# 2 37.4335 97.4521 54.2499 0.0000 0.0000 0.0000
# 3 32.4954 54.2499 146.0824 0.0000 0.0000 0.0000
# 4 0.0000 0.0000 0.0000 27.9992 0.0000 0.0000
# 5 0.0000 0.0000 0.0000 0.0000 40.4793 0.0000
# 6 0.0000 0.0000 0.0000 0.0000 0.0000 12.0132
#
#
#
# Elastic Compliance Matrix: (Units=1/GPa)
#
#
# Indices 1 2 3 4 5 6 
#
# 1 0.013065 -0.004287 -0.001314 0.000000 0.000000 0.000000
# 2 -0.004287 0.014342 -0.004373 0.000000 0.000000 0.000000
# 3 -0.001314 -0.004373 0.008762 0.000000 0.000000 0.000000
# 4 0.000000 0.000000 0.000000 0.035715 0.000000 0.000000
# 5 0.000000 0.000000 0.000000 0.000000 0.024704 0.000000
# 6 0.000000 0.000000 0.000000 0.000000 0.000000 0.083242
#
#
# Mechanical properties :
#
#
# Convention : Reuss Voigt Hill
#
# Bulk Modulus (GPa) = 61.64753 64.88734 63.26744
# Shear Modulus (GPa) = 24.36838 30.19498 27.28168
#
# Velocity S-wave (km/s) = 3.54638 3.94766 3.75239
# Velocity P-wave (km/s) = 6.97037 7.36667 7.17126
#
# Compressibility (1/GPa) = 0.01622125
#
# Stress axis : x y z
#
# Youngs Moduli (GPa) = 76.54228 69.72378 114.13388
#
# Poissons Ratio (x) = 0.29889 0.14999
# Poissons Ratio (y) = 0.32812 0.49907
# Poissons Ratio (z) = 0.10059 0.30488
#
# Static dielectric constant tensor:
#      x y z
#    x 3.617790 0.000000 0.000000 
#    y 0.000000 3.455620 0.000000 
#    z 0.000000 0.000000 3.740000 
# 
# 
# High freq. dielectric constant tensor:
#      x y z
#    x 1.759220 0.000000 0.000000 
#    y 0.000000 1.736430 0.000000 
#    z 0.000000 0.000000 1.777210 
# 
# From -- ./inp_files/4338.got.cif
#   From: 2010.03.12/outbox.cif.g09.slc.cpg/sg37_3_cif.got.tgz:4338.got - 2010.04.14 02:25:27.
