data_PCOD8176970
_publ_section_title
;
Structure prediction by ZEFSAII (Michael W. Deem and Ramdas Pophale) SiO2 
 PCOD8176970
Probable space group: C C C 2
;
_chemical_formula_sum "Si O2"
_cell_formula_units_Z 48
_cell_length_a 15.684598
_cell_length_b 11.219535
_cell_length_c 12.028260
_cell_angle_alpha 90.000000
_cell_angle_beta 90.000000
_cell_angle_gamma 90.000000
_cell_volume 2116.659777
_symmetry_space_group_name_H-M "C C C 2"
_symmetry_group_IT_number 37
_symmetry_cell_setting 'orthorhombic'
loop_
_space_group_symop_operation_xyz
x,y,z
-x,-y,z
-x,y,1/2+z
x,-y,1/2+z
1/2+x,1/2+y,z
1/2-x,1/2-y,z
1/2-x,1/2+y,1/2+z
1/2+x,1/2-y,1/2+z
loop_
_atom_site_type_symbol
_atom_site_label
_atom_site_fract_x
_atom_site_fract_y
_atom_site_fract_z
Si Si1 0.610763 0.764707 0.163870
Si Si2 0.842089 0.057260 0.795201
Si Si3 0.657911 0.942741 0.342947
Si Si4 0.077417 0.324490 0.923589
Si Si5 0.610763 0.264707 0.974279
Si Si6 0.577417 0.675510 0.714559
O O1 0.677478 0.666248 0.209007
O O2 0.615524 0.889620 0.230327
O O3 0.521025 0.700578 0.190742
O O4 0.628662 0.787346 0.034513
O O5 0.750000 0.997759 0.819074
O O6 0.884476 0.110380 0.907822
O O7 0.906694 0.962663 0.741814
O O8 0.677478 0.833752 0.429141
O O9 0.593306 0.037338 0.396334
O O10 0.112288 0.250000 0.819074
O O11 0.978975 0.299422 0.947407
O O12 0.628662 0.287347 0.103636
#
# Coordination Sequence:
#
# PCOD8176970 Si02
#       6
#     8   8   8   8   8   8
#     4  10  23  44  71  96 133 178 229 277 331 398
#     4  11  24  46  68  98 138 176 218 279 344 401
#     4  11  24  46  68  98 138 176 218 279 344 401
#     4  11  24  42  69 102 130 174 232 277 329 402
#     4  10  23  44  71  96 133 178 229 277 331 398
#     4  11  24  42  69 102 130 174 232 277 329 402
#
# _framework density 22.677239
#
# number of rings (size 3 to 8) (size 9 to 14) (size 15 to 20)
#    0.000    1.333    3.333    3.000    4.667    2.000 
#    6.000    0.000    0.000    0.000    0.000    0.000 
#    0.000    0.000    0.000    0.000    0.000    0.000 
#
# Total GULP energy -297568.097441 kJ/mol
# GULP energy per Si atom -12398.670727 kJ/mol
# Density = 2.262562 g / cm^3
# Si number density = 22.677239 Si / 1000 Ang^3
#
#
#
# Elastic Constant Matrix: (Units=GPa)
#
#
# Indices 1 2 3 4 5 6 
#
# 1 75.1689 32.1509 17.9162 0.0000 0.0000 0.0000
# 2 32.1509 127.4982 75.6547 0.0000 0.0000 0.0000
# 3 17.9162 75.6547 221.0974 0.0000 0.0000 0.0000
# 4 0.0000 0.0000 0.0000 32.7444 0.0000 0.0000
# 5 0.0000 0.0000 0.0000 0.0000 17.7102 0.0000
# 6 0.0000 0.0000 0.0000 0.0000 0.0000 30.4337
#
#
#
# Elastic Compliance Matrix: (Units=1/GPa)
#
#
# Indices 1 2 3 4 5 6 
#
# 1 0.014913 -0.003819 0.000098 0.000000 0.000000 0.000000
# 2 -0.003819 0.010819 -0.003393 0.000000 0.000000 0.000000
# 3 0.000098 -0.003393 0.005676 0.000000 0.000000 0.000000
# 4 0.000000 0.000000 0.000000 0.030540 0.000000 0.000000
# 5 0.000000 0.000000 0.000000 0.000000 0.056465 0.000000
# 6 0.000000 0.000000 0.000000 0.000000 0.000000 0.032858
#
#
# Mechanical properties :
#
#
# Convention : Reuss Voigt Hill
#
# Bulk Modulus (GPa) = 58.20098 75.02314 66.61206
# Shear Modulus (GPa) = 29.20129 36.04716 32.62422
#
# Velocity S-wave (km/s) = 3.59233 3.99127 3.79705
# Velocity P-wave (km/s) = 6.55188 7.37531 6.97576
#
# Compressibility (1/GPa) = 0.01718184
#
# Stress axis : x y z
#
# Youngs Moduli (GPa) = 67.05384 92.42621 176.18544
#
# Poissons Ratio (x) = 0.35298 -0.01732
# Poissons Ratio (y) = 0.25608 0.59775
# Poissons Ratio (z) = -0.00659 0.31358
#
# Static dielectric constant tensor:
#      x y z
#    x 3.795620 0.000000 0.000000 
#    y 0.000000 3.952640 0.000000 
#    z 0.000000 0.000000 4.553140 
# 
# 
# High freq. dielectric constant tensor:
#      x y z
#    x 1.882740 0.000000 0.000000 
#    y 0.000000 1.891410 0.000000 
#    z 0.000000 0.000000 1.901060 
# 
# From -- ./inp_files/8247.got.cif
#   From: 2010.03.12/outbox.cif.g09.slc.cpg/sg37_5_cif.got.tgz:8247.got - 2010.04.14 02:25:27.
