data_PCOD8176340
_publ_section_title
;
Structure prediction by ZEFSAII (Michael W. Deem and Ramdas Pophale) SiO2 
 PCOD8176340
Probable space group: C M C 21
;
_chemical_formula_sum "Si O2"
_cell_formula_units_Z 48
_cell_length_a 17.438302
_cell_length_b 12.583856
_cell_length_c 9.707616
_cell_angle_alpha 90.000000
_cell_angle_beta 90.000000
_cell_angle_gamma 90.000000
_cell_volume 2130.249751
_symmetry_space_group_name_H-M "C M C 21"
_symmetry_group_IT_number 36
_symmetry_cell_setting 'orthorhombic'
loop_
_space_group_symop_operation_xyz
x,y,z
-x,-y,1/2+z
x,-y,1/2+z
-x,y,z
1/2+x,1/2+y,z
1/2-x,1/2-y,1/2+z
1/2+x,1/2-y,1/2+z
1/2-x,1/2+y,z
loop_
_atom_site_type_symbol
_atom_site_label
_atom_site_fract_x
_atom_site_fract_y
_atom_site_fract_z
Si Si1 0.911043 0.656675 0.155840
Si Si2 0.331988 0.537272 0.050567
Si Si3 0.587384 0.582551 0.315086
Si Si4 0.668060 0.770888 0.924506
Si Si5 0.333441 0.219569 0.876200
Si Si6 0.828695 0.553250 0.646971
O O1 0.887988 0.719920 0.293926
O O2 0.896703 0.530801 0.171033
O O3 0.000000 0.677670 0.125383
O O4 0.859788 0.699064 0.031216
O O5 0.357355 0.453978 0.937080
O O6 0.338127 0.655904 0.993019
O O7 0.391402 0.522546 0.175283
O O8 0.247148 0.510816 0.103686
O O9 0.500000 0.558407 0.352082
O O10 0.602914 0.708986 0.298315
O O11 0.755220 0.787845 0.875817
O O12 0.645591 0.861776 0.033170
O O13 0.317703 0.110235 0.794671
#
# Coordination Sequence:
#
# PCOD8176340 Si02
#       6
#     8   8   8   8   8   8
#     4  12  29  47  73 114 154 192 244 316 384 445
#     4  12  26  48  75 107 144 195 260 307 368 455
#     4  12  27  45  70 105 150 194 242 315 387 446
#     4  12  25  48  77 107 145 194 251 306 370 451
#     4  12  24  48  74 105 146 195 251 307 371 455
#     4  12  25  48  77 104 143 196 256 309 366 450
#
# _framework density 22.532568000000001
#
# number of rings (size 3 to 8) (size 9 to 14) (size 15 to 20)
#    0.000    0.000    5.000    5.000    2.333    4.667 
#    0.000    0.000    0.000    0.000    0.000    0.000 
#    0.000    0.000    0.000    0.000    0.000    0.000 
#
# Total GULP energy -297735.687418 kJ/mol
# GULP energy per Si atom -12405.653642 kJ/mol
# Density = 2.248128 g / cm^3
# Si number density = 22.532568 Si / 1000 Ang^3
#
#
#
# Elastic Constant Matrix: (Units=GPa)
#
#
# Indices 1 2 3 4 5 6 
#
# 1 105.8633 25.9456 33.4124 0.0000 0.0000 0.0000
# 2 25.9456 95.5095 36.7659 0.0000 0.0000 0.0000
# 3 33.4124 36.7659 129.2942 0.0000 0.0000 0.0000
# 4 0.0000 0.0000 0.0000 49.5615 0.0000 0.0000
# 5 0.0000 0.0000 0.0000 0.0000 32.6648 0.0000
# 6 0.0000 0.0000 0.0000 0.0000 0.0000 25.0752
#
#
#
# Elastic Compliance Matrix: (Units=1/GPa)
#
#
# Indices 1 2 3 4 5 6 
#
# 1 0.010633 -0.002056 -0.002163 0.000000 0.000000 0.000000
# 2 -0.002056 0.012155 -0.002925 0.000000 0.000000 0.000000
# 3 -0.002163 -0.002925 0.009125 0.000000 0.000000 0.000000
# 4 0.000000 0.000000 0.000000 0.020177 0.000000 0.000000
# 5 0.000000 0.000000 0.000000 0.000000 0.030614 0.000000
# 6 0.000000 0.000000 0.000000 0.000000 0.000000 0.039880
#
#
# Mechanical properties :
#
#
# Convention : Reuss Voigt Hill
#
# Bulk Modulus (GPa) = 56.73904 58.10163 57.42034
# Shear Modulus (GPa) = 35.02726 37.09652 36.06189
#
# Velocity S-wave (km/s) = 3.94701 4.06193 4.00488
# Velocity P-wave (km/s) = 6.78288 6.91669 6.85011
#
# Compressibility (1/GPa) = 0.01762455
#
# Stress axis : x y z
#
# Youngs Moduli (GPa) = 94.04946 82.27357 109.58835
#
# Poissons Ratio (x) = 0.16913 0.23706
# Poissons Ratio (y) = 0.19334 0.32055
# Poissons Ratio (z) = 0.20344 0.24065
#
# Static dielectric constant tensor:
#      x y z
#    x 3.906350 0.000000 0.000000 
#    y 0.000000 4.201200 0.000000 
#    z 0.000000 0.000000 4.203760 
# 
# 
# High freq. dielectric constant tensor:
#      x y z
#    x 1.875330 0.000000 0.000000 
#    y 0.000000 1.902010 0.000000 
#    z 0.000000 0.000000 1.906170 
# 
# From -- ./inp_files/4650.got.cif
#   From: 2010.03.12/outbox.cif.g09.slc.cpg/sg36_3_cif.got.tgz:4650.got - 2010.04.14 02:13:53.
