data_PCOD8176052
_publ_section_title
;
Structure prediction by ZEFSAII (Michael W. Deem and Ramdas Pophale) SiO2 
 PCOD8176052
Probable space group: C M C 21
;
_chemical_formula_sum "Si O2"
_cell_formula_units_Z 56
_cell_length_a 12.038159
_cell_length_b 22.229047
_cell_length_c 11.214314
_cell_angle_alpha 90.000000
_cell_angle_beta 90.000000
_cell_angle_gamma 90.000000
_cell_volume 3000.914565
_symmetry_space_group_name_H-M "C M C 21"
_symmetry_group_IT_number 36
_symmetry_cell_setting 'orthorhombic'
loop_
_space_group_symop_operation_xyz
x,y,z
-x,-y,1/2+z
x,-y,1/2+z
-x,y,z
1/2+x,1/2+y,z
1/2-x,1/2-y,1/2+z
1/2+x,1/2-y,1/2+z
1/2-x,1/2+y,z
loop_
_atom_site_type_symbol
_atom_site_label
_atom_site_fract_x
_atom_site_fract_y
_atom_site_fract_z
Si Si1 0.125830 0.333545 0.898880
Si Si2 0.198117 0.143109 0.207845
Si Si3 0.126923 0.269544 0.125995
Si Si4 0.623370 0.953824 0.041868
Si Si5 0.500000 0.558420 0.269447
Si Si6 0.500000 0.470410 0.496377
Si Si7 0.259175 0.569540 0.990608
Si Si8 0.871128 0.621643 0.773520
O O1 0.209372 0.327789 0.790519
O O2 0.000000 0.316635 0.859022
O O3 0.176346 0.287500 0.997234
O O4 0.129054 0.401402 0.945586
O O5 0.135369 0.199260 0.148856
O O6 0.109056 0.100472 0.272964
O O7 0.266486 0.105924 0.110272
O O8 0.174550 0.313055 0.229941
O O9 0.000000 0.290778 0.116162
O O10 0.500000 0.983049 0.040034
O O11 0.649516 0.928392 0.172483
O O12 0.714593 0.002205 0.004831
O O13 0.500000 0.524387 0.398019
O O14 0.500000 0.517699 0.144236
O O15 0.608514 0.431226 0.468346
O O16 0.202907 0.604413 0.884286
O O17 0.000000 0.623369 0.811916
#
# Coordination Sequence:
#
# PCOD8176052 Si02
#       8
#     8   8   8   8   4   4   8   8
#     4   9  20  37  60  85 113 148 188 240 293 347
#     4  11  22  36  60  86 111 154 198 233 291 343
#     4   9  19  40  61  78 110 152 197 238 285 350
#     4   9  19  36  58  85 112 148 187 230 298 342
#     4  10  22  42  60  90 114 166 202 244 294 348
#     4  10  24  38  58  84 128 160 198 238 286 360
#     4  11  23  35  56  88 117 153 187 237 282 351
#     4   9  20  37  59  84 109 148 187 240 295 335
#
# _framework density 18.660978
#
# number of rings (size 3 to 8) (size 9 to 14) (size 15 to 20)
#    0.000    2.286    0.714    3.000    8.000    1.143 
#    0.000    0.000    1.571    0.000    0.000    0.000 
#    0.000    0.000    0.000    0.000    0.000    0.000 
#
# Total GULP energy -347019.845987 kJ/mol
# GULP energy per Si atom -12393.565928 kJ/mol
# Density = 1.861850 g / cm^3
# Si number density = 18.660978 Si / 1000 Ang^3
#
#
#
# Elastic Constant Matrix: (Units=GPa)
#
#
# Indices 1 2 3 4 5 6 
#
# 1 75.7824 14.1318 33.6122 0.0000 0.0000 0.0000
# 2 14.1318 77.9486 28.5053 0.0000 0.0000 0.0000
# 3 33.6122 28.5053 78.8425 0.0000 0.0000 0.0000
# 4 0.0000 0.0000 0.0000 20.2732 0.0000 0.0000
# 5 0.0000 0.0000 0.0000 0.0000 25.6032 0.0000
# 6 0.0000 0.0000 0.0000 0.0000 0.0000 16.9416
#
#
#
# Elastic Compliance Matrix: (Units=1/GPa)
#
#
# Indices 1 2 3 4 5 6 
#
# 1 0.016288 -0.000477 -0.006772 0.000000 0.000000 0.000000
# 2 -0.000477 0.014798 -0.005147 0.000000 0.000000 0.000000
# 3 -0.006772 -0.005147 0.017431 0.000000 0.000000 0.000000
# 4 0.000000 0.000000 0.000000 0.049326 0.000000 0.000000
# 5 0.000000 0.000000 0.000000 0.000000 0.039058 0.000000
# 6 0.000000 0.000000 0.000000 0.000000 0.000000 0.059026
#
#
# Mechanical properties :
#
#
# Convention : Reuss Voigt Hill
#
# Bulk Modulus (GPa) = 42.14667 42.78578 42.46623
# Shear Modulus (GPa) = 21.86983 22.98524 22.42754
#
# Velocity S-wave (km/s) = 3.42710 3.51341 3.47052
# Velocity P-wave (km/s) = 6.18825 6.27984 6.23422
#
# Compressibility (1/GPa) = 0.02372667
#
# Stress axis : x y z
#
# Youngs Moduli (GPa) = 61.39495 67.57889 57.36845
#
# Poissons Ratio (x) = 0.03221 0.38847
# Poissons Ratio (y) = 0.02926 0.29526
# Poissons Ratio (z) = 0.41574 0.34781
#
# Static dielectric constant tensor:
#      x y z
#    x 3.414400 0.000000 0.000000 
#    y 0.000000 3.286440 0.000000 
#    z 0.000000 0.000000 3.489760 
# 
# 
# High freq. dielectric constant tensor:
#      x y z
#    x 1.719940 0.000000 0.000000 
#    y 0.000000 1.718550 0.000000 
#    z 0.000000 0.000000 1.725860 
# 
# From -- ./inp_files/7875.got.cif
#   From: 2010.03.12/outbox.cif.g09.slc.cpg/sg36_4_cif.got.tgz:7875.got - 2010.04.14 02:13:53.
