data_PCOD8176155
_publ_section_title
;
Structure prediction by ZEFSAII (Michael W. Deem and Ramdas Pophale) SiO2 
 PCOD8176155
Probable space group: C M C 21
;
_chemical_formula_sum "Si O2"
_cell_formula_units_Z 64
_cell_length_a 8.482060
_cell_length_b 23.613068
_cell_length_c 15.479970
_cell_angle_alpha 90.000000
_cell_angle_beta 90.000000
_cell_angle_gamma 90.000000
_cell_volume 3100.443865
_symmetry_space_group_name_H-M "C M C 21"
_symmetry_group_IT_number 36
_symmetry_cell_setting 'orthorhombic'
loop_
_space_group_symop_operation_xyz
x,y,z
-x,-y,1/2+z
x,-y,1/2+z
-x,y,z
1/2+x,1/2+y,z
1/2-x,1/2-y,1/2+z
1/2+x,1/2-y,1/2+z
1/2-x,1/2+y,z
loop_
_atom_site_type_symbol
_atom_site_label
_atom_site_fract_x
_atom_site_fract_y
_atom_site_fract_z
Si Si1 0.316729 0.137486 0.924680
Si Si2 0.182964 0.253952 0.868740
Si Si3 0.816284 0.443593 0.269315
Si Si4 0.684294 0.633186 0.434478
Si Si5 0.683271 0.137486 0.613950
Si Si6 0.684348 0.566821 0.269315
Si Si7 0.315706 0.366814 0.604152
Si Si8 0.182964 0.746048 0.169890
O O1 0.500000 0.152684 0.915781
O O2 0.214803 0.193684 0.911721
O O3 0.267062 0.091350 0.853890
O O4 0.276442 0.112525 0.018789
O O5 0.285840 0.300586 0.917809
O O6 0.235856 0.251856 0.769315
O O7 0.000000 0.269281 0.878988
O O8 0.767062 0.408650 0.184740
O O9 0.718382 0.500812 0.269315
O O10 0.000000 0.458614 0.269315
O O11 0.500000 0.622233 0.448197
O O12 0.776442 0.612525 0.519841
O O13 0.754931 0.596686 0.354839
O O14 0.500000 0.152684 0.622849
O O15 0.785197 0.193684 0.626909
O O16 0.500000 0.578314 0.269315
O O17 0.754931 0.596686 0.183790
O O18 0.500000 0.377767 0.590433
O O19 0.285840 0.300586 0.620821
O O20 0.000000 0.730719 0.159642
#
# Coordination Sequence:
#
# PCOD8176155 Si02
#       8
#     8   8   8   8   8   8   8   8
#     4  11  23  41  63  91 124 161 201 247 302 360
#     4  11  22  37  62  94 124 160 200 245 301 361
#     4  10  24  43  64  87 119 160 204 252 303 354
#     4  11  23  41  63  91 124 161 201 247 302 360
#     4  11  23  41  63  91 124 161 201 247 302 360
#     4  10  24  43  64  87 119 160 204 252 303 354
#     4  11  23  41  63  91 124 161 201 247 302 360
#     4  11  22  37  62  94 124 160 200 245 301 361
#
# _framework density 20.642206000000002
#
# number of rings (size 3 to 8) (size 9 to 14) (size 15 to 20)
#    0.000    1.250    2.500    3.000    0.000    6.000 
#    0.000    5.000    0.000    0.000    0.000    0.000 
#    0.000    0.000    0.000    0.000    0.000    0.000 
#
# Total GULP energy -397037.602725 kJ/mol
# GULP energy per Si atom -12407.425085 kJ/mol
# Density = 2.059522 g / cm^3
# Si number density = 20.642206 Si / 1000 Ang^3
#
#
#
# Elastic Constant Matrix: (Units=GPa)
#
#
# Indices 1 2 3 4 5 6 
#
# 1 41.8557 11.8120 23.7317 0.0000 0.0000 0.0000
# 2 11.8120 104.6938 50.2914 0.0000 0.0000 0.0000
# 3 23.7317 50.2914 174.1375 0.0000 0.0000 0.0000
# 4 0.0000 0.0000 0.0000 14.4362 0.0000 0.0000
# 5 0.0000 0.0000 0.0000 0.0000 27.4409 0.0000
# 6 0.0000 0.0000 0.0000 0.0000 0.0000 33.9891
#
#
#
# Elastic Compliance Matrix: (Units=1/GPa)
#
#
# Indices 1 2 3 4 5 6 
#
# 1 0.026076 -0.001434 -0.003140 0.000000 0.000000 0.000000
# 2 -0.001434 0.011169 -0.003030 0.000000 0.000000 0.000000
# 3 -0.003140 -0.003030 0.007046 0.000000 0.000000 0.000000
# 4 0.000000 0.000000 0.000000 0.069270 0.000000 0.000000
# 5 0.000000 0.000000 0.000000 0.000000 0.036442 0.000000
# 6 0.000000 0.000000 0.000000 0.000000 0.000000 0.029421
#
#
# Mechanical properties :
#
#
# Convention : Reuss Voigt Hill
#
# Bulk Modulus (GPa) = 34.38367 54.70635 44.54501
# Shear Modulus (GPa) = 24.47065 30.83003 27.65034
#
# Velocity S-wave (km/s) = 3.44680 3.86883 3.66390
# Velocity P-wave (km/s) = 5.70383 6.82033 6.28691
#
# Compressibility (1/GPa) = 0.02908357
#
# Stress axis : x y z
#
# Youngs Moduli (GPa) = 38.34885 89.53301 141.93253
#
# Poissons Ratio (x) = 0.12838 0.44561
# Poissons Ratio (y) = 0.05499 0.43009
# Poissons Ratio (z) = 0.12040 0.27131
#
# Static dielectric constant tensor:
#      x y z
#    x 3.553600 0.000000 0.000000 
#    y 0.000000 3.489530 0.000000 
#    z 0.000000 0.000000 4.124800 
# 
# 
# High freq. dielectric constant tensor:
#      x y z
#    x 1.803270 0.000000 0.000000 
#    y 0.000000 1.795260 0.000000 
#    z 0.000000 0.000000 1.830180 
# 
# From -- ./inp_files/11105.got.cif
#   From: 2010.03.12/outbox.cif.g09.slc.cpg/sg36_6_cif.got.tgz:11105.got - 2010.04.14 02:13:53.
