data_PCOD8176126
_publ_section_title
;
Structure prediction by ZEFSAII (Michael W. Deem and Ramdas Pophale) SiO2 
 PCOD8176126
Probable space group: C M C 21
;
_chemical_formula_sum "Si O2"
_cell_formula_units_Z 40
_cell_length_a 10.285933
_cell_length_b 18.193341
_cell_length_c 10.252104
_cell_angle_alpha 90.000000
_cell_angle_beta 90.000000
_cell_angle_gamma 90.000000
_cell_volume 1918.532470
_symmetry_space_group_name_H-M "C M C 21"
_symmetry_group_IT_number 36
_symmetry_cell_setting 'orthorhombic'
loop_
_space_group_symop_operation_xyz
x,y,z
-x,-y,1/2+z
x,-y,1/2+z
-x,y,z
1/2+x,1/2+y,z
1/2-x,1/2-y,1/2+z
1/2+x,1/2-y,1/2+z
1/2-x,1/2+y,z
loop_
_atom_site_type_symbol
_atom_site_label
_atom_site_fract_x
_atom_site_fract_y
_atom_site_fract_z
Si Si1 0.857820 0.603123 0.426320
Si Si2 0.862153 0.080547 0.095168
Si Si3 0.344917 0.357535 0.142126
Si Si4 0.208352 0.980000 0.329263
Si Si5 0.854733 0.311992 0.669096
O O1 0.734910 0.613064 0.519150
O O2 0.844534 0.522816 0.356270
O O3 0.850083 0.667762 0.320837
O O4 0.000000 0.605245 0.495796
O O5 0.744339 0.138103 0.086822
O O6 0.000000 0.123873 0.094087
O O7 0.866474 0.030765 0.224917
O O8 0.860832 0.027489 0.969313
O O9 0.500000 0.372221 0.127441
O O10 0.283234 0.398642 0.267611
O O11 0.313401 0.272208 0.158420
O O12 0.000000 0.324776 0.612522
#
# Coordination Sequence:
#
# PCOD8176126 Si02
#       5
#     8   8   8   8   8
#     4  10  23  43  65  92 129 167 211 265 321 378
#     4  11  22  39  66  94 123 162 212 262 314 377
#     4  11  23  41  66  93 126 167 214 264 316 378
#     4  11  23  40  65  94 125 162 211 263 316 374
#     4   9  23  43  62  89 129 168 206 260 319 377
#
# _framework density 20.849269
#
# number of rings (size 3 to 8) (size 9 to 14) (size 15 to 20)
#    0.000    1.600    2.000    1.800    2.800    6.400 
#    0.000    0.000    0.000    0.000    0.000    0.000 
#    0.000    0.000    0.000    0.000    0.000    0.000 
#
# Total GULP energy -247773.935430 kJ/mol
# GULP energy per Si atom -12388.696772 kJ/mol
# Density = 2.080182 g / cm^3
# Si number density = 20.849269 Si / 1000 Ang^3
#
#
#
# Elastic Constant Matrix: (Units=GPa)
#
#
# Indices 1 2 3 4 5 6 
#
# 1 127.6275 75.7951 62.1670 0.0000 0.0000 0.0000
# 2 75.7951 138.5244 49.9217 0.0000 0.0000 0.0000
# 3 62.1670 49.9217 101.5253 0.0000 0.0000 0.0000
# 4 0.0000 0.0000 0.0000 26.8683 0.0000 0.0000
# 5 0.0000 0.0000 0.0000 0.0000 11.3435 0.0000
# 6 0.0000 0.0000 0.0000 0.0000 0.0000 23.3076
#
#
#
# Elastic Compliance Matrix: (Units=1/GPa)
#
#
# Indices 1 2 3 4 5 6 
#
# 1 0.013964 -0.005541 -0.005826 0.000000 0.000000 0.000000
# 2 -0.005541 0.010972 -0.002002 0.000000 0.000000 0.000000
# 3 -0.005826 -0.002002 0.014402 0.000000 0.000000 0.000000
# 4 0.000000 0.000000 0.000000 0.037219 0.000000 0.000000
# 5 0.000000 0.000000 0.000000 0.000000 0.088156 0.000000
# 6 0.000000 0.000000 0.000000 0.000000 0.000000 0.042904
#
#
# Mechanical properties :
#
#
# Convention : Reuss Voigt Hill
#
# Bulk Modulus (GPa) = 79.36858 82.60499 80.98678
# Shear Modulus (GPa) = 20.95954 24.29011 22.62482
#
# Velocity S-wave (km/s) = 3.17407 3.41696 3.29775
# Velocity P-wave (km/s) = 7.18216 7.43462 7.30948
#
# Compressibility (1/GPa) = 0.01259944
#
# Stress axis : x y z
#
# Youngs Moduli (GPa) = 71.61473 91.13845 69.43609
#
# Poissons Ratio (x) = 0.50498 0.40452
# Poissons Ratio (y) = 0.39680 0.13904
# Poissons Ratio (z) = 0.41721 0.18250
#
# Static dielectric constant tensor:
#      x y z
#    x 3.853370 0.000000 0.000000 
#    y 0.000000 3.861320 0.000000 
#    z 0.000000 0.000000 3.754160 
# 
# 
# High freq. dielectric constant tensor:
#      x y z
#    x 1.815320 0.000000 0.000000 
#    y 0.000000 1.817650 0.000000 
#    z 0.000000 0.000000 1.811890 
# 
# From -- ./inp_files/6520.got.cif
#   From: 2010.03.12/outbox.cif.g09.slc.cpg/sg36_4_cif.got.tgz:6520.got - 2010.04.14 02:13:53.
