data_PCOD8176686
_publ_section_title
;
Structure prediction by ZEFSAII (Michael W. Deem and Ramdas Pophale) SiO2 
 PCOD8176686
Probable space group: C C C 2
;
_chemical_formula_sum "Si O2"
_cell_formula_units_Z 44
_cell_length_a 10.317429
_cell_length_b 23.900425
_cell_length_c 9.153323
_cell_angle_alpha 90.000000
_cell_angle_beta 90.000000
_cell_angle_gamma 90.000000
_cell_volume 2257.126504
_symmetry_space_group_name_H-M "C C C 2"
_symmetry_group_IT_number 37
_symmetry_cell_setting 'orthorhombic'
loop_
_space_group_symop_operation_xyz
x,y,z
-x,-y,z
-x,y,1/2+z
x,-y,1/2+z
1/2+x,1/2+y,z
1/2-x,1/2-y,z
1/2-x,1/2+y,1/2+z
1/2+x,1/2-y,1/2+z
loop_
_atom_site_type_symbol
_atom_site_label
_atom_site_fract_x
_atom_site_fract_y
_atom_site_fract_z
Si Si1 0.399678 0.413840 0.109410
Si Si2 0.155978 0.084169 0.441568
Si Si3 0.000000 0.500000 0.244471
Si Si4 0.365922 0.713959 0.939953
Si Si5 0.873389 0.784564 0.105265
Si Si6 0.677830 0.981435 0.992266
O O1 0.388175 0.432130 0.277685
O O2 0.354216 0.350514 0.084617
O O3 0.309501 0.447549 0.997646
O O4 0.544253 0.428780 0.059125
O O5 0.181888 0.150093 0.453427
O O6 0.283996 0.047829 0.482170
O O7 0.095319 0.465635 0.137455
O O8 0.091626 0.536923 0.351855
O O9 0.250000 0.750000 0.008261
O O10 0.392157 0.731088 0.773543
O O11 0.495546 0.731656 0.023129
O O12 0.750000 0.750000 0.041382
#
# Coordination Sequence:
#
# PCOD8176686 Si02
#       6
#     8   8   4   8   8   8
#     4  10  21  36  59  82 109 142 185 231 272 323
#     4  10  21  36  59  82 109 142 185 231 272 323
#     4  10  24  38  54  74 120 146 180 224 264 336
#     4   9  19  38  57  82 112 144 184 229 273 326
#     4   9  19  38  57  82 112 144 184 229 273 326
#     4  11  21  40  54  80 111 147 182 222 276 327
#
# _framework density 19.493812999999999
#
# number of rings (size 3 to 8) (size 9 to 14) (size 15 to 20)
#    0.000    2.182    1.818    0.545    2.545    2.182 
#    6.545    0.000    0.000    0.000    0.000    0.000 
#    0.000    0.000    0.000    0.000    0.000    0.000 
#
# Total GULP energy -272666.874576 kJ/mol
# GULP energy per Si atom -12393.948844 kJ/mol
# Density = 1.944944 g / cm^3
# Si number density = 19.493813 Si / 1000 Ang^3
#
#
#
# Elastic Constant Matrix: (Units=GPa)
#
#
# Indices 1 2 3 4 5 6 
#
# 1 124.5959 58.4435 52.7094 0.0000 0.0000 0.0000
# 2 58.4435 57.8347 30.9236 0.0000 0.0000 0.0000
# 3 52.7094 30.9236 101.7561 0.0000 0.0000 0.0000
# 4 0.0000 0.0000 0.0000 15.5454 0.0000 0.0000
# 5 0.0000 0.0000 0.0000 0.0000 38.4387 0.0000
# 6 0.0000 0.0000 0.0000 0.0000 0.0000 29.7757
#
#
#
# Elastic Compliance Matrix: (Units=1/GPa)
#
#
# Indices 1 2 3 4 5 6 
#
# 1 0.016630 -0.014566 -0.004188 0.000000 0.000000 0.000000
# 2 -0.014566 0.033403 -0.002606 0.000000 0.000000 0.000000
# 3 -0.004188 -0.002606 0.012789 0.000000 0.000000 0.000000
# 4 0.000000 0.000000 0.000000 0.064328 0.000000 0.000000
# 5 0.000000 0.000000 0.000000 0.000000 0.026015 0.000000
# 6 0.000000 0.000000 0.000000 0.000000 0.000000 0.033584
#
#
# Mechanical properties :
#
#
# Convention : Reuss Voigt Hill
#
# Bulk Modulus (GPa) = 49.74516 63.14886 56.44701
# Shear Modulus (GPa) = 21.17124 26.22596 23.69860
#
# Velocity S-wave (km/s) = 3.29910 3.67188 3.49047
# Velocity P-wave (km/s) = 6.33134 7.10222 6.72783
#
# Compressibility (1/GPa) = 0.02010246
#
# Stress axis : x y z
#
# Youngs Moduli (GPa) = 60.13307 29.93720 78.19436
#
# Poissons Ratio (x) = 0.43606 0.32745
# Poissons Ratio (y) = 0.87588 0.20379
# Poissons Ratio (z) = 0.25182 0.07802
#
# Static dielectric constant tensor:
#      x y z
#    x 3.690540 0.000000 0.000000 
#    y 0.000000 3.394290 0.000000 
#    z 0.000000 0.000000 3.669580 
# 
# 
# High freq. dielectric constant tensor:
#      x y z
#    x 1.768670 0.000000 0.000000 
#    y 0.000000 1.733980 0.000000 
#    z 0.000000 0.000000 1.766390 
# 
# From -- ./inp_files/2342.got.cif
#   From: 2010.03.12/outbox.cif.g09.slc.cpg/sg37_2_cif.got.tgz:2342.got - 2010.04.14 02:25:27.
