data_PCOD8176829
_publ_section_title
;
Structure prediction by ZEFSAII (Michael W. Deem and Ramdas Pophale) SiO2 
 PCOD8176829
Probable space group: C C C 2
;
_chemical_formula_sum "Si O2"
_cell_formula_units_Z 40
_cell_length_a 10.593644
_cell_length_b 10.557380
_cell_length_c 17.171810
_cell_angle_alpha 90.000000
_cell_angle_beta 90.000000
_cell_angle_gamma 90.000000
_cell_volume 1920.514554
_symmetry_space_group_name_H-M "C C C 2"
_symmetry_group_IT_number 37
_symmetry_cell_setting 'orthorhombic'
loop_
_space_group_symop_operation_xyz
x,y,z
-x,-y,z
-x,y,1/2+z
x,-y,1/2+z
1/2+x,1/2+y,z
1/2-x,1/2-y,z
1/2-x,1/2+y,1/2+z
1/2+x,1/2-y,1/2+z
loop_
_atom_site_type_symbol
_atom_site_label
_atom_site_fract_x
_atom_site_fract_y
_atom_site_fract_z
Si Si1 0.174269 0.623934 0.536610
Si Si2 0.000000 0.500000 0.648294
Si Si3 0.250000 0.750000 0.976142
Si Si4 0.857761 0.489957 0.885319
Si Si5 0.872777 0.926900 0.587144
Si Si6 0.764276 0.393045 0.239140
O O1 0.250000 0.750000 0.555008
O O2 0.054717 0.613629 0.594127
O O3 0.139179 0.606790 0.446557
O O4 0.257122 0.504094 0.555347
O O5 0.103410 0.425869 0.698378
O O6 0.183718 0.644715 0.921379
O O7 0.137675 0.800093 0.033995
O O8 0.757454 0.518661 0.816008
O O9 0.000000 0.500000 0.850866
O O10 0.853574 0.911139 0.679958
O O11 0.000000 0.000000 0.568692
O O12 0.750000 0.250000 0.268371
#
# Coordination Sequence:
#
# PCOD8176829 Si02
#       6
#     8   4   4   8   8   8
#     4  10  22  37  68  96 122 167 229 261 319 393
#     4  10  22  42  60  98 128 174 214 274 326 376
#     4  10  24  48  66  94 134 172 226 272 322 398
#     4  11  23  44  67  92 133 176 210 274 336 381
#     4  10  23  41  67  97 127 175 220 270 328 384
#     4  11  23  43  66  94 138 172 215 273 337 388
#
# _framework density 20.827752
#
# number of rings (size 3 to 8) (size 9 to 14) (size 15 to 20)
#    0.000    1.600    3.000    0.600    5.600    0.000 
#   10.800    1.000    0.000    0.000    0.000    0.000 
#    0.000    0.000    0.000    0.000    0.000    0.000 
#
# Total GULP energy -247803.414489 kJ/mol
# GULP energy per Si atom -12390.170724 kJ/mol
# Density = 2.078035 g / cm^3
# Si number density = 20.827752 Si / 1000 Ang^3
#
#
#
# Elastic Constant Matrix: (Units=GPa)
#
#
# Indices 1 2 3 4 5 6 
#
# 1 63.6752 39.3933 35.1958 0.0000 0.0000 0.0000
# 2 39.3933 116.8431 60.1884 0.0000 0.0000 0.0000
# 3 35.1958 60.1884 138.9261 0.0000 0.0000 0.0000
# 4 0.0000 0.0000 0.0000 -3.9851 0.0000 0.0000
# 5 0.0000 0.0000 0.0000 0.0000 32.3813 0.0000
# 6 0.0000 0.0000 0.0000 0.0000 0.0000 38.8219
#
#
#
# Elastic Compliance Matrix: (Units=1/GPa)
#
#
# Indices 1 2 3 4 5 6 
#
# 1 0.020689 -0.005503 -0.002857 0.000000 0.000000 0.000000
# 2 -0.005503 0.012481 -0.004013 0.000000 0.000000 0.000000
# 3 -0.002857 -0.004013 0.009661 0.000000 0.000000 0.000000
# 4 0.000000 0.000000 0.000000 -0.250932 0.000000 0.000000
# 5 0.000000 0.000000 0.000000 0.000000 0.030882 0.000000
# 6 0.000000 0.000000 0.000000 0.000000 0.000000 0.025759
#
#
# Mechanical properties :
#
#
# Convention : Reuss Voigt Hill
#
# Bulk Modulus (GPa) = 55.29965 65.44434 60.37200
# Shear Modulus (GPa) = -41.42965 25.75474 -7.83745
#
# Velocity S-wave (km/s) = -4.46483 3.52029 -1.94195
# Velocity P-wave (km/s) = 0.17007 6.92915 4.90113
#
# Compressibility (1/GPa) = 0.01808330
#
# Stress axis : x y z
#
# Youngs Moduli (GPa) = 48.33578 80.12067 103.51425
#
# Poissons Ratio (x) = 0.44094 0.29574
# Poissons Ratio (y) = 0.26601 0.41541
# Poissons Ratio (z) = 0.13809 0.32153
#
# Static dielectric constant tensor:
#      x y z
#    x 3.445170 0.000000 0.000000 
#    y 0.000000 3.776890 0.000000 
#    z 0.000000 0.000000 4.124020 
# 
# 
# High freq. dielectric constant tensor:
#      x y z
#    x 1.805740 0.000000 0.000000 
#    y 0.000000 1.813520 0.000000 
#    z 0.000000 0.000000 1.826350 
# 
# From -- ./inp_files/11357.got.cif
#   From: 2010.03.12/outbox.cif.g09.slc.cpg/sg37_6_cif.got.tgz:11357.got - 2010.04.14 02:25:27.
