data_PCOD8176301
_publ_section_title
;
Structure prediction by ZEFSAII (Michael W. Deem and Ramdas Pophale) SiO2 
 PCOD8176301
Probable space group: C M C 21
;
_chemical_formula_sum "Si O2"
_cell_formula_units_Z 48
_cell_length_a 9.981794
_cell_length_b 9.211067
_cell_length_c 24.664354
_cell_angle_alpha 90.000000
_cell_angle_beta 90.000000
_cell_angle_gamma 90.000000
_cell_volume 2267.714042
_symmetry_space_group_name_H-M "C M C 21"
_symmetry_group_IT_number 36
_symmetry_cell_setting 'orthorhombic'
loop_
_space_group_symop_operation_xyz
x,y,z
-x,-y,1/2+z
x,-y,1/2+z
-x,y,z
1/2+x,1/2+y,z
1/2-x,1/2-y,1/2+z
1/2+x,1/2-y,1/2+z
1/2-x,1/2+y,z
loop_
_atom_site_type_symbol
_atom_site_label
_atom_site_fract_x
_atom_site_fract_y
_atom_site_fract_z
Si Si1 0.500000 0.681954 0.905440
Si Si2 0.766638 0.292312 0.978745
Si Si3 0.839211 0.553273 0.664345
Si Si4 0.242439 0.197913 0.232117
Si Si5 0.500000 0.648963 0.411809
Si Si6 0.152834 0.554688 0.047665
Si Si7 0.000000 0.343921 0.794555
Si Si8 0.000000 0.694971 0.801399
O O1 0.366565 0.707903 0.939657
O O2 0.500000 0.513493 0.886848
O O3 0.500000 0.794612 0.856467
O O4 0.629406 0.327041 0.948514
O O5 0.836043 0.438045 0.999623
O O6 0.740125 0.193727 0.031670
O O7 0.784832 0.713563 0.676594
O O8 0.759295 0.464832 0.710424
O O9 0.793697 0.509156 0.604336
O O10 0.000000 0.540052 0.672576
O O11 0.376530 0.232852 0.264886
O O12 0.125533 0.225297 0.274673
O O13 0.500000 0.769656 0.364912
O O14 0.000000 0.603325 0.054132
O O15 0.000000 0.520844 0.792488
#
# Coordination Sequence:
#
# PCOD8176301 Si02
#       8
#     4   8   8   8   4   8   4   4
#     4  12  28  44  69 101 134 174 233 279 335 402
#     4  12  24  46  68 102 136 174 226 280 334 398
#     4  11  24  45  68 103 137 177 225 271 338 405
#     4  12  22  48  68  98 138 170 224 282 326 402
#     4  12  28  44  69 101 134 174 233 279 335 402
#     4  11  24  43  72  99 137 183 217 275 340 397
#     4  12  28  46  69  99 134 180 229 275 341 404
#     4  12  28  46  69  99 134 180 229 275 341 404
#
# _framework density 21.166689000000002
#
# number of rings (size 3 to 8) (size 9 to 14) (size 15 to 20)
#    0.000    0.333    6.667    2.000    4.667    2.667 
#    0.000    1.667    0.000    0.000    0.000    0.000 
#    0.000    0.000    0.000    0.000    0.000    0.000 
#
# Total GULP energy -297589.007159 kJ/mol
# GULP energy per Si atom -12399.541965 kJ/mol
# Density = 2.111851 g / cm^3
# Si number density = 21.166689 Si / 1000 Ang^3
#
#
#
# Elastic Constant Matrix: (Units=GPa)
#
#
# Indices 1 2 3 4 5 6 
#
# 1 124.5815 24.7202 36.5059 0.0000 0.0000 0.0000
# 2 24.7202 70.6722 10.5442 0.0000 0.0000 0.0000
# 3 36.5059 10.5442 100.2393 0.0000 0.0000 0.0000
# 4 0.0000 0.0000 0.0000 45.9080 0.0000 0.0000
# 5 0.0000 0.0000 0.0000 0.0000 68.7517 0.0000
# 6 0.0000 0.0000 0.0000 0.0000 0.0000 21.8395
#
#
#
# Elastic Compliance Matrix: (Units=1/GPa)
#
#
# Indices 1 2 3 4 5 6 
#
# 1 0.009522 -0.002858 -0.003167 0.000000 0.000000 0.000000
# 2 -0.002858 0.015233 -0.000561 0.000000 0.000000 0.000000
# 3 -0.003167 -0.000561 0.011189 0.000000 0.000000 0.000000
# 4 0.000000 0.000000 0.000000 0.021783 0.000000 0.000000
# 5 0.000000 0.000000 0.000000 0.000000 0.014545 0.000000
# 6 0.000000 0.000000 0.000000 0.000000 0.000000 0.045789
#
#
# Mechanical properties :
#
#
# Convention : Reuss Voigt Hill
#
# Bulk Modulus (GPa) = 43.91663 48.78152 46.34908
# Shear Modulus (GPa) = 36.01673 42.21467 39.11570
#
# Velocity S-wave (km/s) = 4.12949 4.47071 4.30348
# Velocity P-wave (km/s) = 6.59772 7.05309 6.82920
#
# Compressibility (1/GPa) = 0.02277042
#
# Stress axis : x y z
#
# Youngs Moduli (GPa) = 105.01902 65.64537 89.37634
#
# Poissons Ratio (x) = 0.18763 0.28307
# Poissons Ratio (y) = 0.30016 0.05018
# Poissons Ratio (z) = 0.33261 0.03686
#
# Static dielectric constant tensor:
#      x y z
#    x 3.864780 0.000000 0.000000 
#    y 0.000000 3.841550 0.000000 
#    z 0.000000 0.000000 3.931860 
# 
# 
# High freq. dielectric constant tensor:
#      x y z
#    x 1.835570 0.000000 0.000000 
#    y 0.000000 1.834640 0.000000 
#    z 0.000000 0.000000 1.843680 
# 
# From -- ./inp_files/17287.got.cif
#   From: 2010.03.12/outbox.cif.g09.slc.cpg/sg36_9_cif.got.tgz:17287.got - 2010.04.14 02:13:53.
