data_PCOD8176083
_publ_section_title
;
Structure prediction by ZEFSAII (Michael W. Deem and Ramdas Pophale) SiO2 
 PCOD8176083
Probable space group: C M C 21
;
_chemical_formula_sum "Si O2"
_cell_formula_units_Z 48
_cell_length_a 25.337035
_cell_length_b 7.347899
_cell_length_c 11.285817
_cell_angle_alpha 90.000000
_cell_angle_beta 90.000000
_cell_angle_gamma 90.000000
_cell_volume 2101.125402
_symmetry_space_group_name_H-M "C M C 21"
_symmetry_group_IT_number 36
_symmetry_cell_setting 'orthorhombic'
loop_
_space_group_symop_operation_xyz
x,y,z
-x,-y,1/2+z
x,-y,1/2+z
-x,y,z
1/2+x,1/2+y,z
1/2-x,1/2-y,1/2+z
1/2+x,1/2-y,1/2+z
1/2-x,1/2+y,z
loop_
_atom_site_type_symbol
_atom_site_label
_atom_site_fract_x
_atom_site_fract_y
_atom_site_fract_z
Si Si1 0.600414 0.071382 0.762580
Si Si2 0.186592 0.669291 0.597961
Si Si3 0.137416 0.225105 0.863025
Si Si4 0.000000 0.917859 0.988740
Si Si5 0.804706 0.924670 0.149139
Si Si6 0.887847 0.843518 0.960219
Si Si7 0.500000 0.310700 0.715554
O O1 0.643435 0.041504 0.659744
O O2 0.626652 0.195855 0.863233
O O3 0.548881 0.170792 0.713657
O O4 0.592953 0.865754 0.813303
O O5 0.172614 0.676033 0.460800
O O6 0.244164 0.586230 0.612316
O O7 0.180527 0.865075 0.658978
O O8 0.183415 0.168529 0.772924
O O9 0.106177 0.048499 0.908342
O O10 0.946353 0.805332 0.016653
O O11 0.000000 0.935299 0.838251
O O12 0.000000 0.083835 0.087298
O O13 0.841394 0.825692 0.053517
#
# Coordination Sequence:
#
# PCOD8176083 Si02
#       7
#     8   8   8   4   8   8   4
#     4  11  24  44  68  97 143 172 236 283 342 412
#     4  11  25  42  66 102 135 181 230 283 347 420
#     4  11  25  42  68  98 134 183 225 289 348 410
#     4  10  22  43  75  95 148 181 235 288 353 405
#     4  11  24  42  67  96 137 178 230 282 347 409
#     4  10  24  44  67  99 133 182 232 282 344 417
#     4  10  22  45  71 109 136 197 233 300 343 429
#
# _framework density 22.844901
#
# number of rings (size 3 to 8) (size 9 to 14) (size 15 to 20)
#    0.000    1.333    1.667    3.000    9.333    2.000 
#    0.000    1.667    0.000    0.000    0.000    0.000 
#    0.000    0.000    0.000    0.000    0.000    0.000 
#
# Total GULP energy -297384.510742 kJ/mol
# GULP energy per Si atom -12391.021281 kJ/mol
# Density = 2.279290 g / cm^3
# Si number density = 22.844901 Si / 1000 Ang^3
#
#
#
# Elastic Constant Matrix: (Units=GPa)
#
#
# Indices 1 2 3 4 5 6 
#
# 1 140.4793 0.6023 40.2986 0.0000 0.0000 0.0000
# 2 0.6023 61.7388 34.8274 0.0000 0.0000 0.0000
# 3 40.2986 34.8274 109.4161 0.0000 0.0000 0.0000
# 4 0.0000 0.0000 0.0000 18.9704 0.0000 0.0000
# 5 0.0000 0.0000 0.0000 0.0000 27.9345 0.0000
# 6 0.0000 0.0000 0.0000 0.0000 0.0000 31.3917
#
#
#
# Elastic Compliance Matrix: (Units=1/GPa)
#
#
# Indices 1 2 3 4 5 6 
#
# 1 0.008151 0.001967 -0.003628 0.000000 0.000000 0.000000
# 2 0.001967 0.020217 -0.007160 0.000000 0.000000 0.000000
# 3 -0.003628 -0.007160 0.012755 0.000000 0.000000 0.000000
# 4 0.000000 0.000000 0.000000 0.052714 0.000000 0.000000
# 5 0.000000 0.000000 0.000000 0.000000 0.035798 0.000000
# 6 0.000000 0.000000 0.000000 0.000000 0.000000 0.031856
#
#
# Mechanical properties :
#
#
# Convention : Reuss Voigt Hill
#
# Bulk Modulus (GPa) = 42.58739 51.45456 47.02097
# Shear Modulus (GPa) = 26.74400 31.38639 29.06519
#
# Velocity S-wave (km/s) = 3.42523 3.71062 3.57078
# Velocity P-wave (km/s) = 5.85878 6.39771 6.13417
#
# Compressibility (1/GPa) = 0.02348113
#
# Stress axis : x y z
#
# Youngs Moduli (GPa) = 122.68669 49.46366 78.40299
#
# Poissons Ratio (x) = -0.09730 0.28446
# Poissons Ratio (y) = -0.24134 0.56133
# Poissons Ratio (z) = 0.44513 0.35414
#
# Static dielectric constant tensor:
#      x y z
#    x 4.049830 0.000000 0.000000 
#    y 0.000000 4.123830 0.000000 
#    z 0.000000 0.000000 4.358300 
# 
# 
# High freq. dielectric constant tensor:
#      x y z
#    x 1.902460 0.000000 0.000000 
#    y 0.000000 1.898980 0.000000 
#    z 0.000000 0.000000 1.911320 
# 
# From -- ./inp_files/9442.got.cif
#   From: 2010.03.12/outbox.cif.g09.slc.cpg/sg36_5_cif.got.tgz:9442.got - 2010.04.14 02:13:53.
