data_PCOD8176846
_publ_section_title
;
Structure prediction by ZEFSAII (Michael W. Deem and Ramdas Pophale) SiO2 
 PCOD8176846
Probable space group: C C C 2
;
_chemical_formula_sum "Si O2"
_cell_formula_units_Z 60
_cell_length_a 9.742735
_cell_length_b 19.183212
_cell_length_c 15.565533
_cell_angle_alpha 90.000000
_cell_angle_beta 90.000000
_cell_angle_gamma 90.000000
_cell_volume 2909.150658
_symmetry_space_group_name_H-M "C C C 2"
_symmetry_group_IT_number 37
_symmetry_cell_setting 'orthorhombic'
loop_
_space_group_symop_operation_xyz
x,y,z
-x,-y,z
-x,y,1/2+z
x,-y,1/2+z
1/2+x,1/2+y,z
1/2-x,1/2-y,z
1/2-x,1/2+y,1/2+z
1/2+x,1/2-y,1/2+z
loop_
_atom_site_type_symbol
_atom_site_label
_atom_site_fract_x
_atom_site_fract_y
_atom_site_fract_z
Si Si1 0.952585 0.831601 0.270360
Si Si2 0.259761 0.599887 0.302937
Si Si3 0.142831 0.525939 0.720406
Si Si4 0.709773 0.896580 0.382175
Si Si5 0.149438 0.983475 0.460131
Si Si6 0.027464 0.300672 0.859928
Si Si7 0.750000 0.750000 0.986910
Si Si8 0.688308 0.620417 0.104605
O O1 0.845207 0.867934 0.334288
O O2 0.920095 0.846345 0.170567
O O3 0.106139 0.856914 0.283357
O O4 0.953319 0.749304 0.290325
O O5 0.246231 0.540034 0.229830
O O6 0.270741 0.568548 0.397955
O O7 0.125448 0.648573 0.305224
O O8 0.123806 0.556404 0.815704
O O9 0.188054 0.587397 0.657800
O O10 0.000000 0.500000 0.682689
O O11 0.598754 0.838527 0.410948
O O12 0.761983 0.943973 0.462796
O O13 0.127677 0.945124 0.551216
O O14 0.000000 0.000000 0.421274
O O15 0.113744 0.255375 0.928506
O O16 0.742921 0.680921 0.043563
#
# Coordination Sequence:
#
# PCOD8176846 Si02
#       8
#     8   8   8   8   8   8   4   8
#     4  11  23  42  66  99 129 178 228 275 333 404
#     4  11  21  42  70  95 124 172 229 274 329 399
#     4  10  22  39  63  99 131 164 222 276 335 396
#     4  10  23  38  68  95 124 170 227 275 319 402
#     4  11  22  42  64  95 132 169 219 278 343 405
#     4  12  22  43  70  95 130 179 232 274 326 418
#     4  12  26  46  64  98 138 180 220 278 358 412
#     4  11  27  40  66  94 138 179 212 283 357 406
#
# _framework density 20.624576000000001
#
# number of rings (size 3 to 8) (size 9 to 14) (size 15 to 20)
#    0.000    1.067    5.333    0.400    5.600    1.067 
#    0.000    0.000    2.933    0.000    0.000    0.000 
#    0.000    0.000    0.000    0.000    0.000    0.000 
#
# Total GULP energy -371860.639438 kJ/mol
# GULP energy per Si atom -12395.354648 kJ/mol
# Density = 2.057763 g / cm^3
# Si number density = 20.624576 Si / 1000 Ang^3
#
#
#
# Elastic Constant Matrix: (Units=GPa)
#
#
# Indices 1 2 3 4 5 6 
#
# 1 106.8280 54.0526 31.3412 0.0000 0.0000 0.0000
# 2 54.0526 129.3366 56.1505 0.0000 0.0000 0.0000
# 3 31.3412 56.1505 89.1548 0.0000 0.0000 0.0000
# 4 0.0000 0.0000 0.0000 33.4320 0.0000 0.0000
# 5 0.0000 0.0000 0.0000 0.0000 15.0597 0.0000
# 6 0.0000 0.0000 0.0000 0.0000 0.0000 46.6993
#
#
#
# Elastic Compliance Matrix: (Units=1/GPa)
#
#
# Indices 1 2 3 4 5 6 
#
# 1 0.012008 -0.004385 -0.001460 0.000000 0.000000 0.000000
# 2 -0.004385 0.012242 -0.006169 0.000000 0.000000 0.000000
# 3 -0.001460 -0.006169 0.015615 0.000000 0.000000 0.000000
# 4 0.000000 0.000000 0.000000 0.029911 0.000000 0.000000
# 5 0.000000 0.000000 0.000000 0.000000 0.066402 0.000000
# 6 0.000000 0.000000 0.000000 0.000000 0.000000 0.021414
#
#
# Mechanical properties :
#
#
# Convention : Reuss Voigt Hill
#
# Bulk Modulus (GPa) = 63.13793 67.60090 65.36941
# Shear Modulus (GPa) = 26.75255 31.28989 29.02122
#
# Velocity S-wave (km/s) = 3.60546 3.89924 3.75523
# Velocity P-wave (km/s) = 6.92906 7.28836 7.11098
#
# Compressibility (1/GPa) = 0.01583834
#
# Stress axis : x y z
#
# Youngs Moduli (GPa) = 83.28091 81.68333 64.04136
#
# Poissons Ratio (x) = 0.35814 0.09348
# Poissons Ratio (y) = 0.36515 0.39507
# Poissons Ratio (z) = 0.12156 0.50391
#
# Static dielectric constant tensor:
#      x y z
#    x 3.705720 0.000000 0.000000 
#    y 0.000000 4.098610 0.000000 
#    z 0.000000 0.000000 3.568980 
# 
# 
# High freq. dielectric constant tensor:
#      x y z
#    x 1.812300 0.000000 0.000000 
#    y 0.000000 1.828890 0.000000 
#    z 0.000000 0.000000 1.774000 
# 
# From -- ./inp_files/14688.got.cif
#   From: 2010.03.12/outbox.cif.g09.slc.cpg/sg37_8_cif.got.tgz:14688.got - 2010.04.14 02:25:27.
