data_PCOD8176177
_publ_section_title
;
Structure prediction by ZEFSAII (Michael W. Deem and Ramdas Pophale) SiO2 
 PCOD8176177
Probable space group: C M C 21
;
_chemical_formula_sum "Si O2"
_cell_formula_units_Z 32
_cell_length_a 13.062967
_cell_length_b 10.711928
_cell_length_c 9.589067
_cell_angle_alpha 90.000000
_cell_angle_beta 90.000000
_cell_angle_gamma 90.000000
_cell_volume 1341.793945
_symmetry_space_group_name_H-M "C M C 21"
_symmetry_group_IT_number 36
_symmetry_cell_setting 'orthorhombic'
loop_
_space_group_symop_operation_xyz
x,y,z
-x,-y,1/2+z
x,-y,1/2+z
-x,y,z
1/2+x,1/2+y,z
1/2-x,1/2-y,1/2+z
1/2+x,1/2-y,1/2+z
1/2-x,1/2+y,z
loop_
_atom_site_type_symbol
_atom_site_label
_atom_site_fract_x
_atom_site_fract_y
_atom_site_fract_z
Si Si1 0.881399 0.023225 0.650760
Si Si2 0.500000 0.963259 0.642585
Si Si3 0.500000 0.840659 0.363718
Si Si4 0.111455 0.274891 0.808108
Si Si5 0.319742 0.646609 0.383360
O O1 0.856035 0.154706 0.720872
O O2 0.845903 0.034711 0.490390
O O3 0.000000 0.989215 0.657480
O O4 0.822450 0.911615 0.728144
O O5 0.500000 0.959016 0.472995
O O6 0.600212 0.889528 0.698710
O O7 0.500000 0.103678 0.706443
O O8 0.400192 0.758817 0.394603
O O9 0.204200 0.304786 0.914041
O O10 0.000000 0.253430 0.884734
#
# Coordination Sequence:
#
# PCOD8176177 Si02
#       5
#     8   4   4   8   8
#     4  11  22  47  71 104 146 183 240 301 352 422
#     4  10  24  49  69  99 149 184 231 298 350 424
#     4  12  24  49  73 105 141 190 235 294 360 428
#     4   9  23  45  67 103 146 187 232 297 350 419
#     4  12  24  44  77 104 144 190 236 296 363 424
#
# _framework density 23.848669999999998
#
# number of rings (size 3 to 8) (size 9 to 14) (size 15 to 20)
#    0.750    0.500    5.000    0.000    3.500    4.000 
#    4.500    0.000    0.000    0.000    0.000    0.000 
#    0.000    0.000    0.000    0.000    0.000    0.000 
#
# Total GULP energy -198313.760582 kJ/mol
# GULP energy per Si atom -12394.610036 kJ/mol
# Density = 2.379439 g / cm^3
# Si number density = 23.848670 Si / 1000 Ang^3
#
#
#
# Elastic Constant Matrix: (Units=GPa)
#
#
# Indices 1 2 3 4 5 6 
#
# 1 161.1659 23.2526 35.3867 0.0000 0.0000 0.0000
# 2 23.2526 54.0593 36.4546 0.0000 0.0000 0.0000
# 3 35.3867 36.4546 104.4400 0.0000 0.0000 0.0000
# 4 0.0000 0.0000 0.0000 38.7298 0.0000 0.0000
# 5 0.0000 0.0000 0.0000 0.0000 28.3796 0.0000
# 6 0.0000 0.0000 0.0000 0.0000 0.0000 7.0016
#
#
#
# Elastic Compliance Matrix: (Units=1/GPa)
#
#
# Indices 1 2 3 4 5 6 
#
# 1 0.006835 -0.001803 -0.001687 0.000000 0.000000 0.000000
# 2 -0.001803 0.024668 -0.008000 0.000000 0.000000 0.000000
# 3 -0.001687 -0.008000 0.012939 0.000000 0.000000 0.000000
# 4 0.000000 0.000000 0.000000 0.025820 0.000000 0.000000
# 5 0.000000 0.000000 0.000000 0.000000 0.035237 0.000000
# 6 0.000000 0.000000 0.000000 0.000000 0.000000 0.142824
#
#
# Mechanical properties :
#
#
# Convention : Reuss Voigt Hill
#
# Bulk Modulus (GPa) = 46.58953 56.65034 51.61993
# Shear Modulus (GPa) = 17.95623 29.79362 23.87493
#
# Velocity S-wave (km/s) = 2.74692 3.53835 3.16745
# Velocity P-wave (km/s) = 5.44414 6.36387 5.92189
#
# Compressibility (1/GPa) = 0.02146405
#
# Stress axis : x y z
#
# Youngs Moduli (GPa) = 146.30124 40.53831 77.28801
#
# Poissons Ratio (x) = 0.07307 0.13036
# Poissons Ratio (y) = 0.26372 0.61827
# Poissons Ratio (z) = 0.24677 0.32429
#
# Static dielectric constant tensor:
#      x y z
#    x 4.136120 0.000000 0.000000 
#    y 0.000000 4.048670 0.000000 
#    z 0.000000 0.000000 4.058360 
# 
# 
# High freq. dielectric constant tensor:
#      x y z
#    x 1.944670 0.000000 0.000000 
#    y 0.000000 1.940270 0.000000 
#    z 0.000000 0.000000 1.921180 
# 
# From -- ./inp_files/3694.got.cif
#   From: 2010.03.12/outbox.cif.g09.slc.cpg/sg36_2_cif.got.tgz:3694.got - 2010.04.14 02:13:53.
