data_PCOD8176942
_publ_section_title
;
Structure prediction by ZEFSAII (Michael W. Deem and Ramdas Pophale) SiO2 
 PCOD8176942
Probable space group: C C C 2
;
_chemical_formula_sum "Si O2"
_cell_formula_units_Z 60
_cell_length_a 13.882152
_cell_length_b 14.415797
_cell_length_c 14.430997
_cell_angle_alpha 90.000000
_cell_angle_beta 90.000000
_cell_angle_gamma 90.000000
_cell_volume 2887.964097
_symmetry_space_group_name_H-M "C C C 2"
_symmetry_group_IT_number 37
_symmetry_cell_setting 'orthorhombic'
loop_
_space_group_symop_operation_xyz
x,y,z
-x,-y,z
-x,y,1/2+z
x,-y,1/2+z
1/2+x,1/2+y,z
1/2-x,1/2-y,z
1/2-x,1/2+y,1/2+z
1/2+x,1/2-y,1/2+z
loop_
_atom_site_type_symbol
_atom_site_label
_atom_site_fract_x
_atom_site_fract_y
_atom_site_fract_z
Si Si1 0.995430 0.798686 0.298400
Si Si2 0.909043 0.935984 0.675291
Si Si3 0.000000 0.500000 0.406632
Si Si4 0.147925 0.214579 0.960263
Si Si5 0.612181 0.110346 0.762581
Si Si6 0.894648 0.394985 0.556606
Si Si7 0.181870 0.067268 0.313598
Si Si8 0.701289 0.487184 0.510770
O O1 0.938848 0.705505 0.284286
O O2 0.915809 0.875015 0.322534
O O3 0.055843 0.833199 0.207342
O O4 0.067823 0.781445 0.382035
O O5 0.839863 0.974401 0.756073
O O6 0.850872 0.939310 0.578964
O O7 0.000000 0.000000 0.659731
O O8 0.085530 0.467081 0.338742
O O9 0.029801 0.583290 0.475008
O O10 0.250000 0.250000 0.916978
O O11 0.128271 0.285620 0.045301
O O12 0.145521 0.110993 0.002167
O O13 0.570899 0.084545 0.660960
O O14 0.728911 0.121268 0.764277
O O15 0.806575 0.465280 0.546678
O O16 0.213784 0.038860 0.414897
#
# Coordination Sequence:
#
# PCOD8176942 Si02
#       8
#     8   8   4   8   8   8   8   8
#     4  11  24  42  64 101 138 173 218 282 346 399
#     4  10  23  38  64 102 132 169 220 272 337 411
#     4  12  24  46  66  94 126 174 238 270 342 396
#     4  10  23  40  65  95 134 175 225 275 334 401
#     4  12  25  44  70  93 135 175 225 288 334 410
#     4  11  24  42  67  97 123 178 228 275 335 407
#     4  11  23  40  66  96 135 175 219 276 340 396
#     4  11  22  40  66  95 133 175 223 272 337 407
#
# _framework density 20.775881999999999
#
# number of rings (size 3 to 8) (size 9 to 14) (size 15 to 20)
#    0.000    1.067    5.333    0.800    5.600    1.067 
#    0.000    0.000    0.000    0.000    0.000    0.000 
#    0.000    0.000    0.000    0.000    0.000    0.000 
#
# Total GULP energy -371852.635393 kJ/mol
# GULP energy per Si atom -12395.087846 kJ/mol
# Density = 2.072860 g / cm^3
# Si number density = 20.775882 Si / 1000 Ang^3
#
#
#
# Elastic Constant Matrix: (Units=GPa)
#
#
# Indices 1 2 3 4 5 6 
#
# 1 85.3381 20.4307 19.1649 0.0000 0.0000 0.0000
# 2 20.4307 71.3607 24.3549 0.0000 0.0000 0.0000
# 3 19.1649 24.3549 106.2867 0.0000 0.0000 0.0000
# 4 0.0000 0.0000 0.0000 27.4697 0.0000 0.0000
# 5 0.0000 0.0000 0.0000 0.0000 26.1203 0.0000
# 6 0.0000 0.0000 0.0000 0.0000 0.0000 29.6831
#
#
#
# Elastic Compliance Matrix: (Units=1/GPa)
#
#
# Indices 1 2 3 4 5 6 
#
# 1 0.012825 -0.003127 -0.001596 0.000000 0.000000 0.000000
# 2 -0.003127 0.015965 -0.003094 0.000000 0.000000 0.000000
# 3 -0.001596 -0.003094 0.010405 0.000000 0.000000 0.000000
# 4 0.000000 0.000000 0.000000 0.036404 0.000000 0.000000
# 5 0.000000 0.000000 0.000000 0.000000 0.038284 0.000000
# 6 0.000000 0.000000 0.000000 0.000000 0.000000 0.033689
#
#
# Mechanical properties :
#
#
# Convention : Reuss Voigt Hill
#
# Bulk Modulus (GPa) = 42.44437 43.43182 42.93810
# Shear Modulus (GPa) = 29.22936 29.92363 29.57649
#
# Velocity S-wave (km/s) = 3.75492 3.79925 3.77715
# Velocity P-wave (km/s) = 6.26684 6.34004 6.30354
#
# Compressibility (1/GPa) = 0.02356025
#
# Stress axis : x y z
#
# Youngs Moduli (GPa) = 77.97159 62.63814 96.10449
#
# Poissons Ratio (x) = 0.19588 0.15338
# Poissons Ratio (y) = 0.24383 0.29738
# Poissons Ratio (z) = 0.12444 0.19382
#
# Static dielectric constant tensor:
#      x y z
#    x 4.302870 0.000000 0.000000 
#    y 0.000000 3.889560 0.000000 
#    z 0.000000 0.000000 3.867530 
# 
# 
# High freq. dielectric constant tensor:
#      x y z
#    x 1.819370 0.000000 0.000000 
#    y 0.000000 1.798590 0.000000 
#    z 0.000000 0.000000 1.820350 
# 
# From -- ./inp_files/12251.got.cif
#   From: 2010.03.12/outbox.cif.g09.slc.cpg/sg37_7_cif.got.tgz:12251.got - 2010.04.14 02:25:27.
