data_PCOD8176688
_publ_section_title
;
Structure prediction by ZEFSAII (Michael W. Deem and Ramdas Pophale) SiO2 
 PCOD8176688
Probable space group: C C C 2
;
_chemical_formula_sum "Si O2"
_cell_formula_units_Z 32
_cell_length_a 14.812046
_cell_length_b 9.360465
_cell_length_c 7.495366
_cell_angle_alpha 90.000000
_cell_angle_beta 90.000000
_cell_angle_gamma 90.000000
_cell_volume 1039.214793
_symmetry_space_group_name_H-M "C C C 2"
_symmetry_group_IT_number 37
_symmetry_cell_setting 'orthorhombic'
loop_
_space_group_symop_operation_xyz
x,y,z
-x,-y,z
-x,y,1/2+z
x,-y,1/2+z
1/2+x,1/2+y,z
1/2-x,1/2-y,z
1/2-x,1/2+y,1/2+z
1/2+x,1/2-y,1/2+z
loop_
_atom_site_type_symbol
_atom_site_label
_atom_site_fract_x
_atom_site_fract_y
_atom_site_fract_z
Si Si1 0.090802 0.183753 0.080810
Si Si2 0.392221 0.688402 0.990857
Si Si3 0.778337 0.098385 0.302272
Si Si4 0.400302 0.995484 0.425151
O O1 0.127277 0.154483 0.281490
O O2 0.140569 0.070784 0.946895
O O3 0.101681 0.353129 0.045713
O O4 0.987469 0.135289 0.065600
O O5 0.390746 0.858295 0.038048
O O6 0.313117 0.611168 0.100637
O O7 0.750000 0.250000 0.382083
O O8 0.688502 0.999737 0.297219
O O9 0.500000 0.000000 0.324894
#
# Coordination Sequence:
#
# PCOD8176688 Si02
#       4
#     8   8   8   8
#     4  10  21  36  64 102 147 187 257 311 383 459
#     4  11  21  38  68 101 143 201 245 317 389 449
#     4  10  22  40  60 102 154 191 250 319 379 457
#     4   9  22  38  66 102 154 197 256 319 374 460
#
# _framework density 30.792480000000001
#
# number of rings (size 3 to 8) (size 9 to 14) (size 15 to 20)
#    0.000    2.000    2.500    0.000    7.000    6.000 
#    0.000    2.500    0.000    0.000    0.000   12.250 
#    0.000    0.000    0.000    0.000    0.000    0.000 
#
# Total GULP energy -198270.111128 kJ/mol
# GULP energy per Si atom -12391.881946 kJ/mol
# Density = 3.072240 g / cm^3
# Si number density = 30.792480 Si / 1000 Ang^3
#
#
#
# Elastic Constant Matrix: (Units=GPa)
#
#
# Indices 1 2 3 4 5 6 
#
# 1 290.5628 54.4589 112.7043 0.0000 0.0000 0.0000
# 2 54.4589 129.4297 46.3459 0.0000 0.0000 0.0000
# 3 112.7043 46.3459 205.1847 0.0000 0.0000 0.0000
# 4 0.0000 0.0000 0.0000 52.1514 0.0000 0.0000
# 5 0.0000 0.0000 0.0000 0.0000 53.0739 0.0000
# 6 0.0000 0.0000 0.0000 0.0000 0.0000 39.6550
#
#
#
# Elastic Compliance Matrix: (Units=1/GPa)
#
#
# Indices 1 2 3 4 5 6 
#
# 1 0.004513 -0.001100 -0.002230 0.000000 0.000000 0.000000
# 2 -0.001100 0.008674 -0.001355 0.000000 0.000000 0.000000
# 3 -0.002230 -0.001355 0.006405 0.000000 0.000000 0.000000
# 4 0.000000 0.000000 0.000000 0.019175 0.000000 0.000000
# 5 0.000000 0.000000 0.000000 0.000000 0.018842 0.000000
# 6 0.000000 0.000000 0.000000 0.000000 0.000000 0.025217
#
#
# Mechanical properties :
#
#
# Convention : Reuss Voigt Hill
#
# Bulk Modulus (GPa) = 97.83830 116.91062 107.37446
# Shear Modulus (GPa) = 52.29896 56.42061 54.35979
#
# Velocity S-wave (km/s) = 4.12568 4.28516 4.20618
# Velocity P-wave (km/s) = 7.38494 7.90779 7.65083
#
# Compressibility (1/GPa) = 0.01022095
#
# Stress axis : x y z
#
# Youngs Moduli (GPa) = 221.58583 115.28288 156.13273
#
# Poissons Ratio (x) = 0.12684 0.34823
# Poissons Ratio (y) = 0.24379 0.21156
# Poissons Ratio (z) = 0.49422 0.15621
#
# Static dielectric constant tensor:
#      x y z
#    x 6.687850 0.000000 0.000000 
#    y 0.000000 6.472010 0.000000 
#    z 0.000000 0.000000 4.966810 
# 
# 
# High freq. dielectric constant tensor:
#      x y z
#    x 2.285170 0.000000 0.000000 
#    y 0.000000 2.310720 0.000000 
#    z 0.000000 0.000000 2.241400 
# 
# From -- ./inp_files/3209.got.cif
#   From: 2010.03.12/outbox.cif.g09.slc.cpg/sg37_2_cif.got.tgz:3209.got - 2010.04.14 02:25:27.
