data_PCOD8176165
_publ_section_title
;
Structure prediction by ZEFSAII (Michael W. Deem and Ramdas Pophale) SiO2 
 PCOD8176165
Probable space group: C M C 21
;
_chemical_formula_sum "Si O2"
_cell_formula_units_Z 48
_cell_length_a 22.791870
_cell_length_b 8.820954
_cell_length_c 10.351413
_cell_angle_alpha 90.000000
_cell_angle_beta 90.000000
_cell_angle_gamma 90.000000
_cell_volume 2081.110559
_symmetry_space_group_name_H-M "C M C 21"
_symmetry_group_IT_number 36
_symmetry_cell_setting 'orthorhombic'
loop_
_space_group_symop_operation_xyz
x,y,z
-x,-y,1/2+z
x,-y,1/2+z
-x,y,z
1/2+x,1/2+y,z
1/2-x,1/2-y,1/2+z
1/2+x,1/2-y,1/2+z
1/2-x,1/2+y,z
loop_
_atom_site_type_symbol
_atom_site_label
_atom_site_fract_x
_atom_site_fract_y
_atom_site_fract_z
Si Si1 0.068051 0.525513 0.147970
Si Si2 0.066693 0.138500 0.569390
Si Si3 0.618237 0.523132 0.829234
Si Si4 0.288352 0.683398 0.235969
Si Si5 0.683070 0.989676 0.806177
Si Si6 0.861477 0.704766 0.504003
O O1 0.081469 0.682362 0.073164
O O2 0.114814 0.509192 0.263651
O O3 0.000000 0.518149 0.196086
O O4 0.080496 0.378048 0.058982
O O5 0.097663 0.037413 0.680457
O O6 0.000000 0.112714 0.602707
O O7 0.078550 0.078834 0.424505
O O8 0.681311 0.441849 0.827851
O O9 0.619493 0.692457 0.884243
O O10 0.288230 0.845027 0.307051
O O11 0.221912 0.624029 0.215668
O O12 0.324790 0.695566 0.104206
O O13 0.683048 0.925458 0.952168
#
# Coordination Sequence:
#
# PCOD8176165 Si02
#       6
#     8   8   8   8   8   8
#     4  10  24  44  69 101 143 191 244 298 360 440
#     4  11  24  43  71 104 144 192 242 301 367 437
#     4  12  23  45  70 104 146 190 240 307 364 437
#     4  11  26  44  71 108 145 189 247 304 366 444
#     4  11  24  45  70 107 143 198 239 305 367 435
#     4  11  24  45  71 104 142 194 244 305 370 431
#
# _framework density 23.064608
#
# number of rings (size 3 to 8) (size 9 to 14) (size 15 to 20)
#    0.000    1.000    3.333    2.500    0.000    8.667 
#    0.000    2.500    0.000    0.000    0.000    0.000 
#    0.000    0.000    0.000    0.000    0.000    0.000 
#
# Total GULP energy -297457.222822 kJ/mol
# GULP energy per Si atom -12394.050951 kJ/mol
# Density = 2.301211 g / cm^3
# Si number density = 23.064608 Si / 1000 Ang^3
#
#
#
# Elastic Constant Matrix: (Units=GPa)
#
#
# Indices 1 2 3 4 5 6 
#
# 1 127.0772 59.7669 27.8202 0.0000 0.0000 0.0000
# 2 59.7669 120.8540 34.5166 0.0000 0.0000 0.0000
# 3 27.8202 34.5166 67.8649 0.0000 0.0000 0.0000
# 4 0.0000 0.0000 0.0000 39.0811 0.0000 0.0000
# 5 0.0000 0.0000 0.0000 0.0000 25.5174 0.0000
# 6 0.0000 0.0000 0.0000 0.0000 0.0000 41.2136
#
#
#
# Elastic Compliance Matrix: (Units=1/GPa)
#
#
# Indices 1 2 3 4 5 6 
#
# 1 0.010468 -0.004623 -0.001940 0.000000 0.000000 0.000000
# 2 -0.004623 0.011722 -0.004067 0.000000 0.000000 0.000000
# 3 -0.001940 -0.004067 0.017599 0.000000 0.000000 0.000000
# 4 0.000000 0.000000 0.000000 0.025588 0.000000 0.000000
# 5 0.000000 0.000000 0.000000 0.000000 0.039189 0.000000
# 6 0.000000 0.000000 0.000000 0.000000 0.000000 0.024264
#
#
# Mechanical properties :
#
#
# Convention : Reuss Voigt Hill
#
# Bulk Modulus (GPa) = 53.96763 62.22262 58.09513
# Shear Modulus (GPa) = 31.99673 34.07524 33.03598
#
# Velocity S-wave (km/s) = 3.72864 3.84784 3.78871
# Velocity P-wave (km/s) = 6.47968 6.83939 6.66197
#
# Compressibility (1/GPa) = 0.01852963
#
# Stress axis : x y z
#
# Youngs Moduli (GPa) = 95.52780 85.30872 56.82168
#
# Poissons Ratio (x) = 0.39437 0.11024
# Poissons Ratio (y) = 0.44161 0.23109
# Poissons Ratio (z) = 0.18533 0.34694
#
# Static dielectric constant tensor:
#      x y z
#    x 4.050200 0.000000 0.000000 
#    y 0.000000 4.399820 0.000000 
#    z 0.000000 0.000000 3.979800 
# 
# 
# High freq. dielectric constant tensor:
#      x y z
#    x 1.906020 0.000000 0.000000 
#    y 0.000000 1.935500 0.000000 
#    z 0.000000 0.000000 1.898330 
# 
# From -- ./inp_files/9437.got.cif
#   From: 2010.03.12/outbox.cif.g09.slc.cpg/sg36_5_cif.got.tgz:9437.got - 2010.04.14 02:13:53.
