data_PCOD8176754
_publ_section_title
;
Structure prediction by ZEFSAII (Michael W. Deem and Ramdas Pophale) SiO2 
 PCOD8176754
Probable space group: C C C 2
;
_chemical_formula_sum "Si O2"
_cell_formula_units_Z 64
_cell_length_a 13.632555
_cell_length_b 8.464123
_cell_length_c 27.549054
_cell_angle_alpha 90.000000
_cell_angle_beta 90.000000
_cell_angle_gamma 90.000000
_cell_volume 3178.819838
_symmetry_space_group_name_H-M "C C C 2"
_symmetry_group_IT_number 37
_symmetry_cell_setting 'orthorhombic'
loop_
_space_group_symop_operation_xyz
x,y,z
-x,-y,z
-x,y,1/2+z
x,-y,1/2+z
1/2+x,1/2+y,z
1/2-x,1/2-y,z
1/2-x,1/2+y,1/2+z
1/2+x,1/2-y,1/2+z
loop_
_atom_site_type_symbol
_atom_site_label
_atom_site_fract_x
_atom_site_fract_y
_atom_site_fract_z
Si Si1 0.574272 0.121647 0.441400
Si Si2 0.600517 0.597784 0.870207
Si Si3 0.779424 0.930948 0.181370
Si Si4 0.145481 0.171312 0.608165
Si Si5 0.735057 0.581708 0.439967
Si Si6 0.085914 0.375126 0.693332
Si Si7 0.599606 0.415743 0.262160
Si Si8 0.055923 0.845385 0.005382
O O1 0.592589 0.234601 0.396389
O O2 0.514911 0.202912 0.486781
O O3 0.500000 0.000000 0.417425
O O4 0.671464 0.022884 0.459323
O O5 0.500000 0.500000 0.874926
O O6 0.687101 0.516767 0.898334
O O7 0.642772 0.617064 0.815685
O O8 0.750000 0.750000 0.172074
O O9 0.834635 0.000386 0.133586
O O10 0.686386 0.033709 0.193570
O O11 0.843720 0.955403 0.229518
O O12 0.250000 0.250000 0.594937
O O13 0.079264 0.277311 0.643781
O O14 0.072903 0.159995 0.562811
O O15 0.750000 0.750000 0.413865
O O16 0.664902 0.635624 0.484189
O O17 0.086133 0.254044 0.737711
O O18 0.000000 0.500000 0.698541
O O19 0.500000 0.500000 0.273839
O O20 0.000000 0.000000 0.988603
#
# Coordination Sequence:
#
# PCOD8176754 Si02
#       8
#     8   8   8   8   8   8   8   8
#     4  12  24  41  65  90 123 172 210 271 325 381
#     4  11  22  43  64  93 128 164 220 262 324 389
#     4  10  21  41  64  93 131 164 212 256 317 382
#     4   9  22  42  62  90 125 169 207 265 319 378
#     4  12  23  42  65  87 128 166 211 269 323 377
#     4  10  21  40  64  91 130 165 206 260 314 373
#     4  10  22  38  66  93 127 168 206 264 314 379
#     4  12  24  43  63  92 129 163 219 267 321 392
#
# _framework density 20.133258000000001
#
# number of rings (size 3 to 8) (size 9 to 14) (size 15 to 20)
#    0.000    1.250    3.750    2.625    0.000    6.500 
#    4.500    0.000    0.000    0.000    0.000    0.000 
#    0.000    0.000    0.000    0.000    0.000    0.000 
#
# Total GULP energy -396436.744774 kJ/mol
# GULP energy per Si atom -12388.648274 kJ/mol
# Density = 2.008743 g / cm^3
# Si number density = 20.133258 Si / 1000 Ang^3
#
#
#
# Elastic Constant Matrix: (Units=GPa)
#
#
# Indices 1 2 3 4 5 6 
#
# 1 92.2937 44.7467 42.7989 0.0000 0.0000 0.0000
# 2 44.7467 152.2424 52.1317 0.0000 0.0000 0.0000
# 3 42.7989 52.1317 129.7316 0.0000 0.0000 0.0000
# 4 0.0000 0.0000 0.0000 53.5982 0.0000 0.0000
# 5 0.0000 0.0000 0.0000 0.0000 47.1259 0.0000
# 6 0.0000 0.0000 0.0000 0.0000 0.0000 48.6879
#
#
#
# Elastic Compliance Matrix: (Units=1/GPa)
#
#
# Indices 1 2 3 4 5 6 
#
# 1 0.013813 -0.002898 -0.003392 0.000000 0.000000 0.000000
# 2 -0.002898 0.008225 -0.002349 0.000000 0.000000 0.000000
# 3 -0.003392 -0.002349 0.009771 0.000000 0.000000 0.000000
# 4 0.000000 0.000000 0.000000 0.018657 0.000000 0.000000
# 5 0.000000 0.000000 0.000000 0.000000 0.021220 0.000000
# 6 0.000000 0.000000 0.000000 0.000000 0.000000 0.020539
#
#
# Mechanical properties :
#
#
# Convention : Reuss Voigt Hill
#
# Bulk Modulus (GPa) = 68.82275 72.62470 70.72373
# Shear Modulus (GPa) = 43.72624 45.52174 44.62399
#
# Velocity S-wave (km/s) = 4.66536 4.76018 4.71301
# Velocity P-wave (km/s) = 7.95478 8.14633 8.05113
#
# Compressibility (1/GPa) = 0.01453008
#
# Stress axis : x y z
#
# Youngs Moduli (GPa) = 72.39395 121.58580 102.34103
#
# Poissons Ratio (x) = 0.35240 0.34718
# Poissons Ratio (y) = 0.20982 0.24038
# Poissons Ratio (z) = 0.24559 0.28559
#
# Static dielectric constant tensor:
#      x y z
#    x 3.679260 0.000000 0.000000 
#    y 0.000000 -10.050090 0.000000 
#    z 0.000000 0.000000 3.639010 
# 
# 
# High freq. dielectric constant tensor:
#      x y z
#    x 1.797270 0.000000 0.000000 
#    y 0.000000 1.800680 0.000000 
#    z 0.000000 0.000000 1.779500 
# 
# From -- ./inp_files/20482.got.cif
#   From: 2010.03.12/outbox.cif.g09.slc.cpg/sg37_11_cif.got.tgz:20482.got - 2010.04.14 02:25:27.
