data_PCOD8176464
_publ_section_title
;
Structure prediction by ZEFSAII (Michael W. Deem and Ramdas Pophale) SiO2 
 PCOD8176464
Probable space group: C C C 2
;
_chemical_formula_sum "Si O2"
_cell_formula_units_Z 48
_cell_length_a 8.343963
_cell_length_b 13.793969
_cell_length_c 18.802706
_cell_angle_alpha 90.000000
_cell_angle_beta 90.000000
_cell_angle_gamma 90.000000
_cell_volume 2164.123150
_symmetry_space_group_name_H-M "C C C 2"
_symmetry_group_IT_number 37
_symmetry_cell_setting 'orthorhombic'
loop_
_space_group_symop_operation_xyz
x,y,z
-x,-y,z
-x,y,1/2+z
x,-y,1/2+z
1/2+x,1/2+y,z
1/2-x,1/2-y,z
1/2-x,1/2+y,1/2+z
1/2+x,1/2-y,1/2+z
loop_
_atom_site_type_symbol
_atom_site_label
_atom_site_fract_x
_atom_site_fract_y
_atom_site_fract_z
Si Si1 0.186576 0.984750 0.403020
Si Si2 0.155777 0.567799 0.679974
Si Si3 0.614688 0.178408 0.918230
Si Si4 0.113757 0.408707 0.021858
Si Si5 0.694205 0.398702 0.251316
Si Si6 0.000336 0.722268 0.264842
O O1 0.301264 0.077744 0.398147
O O2 0.231900 0.924649 0.472952
O O3 0.222264 0.924609 0.333098
O O4 0.000000 0.000000 0.409681
O O5 0.176426 0.612461 0.601152
O O6 0.304741 0.497041 0.703042
O O7 0.000000 0.500000 0.689290
O O8 0.149668 0.665020 0.729294
O O9 0.750000 0.250000 0.945304
O O10 0.491815 0.175021 0.984573
O O11 0.521517 0.219448 0.849656
O O12 0.000000 0.500000 0.026727
O O13 0.844030 0.330969 0.233569
O O14 0.527876 0.336212 0.242476
#
# Coordination Sequence:
#
# PCOD8176464 Si02
#       6
#     8   8   8   8   8   8
#     4  11  21  37  61  90 121 166 211 260 321 385
#     4   9  18  36  59  90 127 170 213 267 332 395
#     4  11  21  37  61  91 126 159 215 274 316 390
#     4   9  20  38  60  86 128 170 207 261 333 387
#     4  10  19  34  62  93 124 164 215 269 319 388
#     4  10  19  34  62  92 123 165 217 269 322 380
#
# _framework density 22.179881999999999
#
# number of rings (size 3 to 8) (size 9 to 14) (size 15 to 20)
#    0.000    2.000    3.333    1.000    0.000    0.000 
#   12.000    0.833    0.000    0.000    0.000    0.000 
#    0.000    0.000    0.000    0.000    0.000    0.000 
#
# Total GULP energy -297350.328894 kJ/mol
# GULP energy per Si atom -12389.597037 kJ/mol
# Density = 2.212940 g / cm^3
# Si number density = 22.179882 Si / 1000 Ang^3
#
#
#
# Elastic Constant Matrix: (Units=GPa)
#
#
# Indices 1 2 3 4 5 6 
#
# 1 41.2999 31.0203 8.9255 0.0000 0.0000 0.0000
# 2 31.0203 118.7227 53.6930 0.0000 0.0000 0.0000
# 3 8.9255 53.6930 153.9944 0.0000 0.0000 0.0000
# 4 0.0000 0.0000 0.0000 16.5155 0.0000 0.0000
# 5 0.0000 0.0000 0.0000 0.0000 4.1634 0.0000
# 6 0.0000 0.0000 0.0000 0.0000 0.0000 34.0452
#
#
#
# Elastic Compliance Matrix: (Units=1/GPa)
#
#
# Indices 1 2 3 4 5 6 
#
# 1 0.030309 -0.008458 0.001193 0.000000 0.000000 0.000000
# 2 -0.008458 0.012360 -0.003819 0.000000 0.000000 0.000000
# 3 0.001193 -0.003819 0.007756 0.000000 0.000000 0.000000
# 4 0.000000 0.000000 0.000000 0.060549 0.000000 0.000000
# 5 0.000000 0.000000 0.000000 0.000000 0.240187 0.000000
# 6 0.000000 0.000000 0.000000 0.000000 0.000000 0.029373
#
#
# Mechanical properties :
#
#
# Convention : Reuss Voigt Hill
#
# Bulk Modulus (GPa) = 35.39250 55.69940 45.54595
# Shear Modulus (GPa) = 12.13231 25.63672 18.88451
#
# Velocity S-wave (km/s) = 2.34133 3.40347 2.92108
# Velocity P-wave (km/s) = 4.82709 6.37275 5.65300
#
# Compressibility (1/GPa) = 0.02825457
#
# Stress axis : x y z
#
# Youngs Moduli (GPa) = 32.99393 80.90352 128.92684
#
# Poissons Ratio (x) = 0.68432 -0.15375
# Poissons Ratio (y) = 0.27908 0.49243
# Poissons Ratio (z) = -0.03935 0.30901
#
# Static dielectric constant tensor:
#      x y z
#    x 3.910430 0.000000 0.000000 
#    y 0.000000 4.234350 0.000000 
#    z 0.000000 0.000000 4.166350 
# 
# 
# High freq. dielectric constant tensor:
#      x y z
#    x 1.863400 0.000000 0.000000 
#    y 0.000000 1.872470 0.000000 
#    z 0.000000 0.000000 1.856990 
# 
# From -- ./inp_files/14503.got.cif
#   From: 2010.03.12/outbox.cif.g09.slc.cpg/sg37_8_cif.got.tgz:14503.got - 2010.04.14 02:25:27.
