data_PCOD8176605
_publ_section_title
;
Structure prediction by ZEFSAII (Michael W. Deem and Ramdas Pophale) SiO2 
 PCOD8176605
Probable space group: C C C 2
;
_chemical_formula_sum "Si O2"
_cell_formula_units_Z 56
_cell_length_a 26.743957
_cell_length_b 5.060203
_cell_length_c 21.915331
_cell_angle_alpha 90.000000
_cell_angle_beta 90.000000
_cell_angle_gamma 90.000000
_cell_volume 2965.798489
_symmetry_space_group_name_H-M "C C C 2"
_symmetry_group_IT_number 37
_symmetry_cell_setting 'orthorhombic'
loop_
_space_group_symop_operation_xyz
x,y,z
-x,-y,z
-x,y,1/2+z
x,-y,1/2+z
1/2+x,1/2+y,z
1/2-x,1/2-y,z
1/2-x,1/2+y,1/2+z
1/2+x,1/2-y,1/2+z
loop_
_atom_site_type_symbol
_atom_site_label
_atom_site_fract_x
_atom_site_fract_y
_atom_site_fract_z
Si Si1 0.807414 0.177101 0.660060
Si Si2 0.529282 0.749120 0.610121
Si Si3 0.641972 0.182174 0.108233
Si Si4 0.192586 0.177101 0.914997
Si Si5 0.217036 0.000000 0.287529
Si Si6 0.470718 0.250880 0.464937
Si Si7 0.641972 0.182174 0.966824
O O1 0.750000 0.250000 0.647836
O O2 0.840426 0.433600 0.647558
O O3 0.822574 0.935811 0.616425
O O4 0.816535 0.089306 0.730205
O O5 0.500000 0.500000 0.637629
O O6 0.586623 0.745473 0.631797
O O7 0.527477 0.745087 0.537529
O O8 0.500000 0.000000 0.636440
O O9 0.642204 0.098590 0.037529
O O10 0.250000 0.250000 0.927221
O O11 0.183465 0.089306 0.844852
O O12 0.159574 0.433600 0.927500
O O13 0.177426 0.935811 0.958632
O O14 0.250000 0.750000 0.265643
O O15 0.250000 0.250000 0.309414
O O16 0.500000 0.500000 0.437429
O O17 0.413377 0.254527 0.443261
O O18 0.500000 0.000000 0.438617
#
# Coordination Sequence:
#
# PCOD8176605 Si02
#       7
#     8   8   8   8   8   8   8
#     4  11  22  36  54  77 108 144 180 220 261 310
#     4   9  17  31  50  72 102 139 177 216 253 298
#     4  11  22  34  52  82 114 143 175 211 269 335
#     4  11  22  36  54  77 108 144 180 220 261 310
#     4  10  20  38  58  74  97 138 193 234 254 288
#     4   9  17  31  50  72 102 139 177 216 253 298
#     4  11  22  34  52  82 114 143 175 211 269 335
#
# _framework density 18.881930000000001
#
# number of rings (size 3 to 8) (size 9 to 14) (size 15 to 20)
#    0.000    1.714    0.000    6.857    0.000    8.000 
#    0.000    0.000    0.000    0.000    0.000   15.000 
#    0.000    0.000    0.000    0.000    0.000    0.000 
#
# Total GULP energy -347236.326735 kJ/mol
# GULP energy per Si atom -12401.297383 kJ/mol
# Density = 1.883895 g / cm^3
# Si number density = 18.881930 Si / 1000 Ang^3
#
#
#
# Elastic Constant Matrix: (Units=GPa)
#
#
# Indices 1 2 3 4 5 6 
#
# 1 117.9077 70.5711 57.6202 0.0000 0.0000 0.0000
# 2 70.5711 172.9254 38.4642 0.0000 0.0000 0.0000
# 3 57.6202 38.4642 57.8684 0.0000 0.0000 0.0000
# 4 0.0000 0.0000 0.0000 27.4716 0.0000 0.0000
# 5 0.0000 0.0000 0.0000 0.0000 -0.9633 0.0000
# 6 0.0000 0.0000 0.0000 0.0000 0.0000 40.6410
#
#
#
# Elastic Compliance Matrix: (Units=1/GPa)
#
#
# Indices 1 2 3 4 5 6 
#
# 1 0.018703 -0.004096 -0.015900 0.000000 0.000000 0.000000
# 2 -0.004096 0.007683 -0.001028 0.000000 0.000000 0.000000
# 3 -0.015900 -0.001028 0.033796 0.000000 0.000000 0.000000
# 4 0.000000 0.000000 0.000000 0.036401 0.000000 0.000000
# 5 0.000000 0.000000 0.000000 0.000000 -1.038144 0.000000
# 6 0.000000 0.000000 0.000000 0.000000 0.000000 0.024606
#
#
# Mechanical properties :
#
#
# Convention : Reuss Voigt Hill
#
# Bulk Modulus (GPa) = 55.14797 75.77917 65.46357
# Shear Modulus (GPa) = -5.75466 25.56626 9.90580
#
# Velocity S-wave (km/s) = -1.74766 3.68367 2.29294
# Velocity P-wave (km/s) = 5.01973 7.63629 6.46184
#
# Compressibility (1/GPa) = 0.01813303
#
# Stress axis : x y z
#
# Youngs Moduli (GPa) = 53.46694 130.15427 29.58893
#
# Poissons Ratio (x) = 0.53311 0.47048
# Poissons Ratio (y) = 0.21900 0.03043
# Poissons Ratio (z) = 0.85015 0.13386
#
# Static dielectric constant tensor:
#      x y z
#    x 3.534650 0.000000 0.000000 
#    y 0.000000 3.792580 0.000000 
#    z 0.000000 0.000000 3.180640 
# 
# 
# High freq. dielectric constant tensor:
#      x y z
#    x 1.728730 0.000000 0.000000 
#    y 0.000000 1.762030 0.000000 
#    z 0.000000 0.000000 1.692760 
# 
# From -- ./inp_files/17549.got.cif
#   From: 2010.03.12/outbox.cif.g09.slc.cpg/sg37_9_cif.got.tgz:17549.got - 2010.04.14 02:25:27.
