data_PCOD8176403
_publ_section_title
;
Structure prediction by ZEFSAII (Michael W. Deem and Ramdas Pophale) SiO2 
 PCOD8176403
Probable space group: C C C 2
;
_chemical_formula_sum "Si O2"
_cell_formula_units_Z 64
_cell_length_a 10.641178
_cell_length_b 10.147935
_cell_length_c 27.991708
_cell_angle_alpha 90.000000
_cell_angle_beta 90.000000
_cell_angle_gamma 90.000000
_cell_volume 3022.712095
_symmetry_space_group_name_H-M "C C C 2"
_symmetry_group_IT_number 37
_symmetry_cell_setting 'orthorhombic'
loop_
_space_group_symop_operation_xyz
x,y,z
-x,-y,z
-x,y,1/2+z
x,-y,1/2+z
1/2+x,1/2+y,z
1/2-x,1/2-y,z
1/2-x,1/2+y,1/2+z
1/2+x,1/2-y,1/2+z
loop_
_atom_site_type_symbol
_atom_site_label
_atom_site_fract_x
_atom_site_fract_y
_atom_site_fract_z
Si Si1 0.999125 0.714722 0.462940
Si Si2 0.887650 0.390396 0.246666
Si Si3 0.890761 0.099161 0.283208
Si Si4 0.251568 0.535565 0.566724
Si Si5 0.898087 0.613634 0.637175
Si Si6 0.798231 0.487230 0.963080
Si Si7 0.148203 0.135222 0.890693
Si Si8 0.047616 0.236382 0.066775
O O1 0.112388 0.612683 0.466702
O O2 0.027701 0.815998 0.420608
O O3 0.983827 0.782684 0.514838
O O4 0.870022 0.645069 0.448810
O O5 0.924802 0.251877 0.271410
O O6 0.750788 0.440616 0.265417
O O7 0.866191 0.353415 0.191455
O O8 0.000000 0.500000 0.254947
O O9 0.894943 0.081822 0.339981
O O10 0.000000 0.000000 0.262625
O O11 0.226149 0.431083 0.608637
O O12 0.265708 0.467260 0.514894
O O13 0.138950 0.639156 0.564107
O O14 0.381425 0.603534 0.580732
O O15 0.000000 0.500000 0.636169
O O16 0.947589 0.741984 0.608998
O O17 0.699989 0.512089 0.921020
O O18 0.250000 0.250000 0.883123
#
# Coordination Sequence:
#
# PCOD8176403 Si02
#       8
#     8   8   8   8   8   8   8   8
#     4   9  15  23  42  75 117 160 204 255 313 383
#     4  10  23  45  70  99 133 168 227 297 342 402
#     4  11  25  46  69  95 130 175 227 290 347 406
#     4   9  14  22  39  72 120 162 202 251 308 384
#     4   9  17  29  51  82 121 163 206 267 331 379
#     4   9  15  23  42  75 117 160 204 255 313 383
#     4  10  18  33  53  84 117 159 216 273 329 385
#     4   9  14  22  39  72 120 162 202 251 308 384
#
# _framework density 21.173037999999998
#
# number of rings (size 3 to 8) (size 9 to 14) (size 15 to 20)
#    0.000    2.500    3.750    0.000    0.000    2.500 
#    0.000    2.500    0.000    0.000    6.500    0.000 
#    0.000    0.000    0.000    0.000    0.000    0.000 
#
# Total GULP energy -396529.375241 kJ/mol
# GULP energy per Si atom -12391.542976 kJ/mol
# Density = 2.112485 g / cm^3
# Si number density = 21.173038 Si / 1000 Ang^3
#
#
#
# Elastic Constant Matrix: (Units=GPa)
#
#
# Indices 1 2 3 4 5 6 
#
# 1 98.9199 74.0599 55.6618 0.0000 0.0000 0.0000
# 2 74.0599 59.4680 40.8879 0.0000 0.0000 0.0000
# 3 55.6618 40.8879 170.9528 0.0000 0.0000 0.0000
# 4 0.0000 0.0000 0.0000 -9.5741 0.0000 0.0000
# 5 0.0000 0.0000 0.0000 0.0000 -9.7669 0.0000
# 6 0.0000 0.0000 0.0000 0.0000 0.0000 46.8751
#
#
#
# Elastic Compliance Matrix: (Units=1/GPa)
#
#
# Indices 1 2 3 4 5 6 
#
# 1 0.153134 -0.187214 -0.005083 0.000000 0.000000 0.000000
# 2 -0.187214 0.249005 0.001400 0.000000 0.000000 0.000000
# 3 -0.005083 0.001400 0.007170 0.000000 0.000000 0.000000
# 4 0.000000 0.000000 0.000000 -0.104448 0.000000 0.000000
# 5 0.000000 0.000000 0.000000 0.000000 -0.102387 0.000000
# 6 0.000000 0.000000 0.000000 0.000000 0.000000 0.021333
#
#
# Mechanical properties :
#
#
# Convention : Reuss Voigt Hill
#
# Bulk Modulus (GPa) = 36.34388 74.50665 55.42527
# Shear Modulus (GPa) = 8.13311 16.08889 12.11100
#
# Velocity S-wave (km/s) = 1.96204 2.75958 2.39425
# Velocity P-wave (km/s) = 4.72602 6.73940 5.82043
#
# Compressibility (1/GPa) = 0.02751495
#
# Stress axis : x y z
#
# Youngs Moduli (GPa) = 6.53023 4.01599 139.47867
#
# Poissons Ratio (x) = 0.75185 0.70894
# Poissons Ratio (y) = 1.22255 -0.19533
# Poissons Ratio (z) = 0.03319 -0.00562
#
# Static dielectric constant tensor:
#      x y z
#    x 3.769380 0.000000 0.000000 
#    y 0.000000 3.612420 0.000000 
#    z 0.000000 0.000000 3.974090 
# 
# 
# High freq. dielectric constant tensor:
#      x y z
#    x 1.823910 0.000000 0.000000 
#    y 0.000000 1.814850 0.000000 
#    z 0.000000 0.000000 1.826710 
# 
# From -- ./inp_files/20490.got.cif
#   From: 2010.03.12/outbox.cif.g09.slc.cpg/sg37_11_cif.got.tgz:20490.got - 2010.04.14 02:25:27.
