data_PCOD8176330
_publ_section_title
;
Structure prediction by ZEFSAII (Michael W. Deem and Ramdas Pophale) SiO2 
 PCOD8176330
Probable space group: C M C 21
;
_chemical_formula_sum "Si O2"
_cell_formula_units_Z 48
_cell_length_a 13.579928
_cell_length_b 19.499565
_cell_length_c 8.595433
_cell_angle_alpha 90.000000
_cell_angle_beta 90.000000
_cell_angle_gamma 90.000000
_cell_volume 2276.093769
_symmetry_space_group_name_H-M "C M C 21"
_symmetry_group_IT_number 36
_symmetry_cell_setting 'orthorhombic'
loop_
_space_group_symop_operation_xyz
x,y,z
-x,-y,1/2+z
x,-y,1/2+z
-x,y,z
1/2+x,1/2+y,z
1/2-x,1/2-y,1/2+z
1/2+x,1/2-y,1/2+z
1/2-x,1/2+y,z
loop_
_atom_site_type_symbol
_atom_site_label
_atom_site_fract_x
_atom_site_fract_y
_atom_site_fract_z
Si Si1 0.197479 0.321827 0.348860
Si Si2 0.307303 0.686296 0.160848
Si Si3 0.291934 0.561081 0.649547
Si Si4 0.000000 0.600010 0.886203
Si Si5 0.000000 0.901911 0.661313
Si Si6 0.500000 0.542349 0.510817
Si Si7 0.292543 0.065481 0.320740
Si Si8 0.500000 0.976821 0.696760
O O1 0.256930 0.296313 0.497748
O O2 0.170311 0.258057 0.241863
O O3 0.264368 0.376706 0.260749
O O4 0.095848 0.354306 0.406374
O O5 0.407284 0.645926 0.133747
O O6 0.235495 0.641659 0.268577
O O7 0.403413 0.573396 0.593140
O O8 0.281536 0.489224 0.740513
O O9 0.216980 0.558129 0.505584
O O10 0.000000 0.559544 0.721273
O O11 0.000000 0.540044 0.015183
O O12 0.000000 0.937493 0.830366
O O13 0.000000 0.959986 0.527345
O O14 0.404927 0.054485 0.278861
#
# Coordination Sequence:
#
# PCOD8176330 Si02
#       8
#     8   8   8   4   4   4   8   4
#     4  12  28  48  72 100 146 191 242 293 358 424
#     4  12  26  49  69 101 143 192 238 293 355 423
#     4  12  24  43  71 107 143 186 235 298 353 420
#     4  12  25  46  72 109 143 183 235 301 355 424
#     4  12  27  44  76 105 146 180 240 298 355 424
#     4  12  24  42  73 110 139 178 235 297 356 416
#     4  12  23  43  71 106 141 185 235 294 353 419
#     4  12  24  42  75 110 140 179 232 294 354 424
#
# _framework density 21.088761000000002
#
# number of rings (size 3 to 8) (size 9 to 14) (size 15 to 20)
#    0.000    0.000    6.667    3.500    2.333    0.000 
#    0.000    4.167    0.000    0.000    0.000    0.000 
#    0.000    0.000    0.000    0.000    0.000    0.000 
#
# Total GULP energy -297778.977629 kJ/mol
# GULP energy per Si atom -12407.457401 kJ/mol
# Density = 2.104076 g / cm^3
# Si number density = 21.088761 Si / 1000 Ang^3
#
#
#
# Elastic Constant Matrix: (Units=GPa)
#
#
# Indices 1 2 3 4 5 6 
#
# 1 133.9739 31.0076 18.7432 0.0000 0.0000 0.0000
# 2 31.0076 99.2220 37.9988 0.0000 0.0000 0.0000
# 3 18.7432 37.9988 105.1254 0.0000 0.0000 0.0000
# 4 0.0000 0.0000 0.0000 37.3112 0.0000 0.0000
# 5 0.0000 0.0000 0.0000 0.0000 6.4178 0.0000
# 6 0.0000 0.0000 0.0000 0.0000 0.0000 -19.2050
#
#
#
# Elastic Compliance Matrix: (Units=1/GPa)
#
#
# Indices 1 2 3 4 5 6 
#
# 1 0.008080 -0.002290 -0.000613 0.000000 0.000000 0.000000
# 2 -0.002290 0.012347 -0.004055 0.000000 0.000000 0.000000
# 3 -0.000613 -0.004055 0.011087 0.000000 0.000000 0.000000
# 4 0.000000 0.000000 0.000000 0.026802 0.000000 0.000000
# 5 0.000000 0.000000 0.000000 0.000000 0.155816 0.000000
# 6 0.000000 0.000000 0.000000 0.000000 0.000000 -0.052070
#
#
# Mechanical properties :
#
#
# Convention : Reuss Voigt Hill
#
# Bulk Modulus (GPa) = 56.82211 57.09117 56.95664
# Shear Modulus (GPa) = 27.49609 21.60958 24.55284
#
# Velocity S-wave (km/s) = 3.61477 3.20456 3.41583
# Velocity P-wave (km/s) = 6.66520 6.38928 6.52870
#
# Compressibility (1/GPa) = 0.01759878
#
# Stress axis : x y z
#
# Youngs Moduli (GPa) = 123.76292 80.99164 90.19352
#
# Poissons Ratio (x) = 0.18550 0.05526
# Poissons Ratio (y) = 0.28347 0.36570
# Poissons Ratio (z) = 0.07583 0.32839
#
# Static dielectric constant tensor:
#      x y z
#    x 4.009650 0.000000 0.000000 
#    y 0.000000 3.844670 0.000000 
#    z 0.000000 0.000000 3.952610 
# 
# 
# High freq. dielectric constant tensor:
#      x y z
#    x 1.846280 0.000000 0.000000 
#    y 0.000000 1.822280 0.000000 
#    z 0.000000 0.000000 1.838080 
# 
# From -- ./inp_files/4024.got.cif
#   From: 2010.03.12/outbox.cif.g09.slc.cpg/sg36_3_cif.got.tgz:4024.got - 2010.04.14 02:13:53.
