data_PCOD8176848
_publ_section_title
;
Structure prediction by ZEFSAII (Michael W. Deem and Ramdas Pophale) SiO2 
 PCOD8176848
Probable space group: C C C 2
;
_chemical_formula_sum "Si O2"
_cell_formula_units_Z 64
_cell_length_a 13.823216
_cell_length_b 8.332121
_cell_length_c 27.485676
_cell_angle_alpha 90.000000
_cell_angle_beta 90.000000
_cell_angle_gamma 90.000000
_cell_volume 3165.709688
_symmetry_space_group_name_H-M "C C C 2"
_symmetry_group_IT_number 37
_symmetry_cell_setting 'orthorhombic'
loop_
_space_group_symop_operation_xyz
x,y,z
-x,-y,z
-x,y,1/2+z
x,-y,1/2+z
1/2+x,1/2+y,z
1/2-x,1/2-y,z
1/2-x,1/2+y,1/2+z
1/2+x,1/2-y,1/2+z
loop_
_atom_site_type_symbol
_atom_site_label
_atom_site_fract_x
_atom_site_fract_y
_atom_site_fract_z
Si Si1 0.103266 0.074952 0.722430
Si Si2 0.925856 0.623088 0.539968
Si Si3 0.418980 0.369567 0.864483
Si Si4 0.901147 0.091954 0.108966
Si Si5 0.234400 0.924200 0.539213
Si Si6 0.941542 0.159923 0.471018
Si Si7 0.080097 0.375899 0.782977
Si Si8 0.269201 0.437208 0.303325
O O1 0.123122 0.082083 0.665444
O O2 0.110529 0.259508 0.739046
O O3 0.178424 0.960823 0.751018
O O4 0.000000 0.000000 0.734638
O O5 0.904236 0.731338 0.586599
O O6 0.829440 0.525948 0.520841
O O7 0.000000 0.500000 0.563393
O O8 0.985315 0.712263 0.496442
O O9 0.500000 0.500000 0.867982
O O10 0.407645 0.283677 0.917181
O O11 0.455829 0.233859 0.827463
O O12 0.324244 0.465559 0.845999
O O13 0.808956 0.018024 0.083802
O O14 0.000000 0.000000 0.095236
O O15 0.250000 0.750000 0.562158
O O16 0.158420 0.888968 0.496559
O O17 0.000000 0.000000 0.466365
O O18 0.167227 0.479746 0.801876
O O19 0.000000 0.500000 0.764303
O O20 0.250000 0.250000 0.315053
#
# Coordination Sequence:
#
# PCOD8176848 Si02
#       8
#     8   8   8   8   8   8   8   8
#     4  10  22  39  66  94 126 168 204 263 317 377
#     4  12  23  41  64  89 125 171 210 270 325 376
#     4  10  22  41  64  90 123 162 202 263 315 380
#     4  11  22  42  65  92 130 164 217 262 322 388
#     4  12  23  40  65  88 126 167 212 267 320 382
#     4  11  23  44  63  91 130 161 218 266 322 390
#     4  11  22  40  64  90 130 164 207 260 314 373
#     4  11  22  41  64  92 130 165 211 258 315 382
#
# _framework density 20.216636000000001
#
# number of rings (size 3 to 8) (size 9 to 14) (size 15 to 20)
#    0.000    1.000    3.750    4.875    0.000    4.500 
#    6.750    0.000    0.000    0.000    0.000    0.000 
#    0.000    0.000    0.000    0.000    0.000    0.000 
#
# Total GULP energy -396473.374671 kJ/mol
# GULP energy per Si atom -12389.792958 kJ/mol
# Density = 2.017062 g / cm^3
# Si number density = 20.216636 Si / 1000 Ang^3
#
#
#
# Elastic Constant Matrix: (Units=GPa)
#
#
# Indices 1 2 3 4 5 6 
#
# 1 109.3558 33.5813 35.0718 0.0000 0.0000 0.0000
# 2 33.5813 116.4771 34.1740 0.0000 0.0000 0.0000
# 3 35.0718 34.1740 104.9011 0.0000 0.0000 0.0000
# 4 0.0000 0.0000 0.0000 14.2944 0.0000 0.0000
# 5 0.0000 0.0000 0.0000 0.0000 31.5379 0.0000
# 6 0.0000 0.0000 0.0000 0.0000 0.0000 50.6784
#
#
#
# Elastic Compliance Matrix: (Units=1/GPa)
#
#
# Indices 1 2 3 4 5 6 
#
# 1 0.010756 -0.002262 -0.002859 0.000000 0.000000 0.000000
# 2 -0.002262 0.009968 -0.002491 0.000000 0.000000 0.000000
# 3 -0.002859 -0.002491 0.011300 0.000000 0.000000 0.000000
# 4 0.000000 0.000000 0.000000 0.069958 0.000000 0.000000
# 5 0.000000 0.000000 0.000000 0.000000 0.031708 0.000000
# 6 0.000000 0.000000 0.000000 0.000000 0.000000 0.019732
#
#
# Mechanical properties :
#
#
# Convention : Reuss Voigt Hill
#
# Bulk Modulus (GPa) = 59.52435 59.59869 59.56152
# Shear Modulus (GPa) = 28.69482 34.49594 31.59538
#
# Velocity S-wave (km/s) = 3.77154 4.13524 3.95757
# Velocity P-wave (km/s) = 6.96227 7.23493 7.09991
#
# Compressibility (1/GPa) = 0.01679985
#
# Stress axis : x y z
#
# Youngs Moduli (GPa) = 92.97044 100.31615 88.49375
#
# Poissons Ratio (x) = 0.22694 0.25302
# Poissons Ratio (y) = 0.21032 0.22045
# Poissons Ratio (z) = 0.26582 0.24990
#
# Static dielectric constant tensor:
#      x y z
#    x 3.759840 0.000000 0.000000 
#    y 0.000000 4.049120 0.000000 
#    z 0.000000 0.000000 4.028540 
# 
# 
# High freq. dielectric constant tensor:
#      x y z
#    x 1.804500 0.000000 0.000000 
#    y 0.000000 1.804090 0.000000 
#    z 0.000000 0.000000 1.779840 
# 
# From -- ./inp_files/20403.got.cif
#   From: 2010.03.12/outbox.cif.g09.slc.cpg/sg37_11_cif.got.tgz:20403.got - 2010.04.14 02:25:27.
