data_PCOD8176401
_publ_section_title
;
Structure prediction by ZEFSAII (Michael W. Deem and Ramdas Pophale) SiO2 
 PCOD8176401
Probable space group: C C C 2
;
_chemical_formula_sum "Si O2"
_cell_formula_units_Z 48
_cell_length_a 7.798477
_cell_length_b 13.857429
_cell_length_c 18.062753
_cell_angle_alpha 90.000000
_cell_angle_beta 90.000000
_cell_angle_gamma 90.000000
_cell_volume 1951.984663
_symmetry_space_group_name_H-M "C C C 2"
_symmetry_group_IT_number 37
_symmetry_cell_setting 'orthorhombic'
loop_
_space_group_symop_operation_xyz
x,y,z
-x,-y,z
-x,y,1/2+z
x,-y,1/2+z
1/2+x,1/2+y,z
1/2-x,1/2-y,z
1/2-x,1/2+y,1/2+z
1/2+x,1/2-y,1/2+z
loop_
_atom_site_type_symbol
_atom_site_label
_atom_site_fract_x
_atom_site_fract_y
_atom_site_fract_z
Si Si1 0.591028 0.856144 0.762350
Si Si2 0.564479 0.699414 0.357654
Si Si3 0.343277 0.871761 0.093157
Si Si4 0.833074 0.055388 0.605477
Si Si5 0.494521 0.288761 0.025781
Si Si6 0.230678 0.042814 0.272851
O O1 0.577514 0.754623 0.806525
O O2 0.617432 0.835420 0.676019
O O3 0.414487 0.909122 0.778396
O O4 0.746034 0.927733 0.788758
O O5 0.750000 0.750000 0.358119
O O6 0.485873 0.693506 0.438936
O O7 0.595236 0.589742 0.329770
O O8 0.496533 0.827110 0.042569
O O9 0.161862 0.831354 0.065817
O O10 0.335849 0.989266 0.088688
O O11 0.848441 0.068465 0.693100
O O12 0.828520 0.158870 0.562898
O O13 0.000000 0.000000 0.574987
#
# Coordination Sequence:
#
# PCOD8176401 Si02
#       6
#     8   8   8   8   8   8
#     4   9  18  32  57  85 114 147 205 249 298 368
#     4  10  18  32  56  84 117 162 193 246 318 366
#     4   9  17  32  54  83 109 151 199 249 293 364
#     4   9  18  32  54  81 112 148 202 252 291 360
#     4  10  18  32  56  83 115 157 200 239 310 374
#     4   9  18  33  55  85 113 149 202 255 299 361
#
# _framework density 24.590358999999999
#
# number of rings (size 3 to 8) (size 9 to 14) (size 15 to 20)
#    0.000    2.667    1.667    1.000    0.000    0.000 
#    0.000    2.500   18.333    0.000   13.000    0.000 
#    0.000    0.000    0.000    0.000    0.000    0.000 
#
# Total GULP energy -297339.986027 kJ/mol
# GULP energy per Si atom -12389.166084 kJ/mol
# Density = 2.453439 g / cm^3
# Si number density = 24.590359 Si / 1000 Ang^3
#
#
#
# Elastic Constant Matrix: (Units=GPa)
#
#
# Indices 1 2 3 4 5 6 
#
# 1 68.1350 33.8512 30.0752 0.0000 0.0000 0.0000
# 2 33.8512 165.5610 86.1785 0.0000 0.0000 0.0000
# 3 30.0752 86.1785 173.8420 0.0000 0.0000 0.0000
# 4 0.0000 0.0000 0.0000 26.5637 0.0000 0.0000
# 5 0.0000 0.0000 0.0000 0.0000 29.8914 0.0000
# 6 0.0000 0.0000 0.0000 0.0000 0.0000 10.4436
#
#
#
# Elastic Compliance Matrix: (Units=1/GPa)
#
#
# Indices 1 2 3 4 5 6 
#
# 1 0.016664 -0.002570 -0.001609 0.000000 0.000000 0.000000
# 2 -0.002570 0.008537 -0.003787 0.000000 0.000000 0.000000
# 3 -0.001609 -0.003787 0.007908 0.000000 0.000000 0.000000
# 4 0.000000 0.000000 0.000000 0.037645 0.000000 0.000000
# 5 0.000000 0.000000 0.000000 0.000000 0.033454 0.000000
# 6 0.000000 0.000000 0.000000 0.000000 0.000000 0.095752
#
#
# Mechanical properties :
#
#
# Convention : Reuss Voigt Hill
#
# Bulk Modulus (GPa) = 58.21848 78.63866 68.42857
# Shear Modulus (GPa) = 22.56131 30.54195 26.55163
#
# Velocity S-wave (km/s) = 3.03229 3.52807 3.28953
# Velocity P-wave (km/s) = 5.99887 6.97461 6.50506
#
# Compressibility (1/GPa) = 0.01717668
#
# Stress axis : x y z
#
# Youngs Moduli (GPa) = 60.01100 117.13841 126.44986
#
# Poissons Ratio (x) = 0.30099 0.20346
# Poissons Ratio (y) = 0.15420 0.47892
# Poissons Ratio (z) = 0.09656 0.44366
#
# Static dielectric constant tensor:
#      x y z
#    x 4.568310 0.000000 0.000000 
#    y 0.000000 6.071500 0.000000 
#    z 0.000000 0.000000 4.064350 
# 
# 
# High freq. dielectric constant tensor:
#      x y z
#    x 1.983280 0.000000 0.000000 
#    y 0.000000 1.994030 0.000000 
#    z 0.000000 0.000000 1.944850 
# 
# From -- ./inp_files/16295.got.cif
#   From: 2010.03.12/outbox.cif.g09.slc.cpg/sg37_9_cif.got.tgz:16295.got - 2010.04.14 02:25:27.
