data_PCOD8176064
_publ_section_title
;
Structure prediction by ZEFSAII (Michael W. Deem and Ramdas Pophale) SiO2 
 PCOD8176064
Probable space group: C M C 21
;
_chemical_formula_sum "Si O2"
_cell_formula_units_Z 48
_cell_length_a 8.507283
_cell_length_b 27.087061
_cell_length_c 9.875324
_cell_angle_alpha 90.000000
_cell_angle_beta 90.000000
_cell_angle_gamma 90.000000
_cell_volume 2275.642936
_symmetry_space_group_name_H-M "C M C 21"
_symmetry_group_IT_number 36
_symmetry_cell_setting 'orthorhombic'
loop_
_space_group_symop_operation_xyz
x,y,z
-x,-y,1/2+z
x,-y,1/2+z
-x,y,z
1/2+x,1/2+y,z
1/2-x,1/2-y,1/2+z
1/2+x,1/2-y,1/2+z
1/2-x,1/2+y,z
loop_
_atom_site_type_symbol
_atom_site_label
_atom_site_fract_x
_atom_site_fract_y
_atom_site_fract_z
Si Si1 0.318383 0.963327 0.765100
Si Si2 0.318617 0.717071 0.098576
Si Si3 0.179633 0.931412 0.277019
Si Si4 0.817924 0.613380 0.038004
Si Si5 0.679573 0.894804 0.012281
Si Si6 0.681354 0.296669 0.905127
O O1 0.500000 0.977462 0.741324
O O2 0.261666 0.924193 0.653655
O O3 0.290763 0.940860 0.913297
O O4 0.213478 0.011505 0.747396
O O5 0.500000 0.730097 0.072642
O O6 0.273870 0.723285 0.256287
O O7 0.287222 0.661887 0.048236
O O8 0.211699 0.754366 0.014413
O O9 0.293785 0.911926 0.393458
O O10 0.000000 0.924521 0.321639
O O11 0.209167 0.899820 0.141850
O O12 0.000000 0.627506 0.056843
O O13 0.500000 0.894262 0.061421
O O14 0.713726 0.844278 0.934317
O O15 0.500000 0.312467 0.909937
#
# Coordination Sequence:
#
# PCOD8176064 Si02
#       6
#     8   8   8   8   8   8
#     4  10  22  42  67  94 125 168 216 265 319 379
#     4  11  25  44  68  97 130 168 212 262 319 380
#     4  12  26  40  61  96 133 172 214 263 317 379
#     4  11  23  43  68  94 128 169 215 266 320 379
#     4  11  23  43  68  94 128 169 215 266 320 379
#     4  11  25  44  68  97 130 168 212 262 319 380
#
# _framework density 21.092941
#
# number of rings (size 3 to 8) (size 9 to 14) (size 15 to 20)
#    0.000    1.000    1.667    4.500    2.333    8.667 
#    0.000    0.000    0.000    0.000    0.000    0.000 
#    0.000    0.000    0.000    0.000    0.000    0.000 
#
# Total GULP energy -297822.603924 kJ/mol
# GULP energy per Si atom -12409.275163 kJ/mol
# Density = 2.104493 g / cm^3
# Si number density = 21.092941 Si / 1000 Ang^3
#
#
#
# Elastic Constant Matrix: (Units=GPa)
#
#
# Indices 1 2 3 4 5 6 
#
# 1 54.9068 22.0151 29.9698 0.0000 0.0000 0.0000
# 2 22.0151 84.2430 26.7718 0.0000 0.0000 0.0000
# 3 29.9698 26.7718 92.4808 0.0000 0.0000 0.0000
# 4 0.0000 0.0000 0.0000 38.0631 0.0000 0.0000
# 5 0.0000 0.0000 0.0000 0.0000 29.2742 0.0000
# 6 0.0000 0.0000 0.0000 0.0000 0.0000 32.2737
#
#
#
# Elastic Compliance Matrix: (Units=1/GPa)
#
#
# Indices 1 2 3 4 5 6 
#
# 1 0.023327 -0.004068 -0.006382 0.000000 0.000000 0.000000
# 2 -0.004068 0.013782 -0.002672 0.000000 0.000000 0.000000
# 3 -0.006382 -0.002672 0.013655 0.000000 0.000000 0.000000
# 4 0.000000 0.000000 0.000000 0.026272 0.000000 0.000000
# 5 0.000000 0.000000 0.000000 0.000000 0.034160 0.000000
# 6 0.000000 0.000000 0.000000 0.000000 0.000000 0.030985
#
#
# Mechanical properties :
#
#
# Convention : Reuss Voigt Hill
#
# Bulk Modulus (GPa) = 40.78061 43.23823 42.00942
# Shear Modulus (GPa) = 28.31292 30.11379 29.21335
#
# Velocity S-wave (km/s) = 3.66771 3.78255 3.72557
# Velocity P-wave (km/s) = 6.10834 6.29447 6.20210
#
# Compressibility (1/GPa) = 0.02452145
#
# Stress axis : x y z
#
# Youngs Moduli (GPa) = 42.86840 72.55579 73.23543
#
# Poissons Ratio (x) = 0.29515 0.46738
# Poissons Ratio (y) = 0.17439 0.19565
# Poissons Ratio (z) = 0.27358 0.19384
#
# Static dielectric constant tensor:
#      x y z
#    x 3.726750 0.000000 0.000000 
#    y 0.000000 3.715960 0.000000 
#    z 0.000000 0.000000 3.908340 
# 
# 
# High freq. dielectric constant tensor:
#      x y z
#    x 1.827410 0.000000 0.000000 
#    y 0.000000 1.830740 0.000000 
#    z 0.000000 0.000000 1.840660 
# 
# From -- ./inp_files/2692.got.cif
#   From: 2010.03.12/outbox.cif.g09.slc.cpg/sg36_2_cif.got.tgz:2692.got - 2010.04.14 02:13:53.
