data_PCOD8176975
_publ_section_title
;
Structure prediction by ZEFSAII (Michael W. Deem and Ramdas Pophale) SiO2 
 PCOD8176975
Probable space group: C C C 2
;
_chemical_formula_sum "Si O2"
_cell_formula_units_Z 60
_cell_length_a 31.674279
_cell_length_b 8.662506
_cell_length_c 10.422648
_cell_angle_alpha 90.000000
_cell_angle_beta 90.000000
_cell_angle_gamma 90.000000
_cell_volume 2859.751899
_symmetry_space_group_name_H-M "C C C 2"
_symmetry_group_IT_number 37
_symmetry_cell_setting 'orthorhombic'
loop_
_space_group_symop_operation_xyz
x,y,z
-x,-y,z
-x,y,1/2+z
x,-y,1/2+z
1/2+x,1/2+y,z
1/2-x,1/2-y,z
1/2-x,1/2+y,1/2+z
1/2+x,1/2-y,1/2+z
loop_
_atom_site_type_symbol
_atom_site_label
_atom_site_fract_x
_atom_site_fract_y
_atom_site_fract_z
Si Si1 0.858579 0.903460 0.978110
Si Si2 0.634110 0.900080 0.124174
Si Si3 0.227814 0.413173 0.221544
Si Si4 0.423339 0.166370 0.569107
Si Si5 0.405445 0.541246 0.215136
Si Si6 0.060412 0.736672 0.787189
Si Si7 0.237955 0.926135 0.464110
Si Si8 0.500000 0.000000 0.180084
O O1 0.885266 0.950402 0.855211
O O2 0.811265 0.950574 0.941040
O O3 0.863427 0.720854 0.006192
O O4 0.871671 0.998608 0.104890
O O5 0.678048 0.899576 0.198886
O O6 0.599329 0.855355 0.227944
O O7 0.620512 0.068374 0.069453
O O8 0.250000 0.250000 0.246650
O O9 0.234185 0.511713 0.348685
O O10 0.248448 0.503177 0.099919
O O11 0.424802 0.292806 0.682339
O O12 0.429819 0.255560 0.436794
O O13 0.462266 0.051225 0.588170
O O14 0.441574 0.407939 0.223421
O O15 0.016737 0.643399 0.766214
O O16 0.250000 0.750000 0.483674
#
# Coordination Sequence:
#
# PCOD8176975 Si02
#       8
#     8   8   8   8   8   8   8   4
#     4  11  22  44  65  94 137 177 229 284 332 399
#     4  10  24  40  68  93 131 177 226 280 334 404
#     4  11  24  43  60  92 132 176 228 282 335 394
#     4  11  24  43  70 100 129 173 218 271 342 405
#     4  11  24  42  71 100 133 179 224 272 335 405
#     4  10  23  45  67 100 131 172 218 271 336 408
#     4  11  24  41  62  91 131 178 226 282 338 385
#     4  10  24  46  70 100 134 166 216 278 332 410
#
# _framework density 20.980841000000002
#
# number of rings (size 3 to 8) (size 9 to 14) (size 15 to 20)
#    0.000    1.333    4.000    1.200    9.333    1.067 
#    2.400    1.333    0.000    0.000    0.000    0.000 
#    0.000    0.000    0.000    0.000    0.000    0.000 
#
# Total GULP energy -371984.390775 kJ/mol
# GULP energy per Si atom -12399.479692 kJ/mol
# Density = 2.093309 g / cm^3
# Si number density = 20.980841 Si / 1000 Ang^3
#
#
#
# Elastic Constant Matrix: (Units=GPa)
#
#
# Indices 1 2 3 4 5 6 
#
# 1 99.0130 30.5477 12.0104 0.0000 0.0000 0.0000
# 2 30.5477 96.0164 24.8179 0.0000 0.0000 0.0000
# 3 12.0104 24.8179 115.8978 0.0000 0.0000 0.0000
# 4 0.0000 0.0000 0.0000 17.1490 0.0000 0.0000
# 5 0.0000 0.0000 0.0000 0.0000 23.8942 0.0000
# 6 0.0000 0.0000 0.0000 0.0000 0.0000 28.6648
#
#
#
# Elastic Compliance Matrix: (Units=1/GPa)
#
#
# Indices 1 2 3 4 5 6 
#
# 1 0.011218 -0.003460 -0.000422 0.000000 0.000000 0.000000
# 2 -0.003460 0.012092 -0.002231 0.000000 0.000000 0.000000
# 3 -0.000422 -0.002231 0.009150 0.000000 0.000000 0.000000
# 4 0.000000 0.000000 0.000000 0.058313 0.000000 0.000000
# 5 0.000000 0.000000 0.000000 0.000000 0.041851 0.000000
# 6 0.000000 0.000000 0.000000 0.000000 0.000000 0.034886
#
#
# Mechanical properties :
#
#
# Convention : Reuss Voigt Hill
#
# Bulk Modulus (GPa) = 49.41884 49.51993 49.46938
# Shear Modulus (GPa) = 26.81246 30.17833 28.49540
#
# Velocity S-wave (km/s) = 3.57872 3.79671 3.68932
# Velocity P-wave (km/s) = 6.37822 6.54780 6.46357
#
# Compressibility (1/GPa) = 0.02023520
#
# Stress axis : x y z
#
# Youngs Moduli (GPa) = 89.13954 82.69682 109.29340
#
# Poissons Ratio (x) = 0.28614 0.04608
# Poissons Ratio (y) = 0.30844 0.24382
# Poissons Ratio (z) = 0.03758 0.18448
#
# Static dielectric constant tensor:
#      x y z
#    x 3.674450 0.000000 0.000000 
#    y 0.000000 3.934410 0.000000 
#    z 0.000000 0.000000 3.850200 
# 
# 
# High freq. dielectric constant tensor:
#      x y z
#    x 1.818060 0.000000 0.000000 
#    y 0.000000 1.819980 0.000000 
#    z 0.000000 0.000000 1.831360 
# 
# From -- ./inp_files/6597.got.cif
#   From: 2010.03.12/outbox.cif.g09.slc.cpg/sg37_4_cif.got.tgz:6597.got - 2010.04.14 02:25:27.
