data_PCOD8176795
_publ_section_title
;
Structure prediction by ZEFSAII (Michael W. Deem and Ramdas Pophale) SiO2 
 PCOD8176795
Probable space group: C C C 2
;
_chemical_formula_sum "Si O2"
_cell_formula_units_Z 64
_cell_length_a 8.903140
_cell_length_b 22.725593
_cell_length_c 14.678729
_cell_angle_alpha 90.000000
_cell_angle_beta 90.000000
_cell_angle_gamma 90.000000
_cell_volume 2969.934557
_symmetry_space_group_name_H-M "C C C 2"
_symmetry_group_IT_number 37
_symmetry_cell_setting 'orthorhombic'
loop_
_space_group_symop_operation_xyz
x,y,z
-x,-y,z
-x,y,1/2+z
x,-y,1/2+z
1/2+x,1/2+y,z
1/2-x,1/2-y,z
1/2-x,1/2+y,1/2+z
1/2+x,1/2-y,1/2+z
loop_
_atom_site_type_symbol
_atom_site_label
_atom_site_fract_x
_atom_site_fract_y
_atom_site_fract_z
Si Si1 0.347258 0.464543 0.182380
Si Si2 0.202419 0.422026 0.724055
Si Si3 0.583331 0.061250 0.401318
Si Si4 0.593486 0.131976 0.043376
Si Si5 0.922932 0.245241 0.111241
Si Si6 0.509726 0.350808 0.750374
Si Si7 0.594154 0.659404 0.455531
Si Si8 0.388991 0.551272 0.483591
O O1 0.500000 0.500000 0.182570
O O2 0.230985 0.507204 0.233787
O O3 0.364362 0.399950 0.226495
O O4 0.299497 0.458680 0.077236
O O5 0.070667 0.410613 0.799327
O O6 0.144471 0.412646 0.621896
O O7 0.345593 0.379939 0.742107
O O8 0.534447 0.105549 0.479822
O O9 0.764030 0.054046 0.405899
O O10 0.500000 0.000000 0.413386
O O11 0.521337 0.187975 0.096531
O O12 0.731692 0.144955 0.975116
O O13 0.750000 0.250000 0.143264
O O14 0.015541 0.207022 0.185468
O O15 0.943490 0.217686 0.011490
O O16 0.554154 0.328716 0.850586
O O17 0.489641 0.608733 0.495511
O O18 0.500000 0.500000 0.452633
#
# Coordination Sequence:
#
# PCOD8176795 Si02
#       8
#     8   8   8   8   8   8   8   8
#     4   9  19  34  60  96 130 163 221 290 338 388
#     4  11  22  41  65  96 136 187 225 287 359 421
#     4  12  27  41  65 103 139 189 228 280 372 429
#     4  11  25  48  68  95 148 189 222 293 363 417
#     4  10  21  43  69  94 137 183 229 281 353 413
#     4  11  20  37  71 103 127 175 237 291 343 411
#     4  11  21  39  71 102 124 179 243 282 341 408
#     4  11  21  38  66  95 135 177 230 289 334 418
#
# _framework density 21.549296999999999
#
# number of rings (size 3 to 8) (size 9 to 14) (size 15 to 20)
#    0.000    1.250    5.000    3.000    3.500    2.500 
#    0.000    0.625    0.000    0.000    0.000    0.000 
#    0.000    0.000    0.000    0.000    0.000    0.000 
#
# Total GULP energy -396608.583645 kJ/mol
# GULP energy per Si atom -12394.018239 kJ/mol
# Density = 2.150025 g / cm^3
# Si number density = 21.549297 Si / 1000 Ang^3
#
#
#
# Elastic Constant Matrix: (Units=GPa)
#
#
# Indices 1 2 3 4 5 6 
#
# 1 52.1721 27.4444 34.7324 0.0000 0.0000 0.0000
# 2 27.4444 115.6955 48.8112 0.0000 0.0000 0.0000
# 3 34.7324 48.8112 156.8441 0.0000 0.0000 0.0000
# 4 0.0000 0.0000 0.0000 28.1265 0.0000 0.0000
# 5 0.0000 0.0000 0.0000 0.0000 27.2728 0.0000
# 6 0.0000 0.0000 0.0000 0.0000 0.0000 21.5376
#
#
#
# Elastic Compliance Matrix: (Units=1/GPa)
#
#
# Indices 1 2 3 4 5 6 
#
# 1 0.023965 -0.003967 -0.004073 0.000000 0.000000 0.000000
# 2 -0.003967 0.010606 -0.002422 0.000000 0.000000 0.000000
# 3 -0.004073 -0.002422 0.008031 0.000000 0.000000 0.000000
# 4 0.000000 0.000000 0.000000 0.035554 0.000000 0.000000
# 5 0.000000 0.000000 0.000000 0.000000 0.036667 0.000000
# 6 0.000000 0.000000 0.000000 0.000000 0.000000 0.046430
#
#
# Mechanical properties :
#
#
# Convention : Reuss Voigt Hill
#
# Bulk Modulus (GPa) = 46.12587 60.74307 53.43447
# Shear Modulus (GPa) = 26.39872 29.63564 28.01718
#
# Velocity S-wave (km/s) = 3.50385 3.71246 3.60966
# Velocity P-wave (km/s) = 6.14984 6.82829 6.49793
#
# Compressibility (1/GPa) = 0.02167981
#
# Stress axis : x y z
#
# Youngs Moduli (GPa) = 41.72731 94.28357 124.51044
#
# Poissons Ratio (x) = 0.37399 0.50707
# Poissons Ratio (y) = 0.16552 0.30161
# Poissons Ratio (z) = 0.16993 0.22839
#
# Static dielectric constant tensor:
#      x y z
#    x 3.823470 0.000000 0.000000 
#    y 0.000000 6.309540 0.000000 
#    z 0.000000 0.000000 4.117160 
# 
# 
# High freq. dielectric constant tensor:
#      x y z
#    x 1.816000 0.000000 0.000000 
#    y 0.000000 1.843720 0.000000 
#    z 0.000000 0.000000 1.863290 
# 
# From -- ./inp_files/10997.got.cif
#   From: 2010.03.12/outbox.cif.g09.slc.cpg/sg37_6_cif.got.tgz:10997.got - 2010.04.14 02:25:27.
