data_PCOD8176329
_publ_section_title
;
Structure prediction by ZEFSAII (Michael W. Deem and Ramdas Pophale) SiO2 
 PCOD8176329
Probable space group: C M C 21
;
_chemical_formula_sum "Si O2"
_cell_formula_units_Z 40
_cell_length_a 23.732643
_cell_length_b 15.295257
_cell_length_c 4.954376
_cell_angle_alpha 90.000000
_cell_angle_beta 90.000000
_cell_angle_gamma 90.000000
_cell_volume 1798.423000
_symmetry_space_group_name_H-M "C M C 21"
_symmetry_group_IT_number 36
_symmetry_cell_setting 'orthorhombic'
loop_
_space_group_symop_operation_xyz
x,y,z
-x,-y,1/2+z
x,-y,1/2+z
-x,y,z
1/2+x,1/2+y,z
1/2-x,1/2-y,1/2+z
1/2+x,1/2-y,1/2+z
1/2-x,1/2+y,z
loop_
_atom_site_type_symbol
_atom_site_label
_atom_site_fract_x
_atom_site_fract_y
_atom_site_fract_z
Si Si1 0.595376 0.702774 0.198200
Si Si2 0.306127 0.059052 0.116369
Si Si3 0.500000 0.055584 0.357247
Si Si4 0.500000 0.560681 0.185237
Si Si5 0.406513 0.185327 0.183584
Si Si6 0.226431 0.200111 0.242708
O O1 0.556858 0.617129 0.225111
O O2 0.570828 0.777163 0.399409
O O3 0.659802 0.688599 0.289916
O O4 0.593527 0.734476 0.891121
O O5 0.345352 0.143497 0.151345
O O6 0.244841 0.101981 0.155204
O O7 0.316207 0.979632 0.320736
O O8 0.444651 0.108692 0.293805
O O9 0.500000 0.969116 0.171752
O O10 0.500000 0.479467 0.387633
O O11 0.257429 0.227280 0.520113
#
# Coordination Sequence:
#
# PCOD8176329 Si02
#       6
#     8   8   4   4   8   8
#     4  12  24  45  73  96 133 182 228 281 341 407
#     4  12  24  39  63  98 133 170 215 280 341 387
#     4  12  24  40  60  94 134 174 214 266 328 394
#     4  12  28  48  72 106 140 176 236 304 348 394
#     4  12  23  42  67  96 133 176 227 266 331 420
#     4  12  23  44  67  98 134 181 233 280 333 422
#
# _framework density 22.241709
#
# number of rings (size 3 to 8) (size 9 to 14) (size 15 to 20)
#    0.000    0.000    4.000    7.200    0.000    1.600 
#    0.000    0.000    0.000    0.000    0.000    0.000 
#    0.000    0.000    0.000    0.000    0.000    0.000 
#
# Total GULP energy -248096.595243 kJ/mol
# GULP energy per Si atom -12404.829762 kJ/mol
# Density = 2.219109 g / cm^3
# Si number density = 22.241709 Si / 1000 Ang^3
#
#
#
# Elastic Constant Matrix: (Units=GPa)
#
#
# Indices 1 2 3 4 5 6 
#
# 1 108.1670 35.6342 1.3422 0.0000 0.0000 0.0000
# 2 35.6342 98.8748 14.1011 0.0000 0.0000 0.0000
# 3 1.3422 14.1011 66.7018 0.0000 0.0000 0.0000
# 4 0.0000 0.0000 0.0000 53.5248 0.0000 0.0000
# 5 0.0000 0.0000 0.0000 0.0000 7.5376 0.0000
# 6 0.0000 0.0000 0.0000 0.0000 0.0000 36.9527
#
#
#
# Elastic Compliance Matrix: (Units=1/GPa)
#
#
# Indices 1 2 3 4 5 6 
#
# 1 0.010514 -0.003876 0.000608 0.000000 0.000000 0.000000
# 2 -0.003876 0.011857 -0.002429 0.000000 0.000000 0.000000
# 3 0.000608 -0.002429 0.015493 0.000000 0.000000 0.000000
# 4 0.000000 0.000000 0.000000 0.018683 0.000000 0.000000
# 5 0.000000 0.000000 0.000000 0.000000 0.132668 0.000000
# 6 0.000000 0.000000 0.000000 0.000000 0.000000 0.027062
#
#
# Mechanical properties :
#
#
# Convention : Reuss Voigt Hill
#
# Bulk Modulus (GPa) = 37.77717 41.76653 39.77185
# Shear Modulus (GPa) = 21.14211 34.44742 27.79476
#
# Velocity S-wave (km/s) = 3.08646 3.93972 3.53890
# Velocity P-wave (km/s) = 5.45191 6.28605 5.88378
#
# Compressibility (1/GPa) = 0.02647101
#
# Stress axis : x y z
#
# Youngs Moduli (GPa) = 95.10833 84.33785 64.54408
#
# Poissons Ratio (x) = 0.32690 -0.03923
# Poissons Ratio (y) = 0.36864 0.15675
# Poissons Ratio (z) = -0.05781 0.20483
#
# Static dielectric constant tensor:
#      x y z
#    x 4.437130 0.000000 0.000000 
#    y 0.000000 3.847050 0.000000 
#    z 0.000000 0.000000 4.229990 
# 
# 
# High freq. dielectric constant tensor:
#      x y z
#    x 1.881890 0.000000 0.000000 
#    y 0.000000 1.873860 0.000000 
#    z 0.000000 0.000000 1.892790 
# 
# From -- ./inp_files/1546.got.cif
#   From: 2010.03.12/outbox.cif.g09.slc.cpg/sg36_1_cif.got.tgz:1546.got - 2010.04.14 02:13:53.
