data_PCOD8176102
_publ_section_title
;
Structure prediction by ZEFSAII (Michael W. Deem and Ramdas Pophale) SiO2 
 PCOD8176102
Probable space group: C M C 21
;
_chemical_formula_sum "Si O2"
_cell_formula_units_Z 40
_cell_length_a 21.721498
_cell_length_b 9.104940
_cell_length_c 7.467355
_cell_angle_alpha 90.000000
_cell_angle_beta 90.000000
_cell_angle_gamma 90.000000
_cell_volume 1476.840723
_symmetry_space_group_name_H-M "C M C 21"
_symmetry_group_IT_number 36
_symmetry_cell_setting 'orthorhombic'
loop_
_space_group_symop_operation_xyz
x,y,z
-x,-y,1/2+z
x,-y,1/2+z
-x,y,z
1/2+x,1/2+y,z
1/2-x,1/2-y,1/2+z
1/2+x,1/2-y,1/2+z
1/2-x,1/2+y,z
loop_
_atom_site_type_symbol
_atom_site_label
_atom_site_fract_x
_atom_site_fract_y
_atom_site_fract_z
Si Si1 0.238669 0.193031 0.740580
Si Si2 0.801338 0.536266 0.049284
Si Si3 0.569326 0.870972 0.580873
Si Si4 0.931687 0.159843 0.253261
Si Si5 0.892916 0.148994 0.869038
O O1 0.226626 0.367376 0.716983
O O2 0.174891 0.117995 0.794503
O O3 0.264730 0.119487 0.553034
O O4 0.291343 0.141996 0.879148
O O5 0.875252 0.508917 0.076738
O O6 0.500000 0.940167 0.568486
O O7 0.584968 0.768636 0.413165
O O8 0.573737 0.782087 0.766142
O O9 0.000000 0.191955 0.181857
O O10 0.931048 0.998029 0.337063
O O11 0.887510 0.181863 0.081773
#
# Coordination Sequence:
#
# PCOD8176102 Si02
#       5
#     8   8   8   8   8
#     4  11  25  42  68 100 137 177 227 279 351 413
#     4  11  25  45  70 100 136 179 227 287 345 414
#     4  10  23  41  62  93 133 179 231 281 334 411
#     4  11  20  32  57  94 130 175 221 277 346 405
#     4  11  21  34  61  93 136 172 218 282 348 405
#
# _framework density 27.084844
#
# number of rings (size 3 to 8) (size 9 to 14) (size 15 to 20)
#    0.000    1.200    2.000    4.200    8.400    0.000 
#    0.000    1.000    0.000    0.000    0.000    0.000 
#    0.000    0.000    0.000    0.000    0.000    0.000 
#
# Total GULP energy -247926.991569 kJ/mol
# GULP energy per Si atom -12396.349578 kJ/mol
# Density = 2.702320 g / cm^3
# Si number density = 27.084844 Si / 1000 Ang^3
#
#
#
# Elastic Constant Matrix: (Units=GPa)
#
#
# Indices 1 2 3 4 5 6 
#
# 1 97.4995 30.1471 -24.2456 0.0000 0.0000 0.0000
# 2 30.1471 35.9512 -27.3599 0.0000 0.0000 0.0000
# 3 -24.2456 -27.3599 105.8580 0.0000 0.0000 0.0000
# 4 0.0000 0.0000 0.0000 18.5935 0.0000 0.0000
# 5 0.0000 0.0000 0.0000 0.0000 19.8739 0.0000
# 6 0.0000 0.0000 0.0000 0.0000 0.0000 25.0645
#
#
#
# Elastic Compliance Matrix: (Units=1/GPa)
#
#
# Indices 1 2 3 4 5 6 
#
# 1 0.013851 -0.011453 0.000212 0.000000 0.000000 0.000000
# 2 -0.011453 0.044097 0.008774 0.000000 0.000000 0.000000
# 3 0.000212 0.008774 0.011763 0.000000 0.000000 0.000000
# 4 0.000000 0.000000 0.000000 0.053782 0.000000 0.000000
# 5 0.000000 0.000000 0.000000 0.000000 0.050317 0.000000
# 6 0.000000 0.000000 0.000000 0.000000 0.000000 0.039897
#
#
# Mechanical properties :
#
#
# Convention : Reuss Voigt Hill
#
# Bulk Modulus (GPa) = 15.43765 21.82132 18.62948
# Shear Modulus (GPa) = 20.81319 30.09086 25.45202
#
# Velocity S-wave (km/s) = 2.77509 3.33676 3.06880
# Velocity P-wave (km/s) = 3.99753 4.78742 4.41020
#
# Compressibility (1/GPa) = 0.06477671
#
# Stress axis : x y z
#
# Youngs Moduli (GPa) = 72.19956 22.67742 85.01278
#
# Poissons Ratio (x) = 0.25972 -0.01804
# Poissons Ratio (y) = 0.82690 -0.74590
# Poissons Ratio (z) = -0.01532 -0.19897
#
# Static dielectric constant tensor:
#      x y z
#    x 4.928190 0.000000 0.000000 
#    y 0.000000 4.568380 0.000000 
#    z 0.000000 0.000000 5.165720 
# 
# 
# High freq. dielectric constant tensor:
#      x y z
#    x 2.095160 0.000000 0.000000 
#    y 0.000000 2.068240 0.000000 
#    z 0.000000 0.000000 2.109140 
# 
# From -- ./inp_files/5086.got.cif
#   From: 2010.03.12/outbox.cif.g09.slc.cpg/sg36_3_cif.got.tgz:5086.got - 2010.04.14 02:13:53.
