data_PCOD8176035
_publ_section_title
;
Structure prediction by ZEFSAII (Michael W. Deem and Ramdas Pophale) SiO2 
 PCOD8176035
Probable space group: C M C 21
;
_chemical_formula_sum "Si O2"
_cell_formula_units_Z 64
_cell_length_a 8.887046
_cell_length_b 33.120394
_cell_length_c 10.349583
_cell_angle_alpha 90.000000
_cell_angle_beta 90.000000
_cell_angle_gamma 90.000000
_cell_volume 3046.321772
_symmetry_space_group_name_H-M "C M C 21"
_symmetry_group_IT_number 36
_symmetry_cell_setting 'orthorhombic'
loop_
_space_group_symop_operation_xyz
x,y,z
-x,-y,1/2+z
x,-y,1/2+z
-x,y,z
1/2+x,1/2+y,z
1/2-x,1/2-y,1/2+z
1/2+x,1/2-y,1/2+z
1/2-x,1/2+y,z
loop_
_atom_site_type_symbol
_atom_site_label
_atom_site_fract_x
_atom_site_fract_y
_atom_site_fract_z
Si Si1 0.826304 0.962461 0.944260
Si Si2 0.323627 0.267046 0.705067
Si Si3 0.331918 0.157514 0.308813
Si Si4 0.676354 0.712193 0.917071
Si Si5 0.825718 0.390785 0.070764
Si Si6 0.835542 0.574782 0.223669
Si Si7 0.324086 0.624662 0.827830
Si Si8 0.668319 0.953703 0.442074
O O1 0.803878 0.940174 0.808137
O O2 0.000000 0.964062 0.983642
O O3 0.765848 0.006978 0.916799
O O4 0.736785 0.936676 0.052497
O O5 0.500000 0.259683 0.703240
O O6 0.289315 0.308550 0.779106
O O7 0.264397 0.269513 0.555094
O O8 0.250495 0.231635 0.789609
O O9 0.500000 0.176629 0.308859
O O10 0.297059 0.136490 0.445410
O O11 0.316599 0.122821 0.199223
O O12 0.500000 0.720141 0.906036
O O13 0.712607 0.664397 0.912843
O O14 0.735103 0.368254 0.183165
O O15 0.000000 0.393679 0.108056
O O16 0.000000 0.568923 0.295167
O O17 0.837842 0.550102 0.094405
O O18 0.500000 0.615784 0.826015
O O19 0.241834 0.585769 0.883187
O O20 0.500000 0.958953 0.384897
#
# Coordination Sequence:
#
# PCOD8176035 Si02
#       8
#     8   8   8   8   8   8   8   8
#     4  11  23  38  59  89 124 161 207 260 314 374
#     4  11  24  41  67  98 130 171 217 265 326 392
#     4   9  19  38  64  91 122 158 204 259 315 376
#     4  10  25  46  65  95 136 172 216 273 328 391
#     4  10  22  41  64  91 127 169 213 261 318 389
#     4   9  20  39  61  85 114 155 204 250 307 377
#     4  11  24  42  64  92 129 167 213 270 330 385
#     4  11  23  39  62  87 120 163 208 256 314 382
#
# _framework density 21.008942999999999
#
# number of rings (size 3 to 8) (size 9 to 14) (size 15 to 20)
#    0.000    1.750    0.000    4.125    3.500    5.500 
#    0.000    0.000    0.000    0.000    0.000    0.000 
#    0.000    0.000    0.000    0.000    0.000    0.000 
#
# Total GULP energy -396681.214969 kJ/mol
# GULP energy per Si atom -12396.287968 kJ/mol
# Density = 2.096113 g / cm^3
# Si number density = 21.008943 Si / 1000 Ang^3
#
#
#
# Elastic Constant Matrix: (Units=GPa)
#
#
# Indices 1 2 3 4 5 6 
#
# 1 89.0866 40.6055 28.8978 0.0000 0.0000 0.0000
# 2 40.6055 96.3405 31.0628 0.0000 0.0000 0.0000
# 3 28.8978 31.0628 83.7913 0.0000 0.0000 0.0000
# 4 0.0000 0.0000 0.0000 29.7497 0.0000 0.0000
# 5 0.0000 0.0000 0.0000 0.0000 30.8741 0.0000
# 6 0.0000 0.0000 0.0000 0.0000 0.0000 38.5924
#
#
#
# Elastic Compliance Matrix: (Units=1/GPa)
#
#
# Indices 1 2 3 4 5 6 
#
# 1 0.014580 -0.005138 -0.003124 0.000000 0.000000 0.000000
# 2 -0.005138 0.013600 -0.003270 0.000000 0.000000 0.000000
# 3 -0.003124 -0.003270 0.014224 0.000000 0.000000 0.000000
# 4 0.000000 0.000000 0.000000 0.033614 0.000000 0.000000
# 5 0.000000 0.000000 0.000000 0.000000 0.032390 0.000000
# 6 0.000000 0.000000 0.000000 0.000000 0.000000 0.025912
#
#
# Mechanical properties :
#
#
# Convention : Reuss Voigt Hill
#
# Bulk Modulus (GPa) = 51.70360 52.26114 51.98237
# Shear Modulus (GPa) = 30.51971 31.08672 30.80321
#
# Velocity S-wave (km/s) = 3.81557 3.85085 3.83325
# Velocity P-wave (km/s) = 6.63891 6.68593 6.66246
#
# Compressibility (1/GPa) = 0.01934101
#
# Stress axis : x y z
#
# Youngs Moduli (GPa) = 68.58615 73.53127 70.30484
#
# Poissons Ratio (x) = 0.37781 0.21961
# Poissons Ratio (y) = 0.35240 0.22987
# Poissons Ratio (z) = 0.21424 0.24042
#
# Static dielectric constant tensor:
#      x y z
#    x 3.800420 0.000000 0.000000 
#    y 0.000000 3.867890 0.000000 
#    z 0.000000 0.000000 3.921170 
# 
# 
# High freq. dielectric constant tensor:
#      x y z
#    x 1.821530 0.000000 0.000000 
#    y 0.000000 1.829250 0.000000 
#    z 0.000000 0.000000 1.822530 
# 
# From -- ./inp_files/7253.got.cif
#   From: 2010.03.12/outbox.cif.g09.slc.cpg/sg36_4_cif.got.tgz:7253.got - 2010.04.14 02:13:53.
