data_PCOD8176539
_publ_section_title
;
Structure prediction by ZEFSAII (Michael W. Deem and Ramdas Pophale) SiO2 
 PCOD8176539
Probable space group: C C C 2
;
_chemical_formula_sum "Si O2"
_cell_formula_units_Z 64
_cell_length_a 10.488386
_cell_length_b 10.561948
_cell_length_c 27.301852
_cell_angle_alpha 90.000000
_cell_angle_beta 90.000000
_cell_angle_gamma 90.000000
_cell_volume 3024.438760
_symmetry_space_group_name_H-M "C C C 2"
_symmetry_group_IT_number 37
_symmetry_cell_setting 'orthorhombic'
loop_
_space_group_symop_operation_xyz
x,y,z
-x,-y,z
-x,y,1/2+z
x,-y,1/2+z
1/2+x,1/2+y,z
1/2-x,1/2-y,z
1/2-x,1/2+y,1/2+z
1/2+x,1/2-y,1/2+z
loop_
_atom_site_type_symbol
_atom_site_label
_atom_site_fract_x
_atom_site_fract_y
_atom_site_fract_z
Si Si1 0.700204 0.490769 0.372620
Si Si2 0.480835 0.307508 0.379866
Si Si3 0.303189 0.022032 0.769512
Si Si4 0.863107 0.352117 0.443419
Si Si5 0.606168 0.103538 0.553667
Si Si6 0.890425 0.096024 0.703009
Si Si7 0.392928 0.610326 0.588699
Si Si8 0.484866 0.800499 0.775328
O O1 0.583571 0.412738 0.394567
O O2 0.663628 0.638779 0.380618
O O3 0.709978 0.453794 0.315182
O O4 0.824538 0.460938 0.404561
O O5 0.504175 0.200212 0.420608
O O6 0.514726 0.272501 0.324536
O O7 0.380213 0.148412 0.754318
O O8 0.237819 0.973586 0.719933
O O9 0.396297 0.915945 0.790768
O O10 0.750000 0.250000 0.448590
O O11 0.894108 0.411849 0.495444
O O12 0.569550 0.250491 0.567048
O O13 0.750426 0.069275 0.571589
O O14 0.500000 0.000000 0.573572
O O15 0.884563 0.130933 0.646508
O O16 0.913040 0.222604 0.733549
O O17 0.000000 0.000000 0.716415
O O18 0.500000 0.500000 0.575697
#
# Coordination Sequence:
#
# PCOD8176539 Si02
#       8
#     8   8   8   8   8   8   8   8
#     4  10  20  34  57  88 126 173 218 260 320 401
#     4  10  20  34  57  88 126 173 218 260 320 401
#     4  11  23  36  56  90 132 171 213 265 323 394
#     4  10  20  39  61  94 129 177 222 275 345 405
#     4  11  25  46  75 105 138 177 235 308 361 416
#     4  11  24  42  66  91 123 173 222 271 335 403
#     4  10  25  49  74 101 139 180 237 303 358 426
#     4  11  23  36  56  90 132 171 213 265 323 394
#
# _framework density 21.160951000000001
#
# number of rings (size 3 to 8) (size 9 to 14) (size 15 to 20)
#    0.000    1.500    3.750    1.125    3.500    5.000 
#    0.000    2.500    0.000    0.000    0.000    0.000 
#    0.000    0.000    0.000    0.000    0.000    0.000 
#
# Total GULP energy -396474.466527 kJ/mol
# GULP energy per Si atom -12389.827079 kJ/mol
# Density = 2.111279 g / cm^3
# Si number density = 21.160951 Si / 1000 Ang^3
#
#
#
# Elastic Constant Matrix: (Units=GPa)
#
#
# Indices 1 2 3 4 5 6 
#
# 1 70.7439 34.9513 4.7505 0.0000 0.0000 0.0000
# 2 34.9513 76.7990 10.3762 0.0000 0.0000 0.0000
# 3 4.7505 10.3762 88.9824 0.0000 0.0000 0.0000
# 4 0.0000 0.0000 0.0000 25.0036 0.0000 0.0000
# 5 0.0000 0.0000 0.0000 0.0000 18.5683 0.0000
# 6 0.0000 0.0000 0.0000 0.0000 0.0000 41.6360
#
#
#
# Elastic Compliance Matrix: (Units=1/GPa)
#
#
# Indices 1 2 3 4 5 6 
#
# 1 0.018236 -0.008298 -0.000006 0.000000 0.000000 0.000000
# 2 -0.008298 0.017006 -0.001540 0.000000 0.000000 0.000000
# 3 -0.000006 -0.001540 0.011418 0.000000 0.000000 0.000000
# 4 0.000000 0.000000 0.000000 0.039994 0.000000 0.000000
# 5 0.000000 0.000000 0.000000 0.000000 0.053855 0.000000
# 6 0.000000 0.000000 0.000000 0.000000 0.000000 0.024018
#
#
# Mechanical properties :
#
#
# Convention : Reuss Voigt Hill
#
# Bulk Modulus (GPa) = 37.07681 37.40905 37.24293
# Shear Modulus (GPa) = 25.87923 29.47142 27.67532
#
# Velocity S-wave (km/s) = 3.50089 3.73597 3.62034
# Velocity P-wave (km/s) = 5.82246 6.02716 5.92570
#
# Compressibility (1/GPa) = 0.02697103
#
# Stress axis : x y z
#
# Youngs Moduli (GPa) = 54.83753 58.80406 87.58048
#
# Poissons Ratio (x) = 0.48797 0.00052
# Poissons Ratio (y) = 0.45506 0.13487
# Poissons Ratio (z) = 0.00032 0.09056
#
# Static dielectric constant tensor:
#      x y z
#    x 4.089630 0.000000 0.000000 
#    y 0.000000 4.128090 0.000000 
#    z 0.000000 0.000000 3.671760 
# 
# 
# High freq. dielectric constant tensor:
#      x y z
#    x 1.834310 0.000000 0.000000 
#    y 0.000000 1.835540 0.000000 
#    z 0.000000 0.000000 1.814980 
# 
# From -- ./inp_files/20498.got.cif
#   From: 2010.03.12/outbox.cif.g09.slc.cpg/sg37_11_cif.got.tgz:20498.got - 2010.04.14 02:25:27.
