data_PCOD8176637
_publ_section_title
;
Structure prediction by ZEFSAII (Michael W. Deem and Ramdas Pophale) SiO2 
 PCOD8176637
Probable space group: C C C 2
;
_chemical_formula_sum "Si O2"
_cell_formula_units_Z 64
_cell_length_a 9.204351
_cell_length_b 17.930307
_cell_length_c 18.271376
_cell_angle_alpha 90.000000
_cell_angle_beta 90.000000
_cell_angle_gamma 90.000000
_cell_volume 3015.450142
_symmetry_space_group_name_H-M "C C C 2"
_symmetry_group_IT_number 37
_symmetry_cell_setting 'orthorhombic'
loop_
_space_group_symop_operation_xyz
x,y,z
-x,-y,z
-x,y,1/2+z
x,-y,1/2+z
1/2+x,1/2+y,z
1/2-x,1/2-y,z
1/2-x,1/2+y,1/2+z
1/2+x,1/2-y,1/2+z
loop_
_atom_site_type_symbol
_atom_site_label
_atom_site_fract_x
_atom_site_fract_y
_atom_site_fract_z
Si Si1 0.500299 0.143672 0.092030
Si Si2 0.711660 0.438728 0.604463
Si Si3 0.088847 0.337713 0.429549
Si Si4 0.983984 0.187826 0.117793
Si Si5 0.405629 0.671954 0.954746
Si Si6 0.892211 0.433976 0.332503
Si Si7 0.869584 0.948182 0.940681
Si Si8 0.259672 0.411976 0.681380
O O1 0.377162 0.085336 0.114627
O O2 0.477446 0.225072 0.130142
O O3 0.646723 0.105826 0.117999
O O4 0.501361 0.148313 0.004404
O O5 0.626978 0.362304 0.619695
O O6 0.673964 0.468783 0.523534
O O7 0.675132 0.505732 0.661568
O O8 0.254962 0.370717 0.432088
O O9 0.095466 0.250236 0.413743
O O10 0.995602 0.369854 0.363440
O O11 0.881296 0.152902 0.180686
O O12 0.896072 0.182136 0.041932
O O13 0.558219 0.633567 0.933842
O O14 0.771970 0.458053 0.391390
O O15 0.811522 0.406856 0.260458
O O16 0.000000 0.500000 0.311934
O O17 0.000000 0.000000 0.912995
#
# Coordination Sequence:
#
# PCOD8176637 Si02
#       8
#     8   8   8   8   8   8   8   8
#     4  11  21  39  69 100 125 173 221 277 331 394
#     4  11  22  39  68  98 130 171 228 280 327 390
#     4  10  20  40  68  95 130 173 219 277 332 395
#     4  10  21  40  66  99 132 168 223 277 326 398
#     4   9  19  39  68  99 127 167 226 275 328 398
#     4  12  27  43  62  96 138 178 224 279 341 409
#     4  11  23  39  63  99 132 173 228 277 336 401
#     4  12  25  43  64  96 134 175 221 274 343 405
#
# _framework density 21.224029000000002
#
# number of rings (size 3 to 8) (size 9 to 14) (size 15 to 20)
#    0.000    1.250    2.500    4.500    1.750    1.500 
#    4.500    1.250    5.500    0.000    0.000    0.000 
#    0.000    0.000    0.000    0.000    0.000    0.000 
#
# Total GULP energy -396735.175195 kJ/mol
# GULP energy per Si atom -12397.974225 kJ/mol
# Density = 2.117572 g / cm^3
# Si number density = 21.224029 Si / 1000 Ang^3
#
#
#
# Elastic Constant Matrix: (Units=GPa)
#
#
# Indices 1 2 3 4 5 6 
#
# 1 66.1982 2.9067 12.7313 0.0000 0.0000 0.0000
# 2 2.9067 77.4180 20.9398 0.0000 0.0000 0.0000
# 3 12.7313 20.9398 78.9210 0.0000 0.0000 0.0000
# 4 0.0000 0.0000 0.0000 20.0944 0.0000 0.0000
# 5 0.0000 0.0000 0.0000 0.0000 36.8953 0.0000
# 6 0.0000 0.0000 0.0000 0.0000 0.0000 40.2578
#
#
#
# Elastic Compliance Matrix: (Units=1/GPa)
#
#
# Indices 1 2 3 4 5 6 
#
# 1 0.015591 0.000102 -0.002542 0.000000 0.000000 0.000000
# 2 0.000102 0.013916 -0.003709 0.000000 0.000000 0.000000
# 3 -0.002542 -0.003709 0.014065 0.000000 0.000000 0.000000
# 4 0.000000 0.000000 0.000000 0.049765 0.000000 0.000000
# 5 0.000000 0.000000 0.000000 0.000000 0.027104 0.000000
# 6 0.000000 0.000000 0.000000 0.000000 0.000000 0.024840
#
#
# Mechanical properties :
#
#
# Convention : Reuss Voigt Hill
#
# Bulk Modulus (GPa) = 31.97510 32.85476 32.41493
# Shear Modulus (GPa) = 29.76141 31.84679 30.80410
#
# Velocity S-wave (km/s) = 3.74873 3.87784 3.81383
# Velocity P-wave (km/s) = 5.81683 5.96354 5.89064
#
# Compressibility (1/GPa) = 0.03127433
#
# Stress axis : x y z
#
# Youngs Moduli (GPa) = 64.14139 71.85869 71.09828
#
# Poissons Ratio (x) = -0.00735 0.18074
# Poissons Ratio (y) = -0.00656 0.26369
# Poissons Ratio (z) = 0.16306 0.26651
#
# Static dielectric constant tensor:
#      x y z
#    x 4.052490 0.000000 0.000000 
#    y 0.000000 3.960400 0.000000 
#    z 0.000000 0.000000 3.469780 
# 
# 
# High freq. dielectric constant tensor:
#      x y z
#    x 1.850400 0.000000 0.000000 
#    y 0.000000 1.841610 0.000000 
#    z 0.000000 0.000000 1.792090 
# 
# From -- ./inp_files/16561.got.cif
#   From: 2010.03.12/outbox.cif.g09.slc.cpg/sg37_9_cif.got.tgz:16561.got - 2010.04.14 02:25:27.
