data_PCOD8176325
_publ_section_title
;
Structure prediction by ZEFSAII (Michael W. Deem and Ramdas Pophale) SiO2 
 PCOD8176325
Probable space group: C M C 21
;
_chemical_formula_sum "Si O2"
_cell_formula_units_Z 56
_cell_length_a 22.810644
_cell_length_b 14.174680
_cell_length_c 8.249341
_cell_angle_alpha 90.000000
_cell_angle_beta 90.000000
_cell_angle_gamma 90.000000
_cell_volume 2667.288952
_symmetry_space_group_name_H-M "C M C 21"
_symmetry_group_IT_number 36
_symmetry_cell_setting 'orthorhombic'
loop_
_space_group_symop_operation_xyz
x,y,z
-x,-y,1/2+z
x,-y,1/2+z
-x,y,z
1/2+x,1/2+y,z
1/2-x,1/2-y,1/2+z
1/2+x,1/2-y,1/2+z
1/2-x,1/2+y,z
loop_
_atom_site_type_symbol
_atom_site_label
_atom_site_fract_x
_atom_site_fract_y
_atom_site_fract_z
Si Si1 0.310240 0.135957 0.577570
Si Si2 0.190559 0.251848 0.584515
Si Si3 0.000000 0.939401 0.932027
Si Si4 0.117514 0.221904 0.894804
Si Si5 0.710874 0.060181 0.934480
Si Si6 0.375468 0.616552 0.390487
Si Si7 0.837746 0.948504 0.563116
Si Si8 0.000000 0.856981 0.293789
O O1 0.253178 0.202100 0.550327
O O2 0.368347 0.196968 0.530290
O O3 0.309720 0.097907 0.760446
O O4 0.313757 0.044422 0.462376
O O5 0.169104 0.228512 0.763536
O O6 0.191239 0.364772 0.570785
O O7 0.144588 0.220109 0.444099
O O8 0.943616 0.892887 0.841552
O O9 0.000000 0.905714 0.118101
O O10 0.000000 0.053786 0.918537
O O11 0.053329 0.218639 0.814298
O O12 0.116628 0.122767 0.985294
O O13 0.780054 0.055207 0.955532
O O14 0.365027 0.552896 0.551869
O O15 0.331480 0.578147 0.251487
#
# Coordination Sequence:
#
# PCOD8176325 Si02
#       8
#     8   8   4   8   8   8   8   4
#     4  12  24  41  65  97 135 175 225 281 346 406
#     4  12  23  40  64  97 134 177 220 282 341 409
#     4  12  24  42  64  97 139 184 234 270 336 404
#     4  12  25  43  65  97 140 179 228 278 340 414
#     4  12  25  40  66  96 135 175 222 281 350 417
#     4  12  24  37  61  94 140 178 223 276 334 407
#     4  12  22  37  61  96 131 179 221 274 340 412
#     4  12  26  44  68 101 139 190 230 284 336 404
#
# _framework density 20.995100000000001
#
# number of rings (size 3 to 8) (size 9 to 14) (size 15 to 20)
#    0.000    0.000    7.143    4.286    2.000    0.000 
#    0.000    0.000    0.000    4.286    0.000    0.000 
#    0.000    0.000    0.000    0.000    0.000    0.000 
#
# Total GULP energy -346999.805725 kJ/mol
# GULP energy per Si atom -12392.850204 kJ/mol
# Density = 2.094731 g / cm^3
# Si number density = 20.995100 Si / 1000 Ang^3
#
#
#
# Elastic Constant Matrix: (Units=GPa)
#
#
# Indices 1 2 3 4 5 6 
#
# 1 79.3396 49.0503 23.0599 0.0000 0.0000 0.0000
# 2 49.0503 85.5047 13.3765 0.0000 0.0000 0.0000
# 3 23.0599 13.3765 86.1067 0.0000 0.0000 0.0000
# 4 0.0000 0.0000 0.0000 37.2404 0.0000 0.0000
# 5 0.0000 0.0000 0.0000 0.0000 27.5183 0.0000
# 6 0.0000 0.0000 0.0000 0.0000 0.0000 30.2272
#
#
#
# Elastic Compliance Matrix: (Units=1/GPa)
#
#
# Indices 1 2 3 4 5 6 
#
# 1 0.020668 -0.011264 -0.003785 0.000000 0.000000 0.000000
# 2 -0.011264 0.018126 0.000201 0.000000 0.000000 0.000000
# 3 -0.003785 0.000201 0.012596 0.000000 0.000000 0.000000
# 4 0.000000 0.000000 0.000000 0.026853 0.000000 0.000000
# 5 0.000000 0.000000 0.000000 0.000000 0.036339 0.000000
# 6 0.000000 0.000000 0.000000 0.000000 0.000000 0.033083
#
#
# Mechanical properties :
#
#
# Convention : Reuss Voigt Hill
#
# Bulk Modulus (GPa) = 46.09860 46.88048 46.48954
# Shear Modulus (GPa) = 27.08671 30.02813 28.55742
#
# Velocity S-wave (km/s) = 3.59575 3.78596 3.69208
# Velocity P-wave (km/s) = 6.26448 6.44120 6.35346
#
# Compressibility (1/GPa) = 0.02169263
#
# Stress axis : x y z
#
# Youngs Moduli (GPa) = 48.38385 55.17059 79.39043
#
# Poissons Ratio (x) = 0.62145 0.30050
# Poissons Ratio (y) = 0.54500 -0.01594
# Poissons Ratio (z) = 0.18314 -0.01108
#
# Static dielectric constant tensor:
#      x y z
#    x 3.722940 0.000000 0.000000 
#    y 0.000000 4.108270 0.000000 
#    z 0.000000 0.000000 3.887220 
# 
# 
# High freq. dielectric constant tensor:
#      x y z
#    x 1.793530 0.000000 0.000000 
#    y 0.000000 1.819130 0.000000 
#    z 0.000000 0.000000 1.837050 
# 
# From -- ./inp_files/5255.got.cif
#   From: 2010.03.12/outbox.cif.g09.slc.cpg/sg36_3_cif.got.tgz:5255.got - 2010.04.14 02:13:53.
