data_PCOD8176416
_publ_section_title
;
Structure prediction by ZEFSAII (Michael W. Deem and Ramdas Pophale) SiO2 
 PCOD8176416
Probable space group: C C C 2
;
_chemical_formula_sum "Si O2"
_cell_formula_units_Z 56
_cell_length_a 9.140360
_cell_length_b 13.333800
_cell_length_c 21.352343
_cell_angle_alpha 90.000000
_cell_angle_beta 90.000000
_cell_angle_gamma 90.000000
_cell_volume 2602.332437
_symmetry_space_group_name_H-M "C C C 2"
_symmetry_group_IT_number 37
_symmetry_cell_setting 'orthorhombic'
loop_
_space_group_symop_operation_xyz
x,y,z
-x,-y,z
-x,y,1/2+z
x,-y,1/2+z
1/2+x,1/2+y,z
1/2-x,1/2-y,z
1/2-x,1/2+y,1/2+z
1/2+x,1/2-y,1/2+z
loop_
_atom_site_type_symbol
_atom_site_label
_atom_site_fract_x
_atom_site_fract_y
_atom_site_fract_z
Si Si1 0.972279 0.790647 0.263840
Si Si2 0.276988 0.381731 0.566967
Si Si3 0.000000 0.500000 0.835518
Si Si4 0.795625 0.596496 0.238772
Si Si5 0.012554 0.272755 0.524173
Si Si6 0.141187 0.565405 0.597867
Si Si7 0.587688 0.786722 0.886320
Si Si8 0.250000 0.750000 0.180850
O O1 0.877765 0.700636 0.238104
O O2 0.878385 0.891727 0.252512
O O3 0.990311 0.776885 0.338169
O O4 0.122112 0.789511 0.225553
O O5 0.158740 0.340018 0.516735
O O6 0.438456 0.334969 0.554380
O O7 0.275405 0.503299 0.564375
O O8 0.211440 0.343187 0.634782
O O9 0.138352 0.522736 0.790988
O O10 0.054275 0.405969 0.877545
O O11 0.818244 0.556725 0.169721
O O12 0.885821 0.324343 0.568002
O O13 0.948398 0.253061 0.456177
O O14 0.000000 0.500000 0.583038
O O15 0.750000 0.750000 0.871283
#
# Coordination Sequence:
#
# PCOD8176416 Si02
#       8
#     8   8   4   8   8   8   8   4
#     4  10  21  37  64  94 129 173 215 266 338 396
#     4   9  20  35  66  90 122 169 206 275 328 391
#     4  10  24  40  68  96 128 168 224 270 336 402
#     4  10  20  37  63 101 126 167 218 274 330 407
#     4   9  20  38  60  90 122 175 217 254 331 390
#     4  10  18  35  63  92 128 159 208 267 330 393
#     4  11  24  44  66  89 130 179 219 273 328 391
#     4  10  18  38  60  86 130 164 206 260 344 394
#
# _framework density 21.519155999999999
#
# number of rings (size 3 to 8) (size 9 to 14) (size 15 to 20)
#    0.000    2.286    1.429    2.571    5.000    4.571 
#    7.714    2.857    0.000    0.000    0.000    0.000 
#    0.000    0.000    0.000    0.000    0.000    0.000 
#
# Total GULP energy -346865.896196 kJ/mol
# GULP energy per Si atom -12388.067721 kJ/mol
# Density = 2.147018 g / cm^3
# Si number density = 21.519156 Si / 1000 Ang^3
#
#
#
# Elastic Constant Matrix: (Units=GPa)
#
#
# Indices 1 2 3 4 5 6 
#
# 1 92.9667 52.1911 28.4159 0.0000 0.0000 0.0000
# 2 52.1911 77.3677 34.0976 0.0000 0.0000 0.0000
# 3 28.4159 34.0976 90.6121 0.0000 0.0000 0.0000
# 4 0.0000 0.0000 0.0000 50.1018 0.0000 0.0000
# 5 0.0000 0.0000 0.0000 0.0000 41.5575 0.0000
# 6 0.0000 0.0000 0.0000 0.0000 0.0000 42.3119
#
#
#
# Elastic Compliance Matrix: (Units=1/GPa)
#
#
# Indices 1 2 3 4 5 6 
#
# 1 0.017430 -0.011208 -0.001249 0.000000 0.000000 0.000000
# 2 -0.011208 0.022702 -0.005028 0.000000 0.000000 0.000000
# 3 -0.001249 -0.005028 0.013320 0.000000 0.000000 0.000000
# 4 0.000000 0.000000 0.000000 0.019959 0.000000 0.000000
# 5 0.000000 0.000000 0.000000 0.000000 0.024063 0.000000
# 6 0.000000 0.000000 0.000000 0.000000 0.000000 0.023634
#
#
# Mechanical properties :
#
#
# Convention : Reuss Voigt Hill
#
# Bulk Modulus (GPa) = 54.10411 54.48398 54.29405
# Shear Modulus (GPa) = 30.81889 36.54371 33.68130
#
# Velocity S-wave (km/s) = 3.78850 4.12539 3.96052
# Velocity P-wave (km/s) = 6.65836 6.93293 6.79703
#
# Compressibility (1/GPa) = 0.01848288
#
# Stress axis : x y z
#
# Youngs Moduli (GPa) = 57.37154 44.04909 75.07701
#
# Poissons Ratio (x) = 0.49370 0.09374
# Poissons Ratio (y) = 0.64302 0.37749
# Poissons Ratio (z) = 0.07163 0.22148
#
# Static dielectric constant tensor:
#      x y z
#    x 4.288190 0.000000 0.000000 
#    y 0.000000 3.871580 0.000000 
#    z 0.000000 0.000000 3.747990 
# 
# 
# High freq. dielectric constant tensor:
#      x y z
#    x 1.837590 0.000000 0.000000 
#    y 0.000000 1.831600 0.000000 
#    z 0.000000 0.000000 1.838410 
# 
# From -- ./inp_files/16456.got.cif
#   From: 2010.03.12/outbox.cif.g09.slc.cpg/sg37_9_cif.got.tgz:16456.got - 2010.04.14 02:25:27.
