data_PCOD8176394
_publ_section_title
;
Structure prediction by ZEFSAII (Michael W. Deem and Ramdas Pophale) SiO2 
 PCOD8176394
Probable space group: C C C 2
;
_chemical_formula_sum "Si O2"
_cell_formula_units_Z 48
_cell_length_a 6.524435
_cell_length_b 30.321821
_cell_length_c 9.045749
_cell_angle_alpha 90.000000
_cell_angle_beta 90.000000
_cell_angle_gamma 90.000000
_cell_volume 1789.545402
_symmetry_space_group_name_H-M "C C C 2"
_symmetry_group_IT_number 37
_symmetry_cell_setting 'orthorhombic'
loop_
_space_group_symop_operation_xyz
x,y,z
-x,-y,z
-x,y,1/2+z
x,-y,1/2+z
1/2+x,1/2+y,z
1/2-x,1/2-y,z
1/2-x,1/2+y,1/2+z
1/2+x,1/2-y,1/2+z
loop_
_atom_site_type_symbol
_atom_site_label
_atom_site_fract_x
_atom_site_fract_y
_atom_site_fract_z
Si Si1 0.105962 0.354863 0.390950
Si Si2 0.037707 0.155162 0.616523
Si Si3 0.337052 0.440169 0.672645
Si Si4 0.236546 0.511754 0.453977
Si Si5 0.234233 0.801397 0.387736
Si Si6 0.104027 0.590072 0.624530
O O1 0.276146 0.337912 0.502740
O O2 0.211384 0.377253 0.245859
O O3 0.963910 0.314557 0.338873
O O4 0.947078 0.388667 0.466937
O O5 0.014754 0.102665 0.654958
O O6 0.075492 0.185561 0.758768
O O7 0.832537 0.172892 0.537443
O O8 0.350406 0.468503 0.520368
O O9 0.372576 0.470485 0.817093
O O10 0.108664 0.422627 0.701137
O O11 0.241604 0.546830 0.591372
O O12 0.000000 0.500000 0.410605
O O13 0.250000 0.750000 0.418204
#
# Coordination Sequence:
#
# PCOD8176394 Si02
#       6
#     8   8   8   8   8   8
#     4  11  22  44  73 109 151 201 246 316 391 453
#     4  11  28  50  75 115 152 201 253 319 399 470
#     4  10  20  36  60 104 152 194 258 309 361 447
#     4  10  18  29  61 109 150 204 268 311 354 446
#     4  12  29  50  79 110 150 195 254 327 396 482
#     4  10  18  34  64 102 148 198 258 302 368 439
#
# _framework density 26.822455999999999
#
# number of rings (size 3 to 8) (size 9 to 14) (size 15 to 20)
#    0.000    1.333    5.000    1.500    9.333    0.000 
#    0.000    0.000    0.000    8.000    0.000    0.000 
#    0.000    0.000    0.000    0.000    0.000    0.000 
#
# Total GULP energy -297620.567184 kJ/mol
# GULP energy per Si atom -12400.856966 kJ/mol
# Density = 2.676141 g / cm^3
# Si number density = 26.822456 Si / 1000 Ang^3
#
#
#
# Elastic Constant Matrix: (Units=GPa)
#
#
# Indices 1 2 3 4 5 6 
#
# 1 64.6061 58.3307 28.5431 0.0000 0.0000 0.0000
# 2 58.3307 172.9397 73.9031 0.0000 0.0000 0.0000
# 3 28.5431 73.9031 163.2423 0.0000 0.0000 0.0000
# 4 0.0000 0.0000 0.0000 46.6100 0.0000 0.0000
# 5 0.0000 0.0000 0.0000 0.0000 44.4531 0.0000
# 6 0.0000 0.0000 0.0000 0.0000 0.0000 39.9871
#
#
#
# Elastic Compliance Matrix: (Units=1/GPa)
#
#
# Indices 1 2 3 4 5 6 
#
# 1 0.022305 -0.007262 -0.000613 0.000000 0.000000 0.000000
# 2 -0.007262 0.009533 -0.003046 0.000000 0.000000 0.000000
# 3 -0.000613 -0.003046 0.007612 0.000000 0.000000 0.000000
# 4 0.000000 0.000000 0.000000 0.021455 0.000000 0.000000
# 5 0.000000 0.000000 0.000000 0.000000 0.022496 0.000000
# 6 0.000000 0.000000 0.000000 0.000000 0.000000 0.025008
#
#
# Mechanical properties :
#
#
# Convention : Reuss Voigt Hill
#
# Bulk Modulus (GPa) = 56.78644 80.26022 68.52333
# Shear Modulus (GPa) = 36.73234 42.21079 39.47157
#
# Velocity S-wave (km/s) = 3.70464 3.97131 3.84029
# Velocity P-wave (km/s) = 6.28620 7.14256 6.72802
#
# Compressibility (1/GPa) = 0.01760984
#
# Stress axis : x y z
#
# Youngs Moduli (GPa) = 44.83247 104.89476 131.36987
#
# Poissons Ratio (x) = 0.76169 0.08049
# Poissons Ratio (y) = 0.32555 0.40019
# Poissons Ratio (z) = 0.02747 0.31954
#
# Static dielectric constant tensor:
#      x y z
#    x 4.967130 0.000000 0.000000 
#    y 0.000000 4.891470 0.000000 
#    z 0.000000 0.000000 4.719900 
# 
# 
# High freq. dielectric constant tensor:
#      x y z
#    x 2.102830 0.000000 0.000000 
#    y 0.000000 2.059440 0.000000 
#    z 0.000000 0.000000 2.088150 
# 
# From -- ./inp_files/2403.got.cif
#   From: 2010.03.12/outbox.cif.g09.slc.cpg/sg37_2_cif.got.tgz:2403.got - 2010.04.14 02:25:27.
