data_PCOD8176374
_publ_section_title
;
Structure prediction by ZEFSAII (Michael W. Deem and Ramdas Pophale) SiO2 
 PCOD8176374
Probable space group: C C C 2
;
_chemical_formula_sum "Si O2"
_cell_formula_units_Z 44
_cell_length_a 15.229760
_cell_length_b 13.196704
_cell_length_c 11.650268
_cell_angle_alpha 90.000000
_cell_angle_beta 90.000000
_cell_angle_gamma 90.000000
_cell_volume 2341.501558
_symmetry_space_group_name_H-M "C C C 2"
_symmetry_group_IT_number 37
_symmetry_cell_setting 'orthorhombic'
loop_
_space_group_symop_operation_xyz
x,y,z
-x,-y,z
-x,y,1/2+z
x,-y,1/2+z
1/2+x,1/2+y,z
1/2-x,1/2-y,z
1/2-x,1/2+y,1/2+z
1/2+x,1/2-y,1/2+z
loop_
_atom_site_type_symbol
_atom_site_label
_atom_site_fract_x
_atom_site_fract_y
_atom_site_fract_z
Si Si1 0.750000 0.750000 0.364270
Si Si2 0.500000 0.500000 0.330864
Si Si3 0.563915 0.818276 0.767027
Si Si4 0.500000 0.000000 0.397677
Si Si5 0.563916 0.318276 0.461513
Si Si6 0.402166 0.821255 0.012395
Si Si7 0.402166 0.678745 0.716145
O O1 0.689863 0.818257 0.446441
O O2 0.689863 0.681742 0.282100
O O3 0.560210 0.432618 0.414761
O O4 0.554935 0.571423 0.246385
O O5 0.560210 0.932617 0.813781
O O6 0.612339 0.750000 0.864270
O O7 0.617179 0.816543 0.648535
O O8 0.464837 0.773412 0.749726
O O9 0.554935 0.928577 0.482155
O O10 0.464838 0.273411 0.478815
O O11 0.617179 0.316543 0.580005
#
# Coordination Sequence:
#
# PCOD8176374 Si02
#       7
#     4   4   8   4   8   8   8
#     4  12  20  40  54  96 114 154 180 270 288 328
#     4  10  16  34  58  90 108 158 200 230 274 372
#     4   9  18  35  58  83 108 163 198 228 271 376
#     4  10  16  34  58  90 108 158 200 230 274 372
#     4   9  18  35  58  83 108 163 198 228 271 376
#     4  10  20  34  61  83 121 147 200 235 295 332
#     4  10  20  34  61  83 121 147 200 235 295 332
#
# _framework density 18.791360999999998
#
# number of rings (size 3 to 8) (size 9 to 14) (size 15 to 20)
#    0.000    2.182    5.455    1.091    0.000    0.000 
#    0.000    2.727    0.000    0.000    0.000    0.000 
#    0.000    0.000    0.000    0.000    0.000    0.000 
#
# Total GULP energy -272694.890110 kJ/mol
# GULP energy per Si atom -12395.222278 kJ/mol
# Density = 1.874859 g / cm^3
# Si number density = 18.791361 Si / 1000 Ang^3
#
#
#
# Elastic Constant Matrix: (Units=GPa)
#
#
# Indices 1 2 3 4 5 6 
#
# 1 74.7756 23.9568 47.7828 0.0000 0.0000 0.0000
# 2 23.9568 113.3152 48.1708 0.0000 0.0000 0.0000
# 3 47.7828 48.1708 194.0227 0.0000 0.0000 0.0000
# 4 0.0000 0.0000 0.0000 27.6729 0.0000 0.0000
# 5 0.0000 0.0000 0.0000 0.0000 24.1617 0.0000
# 6 0.0000 0.0000 0.0000 0.0000 0.0000 17.2477
#
#
#
# Elastic Compliance Matrix: (Units=1/GPa)
#
#
# Indices 1 2 3 4 5 6 
#
# 1 0.016243 -0.001938 -0.003519 0.000000 0.000000 0.000000
# 2 -0.001938 0.010097 -0.002030 0.000000 0.000000 0.000000
# 3 -0.003519 -0.002030 0.006525 0.000000 0.000000 0.000000
# 4 0.000000 0.000000 0.000000 0.036137 0.000000 0.000000
# 5 0.000000 0.000000 0.000000 0.000000 0.041388 0.000000
# 6 0.000000 0.000000 0.000000 0.000000 0.000000 0.057979
#
#
# Mechanical properties :
#
#
# Convention : Reuss Voigt Hill
#
# Bulk Modulus (GPa) = 55.89241 69.10382 62.49811
# Shear Modulus (GPa) = 26.41232 31.29666 28.85449
#
# Velocity S-wave (km/s) = 3.75314 4.08546 3.92282
# Velocity P-wave (km/s) = 6.97063 7.68822 7.33820
#
# Compressibility (1/GPa) = 0.01789152
#
# Stress axis : x y z
#
# Youngs Moduli (GPa) = 61.56497 99.03442 153.26623
#
# Poissons Ratio (x) = 0.19194 0.53935
# Poissons Ratio (y) = 0.11932 0.31108
# Poissons Ratio (z) = 0.21665 0.20100
#
# Static dielectric constant tensor:
#      x y z
#    x 2.925040 0.000000 0.000000 
#    y 0.000000 3.385950 0.000000 
#    z 0.000000 0.000000 3.944830 
# 
# 
# High freq. dielectric constant tensor:
#      x y z
#    x 1.666110 0.000000 0.000000 
#    y 0.000000 1.729890 0.000000 
#    z 0.000000 0.000000 1.763940 
# 
# From -- ./inp_files/7762.got.cif
#   From: 2010.03.12/outbox.cif.g09.slc.cpg/sg37_4_cif.got.tgz:7762.got - 2010.04.14 02:25:27.
