data_PCOD8176789
_publ_section_title
;
Structure prediction by ZEFSAII (Michael W. Deem and Ramdas Pophale) SiO2 
 PCOD8176789
Probable space group: C C C 2
;
_chemical_formula_sum "Si O2"
_cell_formula_units_Z 56
_cell_length_a 32.557318
_cell_length_b 5.546756
_cell_length_c 14.200367
_cell_angle_alpha 90.000000
_cell_angle_beta 90.000000
_cell_angle_gamma 90.000000
_cell_volume 2564.408761
_symmetry_space_group_name_H-M "C C C 2"
_symmetry_group_IT_number 37
_symmetry_cell_setting 'orthorhombic'
loop_
_space_group_symop_operation_xyz
x,y,z
-x,-y,z
-x,y,1/2+z
x,-y,1/2+z
1/2+x,1/2+y,z
1/2-x,1/2-y,z
1/2-x,1/2+y,1/2+z
1/2+x,1/2-y,1/2+z
loop_
_atom_site_type_symbol
_atom_site_label
_atom_site_fract_x
_atom_site_fract_y
_atom_site_fract_z
Si Si1 0.414307 0.896832 0.640990
Si Si2 0.667500 0.877973 0.375210
Si Si3 0.855663 0.021144 0.726631
Si Si4 0.088476 0.355362 0.825212
Si Si5 0.725734 0.998217 0.729195
Si Si6 0.475025 0.754733 0.481845
Si Si7 0.335108 0.855299 0.088034
O O1 0.384289 0.682378 0.662894
O O2 0.451363 0.795127 0.579301
O O3 0.433375 0.009257 0.737061
O O4 0.384211 0.087713 0.588331
O O5 0.672394 0.651737 0.304338
O O6 0.699862 0.061228 0.326200
O O7 0.680495 0.815172 0.481617
O O8 0.620150 0.965215 0.377563
O O9 0.885133 0.859264 0.787604
O O10 0.827220 0.881951 0.651733
O O11 0.055826 0.237347 0.894923
O O12 0.750000 0.250000 0.739151
O O13 0.750000 0.750000 0.708587
O O14 0.693450 0.050755 0.642276
O O15 0.500000 0.500000 0.487043
O O16 0.500000 0.000000 0.464036
#
# Coordination Sequence:
#
# PCOD8176789 Si02
#       7
#     8   8   8   8   8   8   8
#     4  10  23  44  73 101 138 192 245 291 351 435
#     4  11  23  43  75 102 139 193 249 295 359 438
#     4  10  21  42  73 104 131 182 258 303 328 428
#     4  10  23  44  73 101 138 192 245 291 351 435
#     4  12  27  48  68 108 158 186 239 311 370 428
#     4  12  30  48  70 112 152 183 234 307 366 424
#     4  11  23  43  75 102 139 193 249 295 359 438
#
# _framework density 21.837394
#
# number of rings (size 3 to 8) (size 9 to 14) (size 15 to 20)
#    0.000    1.143    5.714    0.857   10.000    1.714 
#    0.000    0.000    0.000    0.000    0.000    0.000 
#    0.000    0.000    0.000    0.000    0.000    0.000 
#
# Total GULP energy -346878.156253 kJ/mol
# GULP energy per Si atom -12388.505580 kJ/mol
# Density = 2.178769 g / cm^3
# Si number density = 21.837394 Si / 1000 Ang^3
#
#
#
# Elastic Constant Matrix: (Units=GPa)
#
#
# Indices 1 2 3 4 5 6 
#
# 1 84.5660 24.3669 33.8961 0.0000 0.0000 0.0000
# 2 24.3669 90.1482 19.8273 0.0000 0.0000 0.0000
# 3 33.8961 19.8273 154.3268 0.0000 0.0000 0.0000
# 4 0.0000 0.0000 0.0000 25.3045 0.0000 0.0000
# 5 0.0000 0.0000 0.0000 0.0000 41.1206 0.0000
# 6 0.0000 0.0000 0.0000 0.0000 0.0000 29.1121
#
#
#
# Elastic Compliance Matrix: (Units=1/GPa)
#
#
# Indices 1 2 3 4 5 6 
#
# 1 0.013784 -0.003149 -0.002623 0.000000 0.000000 0.000000
# 2 -0.003149 0.012135 -0.000867 0.000000 0.000000 0.000000
# 3 -0.002623 -0.000867 0.007167 0.000000 0.000000 0.000000
# 4 0.000000 0.000000 0.000000 0.039519 0.000000 0.000000
# 5 0.000000 0.000000 0.000000 0.000000 0.024319 0.000000
# 6 0.000000 0.000000 0.000000 0.000000 0.000000 0.034350
#
#
# Mechanical properties :
#
#
# Convention : Reuss Voigt Hill
#
# Bulk Modulus (GPa) = 50.48598 53.91350 52.19974
# Shear Modulus (GPa) = 33.07887 35.83748 34.45818
#
# Velocity S-wave (km/s) = 3.89624 4.05545 3.97664
# Velocity P-wave (km/s) = 6.58864 6.83163 6.71123
#
# Compressibility (1/GPa) = 0.01980748
#
# Stress axis : x y z
#
# Youngs Moduli (GPa) = 72.54943 82.40801 139.52283
#
# Poissons Ratio (x) = 0.25949 0.36595
# Poissons Ratio (y) = 0.22845 0.12103
# Poissons Ratio (z) = 0.19029 0.07148
#
# Static dielectric constant tensor:
#      x y z
#    x 3.963270 0.000000 0.000000 
#    y 0.000000 3.980830 0.000000 
#    z 0.000000 0.000000 3.940080 
# 
# 
# High freq. dielectric constant tensor:
#      x y z
#    x 1.851700 0.000000 0.000000 
#    y 0.000000 1.862850 0.000000 
#    z 0.000000 0.000000 1.862470 
# 
# From -- ./inp_files/13380.got.cif
#   From: 2010.03.12/outbox.cif.g09.slc.cpg/sg37_7_cif.got.tgz:13380.got - 2010.04.14 02:25:27.
