data_PCOD8176981
_publ_section_title
;
Structure prediction by ZEFSAII (Michael W. Deem and Ramdas Pophale) SiO2 
 PCOD8176981
Probable space group: C C C 2
;
_chemical_formula_sum "Si O2"
_cell_formula_units_Z 60
_cell_length_a 32.027247
_cell_length_b 8.273698
_cell_length_c 10.459814
_cell_angle_alpha 90.000000
_cell_angle_beta 90.000000
_cell_angle_gamma 90.000000
_cell_volume 2771.680941
_symmetry_space_group_name_H-M "C C C 2"
_symmetry_group_IT_number 37
_symmetry_cell_setting 'orthorhombic'
loop_
_space_group_symop_operation_xyz
x,y,z
-x,-y,z
-x,y,1/2+z
x,-y,1/2+z
1/2+x,1/2+y,z
1/2-x,1/2-y,z
1/2-x,1/2+y,1/2+z
1/2+x,1/2-y,1/2+z
loop_
_atom_site_type_symbol
_atom_site_label
_atom_site_fract_x
_atom_site_fract_y
_atom_site_fract_z
Si Si1 0.851229 0.899161 0.987940
Si Si2 0.639682 0.937424 0.122225
Si Si3 0.227711 0.576603 0.140413
Si Si4 0.428312 0.181052 0.563322
Si Si5 0.396432 0.542374 0.221326
Si Si6 0.072212 0.718701 0.783787
Si Si7 0.239069 0.932747 0.395285
Si Si8 0.500000 0.000000 0.176088
O O1 0.881065 0.928600 0.866182
O O2 0.807579 0.966162 0.936996
O O3 0.847329 0.711560 0.029570
O O4 0.861341 0.009168 0.112175
O O5 0.615949 0.870038 0.248469
O O6 0.677489 0.059119 0.164454
O O7 0.605284 0.039072 0.046639
O O8 0.250000 0.750000 0.119801
O O9 0.250212 0.481449 0.258738
O O10 0.230693 0.484327 0.007614
O O11 0.419877 0.294879 0.683999
O O12 0.427233 0.274671 0.430355
O O13 0.474575 0.114828 0.582631
O O14 0.428492 0.390624 0.210092
O O15 0.032031 0.606586 0.759993
O O16 0.250000 0.750000 0.360958
#
# Coordination Sequence:
#
# PCOD8176981 Si02
#       8
#     8   8   8   8   8   8   8   4
#     4  11  23  45  67  98 140 178 233 283 344 402
#     4  10  25  41  70  96 134 182 229 285 343 414
#     4  11  26  42  63  96 131 178 234 283 340 396
#     4  11  24  42  71  99 133 176 224 275 347 408
#     4  11  24  43  72 103 136 181 228 282 335 416
#     4  10  23  46  68 104 135 178 226 277 348 413
#     4  11  24  42  62  92 134 178 225 284 340 389
#     4  10  24  46  70 102 136 172 222 284 338 422
#
# _framework density 21.647513
#
# number of rings (size 3 to 8) (size 9 to 14) (size 15 to 20)
#    0.000    1.333    2.667    1.200   11.200    1.067 
#    4.800    1.333    0.000    0.000    0.000    0.000 
#    0.000    0.000    0.000    0.000    0.000    0.000 
#
# Total GULP energy -371694.939053 kJ/mol
# GULP energy per Si atom -12389.831302 kJ/mol
# Density = 2.159824 g / cm^3
# Si number density = 21.647513 Si / 1000 Ang^3
#
#
#
# Elastic Constant Matrix: (Units=GPa)
#
#
# Indices 1 2 3 4 5 6 
#
# 1 118.3447 35.8968 24.7686 0.0000 0.0000 0.0000
# 2 35.8968 77.4226 22.6527 0.0000 0.0000 0.0000
# 3 24.7686 22.6527 129.3175 0.0000 0.0000 0.0000
# 4 0.0000 0.0000 0.0000 22.8000 0.0000 0.0000
# 5 0.0000 0.0000 0.0000 0.0000 18.6007 0.0000
# 6 0.0000 0.0000 0.0000 0.0000 0.0000 31.6944
#
#
#
# Elastic Compliance Matrix: (Units=1/GPa)
#
#
# Indices 1 2 3 4 5 6 
#
# 1 0.009996 -0.004294 -0.001162 0.000000 0.000000 0.000000
# 2 -0.004294 0.015459 -0.001885 0.000000 0.000000 0.000000
# 3 -0.001162 -0.001885 0.008286 0.000000 0.000000 0.000000
# 4 0.000000 0.000000 0.000000 0.043860 0.000000 0.000000
# 5 0.000000 0.000000 0.000000 0.000000 0.053761 0.000000
# 6 0.000000 0.000000 0.000000 0.000000 0.000000 0.031551
#
#
# Mechanical properties :
#
#
# Convention : Reuss Voigt Hill
#
# Bulk Modulus (GPa) = 52.47644 54.63567 53.55606
# Shear Modulus (GPa) = 27.18144 30.73681 28.95912
#
# Velocity S-wave (km/s) = 3.54734 3.77221 3.66150
# Velocity P-wave (km/s) = 6.40875 6.65330 6.53217
#
# Compressibility (1/GPa) = 0.01905617
#
# Stress axis : x y z
#
# Youngs Moduli (GPa) = 100.04254 64.68777 120.68866
#
# Poissons Ratio (x) = 0.27780 0.14027
# Poissons Ratio (y) = 0.42963 0.22755
# Poissons Ratio (z) = 0.11627 0.12196
#
# Static dielectric constant tensor:
#      x y z
#    x 3.830860 0.000000 0.000000 
#    y 0.000000 3.872300 0.000000 
#    z 0.000000 0.000000 4.127710 
# 
# 
# High freq. dielectric constant tensor:
#      x y z
#    x 1.843600 0.000000 0.000000 
#    y 0.000000 1.845360 0.000000 
#    z 0.000000 0.000000 1.865100 
# 
# From -- ./inp_files/9202.got.cif
#   From: 2010.03.12/outbox.cif.g09.slc.cpg/sg37_5_cif.got.tgz:9202.got - 2010.04.14 02:25:27.
