data_PCOD8176383
_publ_section_title
;
Structure prediction by ZEFSAII (Michael W. Deem and Ramdas Pophale) SiO2 
 PCOD8176383
Probable space group: C C C 2
;
_chemical_formula_sum "Si O2"
_cell_formula_units_Z 60
_cell_length_a 11.900690
_cell_length_b 18.771716
_cell_length_c 14.413290
_cell_angle_alpha 90.000000
_cell_angle_beta 90.000000
_cell_angle_gamma 90.000000
_cell_volume 3219.876707
_symmetry_space_group_name_H-M "C C C 2"
_symmetry_group_IT_number 37
_symmetry_cell_setting 'orthorhombic'
loop_
_space_group_symop_operation_xyz
x,y,z
-x,-y,z
-x,y,1/2+z
x,-y,1/2+z
1/2+x,1/2+y,z
1/2-x,1/2-y,z
1/2-x,1/2+y,1/2+z
1/2+x,1/2-y,1/2+z
loop_
_atom_site_type_symbol
_atom_site_label
_atom_site_fract_x
_atom_site_fract_y
_atom_site_fract_z
Si Si1 0.672442 0.605416 0.996860
Si Si2 0.995090 0.896617 0.338688
Si Si3 0.666742 0.183078 0.966846
Si Si4 0.122650 0.260621 0.656088
Si Si5 0.970971 0.106765 0.129524
Si Si6 0.983483 0.261383 0.340502
Si Si7 0.181836 0.951647 0.974108
Si Si8 0.250000 0.750000 0.445587
O O1 0.605074 0.606753 0.900888
O O2 0.738902 0.529732 0.987332
O O3 0.749924 0.676142 0.005167
O O4 0.595307 0.605335 0.087716
O O5 0.025295 0.922630 0.234762
O O6 0.951874 0.814591 0.333583
O O7 0.902555 0.948444 0.385150
O O8 0.750000 0.250000 0.953580
O O9 0.565602 0.184530 0.892984
O O10 0.724780 0.107232 0.955686
O O11 0.615630 0.185236 0.070312
O O12 0.250000 0.250000 0.692415
O O13 0.077196 0.185623 0.620077
O O14 0.043350 0.291068 0.737587
O O15 0.889147 0.058191 0.068298
O O16 0.863656 0.252342 0.388165
#
# Coordination Sequence:
#
# PCOD8176383 Si02
#       8
#     8   8   8   8   8   8   8   4
#     4  10  22  34  53  80 113 146 186 232 287 341
#     4   9  18  32  55  83 115 141 176 233 288 338
#     4  11  19  35  58  82 117 149 184 232 280 340
#     4  10  17  31  56  86 110 149 194 226 275 343
#     4  10  18  33  56  84 114 147 181 234 289 337
#     4  10  19  33  57  83 111 149 192 230 273 334
#     4  11  20  34  53  84 115 147 188 230 291 343
#     4  10  20  38  54  76 110 148 188 236 276 336
#
# _framework density 18.634253000000001
#
# number of rings (size 3 to 8) (size 9 to 14) (size 15 to 20)
#    0.000    1.867    4.667    3.200    0.000    2.133 
#    0.000    4.667    1.467    0.000    0.000    7.467 
#    0.000    0.000    0.000    0.000    0.000    0.000 
#
# Total GULP energy -371744.568349 kJ/mol
# GULP energy per Si atom -12391.485612 kJ/mol
# Density = 1.859184 g / cm^3
# Si number density = 18.634253 Si / 1000 Ang^3
#
#
#
# Elastic Constant Matrix: (Units=GPa)
#
#
# Indices 1 2 3 4 5 6 
#
# 1 58.4451 42.2579 31.9087 0.0000 0.0000 0.0000
# 2 42.2579 128.1704 16.5833 0.0000 0.0000 0.0000
# 3 31.9087 16.5833 121.2945 0.0000 0.0000 0.0000
# 4 0.0000 0.0000 0.0000 -8.3750 0.0000 0.0000
# 5 0.0000 0.0000 0.0000 0.0000 19.3033 0.0000
# 6 0.0000 0.0000 0.0000 0.0000 0.0000 24.7009
#
#
#
# Elastic Compliance Matrix: (Units=1/GPa)
#
#
# Indices 1 2 3 4 5 6 
#
# 1 0.025877 -0.007789 -0.005742 0.000000 0.000000 0.000000
# 2 -0.007789 0.010287 0.000643 0.000000 0.000000 0.000000
# 3 -0.005742 0.000643 0.009667 0.000000 0.000000 0.000000
# 4 0.000000 0.000000 0.000000 -0.119403 0.000000 0.000000
# 5 0.000000 0.000000 0.000000 0.000000 0.051805 0.000000
# 6 0.000000 0.000000 0.000000 0.000000 0.000000 0.040484
#
#
# Mechanical properties :
#
#
# Convention : Reuss Voigt Hill
#
# Bulk Modulus (GPa) = 49.86618 54.37888 52.12253
# Shear Modulus (GPa) = 97.69833 21.60319 59.65076
#
# Velocity S-wave (km/s) = 7.24867 3.40858 5.66400
# Velocity P-wave (km/s) = 9.84257 6.68856 8.41466
#
# Compressibility (1/GPa) = 0.02005367
#
# Stress axis : x y z
#
# Youngs Moduli (GPa) = 38.64491 97.21123 103.44235
#
# Poissons Ratio (x) = 0.75714 0.59402
# Poissons Ratio (y) = 0.30099 -0.06646
# Poissons Ratio (z) = 0.22192 -0.06246
#
# Static dielectric constant tensor:
#      x y z
#    x 3.207870 0.000000 0.000000 
#    y 0.000000 3.600680 0.000000 
#    z 0.000000 0.000000 3.526810 
# 
# 
# High freq. dielectric constant tensor:
#      x y z
#    x 1.685290 0.000000 0.000000 
#    y 0.000000 1.717500 0.000000 
#    z 0.000000 0.000000 1.728360 
# 
# From -- ./inp_files/11739.got.cif
#   From: 2010.03.12/outbox.cif.g09.slc.cpg/sg37_6_cif.got.tgz:11739.got - 2010.04.14 02:25:27.
