data_PCOD8176112
_publ_section_title
;
Structure prediction by ZEFSAII (Michael W. Deem and Ramdas Pophale) SiO2 
 PCOD8176112
Probable space group: C M C 21
;
_chemical_formula_sum "Si O2"
_cell_formula_units_Z 48
_cell_length_a 13.270974
_cell_length_b 18.282669
_cell_length_c 9.734972
_cell_angle_alpha 90.000000
_cell_angle_beta 90.000000
_cell_angle_gamma 90.000000
_cell_volume 2361.984817
_symmetry_space_group_name_H-M "C M C 21"
_symmetry_group_IT_number 36
_symmetry_cell_setting 'orthorhombic'
loop_
_space_group_symop_operation_xyz
x,y,z
-x,-y,1/2+z
x,-y,1/2+z
-x,y,z
1/2+x,1/2+y,z
1/2-x,1/2-y,1/2+z
1/2+x,1/2-y,1/2+z
1/2-x,1/2+y,z
loop_
_atom_site_type_symbol
_atom_site_label
_atom_site_fract_x
_atom_site_fract_y
_atom_site_fract_z
Si Si1 0.885433 0.265102 0.119380
Si Si2 0.213486 0.840082 0.996854
Si Si3 0.885850 0.296475 0.419067
Si Si4 0.745530 0.975959 0.155374
Si Si5 0.617798 0.608672 0.215390
Si Si6 0.883054 0.460344 0.426600
O O1 0.837476 0.290398 0.266379
O O2 0.873700 0.176735 0.109506
O O3 0.000000 0.289731 0.103034
O O4 0.828560 0.309747 0.999113
O O5 0.152866 0.764658 0.026155
O O6 0.180085 0.874394 0.853140
O O7 0.198161 0.900113 0.116830
O O8 0.871570 0.377085 0.480725
O O9 0.000000 0.275409 0.391798
O O10 0.690787 0.973128 0.300021
O O11 0.831080 0.038203 0.146424
O O12 0.655814 0.987357 0.046133
O O13 0.500000 0.592915 0.249389
O O14 0.000000 0.477580 0.390148
#
# Coordination Sequence:
#
# PCOD8176112 Si02
#       6
#     8   8   8   8   8   8
#     4   9  18  35  60  85 116 161 205 252 310 368
#     4  11  20  36  64  90 120 157 212 259 307 377
#     4   9  19  36  59  83 113 159 204 249 308 366
#     4  12  23  40  62  96 124 167 212 255 321 380
#     4  10  23  42  62  90 130 169 208 259 319 377
#     4  11  23  41  63  92 129 163 207 262 321 380
#
# _framework density 20.321891000000001
#
# number of rings (size 3 to 8) (size 9 to 14) (size 15 to 20)
#    0.000    1.667    3.333    3.000    0.000    2.000 
#    0.000    0.000    0.000    8.000    0.000    0.000 
#    0.000    0.000    0.000    0.000    0.000    0.000 
#
# Total GULP energy -297409.078331 kJ/mol
# GULP energy per Si atom -12392.044930 kJ/mol
# Density = 2.027564 g / cm^3
# Si number density = 20.321891 Si / 1000 Ang^3
#
#
#
# Elastic Constant Matrix: (Units=GPa)
#
#
# Indices 1 2 3 4 5 6 
#
# 1 101.2652 52.0178 36.5683 0.0000 0.0000 0.0000
# 2 52.0178 95.4990 26.0136 0.0000 0.0000 0.0000
# 3 36.5683 26.0136 49.9118 0.0000 0.0000 0.0000
# 4 0.0000 0.0000 0.0000 28.4066 0.0000 0.0000
# 5 0.0000 0.0000 0.0000 0.0000 31.5863 0.0000
# 6 0.0000 0.0000 0.0000 0.0000 0.0000 32.4882
#
#
#
# Elastic Compliance Matrix: (Units=1/GPa)
#
#
# Indices 1 2 3 4 5 6 
#
# 1 0.016336 -0.006571 -0.008544 0.000000 0.000000 0.000000
# 2 -0.006571 0.014847 -0.002924 0.000000 0.000000 0.000000
# 3 -0.008544 -0.002924 0.027819 0.000000 0.000000 0.000000
# 4 0.000000 0.000000 0.000000 0.035203 0.000000 0.000000
# 5 0.000000 0.000000 0.000000 0.000000 0.031659 0.000000
# 6 0.000000 0.000000 0.000000 0.000000 0.000000 0.030780
#
#
# Mechanical properties :
#
#
# Convention : Reuss Voigt Hill
#
# Bulk Modulus (GPa) = 43.62151 52.87505 48.24828
# Shear Modulus (GPa) = 24.95477 27.30131 26.12804
#
# Velocity S-wave (km/s) = 3.50805 3.66928 3.58957
# Velocity P-wave (km/s) = 6.15796 6.63526 6.40106
#
# Compressibility (1/GPa) = 0.02292447
#
# Stress axis : x y z
#
# Youngs Moduli (GPa) = 61.21629 67.35484 35.94658
#
# Poissons Ratio (x) = 0.44256 0.30712
# Poissons Ratio (y) = 0.40222 0.10511
# Poissons Ratio (z) = 0.52302 0.19695
#
# Static dielectric constant tensor:
#      x y z
#    x 3.730860 0.000000 0.000000 
#    y 0.000000 4.048340 0.000000 
#    z 0.000000 0.000000 3.446240 
# 
# 
# High freq. dielectric constant tensor:
#      x y z
#    x 1.791210 0.000000 0.000000 
#    y 0.000000 1.816080 0.000000 
#    z 0.000000 0.000000 1.758530 
# 
# From -- ./inp_files/4009.got.cif
#   From: 2010.03.12/outbox.cif.g09.slc.cpg/sg36_3_cif.got.tgz:4009.got - 2010.04.14 02:13:53.
