data_PCOD8176645
_publ_section_title
;
Structure prediction by ZEFSAII (Michael W. Deem and Ramdas Pophale) SiO2 
 PCOD8176645
Probable space group: C C C 2
;
_chemical_formula_sum "Si O2"
_cell_formula_units_Z 60
_cell_length_a 30.645988
_cell_length_b 10.480959
_cell_length_c 8.700528
_cell_angle_alpha 90.000000
_cell_angle_beta 90.000000
_cell_angle_gamma 90.000000
_cell_volume 2794.603884
_symmetry_space_group_name_H-M "C C C 2"
_symmetry_group_IT_number 37
_symmetry_cell_setting 'orthorhombic'
loop_
_space_group_symop_operation_xyz
x,y,z
-x,-y,z
-x,y,1/2+z
x,-y,1/2+z
1/2+x,1/2+y,z
1/2-x,1/2-y,z
1/2-x,1/2+y,1/2+z
1/2+x,1/2-y,1/2+z
loop_
_atom_site_type_symbol
_atom_site_label
_atom_site_fract_x
_atom_site_fract_y
_atom_site_fract_z
Si Si1 0.457036 0.569822 0.594060
Si Si2 0.178666 0.805646 0.026112
Si Si3 0.956281 0.665383 0.934392
Si Si4 0.500000 0.000000 0.181660
Si Si5 0.213316 0.661712 0.447959
Si Si6 0.397857 0.440697 0.369197
Si Si7 0.766060 0.585590 0.600089
Si Si8 0.869022 0.228484 0.331239
O O1 0.500000 0.500000 0.661273
O O2 0.470043 0.690651 0.486736
O O3 0.431130 0.454046 0.510922
O O4 0.425167 0.620095 0.728786
O O5 0.144979 0.853215 0.895821
O O6 0.210164 0.686948 0.984882
O O7 0.213271 0.918068 0.071475
O O8 0.148218 0.750390 0.160705
O O9 0.906833 0.671850 0.875430
O O10 0.983355 0.617416 0.786165
O O11 0.962639 0.563201 0.072849
O O12 0.250000 0.750000 0.520188
O O13 0.210337 0.545590 0.564882
O O14 0.168627 0.740151 0.453377
O O15 0.226914 0.619949 0.276927
O O16 0.382601 0.583082 0.338476
#
# Coordination Sequence:
#
# PCOD8176645 Si02
#       8
#     8   8   8   4   8   8   8   8
#     4  11  25  41  66 102 129 170 227 285 345 412
#     4  10  20  41  64  92 136 172 219 271 336 396
#     4  10  25  44  70  97 132 177 233 273 351 409
#     4  10  24  50  68  94 134 190 220 284 348 416
#     4  11  21  43  63  93 135 172 217 276 328 393
#     4  11  22  40  65  94 132 176 213 277 347 396
#     4  10  22  40  66  95 128 180 217 270 332 396
#     4  10  21  41  63  97 129 171 224 281 328 402
#
# _framework density 21.469947999999999
#
# number of rings (size 3 to 8) (size 9 to 14) (size 15 to 20)
#    0.000    1.600    4.000    1.200    5.600    2.133 
#   12.000    0.000    0.000    0.000    0.000    0.000 
#    0.000    0.000    0.000    0.000    0.000    0.000 
#
# Total GULP energy -371687.598021 kJ/mol
# GULP energy per Si atom -12389.586601 kJ/mol
# Density = 2.142108 g / cm^3
# Si number density = 21.469948 Si / 1000 Ang^3
#
#
#
# Elastic Constant Matrix: (Units=GPa)
#
#
# Indices 1 2 3 4 5 6 
#
# 1 141.5084 38.6362 43.5442 0.0000 0.0000 0.0000
# 2 38.6362 84.8216 22.8102 0.0000 0.0000 0.0000
# 3 43.5442 22.8102 72.2739 0.0000 0.0000 0.0000
# 4 0.0000 0.0000 0.0000 27.1034 0.0000 0.0000
# 5 0.0000 0.0000 0.0000 0.0000 12.2146 0.0000
# 6 0.0000 0.0000 0.0000 0.0000 0.0000 41.1336
#
#
#
# Elastic Compliance Matrix: (Units=1/GPa)
#
#
# Indices 1 2 3 4 5 6 
#
# 1 0.009321 -0.002989 -0.004672 0.000000 0.000000 0.000000
# 2 -0.002989 0.013841 -0.002568 0.000000 0.000000 0.000000
# 3 -0.004672 -0.002568 0.017462 0.000000 0.000000 0.000000
# 4 0.000000 0.000000 0.000000 0.036896 0.000000 0.000000
# 5 0.000000 0.000000 0.000000 0.000000 0.081869 0.000000
# 6 0.000000 0.000000 0.000000 0.000000 0.000000 0.024311
#
#
# Mechanical properties :
#
#
# Convention : Reuss Voigt Hill
#
# Bulk Modulus (GPa) = 49.58864 56.50944 53.04904
# Shear Modulus (GPa) = 23.71026 28.99788 26.35407
#
# Velocity S-wave (km/s) = 3.32678 3.67907 3.50735
# Velocity P-wave (km/s) = 6.15658 6.66520 6.41593
#
# Compressibility (1/GPa) = 0.02016591
#
# Stress axis : x y z
#
# Youngs Moduli (GPa) = 107.29031 72.24682 57.26880
#
# Poissons Ratio (x) = 0.21595 0.26757
# Poissons Ratio (y) = 0.32070 0.14704
# Poissons Ratio (z) = 0.50127 0.18550
#
# Static dielectric constant tensor:
#      x y z
#    x 4.646750 0.000000 0.000000 
#    y 0.000000 3.982280 0.000000 
#    z 0.000000 0.000000 3.778540 
# 
# 
# High freq. dielectric constant tensor:
#      x y z
#    x 1.855430 0.000000 0.000000 
#    y 0.000000 1.832980 0.000000 
#    z 0.000000 0.000000 1.827310 
# 
# From -- ./inp_files/4796.got.cif
#   From: 2010.03.12/outbox.cif.g09.slc.cpg/sg37_3_cif.got.tgz:4796.got - 2010.04.14 02:25:27.
