data_PCOD8176410
_publ_section_title
;
Structure prediction by ZEFSAII (Michael W. Deem and Ramdas Pophale) SiO2 
 PCOD8176410
Probable space group: C C C 2
;
_chemical_formula_sum "Si O2"
_cell_formula_units_Z 56
_cell_length_a 10.621725
_cell_length_b 13.645623
_cell_length_c 18.216822
_cell_angle_alpha 90.000000
_cell_angle_beta 90.000000
_cell_angle_gamma 90.000000
_cell_volume 2640.347182
_symmetry_space_group_name_H-M "C C C 2"
_symmetry_group_IT_number 37
_symmetry_cell_setting 'orthorhombic'
loop_
_space_group_symop_operation_xyz
x,y,z
-x,-y,z
-x,y,1/2+z
x,-y,1/2+z
1/2+x,1/2+y,z
1/2-x,1/2-y,z
1/2-x,1/2+y,1/2+z
1/2+x,1/2-y,1/2+z
loop_
_atom_site_type_symbol
_atom_site_label
_atom_site_fract_x
_atom_site_fract_y
_atom_site_fract_z
Si Si1 0.729080 0.980940 0.721950
Si Si2 0.071870 0.399501 0.849894
Si Si3 0.633748 0.807062 0.259174
Si Si4 0.894523 0.364113 0.510984
Si Si5 0.250000 0.750000 0.074023
Si Si6 0.000000 0.000000 0.166218
Si Si7 0.839585 0.558363 0.561226
Si Si8 0.023063 0.789567 0.618660
O O1 0.674423 0.089594 0.725870
O O2 0.880542 0.979136 0.718677
O O3 0.685024 0.918677 0.792796
O O4 0.669252 0.932378 0.649581
O O5 0.000000 0.500000 0.869470
O O6 0.974565 0.320204 0.818885
O O7 0.124799 0.350190 0.924160
O O8 0.750000 0.750000 0.297336
O O9 0.586199 0.737872 0.194716
O O10 0.794346 0.448700 0.537256
O O11 0.891867 0.258969 0.552643
O O12 0.023393 0.416418 0.532695
O O13 0.249222 0.646868 0.028362
O O14 0.379744 0.750104 0.120440
O O15 0.026187 0.092428 0.112693
#
# Coordination Sequence:
#
# PCOD8176410 Si02
#       8
#     8   8   8   8   4   4   8   8
#     4  11  22  39  64  93 127 169 214 277 324 398
#     4  10  21  38  63  96 129 168 218 267 334 400
#     4  11  22  38  61  96 124 162 216 274 327 389
#     4  10  20  37  62  97 128 166 216 271 327 397
#     4  10  20  32  58  96 116 162 204 262 332 382
#     4  12  24  40  64 100 130 166 226 282 336 388
#     4  10  18  34  58  95 125 154 212 276 321 379
#     4  11  22  38  63  94 127 167 218 275 333 383
#
# _framework density 21.209333999999998
#
# number of rings (size 3 to 8) (size 9 to 14) (size 15 to 20)
#    0.000    1.429    5.714    1.714    4.000    0.000 
#    5.143    0.000    0.000    6.857    0.000    0.000 
#    0.000    0.000    0.000    0.000    0.000    0.000 
#
# Total GULP energy -346875.243196 kJ/mol
# GULP energy per Si atom -12388.401543 kJ/mol
# Density = 2.116106 g / cm^3
# Si number density = 21.209334 Si / 1000 Ang^3
#
#
#
# Elastic Constant Matrix: (Units=GPa)
#
#
# Indices 1 2 3 4 5 6 
#
# 1 83.6890 32.4694 29.5263 0.0000 0.0000 0.0000
# 2 32.4694 175.2928 55.2675 0.0000 0.0000 0.0000
# 3 29.5263 55.2675 128.8475 0.0000 0.0000 0.0000
# 4 0.0000 0.0000 0.0000 7.4203 0.0000 0.0000
# 5 0.0000 0.0000 0.0000 0.0000 400.1399 0.0000
# 6 0.0000 0.0000 0.0000 0.0000 0.0000 33.5244
#
#
#
# Elastic Compliance Matrix: (Units=1/GPa)
#
#
# Indices 1 2 3 4 5 6 
#
# 1 0.013453 -0.001758 -0.002329 0.000000 0.000000 0.000000
# 2 -0.001758 0.006827 -0.002525 0.000000 0.000000 0.000000
# 3 -0.002329 -0.002525 0.009378 0.000000 0.000000 0.000000
# 4 0.000000 0.000000 0.000000 0.134766 0.000000 0.000000
# 5 0.000000 0.000000 0.000000 0.000000 0.002499 0.000000
# 6 0.000000 0.000000 0.000000 0.000000 0.000000 0.029829
#
#
# Mechanical properties :
#
#
# Convention : Reuss Voigt Hill
#
# Bulk Modulus (GPa) = 60.85143 69.15062 65.00102
# Shear Modulus (GPa) = 23.20697 106.25466 64.73082
#
# Velocity S-wave (km/s) = 3.31144 7.08568 5.53048
# Velocity P-wave (km/s) = 6.58589 9.98084 8.45550
#
# Compressibility (1/GPa) = 0.01643347
#
# Stress axis : x y z
#
# Youngs Moduli (GPa) = 74.33539 146.48775 106.63227
#
# Poissons Ratio (x) = 0.25746 0.24833
# Poissons Ratio (y) = 0.13065 0.26929
# Poissons Ratio (z) = 0.17312 0.36994
#
# Static dielectric constant tensor:
#      x y z
#    x 0.674320 0.000000 0.000000 
#    y 0.000000 4.516760 0.000000 
#    z 0.000000 0.000000 3.525510 
# 
# 
# High freq. dielectric constant tensor:
#      x y z
#    x 1.820450 0.000000 0.000000 
#    y 0.000000 1.854950 0.000000 
#    z 0.000000 0.000000 1.788880 
# 
# From -- ./inp_files/11634.got.cif
#   From: 2010.03.12/outbox.cif.g09.slc.cpg/sg37_6_cif.got.tgz:11634.got - 2010.04.14 02:25:27.
