data_PCOD8176440
_publ_section_title
;
Structure prediction by ZEFSAII (Michael W. Deem and Ramdas Pophale) SiO2 
 PCOD8176440
Probable space group: C C C 2
;
_chemical_formula_sum "Si O2"
_cell_formula_units_Z 48
_cell_length_a 5.838837
_cell_length_b 21.399934
_cell_length_c 18.950427
_cell_angle_alpha 90.000000
_cell_angle_beta 90.000000
_cell_angle_gamma 90.000000
_cell_volume 2367.869620
_symmetry_space_group_name_H-M "C C C 2"
_symmetry_group_IT_number 37
_symmetry_cell_setting 'orthorhombic'
loop_
_space_group_symop_operation_xyz
x,y,z
-x,-y,z
-x,y,1/2+z
x,-y,1/2+z
1/2+x,1/2+y,z
1/2-x,1/2-y,z
1/2-x,1/2+y,1/2+z
1/2+x,1/2-y,1/2+z
loop_
_atom_site_type_symbol
_atom_site_label
_atom_site_fract_x
_atom_site_fract_y
_atom_site_fract_z
Si Si1 0.500000 0.500000 0.086990
Si Si2 0.377261 0.065164 0.797386
Si Si3 0.627831 0.683790 0.531175
Si Si4 0.837842 0.406098 0.143481
Si Si5 0.223812 0.607209 0.540822
Si Si6 0.652766 0.902339 0.426011
Si Si7 0.500000 0.500000 0.380319
O O1 0.713907 0.473702 0.133081
O O2 0.573839 0.556641 0.036315
O O3 0.341394 0.106423 0.727195
O O4 0.541645 0.106287 0.848674
O O5 0.130578 0.051512 0.832429
O O6 0.500000 0.000000 0.778270
O O7 0.750000 0.750000 0.538550
O O8 0.702862 0.647130 0.601342
O O9 0.347627 0.676048 0.531427
O O10 0.710068 0.657410 0.455087
O O11 0.098922 0.401544 0.115894
O O12 0.054458 0.587628 0.479517
O O13 0.812424 0.963807 0.427473
#
# Coordination Sequence:
#
# PCOD8176440 Si02
#       7
#     4   8   8   8   8   8   4
#     4  10  19  31  52  86 117 145 184 236 301 369
#     4  10  20  34  54  84 122 152 184 229 299 373
#     4  10  23  41  60  78 111 155 210 258 304 348
#     4  10  21  35  57  83 116 153 194 243 301 363
#     4  10  21  35  56  84 112 149 191 245 294 355
#     4  10  22  35  56  84 117 153 194 240 301 363
#     4  10  21  35  56  88 127 161 182 236 303 387
#
# _framework density 20.271387000000001
#
# number of rings (size 3 to 8) (size 9 to 14) (size 15 to 20)
#    0.000    2.000    0.000    3.000    0.000   26.667 
#    0.000    0.000   11.000    0.000    0.000    0.000 
#    0.000    0.000    0.000    0.000    0.000    0.000 
#
# Total GULP energy -297318.432389 kJ/mol
# GULP energy per Si atom -12388.268016 kJ/mol
# Density = 2.022525 g / cm^3
# Si number density = 20.271387 Si / 1000 Ang^3
#
#
#
# Elastic Constant Matrix: (Units=GPa)
#
#
# Indices 1 2 3 4 5 6 
#
# 1 139.7300 48.4612 47.6536 0.0000 0.0000 0.0000
# 2 48.4612 88.5566 45.5968 0.0000 0.0000 0.0000
# 3 47.6536 45.5968 131.7882 0.0000 0.0000 0.0000
# 4 0.0000 0.0000 0.0000 19.8221 0.0000 0.0000
# 5 0.0000 0.0000 0.0000 0.0000 28.2698 0.0000
# 6 0.0000 0.0000 0.0000 0.0000 0.0000 30.1654
#
#
#
# Elastic Compliance Matrix: (Units=1/GPa)
#
#
# Indices 1 2 3 4 5 6 
#
# 1 0.009221 -0.004051 -0.001933 0.000000 0.000000 0.000000
# 2 -0.004051 0.015519 -0.003905 0.000000 0.000000 0.000000
# 3 -0.001933 -0.003905 0.009638 0.000000 0.000000 0.000000
# 4 0.000000 0.000000 0.000000 0.050449 0.000000 0.000000
# 5 0.000000 0.000000 0.000000 0.000000 0.035373 0.000000
# 6 0.000000 0.000000 0.000000 0.000000 0.000000 0.033151
#
#
# Mechanical properties :
#
#
# Convention : Reuss Voigt Hill
#
# Bulk Modulus (GPa) = 68.48597 71.49979 69.99288
# Shear Modulus (GPa) = 28.09085 30.20903 29.14994
#
# Velocity S-wave (km/s) = 3.72659 3.86454 3.79619
# Velocity P-wave (km/s) = 7.23702 7.43376 7.33605
#
# Compressibility (1/GPa) = 0.01460153
#
# Stress axis : x y z
#
# Youngs Moduli (GPa) = 108.45225 64.43529 103.75877
#
# Poissons Ratio (x) = 0.26101 0.20053
# Poissons Ratio (y) = 0.43932 0.40515
# Poissons Ratio (z) = 0.20960 0.25160
#
# Static dielectric constant tensor:
#      x y z
#    x 4.375740 0.000000 0.000000 
#    y 0.000000 3.358680 0.000000 
#    z 0.000000 0.000000 3.651930 
# 
# 
# High freq. dielectric constant tensor:
#      x y z
#    x 1.820320 0.000000 0.000000 
#    y 0.000000 1.738240 0.000000 
#    z 0.000000 0.000000 1.786110 
# 
# From -- ./inp_files/15787.got.cif
#   From: 2010.03.12/outbox.cif.g09.slc.cpg/sg37_8_cif.got.tgz:15787.got - 2010.04.14 02:25:27.
