data_PCOD8176996
_publ_section_title
;
Structure prediction by ZEFSAII (Michael W. Deem and Ramdas Pophale) SiO2 
 PCOD8176996
Probable space group: C C C 2
;
_chemical_formula_sum "Si O2"
_cell_formula_units_Z 60
_cell_length_a 22.947032
_cell_length_b 9.709453
_cell_length_c 11.968279
_cell_angle_alpha 90.000000
_cell_angle_beta 90.000000
_cell_angle_gamma 90.000000
_cell_volume 2666.570006
_symmetry_space_group_name_H-M "C C C 2"
_symmetry_group_IT_number 37
_symmetry_cell_setting 'orthorhombic'
loop_
_space_group_symop_operation_xyz
x,y,z
-x,-y,z
-x,y,1/2+z
x,-y,1/2+z
1/2+x,1/2+y,z
1/2-x,1/2-y,z
1/2-x,1/2+y,1/2+z
1/2+x,1/2-y,1/2+z
loop_
_atom_site_type_symbol
_atom_site_label
_atom_site_fract_x
_atom_site_fract_y
_atom_site_fract_z
Si Si1 0.255509 0.540182 0.143770
Si Si2 0.133509 0.037176 0.503174
Si Si3 0.130127 0.610687 0.186538
Si Si4 0.750000 0.250000 0.545151
Si Si5 0.050619 0.278789 0.503316
Si Si6 0.949559 0.398360 0.773321
Si Si7 0.176108 0.164955 0.842718
Si Si8 0.459629 0.624266 0.635698
O O1 0.304318 0.586378 0.054625
O O2 0.191323 0.601766 0.119567
O O3 0.271521 0.600231 0.267086
O O4 0.247978 0.376392 0.131409
O O5 0.138325 0.963573 0.383670
O O6 0.101357 0.941477 0.595405
O O7 0.099615 0.171465 0.467814
O O8 0.113608 0.467432 0.248310
O O9 0.134038 0.733929 0.275762
O O10 0.075027 0.639010 0.108934
O O11 0.803764 0.238321 0.458345
O O12 0.040103 0.387076 0.405452
O O13 0.991269 0.197145 0.530584
O O14 0.950050 0.242965 0.726573
O O15 0.000000 0.500000 0.726311
O O16 0.500000 0.500000 0.683927
#
# Coordination Sequence:
#
# PCOD8176996 Si02
#       8
#     8   8   8   4   8   8   8   8
#     4  11  24  44  71 101 146 186 240 291 359 442
#     4  10  25  43  76 103 141 186 245 295 348 439
#     4  12  26  44  69 103 146 187 228 301 363 440
#     4  10  24  42  66 104 134 198 238 290 354 428
#     4  11  26  45  70 106 134 188 241 296 362 421
#     4  12  29  44  72 106 142 188 236 306 367 432
#     4  11  23  45  70 101 144 196 230 294 372 419
#     4  10  25  51  73 103 141 186 240 301 359 434
#
# _framework density 22.500813999999998
#
# number of rings (size 3 to 8) (size 9 to 14) (size 15 to 20)
#    0.000    1.067    4.000    0.000   11.200    1.600 
#    0.000    0.000    0.000    0.000    0.000    0.000 
#    0.000    0.000    0.000    0.000    0.000    0.000 
#
# Total GULP energy -371830.775104 kJ/mol
# GULP energy per Si atom -12394.359170 kJ/mol
# Density = 2.244960 g / cm^3
# Si number density = 22.500814 Si / 1000 Ang^3
#
#
#
# Elastic Constant Matrix: (Units=GPa)
#
#
# Indices 1 2 3 4 5 6 
#
# 1 87.0009 27.1617 31.2277 0.0000 0.0000 0.0000
# 2 27.1617 119.2641 50.4206 0.0000 0.0000 0.0000
# 3 31.2277 50.4206 72.6585 0.0000 0.0000 0.0000
# 4 0.0000 0.0000 0.0000 45.2480 0.0000 0.0000
# 5 0.0000 0.0000 0.0000 0.0000 22.6356 0.0000
# 6 0.0000 0.0000 0.0000 0.0000 0.0000 28.8398
#
#
#
# Elastic Compliance Matrix: (Units=1/GPa)
#
#
# Indices 1 2 3 4 5 6 
#
# 1 0.013657 -0.000890 -0.005252 0.000000 0.000000 0.000000
# 2 -0.000890 0.011924 -0.007892 0.000000 0.000000 0.000000
# 3 -0.005252 -0.007892 0.021497 0.000000 0.000000 0.000000
# 4 0.000000 0.000000 0.000000 0.022100 0.000000 0.000000
# 5 0.000000 0.000000 0.000000 0.000000 0.044178 0.000000
# 6 0.000000 0.000000 0.000000 0.000000 0.000000 0.034674
#
#
# Mechanical properties :
#
#
# Convention : Reuss Voigt Hill
#
# Bulk Modulus (GPa) = 52.60431 55.17150 53.88791
# Shear Modulus (GPa) = 27.40695 30.68558 29.04627
#
# Velocity S-wave (km/s) = 3.49383 3.69691 3.59681
# Velocity P-wave (km/s) = 6.30122 6.54186 6.42267
#
# Compressibility (1/GPa) = 0.01900985
#
# Stress axis : x y z
#
# Youngs Moduli (GPa) = 73.22179 83.86534 46.51844
#
# Poissons Ratio (x) = 0.07463 0.24432
# Poissons Ratio (y) = 0.06516 0.36712
# Poissons Ratio (z) = 0.38457 0.66186
#
# Static dielectric constant tensor:
#      x y z
#    x 4.068820 0.000000 0.000000 
#    y 0.000000 4.316400 0.000000 
#    z 0.000000 0.000000 3.881360 
# 
# 
# High freq. dielectric constant tensor:
#      x y z
#    x 1.889990 0.000000 0.000000 
#    y 0.000000 1.902510 0.000000 
#    z 0.000000 0.000000 1.868480 
# 
# From -- ./inp_files/9088.got.cif
#   From: 2010.03.12/outbox.cif.g09.slc.cpg/sg37_5_cif.got.tgz:9088.got - 2010.04.14 02:25:27.
