data_PCOD8176296
_publ_section_title
;
Structure prediction by ZEFSAII (Michael W. Deem and Ramdas Pophale) SiO2 
 PCOD8176296
Probable space group: C M C 21
;
_chemical_formula_sum "Si O2"
_cell_formula_units_Z 48
_cell_length_a 8.286546
_cell_length_b 30.337534
_cell_length_c 8.719405
_cell_angle_alpha 90.000000
_cell_angle_beta 90.000000
_cell_angle_gamma 90.000000
_cell_volume 2192.000616
_symmetry_space_group_name_H-M "C M C 21"
_symmetry_group_IT_number 36
_symmetry_cell_setting 'orthorhombic'
loop_
_space_group_symop_operation_xyz
x,y,z
-x,-y,1/2+z
x,-y,1/2+z
-x,y,z
1/2+x,1/2+y,z
1/2-x,1/2-y,1/2+z
1/2+x,1/2-y,1/2+z
1/2-x,1/2+y,z
loop_
_atom_site_type_symbol
_atom_site_label
_atom_site_fract_x
_atom_site_fract_y
_atom_site_fract_z
Si Si1 0.315578 0.788860 0.354890
Si Si2 0.185839 0.129377 0.017592
Si Si3 0.685481 0.701202 0.524576
Si Si4 0.813475 0.035688 0.517536
Si Si5 0.187014 0.618515 0.350356
Si Si6 0.313260 0.047054 0.850204
O O1 0.500000 0.799862 0.396517
O O2 0.201629 0.822019 0.447567
O O3 0.269167 0.739310 0.403734
O O4 0.294216 0.793215 0.173741
O O5 0.290432 0.125416 0.170391
O O6 0.000000 0.119925 0.056444
O O7 0.252439 0.095673 0.891299
O O8 0.500000 0.703998 0.575465
O O9 0.715666 0.654531 0.445985
O O10 0.753898 0.070542 0.392059
O O11 0.708595 0.040360 0.669902
O O12 0.000000 0.043088 0.558125
O O13 0.790894 0.987455 0.447043
O O14 0.000000 0.622195 0.392617
O O15 0.500000 0.041187 0.892636
#
# Coordination Sequence:
#
# PCOD8176296 Si02
#       6
#     8   8   8   8   8   8
#     4  11  24  42  65  94 128 167 211 260 315 374
#     4  12  25  43  66  94 128 167 211 260 315 374
#     4  11  24  42  65  94 128 167 211 260 315 374
#     4  12  25  44  67  95 129 167 211 259 314 373
#     4  12  25  43  66  94 128 167 211 260 315 374
#     4  12  25  44  67  95 129 167 211 259 314 373
#
# _framework density 21.897804000000001
#
# number of rings (size 3 to 8) (size 9 to 14) (size 15 to 20)
#    0.000    0.333    0.000   10.000    0.000    5.333 
#    0.000    0.000    0.000    0.000    0.000    0.000 
#    0.000    0.000    0.000    0.000    0.000    0.000 
#
# Total GULP energy -297879.126650 kJ/mol
# GULP energy per Si atom -12411.630277 kJ/mol
# Density = 2.184796 g / cm^3
# Si number density = 21.897804 Si / 1000 Ang^3
#
#
#
# Elastic Constant Matrix: (Units=GPa)
#
#
# Indices 1 2 3 4 5 6 
#
# 1 92.1332 36.2316 18.4013 0.0000 0.0000 0.0000
# 2 36.2316 80.7623 10.6378 0.0000 0.0000 0.0000
# 3 18.4013 10.6378 78.3423 0.0000 0.0000 0.0000
# 4 0.0000 0.0000 0.0000 35.6353 0.0000 0.0000
# 5 0.0000 0.0000 0.0000 0.0000 37.0280 0.0000
# 6 0.0000 0.0000 0.0000 0.0000 0.0000 30.0247
#
#
#
# Elastic Compliance Matrix: (Units=1/GPa)
#
#
# Indices 1 2 3 4 5 6 
#
# 1 0.013612 -0.005789 -0.002411 0.000000 0.000000 0.000000
# 2 -0.005789 0.015069 -0.000686 0.000000 0.000000 0.000000
# 3 -0.002411 -0.000686 0.013424 0.000000 0.000000 0.000000
# 4 0.000000 0.000000 0.000000 0.028062 0.000000 0.000000
# 5 0.000000 0.000000 0.000000 0.000000 0.027007 0.000000
# 6 0.000000 0.000000 0.000000 0.000000 0.000000 0.033306
#
#
# Mechanical properties :
#
#
# Convention : Reuss Voigt Hill
#
# Bulk Modulus (GPa) = 41.09780 42.41992 41.75886
# Shear Modulus (GPa) = 31.97664 32.93540 32.45602
#
# Velocity S-wave (km/s) = 3.82549 3.88242 3.85406
# Velocity P-wave (km/s) = 6.19042 6.28581 6.23829
#
# Compressibility (1/GPa) = 0.02433220
#
# Stress axis : x y z
#
# Youngs Moduli (GPa) = 73.46482 66.35924 74.49311
#
# Poissons Ratio (x) = 0.38415 0.17961
# Poissons Ratio (y) = 0.42529 0.05114
# Poissons Ratio (z) = 0.17714 0.04556
#
# Static dielectric constant tensor:
#      x y z
#    x 3.988850 0.000000 0.000000 
#    y 0.000000 4.124680 0.000000 
#    z 0.000000 0.000000 3.947810 
# 
# 
# High freq. dielectric constant tensor:
#      x y z
#    x 1.873710 0.000000 0.000000 
#    y 0.000000 1.875630 0.000000 
#    z 0.000000 0.000000 1.869900 
# 
# From -- ./inp_files/2723.got.cif
#   From: 2010.03.12/outbox.cif.g09.slc.cpg/sg36_2_cif.got.tgz:2723.got - 2010.04.14 02:13:53.
