data_PCOD8176855
_publ_section_title
;
Structure prediction by ZEFSAII (Michael W. Deem and Ramdas Pophale) SiO2 
 PCOD8176855
Probable space group: C C C 2
;
_chemical_formula_sum "Si O2"
_cell_formula_units_Z 60
_cell_length_a 18.964971
_cell_length_b 12.372074
_cell_length_c 12.852666
_cell_angle_alpha 90.000000
_cell_angle_beta 90.000000
_cell_angle_gamma 90.000000
_cell_volume 3015.698456
_symmetry_space_group_name_H-M "C C C 2"
_symmetry_group_IT_number 37
_symmetry_cell_setting 'orthorhombic'
loop_
_space_group_symop_operation_xyz
x,y,z
-x,-y,z
-x,y,1/2+z
x,-y,1/2+z
1/2+x,1/2+y,z
1/2-x,1/2-y,z
1/2-x,1/2+y,1/2+z
1/2+x,1/2-y,1/2+z
loop_
_atom_site_type_symbol
_atom_site_label
_atom_site_fract_x
_atom_site_fract_y
_atom_site_fract_z
Si Si1 0.091442 0.141379 0.467390
Si Si2 0.953615 0.802971 0.246852
Si Si3 0.791878 0.142220 0.264674
Si Si4 0.689887 0.958421 0.609242
Si Si5 0.688905 0.177613 0.705786
Si Si6 0.739377 0.439993 0.897295
Si Si7 0.590002 0.226275 0.164489
Si Si8 0.500000 0.500000 0.104613
O O1 0.042439 0.162562 0.367141
O O2 0.172338 0.127703 0.434402
O O3 0.084817 0.243820 0.543089
O O4 0.063355 0.038186 0.530502
O O5 0.878084 0.752025 0.224881
O O6 0.966572 0.906789 0.175080
O O7 0.013951 0.714881 0.219455
O O8 0.750000 0.250000 0.296512
O O9 0.761680 0.080279 0.164116
O O10 0.869982 0.179757 0.230936
O O11 0.789221 0.057791 0.360293
O O12 0.701792 0.947953 0.486732
O O13 0.628009 0.888874 0.662971
O O14 0.669127 0.082344 0.627300
O O15 0.750000 0.250000 0.653653
O O16 0.719683 0.126131 0.810454
#
# Coordination Sequence:
#
# PCOD8176855 Si02
#       8
#     8   8   8   8   8   8   8   4
#     4  11  22  37  64  94 123 170 211 255 317 383
#     4  11  24  41  62  90 131 165 208 268 317 374
#     4   9  20  38  58  91 126 159 206 255 310 365
#     4  10  22  40  64  91 121 164 215 257 317 381
#     4  11  24  40  61  94 126 159 210 266 322 370
#     4  11  22  36  68  94 122 166 210 261 312 383
#     4  10  22  41  64  89 126 172 213 257 312 385
#     4  10  26  38  58  96 130 166 208 256 326 384
#
# _framework density 19.895887999999999
#
# number of rings (size 3 to 8) (size 9 to 14) (size 15 to 20)
#    0.000    1.600    2.667    1.200    7.467    1.067 
#    0.000    4.000    0.000    8.000    0.000    0.000 
#    0.000    0.000    0.000    0.000    0.000    0.000 
#
# Total GULP energy -371956.782892 kJ/mol
# GULP energy per Si atom -12398.559430 kJ/mol
# Density = 1.985060 g / cm^3
# Si number density = 19.895888 Si / 1000 Ang^3
#
#
#
# Elastic Constant Matrix: (Units=GPa)
#
#
# Indices 1 2 3 4 5 6 
#
# 1 117.1447 40.8222 44.5741 0.0000 0.0000 0.0000
# 2 40.8222 105.9175 31.1755 0.0000 0.0000 0.0000
# 3 44.5741 31.1755 89.4306 0.0000 0.0000 0.0000
# 4 0.0000 0.0000 0.0000 16.4863 0.0000 0.0000
# 5 0.0000 0.0000 0.0000 0.0000 31.8534 0.0000
# 6 0.0000 0.0000 0.0000 0.0000 0.0000 30.2363
#
#
#
# Elastic Compliance Matrix: (Units=1/GPa)
#
#
# Indices 1 2 3 4 5 6 
#
# 1 0.011338 -0.003016 -0.004600 0.000000 0.000000 0.000000
# 2 -0.003016 0.011323 -0.002444 0.000000 0.000000 0.000000
# 3 -0.004600 -0.002444 0.014326 0.000000 0.000000 0.000000
# 4 0.000000 0.000000 0.000000 0.060657 0.000000 0.000000
# 5 0.000000 0.000000 0.000000 0.000000 0.031394 0.000000
# 6 0.000000 0.000000 0.000000 0.000000 0.000000 0.033073
#
#
# Mechanical properties :
#
#
# Convention : Reuss Voigt Hill
#
# Bulk Modulus (GPa) = 59.28363 60.62627 59.95495
# Shear Modulus (GPa) = 26.61673 28.77657 27.69665
#
# Velocity S-wave (km/s) = 3.66156 3.80723 3.73511
# Velocity P-wave (km/s) = 6.90925 7.06148 6.98578
#
# Compressibility (1/GPa) = 0.01686806
#
# Stress axis : x y z
#
# Youngs Moduli (GPa) = 88.20236 88.31548 69.80134
#
# Poissons Ratio (x) = 0.26635 0.32106
# Poissons Ratio (y) = 0.26601 0.17060
# Poissons Ratio (z) = 0.40569 0.21585
#
# Static dielectric constant tensor:
#      x y z
#    x 3.636420 0.000000 0.000000 
#    y 0.000000 3.731310 0.000000 
#    z 0.000000 0.000000 3.702960 
# 
# 
# High freq. dielectric constant tensor:
#      x y z
#    x 1.772560 0.000000 0.000000 
#    y 0.000000 1.776560 0.000000 
#    z 0.000000 0.000000 1.776680 
# 
# From -- ./inp_files/8646.got.cif
#   From: 2010.03.12/outbox.cif.g09.slc.cpg/sg37_5_cif.got.tgz:8646.got - 2010.04.14 02:25:27.
