data_PCOD8176069
_publ_section_title
;
Structure prediction by ZEFSAII (Michael W. Deem and Ramdas Pophale) SiO2 
 PCOD8176069
Probable space group: C M C 21
;
_chemical_formula_sum "Si O2"
_cell_formula_units_Z 64
_cell_length_a 18.109826
_cell_length_b 11.409101
_cell_length_c 14.756652
_cell_angle_alpha 90.000000
_cell_angle_beta 90.000000
_cell_angle_gamma 90.000000
_cell_volume 3048.972716
_symmetry_space_group_name_H-M "C M C 21"
_symmetry_group_IT_number 36
_symmetry_cell_setting 'orthorhombic'
loop_
_space_group_symop_operation_xyz
x,y,z
-x,-y,1/2+z
x,-y,1/2+z
-x,y,z
1/2+x,1/2+y,z
1/2-x,1/2-y,1/2+z
1/2+x,1/2-y,1/2+z
1/2-x,1/2+y,z
loop_
_atom_site_type_symbol
_atom_site_label
_atom_site_fract_x
_atom_site_fract_y
_atom_site_fract_z
Si Si1 0.677096 0.465777 0.194490
Si Si2 0.692411 0.761253 0.591258
Si Si3 0.585495 0.989320 0.393562
Si Si4 0.835390 0.463979 0.716589
Si Si5 0.414411 0.112952 0.576515
Si Si6 0.916464 0.229070 0.434415
Si Si7 0.150930 0.858256 0.541869
Si Si8 0.414496 0.522791 0.866914
O O1 0.713100 0.348906 0.152956
O O2 0.747868 0.531818 0.235900
O O3 0.636688 0.545871 0.119711
O O4 0.617878 0.434145 0.271443
O O5 0.637026 0.710305 0.517820
O O6 0.764094 0.816161 0.542876
O O7 0.648024 0.854239 0.651883
O O8 0.500000 0.019634 0.383402
O O9 0.627306 0.056428 0.313600
O O10 0.602134 0.850681 0.383485
O O11 0.614492 0.037550 0.490124
O O12 0.868643 0.577427 0.665690
O O13 0.500000 0.086926 0.595198
O O14 0.403586 0.250032 0.558204
O O15 0.000000 0.234307 0.471893
O O16 0.906231 0.118578 0.367989
O O17 0.132617 0.916271 0.445730
O O18 0.500000 0.560653 0.875192
#
# Coordination Sequence:
#
# PCOD8176069 Si02
#       8
#     8   8   8   8   8   8   8   8
#     4  11  26  44  65 100 134 175 225 275 335 400
#     4  11  23  44  68  93 133 175 221 278 333 395
#     4  10  23  40  64  98 131 170 217 271 331 393
#     4  11  24  40  65  96 129 171 217 267 333 400
#     4  11  23  42  65  93 132 171 217 272 329 396
#     4  10  22  42  68  95 129 176 223 270 332 397
#     4  11  25  45  68  96 135 176 229 275 338 401
#     4  11  26  45  69 101 133 178 227 276 339 402
#
# _framework density 20.990677000000002
#
# number of rings (size 3 to 8) (size 9 to 14) (size 15 to 20)
#    0.000    1.250    3.750    0.750    5.250    3.000 
#    0.000    0.000    0.000    0.000    0.000    0.000 
#    0.000    0.000    0.000    0.000    0.000    0.000 
#
# Total GULP energy -396937.698337 kJ/mol
# GULP energy per Si atom -12404.303073 kJ/mol
# Density = 2.094290 g / cm^3
# Si number density = 20.990677 Si / 1000 Ang^3
#
#
#
# Elastic Constant Matrix: (Units=GPa)
#
#
# Indices 1 2 3 4 5 6 
#
# 1 87.5146 24.1742 54.9808 0.0000 0.0000 0.0000
# 2 24.1742 86.9335 20.7107 0.0000 0.0000 0.0000
# 3 54.9808 20.7107 110.8322 0.0000 0.0000 0.0000
# 4 0.0000 0.0000 0.0000 26.8177 0.0000 0.0000
# 5 0.0000 0.0000 0.0000 0.0000 35.6764 0.0000
# 6 0.0000 0.0000 0.0000 0.0000 0.0000 33.4406
#
#
#
# Elastic Compliance Matrix: (Units=1/GPa)
#
#
# Indices 1 2 3 4 5 6 
#
# 1 0.017267 -0.002890 -0.008026 0.000000 0.000000 0.000000
# 2 -0.002890 0.012523 -0.000907 0.000000 0.000000 0.000000
# 3 -0.008026 -0.000907 0.013173 0.000000 0.000000 0.000000
# 4 0.000000 0.000000 0.000000 0.037289 0.000000 0.000000
# 5 0.000000 0.000000 0.000000 0.000000 0.028030 0.000000
# 6 0.000000 0.000000 0.000000 0.000000 0.000000 0.029904
#
#
# Mechanical properties :
#
#
# Convention : Reuss Voigt Hill
#
# Bulk Modulus (GPa) = 51.76198 53.89019 52.82609
# Shear Modulus (GPa) = 29.71438 31.54790 30.63114
#
# Velocity S-wave (km/s) = 3.76653 3.88099 3.82419
# Velocity P-wave (km/s) = 6.60520 6.76845 6.68732
#
# Compressibility (1/GPa) = 0.01931920
#
# Stress axis : x y z
#
# Youngs Moduli (GPa) = 57.91405 79.85593 75.91061
#
# Poissons Ratio (x) = 0.23075 0.60924
# Poissons Ratio (y) = 0.16734 0.06882
# Poissons Ratio (z) = 0.46480 0.07240
#
# Static dielectric constant tensor:
#      x y z
#    x 3.675870 0.000000 0.000000 
#    y 0.000000 3.866170 0.000000 
#    z 0.000000 0.000000 3.634170 
# 
# 
# High freq. dielectric constant tensor:
#      x y z
#    x 1.823600 0.000000 0.000000 
#    y 0.000000 1.829840 0.000000 
#    z 0.000000 0.000000 1.815730 
# 
# From -- ./inp_files/12634.got.cif
#   From: 2010.03.12/outbox.cif.g09.slc.cpg/sg36_7_cif.got.tgz:12634.got - 2010.04.14 02:13:53.
