data_PCOD8176604
_publ_section_title
;
Structure prediction by ZEFSAII (Michael W. Deem and Ramdas Pophale) SiO2 
 PCOD8176604
Probable space group: C C C 2
;
_chemical_formula_sum "Si O2"
_cell_formula_units_Z 64
_cell_length_a 8.667580
_cell_length_b 16.167721
_cell_length_c 20.350541
_cell_angle_alpha 90.000000
_cell_angle_beta 90.000000
_cell_angle_gamma 90.000000
_cell_volume 2851.823372
_symmetry_space_group_name_H-M "C C C 2"
_symmetry_group_IT_number 37
_symmetry_cell_setting 'orthorhombic'
loop_
_space_group_symop_operation_xyz
x,y,z
-x,-y,z
-x,y,1/2+z
x,-y,1/2+z
1/2+x,1/2+y,z
1/2-x,1/2-y,z
1/2-x,1/2+y,1/2+z
1/2+x,1/2-y,1/2+z
loop_
_atom_site_type_symbol
_atom_site_label
_atom_site_fract_x
_atom_site_fract_y
_atom_site_fract_z
Si Si1 0.170570 0.999607 0.039020
Si Si2 0.583677 0.286527 0.752391
Si Si3 0.969771 0.347686 0.162879
Si Si4 0.657398 0.966831 0.762935
Si Si5 0.325198 0.668637 0.341178
Si Si6 0.307536 0.834255 0.484872
Si Si7 0.208588 0.918962 0.668681
Si Si8 0.849807 0.328456 0.022793
O O1 0.257284 0.915457 0.018103
O O2 0.146473 0.012672 0.117552
O O3 0.000000 0.000000 0.006491
O O4 0.265945 0.080057 0.018658
O O5 0.750000 0.250000 0.773275
O O6 0.475984 0.214285 0.724278
O O7 0.504348 0.327314 0.817283
O O8 0.587716 0.347863 0.688992
O O9 0.875754 0.424592 0.192153
O O10 0.888141 0.310731 0.098864
O O11 0.138189 0.376505 0.138738
O O12 0.747457 0.914075 0.815387
O O13 0.500000 0.000000 0.796544
O O14 0.761365 0.043802 0.741427
O O15 0.250000 0.750000 0.309296
O O16 0.294544 0.668510 0.418475
O O17 0.250000 0.750000 0.523042
O O18 0.494569 0.832826 0.478205
O O19 0.750000 0.250000 0.997327
#
# Coordination Sequence:
#
# PCOD8176604 Si02
#       8
#     8   8   8   8   8   8   8   8
#     4  12  26  44  68 106 151 189 240 294 361 425
#     4  10  23  40  67 106 143 185 227 294 367 428
#     4  10  20  37  67 104 142 180 226 286 367 439
#     4  10  21  38  63 101 138 177 231 279 351 424
#     4  11  24  46  72  97 134 191 242 290 345 431
#     4  11  27  50  72  99 141 196 250 301 357 429
#     4  10  22  37  64 107 146 177 224 294 360 431
#     4  12  26  43  75 108 141 193 241 301 370 436
#
# _framework density 22.441782
#
# number of rings (size 3 to 8) (size 9 to 14) (size 15 to 20)
#    0.000    1.250    3.750    1.125    7.000    1.000 
#    2.250    5.000    0.000    0.000    0.000    0.000 
#    0.000    0.000    0.000    0.000    0.000    0.000 
#
# Total GULP energy -396501.423653 kJ/mol
# GULP energy per Si atom -12390.669489 kJ/mol
# Density = 2.239070 g / cm^3
# Si number density = 22.441782 Si / 1000 Ang^3
#
#
#
# Elastic Constant Matrix: (Units=GPa)
#
#
# Indices 1 2 3 4 5 6 
#
# 1 122.1009 56.9063 31.0915 0.0000 0.0000 0.0000
# 2 56.9063 145.6510 20.7425 0.0000 0.0000 0.0000
# 3 31.0915 20.7425 57.0284 0.0000 0.0000 0.0000
# 4 0.0000 0.0000 0.0000 6.1917 0.0000 0.0000
# 5 0.0000 0.0000 0.0000 0.0000 11.6916 0.0000
# 6 0.0000 0.0000 0.0000 0.0000 0.0000 35.4260
#
#
#
# Elastic Compliance Matrix: (Units=1/GPa)
#
#
# Indices 1 2 3 4 5 6 
#
# 1 0.011099 -0.003665 -0.004718 0.000000 0.000000 0.000000
# 2 -0.003665 0.008451 -0.001076 0.000000 0.000000 0.000000
# 3 -0.004718 -0.001076 0.020499 0.000000 0.000000 0.000000
# 4 0.000000 0.000000 0.000000 0.161507 0.000000 0.000000
# 5 0.000000 0.000000 0.000000 0.000000 0.085532 0.000000
# 6 0.000000 0.000000 0.000000 0.000000 0.000000 0.028228
#
#
# Mechanical properties :
#
#
# Convention : Reuss Voigt Hill
#
# Bulk Modulus (GPa) = 47.32309 60.25122 53.78715
# Shear Modulus (GPa) = 14.65086 25.06451 19.85769
#
# Velocity S-wave (km/s) = 2.55784 3.34558 2.97788
# Velocity P-wave (km/s) = 5.46409 6.46761 5.98691
#
# Compressibility (1/GPa) = 0.02113133
#
# Stress axis : x y z
#
# Youngs Moduli (GPa) = 90.09537 118.33336 48.78320
#
# Poissons Ratio (x) = 0.43364 0.23018
# Poissons Ratio (y) = 0.33016 0.05248
# Poissons Ratio (z) = 0.42511 0.12730
#
# Static dielectric constant tensor:
#      x y z
#    x 4.051030 0.000000 0.000000 
#    y 0.000000 4.574090 0.000000 
#    z 0.000000 0.000000 3.558440 
# 
# 
# High freq. dielectric constant tensor:
#      x y z
#    x 1.886000 0.000000 0.000000 
#    y 0.000000 1.903670 0.000000 
#    z 0.000000 0.000000 1.847350 
# 
# From -- ./inp_files/18497.got.cif
#   From: 2010.03.12/outbox.cif.g09.slc.cpg/sg37_10_cif.got.tgz:18497.got - 2010.04.14 02:25:27.
