data_PCOD8176268
_publ_section_title
;
Structure prediction by ZEFSAII (Michael W. Deem and Ramdas Pophale) SiO2 
 PCOD8176268
Probable space group: C M C 21
;
_chemical_formula_sum "Si O2"
_cell_formula_units_Z 48
_cell_length_a 27.719701
_cell_length_b 8.653976
_cell_length_c 9.159205
_cell_angle_alpha 90.000000
_cell_angle_beta 90.000000
_cell_angle_gamma 90.000000
_cell_volume 2197.161636
_symmetry_space_group_name_H-M "C M C 21"
_symmetry_group_IT_number 36
_symmetry_cell_setting 'orthorhombic'
loop_
_space_group_symop_operation_xyz
x,y,z
-x,-y,1/2+z
x,-y,1/2+z
-x,y,z
1/2+x,1/2+y,z
1/2-x,1/2-y,1/2+z
1/2+x,1/2-y,1/2+z
1/2-x,1/2+y,z
loop_
_atom_site_type_symbol
_atom_site_label
_atom_site_fract_x
_atom_site_fract_y
_atom_site_fract_z
Si Si1 0.053258 0.713956 0.177840
Si Si2 0.794113 0.833252 0.618596
Si Si3 0.946611 0.540568 0.890616
Si Si4 0.845987 0.357640 0.340916
Si Si5 0.708707 0.833786 0.831385
Si Si6 0.150127 0.143120 0.608898
O O1 0.059491 0.639162 0.339858
O O2 0.092439 0.846164 0.140270
O O3 0.000000 0.789865 0.162597
O O4 0.058754 0.567751 0.065128
O O5 0.823594 0.693555 0.688815
O O6 0.752209 0.891309 0.727714
O O7 0.770983 0.761659 0.471042
O O8 0.831975 0.969251 0.585450
O O9 0.903466 0.635038 0.814991
O O10 0.000000 0.598723 0.839623
O O11 0.822665 0.521295 0.385716
O O12 0.833948 0.235038 0.465895
O O13 0.674723 0.714915 0.749410
#
# Coordination Sequence:
#
# PCOD8176268 Si02
#       6
#     8   8   8   8   8   8
#     4   9  18  35  62  93 129 166 205 252 304 364
#     4  12  27  43  65  91 125 162 208 266 322 373
#     4   9  18  34  61  94 125 161 209 256 296 358
#     4  11  23  41  65  92 125 165 211 255 305 373
#     4  12  25  44  66  89 120 166 215 258 310 377
#     4  11  23  41  63  95 130 164 206 259 317 369
#
# _framework density 21.846368999999999
#
# number of rings (size 3 to 8) (size 9 to 14) (size 15 to 20)
#    0.000    1.333    1.667    4.000    2.333    4.000 
#    0.000    2.500    0.000    4.000    0.000    0.000 
#    0.000    0.000    0.000    0.000    0.000    0.000 
#
# Total GULP energy -297467.514986 kJ/mol
# GULP energy per Si atom -12394.479791 kJ/mol
# Density = 2.179665 g / cm^3
# Si number density = 21.846369 Si / 1000 Ang^3
#
#
#
# Elastic Constant Matrix: (Units=GPa)
#
#
# Indices 1 2 3 4 5 6 
#
# 1 142.9656 41.9362 42.5417 0.0000 0.0000 0.0000
# 2 41.9362 92.9250 35.4532 0.0000 0.0000 0.0000
# 3 42.5417 35.4532 93.5411 0.0000 0.0000 0.0000
# 4 0.0000 0.0000 0.0000 32.8389 0.0000 0.0000
# 5 0.0000 0.0000 0.0000 0.0000 25.5054 0.0000
# 6 0.0000 0.0000 0.0000 0.0000 0.0000 29.2562
#
#
#
# Elastic Compliance Matrix: (Units=1/GPa)
#
#
# Indices 1 2 3 4 5 6 
#
# 1 0.008678 -0.002818 -0.002879 0.000000 0.000000 0.000000
# 2 -0.002818 0.013496 -0.003833 0.000000 0.000000 0.000000
# 3 -0.002879 -0.003833 0.013453 0.000000 0.000000 0.000000
# 4 0.000000 0.000000 0.000000 0.030452 0.000000 0.000000
# 5 0.000000 0.000000 0.000000 0.000000 0.039207 0.000000
# 6 0.000000 0.000000 0.000000 0.000000 0.000000 0.034181
#
#
# Mechanical properties :
#
#
# Convention : Reuss Voigt Hill
#
# Bulk Modulus (GPa) = 60.36421 63.25488 61.80954
# Shear Modulus (GPa) = 30.47893 31.48682 30.98287
#
# Velocity S-wave (km/s) = 3.73922 3.80054 3.77001
# Velocity P-wave (km/s) = 6.80688 6.94810 6.87785
#
# Compressibility (1/GPa) = 0.01656611
#
# Stress axis : x y z
#
# Youngs Moduli (GPa) = 115.23578 74.09794 74.33538
#
# Poissons Ratio (x) = 0.20881 0.21398
# Poissons Ratio (y) = 0.32473 0.28496
# Poissons Ratio (z) = 0.33171 0.28405
#
# Static dielectric constant tensor:
#      x y z
#    x 4.302910 0.000000 0.000000 
#    y 0.000000 3.631970 0.000000 
#    z 0.000000 0.000000 4.085970 
# 
# 
# High freq. dielectric constant tensor:
#      x y z
#    x 1.879590 0.000000 0.000000 
#    y 0.000000 1.820050 0.000000 
#    z 0.000000 0.000000 1.863640 
# 
# From -- ./inp_files/5979.got.cif
#   From: 2010.03.12/outbox.cif.g09.slc.cpg/sg36_3_cif.got.tgz:5979.got - 2010.04.14 02:13:53.
