data_PCOD8176132
_publ_section_title
;
Structure prediction by ZEFSAII (Michael W. Deem and Ramdas Pophale) SiO2 
 PCOD8176132
Probable space group: C M C 21
;
_chemical_formula_sum "Si O2"
_cell_formula_units_Z 56
_cell_length_a 32.295029
_cell_length_b 4.983711
_cell_length_c 14.100023
_cell_angle_alpha 90.000000
_cell_angle_beta 90.000000
_cell_angle_gamma 90.000000
_cell_volume 2269.385889
_symmetry_space_group_name_H-M "C M C 21"
_symmetry_group_IT_number 36
_symmetry_cell_setting 'orthorhombic'
loop_
_space_group_symop_operation_xyz
x,y,z
-x,-y,1/2+z
x,-y,1/2+z
-x,y,z
1/2+x,1/2+y,z
1/2-x,1/2-y,1/2+z
1/2+x,1/2-y,1/2+z
1/2-x,1/2+y,z
loop_
_atom_site_type_symbol
_atom_site_label
_atom_site_fract_x
_atom_site_fract_y
_atom_site_fract_z
Si Si1 0.277912 0.236111 0.417380
Si Si2 0.045796 0.985479 0.676296
Si Si3 0.722660 0.181265 0.631381
Si Si4 0.902641 0.332150 0.429293
Si Si5 0.660660 0.959806 0.281489
Si Si6 0.904178 0.471709 0.631573
Si Si7 0.453426 0.349755 0.389028
O O1 0.260790 0.535113 0.401040
O O2 0.295651 0.211796 0.524869
O O3 0.313616 0.179843 0.340967
O O4 0.056314 0.278091 0.636059
O O5 0.046167 0.002216 0.789010
O O6 0.000000 0.904227 0.640277
O O7 0.079941 0.773821 0.643004
O O8 0.760727 0.381127 0.646675
O O9 0.688295 0.229672 0.712722
O O10 0.864812 0.277335 0.356382
O O11 0.883646 0.441937 0.527751
O O12 0.933258 0.555609 0.384449
O O13 0.926576 0.054238 0.453241
O O14 0.629008 0.114082 0.211461
O O15 0.500000 0.319525 0.429377
#
# Coordination Sequence:
#
# PCOD8176132 Si02
#       7
#     8   8   8   8   8   8   8
#     4  10  23  43  68  97 126 166 218 263 314 386
#     4  11  23  45  69  94 129 176 227 277 327 388
#     4  10  23  43  68  97 126 166 218 263 314 386
#     4  12  26  42  66  99 133 174 222 271 332 392
#     4  12  24  44  65  96 136 174 208 268 329 390
#     4  12  26  42  66  99 133 174 222 271 332 392
#     4  11  23  45  69  94 129 176 227 277 327 388
#
# _framework density 24.676279999999998
#
# number of rings (size 3 to 8) (size 9 to 14) (size 15 to 20)
#    0.000    0.857    2.857    3.429    0.000   10.286 
#    0.000    5.714    0.000    0.000    0.000    0.000 
#    0.000    0.000    0.000    0.000    0.000    0.000 
#
# Total GULP energy -347256.063041 kJ/mol
# GULP energy per Si atom -12402.002251 kJ/mol
# Density = 2.462012 g / cm^3
# Si number density = 24.676280 Si / 1000 Ang^3
#
#
#
# Elastic Constant Matrix: (Units=GPa)
#
#
# Indices 1 2 3 4 5 6 
#
# 1 106.3791 13.3970 55.8832 0.0000 0.0000 0.0000
# 2 13.3970 86.1647 4.6217 0.0000 0.0000 0.0000
# 3 55.8832 4.6217 141.2004 0.0000 0.0000 0.0000
# 4 0.0000 0.0000 0.0000 27.8238 0.0000 0.0000
# 5 0.0000 0.0000 0.0000 0.0000 3.9690 0.0000
# 6 0.0000 0.0000 0.0000 0.0000 0.0000 8.1901
#
#
#
# Elastic Compliance Matrix: (Units=1/GPa)
#
#
# Indices 1 2 3 4 5 6 
#
# 1 0.012091 -0.001626 -0.004732 0.000000 0.000000 0.000000
# 2 -0.001626 0.011845 0.000256 0.000000 0.000000 0.000000
# 3 -0.004732 0.000256 0.008947 0.000000 0.000000 0.000000
# 4 0.000000 0.000000 0.000000 0.035940 0.000000 0.000000
# 5 0.000000 0.000000 0.000000 0.000000 0.251955 0.000000
# 6 0.000000 0.000000 0.000000 0.000000 0.000000 0.122099
#
#
# Mechanical properties :
#
#
# Convention : Reuss Voigt Hill
#
# Bulk Modulus (GPa) = 48.36113 53.50533 50.93323
# Shear Modulus (GPa) = 10.82314 25.31939 18.07126
#
# Velocity S-wave (km/s) = 2.09656 3.20669 2.70910
# Velocity P-wave (km/s) = 5.04990 5.95319 5.52006
#
# Compressibility (1/GPa) = 0.02067777
#
# Stress axis : x y z
#
# Youngs Moduli (GPa) = 82.70633 84.42531 111.77471
#
# Poissons Ratio (x) = 0.13728 0.52892
# Poissons Ratio (y) = 0.13449 -0.02860
# Poissons Ratio (z) = 0.39137 -0.02160
#
# Static dielectric constant tensor:
#      x y z
#    x 4.364350 0.000000 0.000000 
#    y 0.000000 4.055740 0.000000 
#    z 0.000000 0.000000 4.783930 
# 
# 
# High freq. dielectric constant tensor:
#      x y z
#    x 1.970960 0.000000 0.000000 
#    y 0.000000 1.968430 0.000000 
#    z 0.000000 0.000000 2.005950 
# 
# From -- ./inp_files/13165.got.cif
#   From: 2010.03.12/outbox.cif.g09.slc.cpg/sg36_7_cif.got.tgz:13165.got - 2010.04.14 02:13:53.
