data_PCOD8176173
_publ_section_title
;
Structure prediction by ZEFSAII (Michael W. Deem and Ramdas Pophale) SiO2 
 PCOD8176173
Probable space group: C M C 21
;
_chemical_formula_sum "Si O2"
_cell_formula_units_Z 48
_cell_length_a 22.860465
_cell_length_b 11.072166
_cell_length_c 8.583405
_cell_angle_alpha 90.000000
_cell_angle_beta 90.000000
_cell_angle_gamma 90.000000
_cell_volume 2172.587383
_symmetry_space_group_name_H-M "C M C 21"
_symmetry_group_IT_number 36
_symmetry_cell_setting 'orthorhombic'
loop_
_space_group_symop_operation_xyz
x,y,z
-x,-y,1/2+z
x,-y,1/2+z
-x,y,z
1/2+x,1/2+y,z
1/2-x,1/2-y,1/2+z
1/2+x,1/2-y,1/2+z
1/2-x,1/2+y,z
loop_
_atom_site_type_symbol
_atom_site_label
_atom_site_fract_x
_atom_site_fract_y
_atom_site_fract_z
Si Si1 0.000000 0.846150 0.686151
Si Si2 0.806863 0.352938 0.564117
Si Si3 0.500000 0.605269 0.553998
Si Si4 0.672091 0.626643 0.010875
Si Si5 0.097677 0.330691 0.083574
Si Si6 0.630388 0.017596 0.320399
Si Si7 0.370349 0.620524 0.659402
O O1 0.945776 0.771779 0.630000
O O2 0.000000 0.870385 0.869741
O O3 0.000000 0.964090 0.582606
O O4 0.741600 0.374816 0.506442
O O5 0.816620 0.412310 0.734300
O O6 0.846235 0.422701 0.442668
O O7 0.827872 0.213704 0.567714
O O8 0.439016 0.655958 0.628294
O O9 0.642428 0.625691 0.841902
O O10 0.658848 0.756649 0.092120
O O11 0.644898 0.514119 0.103768
O O12 0.091583 0.443272 0.199175
O O13 0.089616 0.384153 0.908591
#
# Coordination Sequence:
#
# PCOD8176173 Si02
#       7
#     4   8   4   8   8   8   8
#     4  12  26  46  74 107 149 195 247 315 357 456
#     4  11  25  44  71 103 146 189 248 301 375 441
#     4  12  26  48  74 111 153 193 253 307 377 442
#     4  12  27  42  70 109 145 192 247 308 375 439
#     4  11  25  45  69 102 142 189 249 298 371 433
#     4  10  24  46  67 100 140 193 235 304 361 444
#     4  12  27  46  73 111 146 202 245 312 375 440
#
# _framework density 22.093472999999999
#
# number of rings (size 3 to 8) (size 9 to 14) (size 15 to 20)
#    0.000    0.667    3.333    3.000    9.333    0.667 
#    0.000    3.333    0.000    0.000    0.000    0.000 
#    0.000    0.000    0.000    0.000    0.000    0.000 
#
# Total GULP energy -297432.139388 kJ/mol
# GULP energy per Si atom -12393.005808 kJ/mol
# Density = 2.204319 g / cm^3
# Si number density = 22.093473 Si / 1000 Ang^3
#
#
#
# Elastic Constant Matrix: (Units=GPa)
#
#
# Indices 1 2 3 4 5 6 
#
# 1 100.0199 22.8752 45.7078 0.0000 0.0000 0.0000
# 2 22.8752 125.9036 55.7720 0.0000 0.0000 0.0000
# 3 45.7078 55.7720 136.3458 0.0000 0.0000 0.0000
# 4 0.0000 0.0000 0.0000 40.1288 0.0000 0.0000
# 5 0.0000 0.0000 0.0000 0.0000 213.2359 0.0000
# 6 0.0000 0.0000 0.0000 0.0000 0.0000 41.1614
#
#
#
# Elastic Compliance Matrix: (Units=1/GPa)
#
#
# Indices 1 2 3 4 5 6 
#
# 1 0.011830 -0.000480 -0.003770 0.000000 0.000000 0.000000
# 2 -0.000480 0.009720 -0.003815 0.000000 0.000000 0.000000
# 3 -0.003770 -0.003815 0.010159 0.000000 0.000000 0.000000
# 4 0.000000 0.000000 0.000000 0.024920 0.000000 0.000000
# 5 0.000000 0.000000 0.000000 0.000000 0.004690 0.000000
# 6 0.000000 0.000000 0.000000 0.000000 0.000000 0.024295
#
#
# Mechanical properties :
#
#
# Convention : Reuss Voigt Hill
#
# Bulk Modulus (GPa) = 64.18521 67.88659 66.03590
# Shear Modulus (GPa) = 46.75745 74.76618 60.76182
#
# Velocity S-wave (km/s) = 4.60537 5.82360 5.24994
# Velocity P-wave (km/s) = 7.57588 8.71853 8.16721
#
# Compressibility (1/GPa) = 0.01557991
#
# Stress axis : x y z
#
# Youngs Moduli (GPa) = 84.52775 102.88404 98.43866
#
# Poissons Ratio (x) = 0.04934 0.37110
# Poissons Ratio (y) = 0.04053 0.37555
# Poissons Ratio (z) = 0.31865 0.39251
#
# Static dielectric constant tensor:
#      x y z
#    x 2.515020 0.000000 0.000000 
#    y 0.000000 4.497680 0.000000 
#    z 0.000000 0.000000 4.317260 
# 
# 
# High freq. dielectric constant tensor:
#      x y z
#    x 1.856400 0.000000 0.000000 
#    y 0.000000 1.894130 0.000000 
#    z 0.000000 0.000000 1.883520 
# 
# From -- ./inp_files/5568.got.cif
#   From: 2010.03.12/outbox.cif.g09.slc.cpg/sg36_3_cif.got.tgz:5568.got - 2010.04.14 02:13:53.
