data_PCOD8176995
_publ_section_title
;
Structure prediction by ZEFSAII (Michael W. Deem and Ramdas Pophale) SiO2 
 PCOD8176995
Probable space group: C C C 2
;
_chemical_formula_sum "Si O2"
_cell_formula_units_Z 56
_cell_length_a 12.804622
_cell_length_b 14.453418
_cell_length_c 13.415899
_cell_angle_alpha 90.000000
_cell_angle_beta 90.000000
_cell_angle_gamma 90.000000
_cell_volume 2482.887862
_symmetry_space_group_name_H-M "C C C 2"
_symmetry_group_IT_number 37
_symmetry_cell_setting 'orthorhombic'
loop_
_space_group_symop_operation_xyz
x,y,z
-x,-y,z
-x,y,1/2+z
x,-y,1/2+z
1/2+x,1/2+y,z
1/2-x,1/2-y,z
1/2-x,1/2+y,1/2+z
1/2+x,1/2-y,1/2+z
loop_
_atom_site_type_symbol
_atom_site_label
_atom_site_fract_x
_atom_site_fract_y
_atom_site_fract_z
Si Si1 0.963387 0.099174 0.817770
Si Si2 0.086939 0.214606 0.676141
Si Si3 0.704336 0.112335 0.140382
Si Si4 0.877543 0.486460 0.943902
Si Si5 0.031370 0.903166 0.535847
Si Si6 0.266380 0.071453 0.250090
Si Si7 0.236779 0.643268 0.538921
O O1 0.845995 0.114301 0.778500
O O2 0.046783 0.176867 0.782379
O O3 0.000000 0.000000 0.778098
O O4 0.963683 0.103319 0.936139
O O5 0.189966 0.169630 0.628212
O O6 0.109403 0.324050 0.683602
O O7 0.993111 0.187353 0.601379
O O8 0.734811 0.035486 0.220308
O O9 0.664058 0.072370 0.036748
O O10 0.842542 0.428235 0.845933
O O11 0.000000 0.500000 0.941995
O O12 0.835140 0.591690 0.957235
O O13 0.154336 0.908955 0.522163
O O14 0.000000 0.000000 0.589965
O O15 0.305678 0.130513 0.153449
O O16 0.250000 0.750000 0.510175
#
# Coordination Sequence:
#
# PCOD8176995 Si02
#       7
#     8   8   8   8   8   8   8
#     4  11  20  36  69 102 133 177 232 282 357 407
#     4  11  21  40  67 103 139 173 222 290 342 411
#     4  10  24  42  66 100 140 179 225 279 345 422
#     4  11  26  47  70  94 140 192 234 280 358 423
#     4  11  22  40  68 100 138 178 223 289 354 408
#     4  11  22  46  69  98 138 183 234 282 348 422
#     4  11  26  46  71 101 139 179 239 295 344 419
#
# _framework density 22.554380999999999
#
# number of rings (size 3 to 8) (size 9 to 14) (size 15 to 20)
#    0.000    1.143    2.857    4.714    2.000    3.429 
#    5.143    0.000    0.000    0.000    0.000    0.000 
#    0.000    0.000    0.000    0.000    0.000    0.000 
#
# Total GULP energy -347026.811930 kJ/mol
# GULP energy per Si atom -12393.814712 kJ/mol
# Density = 2.250305 g / cm^3
# Si number density = 22.554381 Si / 1000 Ang^3
#
#
#
# Elastic Constant Matrix: (Units=GPa)
#
#
# Indices 1 2 3 4 5 6 
#
# 1 116.5286 19.7593 9.9597 0.0000 0.0000 0.0000
# 2 19.7593 105.8106 3.0385 0.0000 0.0000 0.0000
# 3 9.9597 3.0385 74.8202 0.0000 0.0000 0.0000
# 4 0.0000 0.0000 0.0000 -2.7102 0.0000 0.0000
# 5 0.0000 0.0000 0.0000 0.0000 26.5726 0.0000
# 6 0.0000 0.0000 0.0000 0.0000 0.0000 37.2568
#
#
#
# Elastic Compliance Matrix: (Units=1/GPa)
#
#
# Indices 1 2 3 4 5 6 
#
# 1 0.008956 -0.001640 -0.001126 0.000000 0.000000 0.000000
# 2 -0.001640 0.009762 -0.000178 0.000000 0.000000 0.000000
# 3 -0.001126 -0.000178 0.013522 0.000000 0.000000 0.000000
# 4 0.000000 0.000000 0.000000 -0.368974 0.000000 0.000000
# 5 0.000000 0.000000 0.000000 0.000000 0.037633 0.000000
# 6 0.000000 0.000000 0.000000 0.000000 0.000000 0.026841
#
#
# Mechanical properties :
#
#
# Convention : Reuss Voigt Hill
#
# Bulk Modulus (GPa) = 37.94638 40.29714 39.12176
# Shear Modulus (GPa) = -19.41085 29.85063 5.21989
#
# Velocity S-wave (km/s) = -2.93682 3.64194 1.52295
# Velocity P-wave (km/s) = 2.31539 5.96577 4.52501
#
# Compressibility (1/GPa) = 0.02635297
#
# Stress axis : x y z
#
# Youngs Moduli (GPa) = 111.65829 102.43544 73.95115
#
# Poissons Ratio (x) = 0.16801 0.08324
# Poissons Ratio (y) = 0.18313 0.01317
# Poissons Ratio (z) = 0.12568 0.01825
#
# Static dielectric constant tensor:
#      x y z
#    x 4.032430 0.000000 0.000000 
#    y 0.000000 4.196350 0.000000 
#    z 0.000000 0.000000 4.099440 
# 
# 
# High freq. dielectric constant tensor:
#      x y z
#    x 1.889770 0.000000 0.000000 
#    y 0.000000 1.878370 0.000000 
#    z 0.000000 0.000000 1.891730 
# 
# From -- ./inp_files/11575.got.cif
#   From: 2010.03.12/outbox.cif.g09.slc.cpg/sg37_6_cif.got.tgz:11575.got - 2010.04.14 02:25:27.
