data_PCOD8176454
_publ_section_title
;
Structure prediction by ZEFSAII (Michael W. Deem and Ramdas Pophale) SiO2 
 PCOD8176454
Probable space group: C C C 2
;
_chemical_formula_sum "Si O2"
_cell_formula_units_Z 48
_cell_length_a 8.678500
_cell_length_b 26.145561
_cell_length_c 9.181502
_cell_angle_alpha 90.000000
_cell_angle_beta 90.000000
_cell_angle_gamma 90.000000
_cell_volume 2083.321836
_symmetry_space_group_name_H-M "C C C 2"
_symmetry_group_IT_number 37
_symmetry_cell_setting 'orthorhombic'
loop_
_space_group_symop_operation_xyz
x,y,z
-x,-y,z
-x,y,1/2+z
x,-y,1/2+z
1/2+x,1/2+y,z
1/2-x,1/2-y,z
1/2-x,1/2+y,1/2+z
1/2+x,1/2-y,1/2+z
loop_
_atom_site_type_symbol
_atom_site_label
_atom_site_fract_x
_atom_site_fract_y
_atom_site_fract_z
Si Si1 0.599873 0.321753 0.027570
Si Si2 0.404221 0.224116 0.029183
Si Si3 0.741449 0.934424 0.807576
Si Si4 0.670888 0.519391 0.097619
Si Si5 0.389530 0.166269 0.732471
Si Si6 0.438550 0.615034 0.753925
O O1 0.541599 0.264405 0.999745
O O2 0.750317 0.320568 0.125307
O O3 0.462182 0.351854 0.108475
O O4 0.643017 0.350500 0.877185
O O5 0.250000 0.250000 0.091524
O O6 0.454182 0.181845 0.148866
O O7 0.363607 0.198681 0.876714
O O8 0.604349 0.893800 0.777180
O O9 0.898799 0.902741 0.818463
O O10 0.738965 0.973192 0.672804
O O11 0.726165 0.964819 0.959064
O O12 0.500000 0.500000 0.049352
O O13 0.662846 0.565652 0.213658
#
# Coordination Sequence:
#
# PCOD8176454 Si02
#       6
#     8   8   8   8   8   8
#     4  11  22  41  68 108 143 179 228 298 358 415
#     4  12  25  46  70  98 136 189 234 292 358 434
#     4  10  21  38  61 102 145 186 235 293 343 412
#     4  10  19  33  64 104 145 191 234 285 348 415
#     4  11  27  47  69 104 145 173 242 300 356 431
#     4  10  19  33  61 105 149 181 226 287 353 415
#
# _framework density 23.040126000000001
#
# number of rings (size 3 to 8) (size 9 to 14) (size 15 to 20)
#    0.000    1.333    1.667    6.000    4.667    2.667 
#    0.000    0.000    0.000    3.000    0.000    0.000 
#    0.000    0.000    0.000    0.000    0.000    0.000 
#
# Total GULP energy -297685.090908 kJ/mol
# GULP energy per Si atom -12403.545455 kJ/mol
# Density = 2.298769 g / cm^3
# Si number density = 23.040126 Si / 1000 Ang^3
#
#
#
# Elastic Constant Matrix: (Units=GPa)
#
#
# Indices 1 2 3 4 5 6 
#
# 1 64.2554 42.4818 47.9742 0.0000 0.0000 0.0000
# 2 42.4818 154.9146 82.2067 0.0000 0.0000 0.0000
# 3 47.9742 82.2067 143.7673 0.0000 0.0000 0.0000
# 4 0.0000 0.0000 0.0000 52.6972 0.0000 0.0000
# 5 0.0000 0.0000 0.0000 0.0000 31.9163 0.0000
# 6 0.0000 0.0000 0.0000 0.0000 0.0000 31.2392
#
#
#
# Elastic Compliance Matrix: (Units=1/GPa)
#
#
# Indices 1 2 3 4 5 6 
#
# 1 0.021670 -0.003022 -0.005503 0.000000 0.000000 0.000000
# 2 -0.003022 0.009689 -0.004531 0.000000 0.000000 0.000000
# 3 -0.005503 -0.004531 0.011383 0.000000 0.000000 0.000000
# 4 0.000000 0.000000 0.000000 0.018976 0.000000 0.000000
# 5 0.000000 0.000000 0.000000 0.000000 0.031332 0.000000
# 6 0.000000 0.000000 0.000000 0.000000 0.000000 0.032011
#
#
# Mechanical properties :
#
#
# Convention : Reuss Voigt Hill
#
# Bulk Modulus (GPa) = 60.13930 78.69585 69.41757
# Shear Modulus (GPa) = 31.90477 35.85552 33.88015
#
# Velocity S-wave (km/s) = 3.72526 3.94918 3.83885
# Velocity P-wave (km/s) = 6.68297 7.41787 7.05999
#
# Compressibility (1/GPa) = 0.01662806
#
# Stress axis : x y z
#
# Youngs Moduli (GPa) = 46.14777 103.21392 87.84977
#
# Poissons Ratio (x) = 0.31194 0.48342
# Poissons Ratio (y) = 0.13947 0.39809
# Poissons Ratio (z) = 0.25394 0.46771
#
# Static dielectric constant tensor:
#      x y z
#    x 3.685220 0.000000 0.000000 
#    y 0.000000 4.586210 0.000000 
#    z 0.000000 0.000000 4.133820 
# 
# 
# High freq. dielectric constant tensor:
#      x y z
#    x 1.860100 0.000000 0.000000 
#    y 0.000000 1.929320 0.000000 
#    z 0.000000 0.000000 1.921000 
# 
# From -- ./inp_files/2402.got.cif
#   From: 2010.03.12/outbox.cif.g09.slc.cpg/sg37_2_cif.got.tgz:2402.got - 2010.04.14 02:25:27.
