data_PCOD8176994
_publ_section_title
;
Structure prediction by ZEFSAII (Michael W. Deem and Ramdas Pophale) SiO2 
 PCOD8176994
Probable space group: C C C 2
;
_chemical_formula_sum "Si O2"
_cell_formula_units_Z 64
_cell_length_a 8.679482
_cell_length_b 30.976918
_cell_length_c 11.299535
_cell_angle_alpha 90.000000
_cell_angle_beta 90.000000
_cell_angle_gamma 90.000000
_cell_volume 3038.033683
_symmetry_space_group_name_H-M "C C C 2"
_symmetry_group_IT_number 37
_symmetry_cell_setting 'orthorhombic'
loop_
_space_group_symop_operation_xyz
x,y,z
-x,-y,z
-x,y,1/2+z
x,-y,1/2+z
1/2+x,1/2+y,z
1/2-x,1/2-y,z
1/2-x,1/2+y,1/2+z
1/2+x,1/2-y,1/2+z
loop_
_atom_site_type_symbol
_atom_site_label
_atom_site_fract_x
_atom_site_fract_y
_atom_site_fract_z
Si Si1 0.832033 0.019021 0.084410
Si Si2 0.737092 0.883116 0.840027
Si Si3 0.331543 0.208793 0.196478
Si Si4 0.425061 0.239772 0.531040
Si Si5 0.820410 0.118989 0.082352
Si Si6 0.673431 0.518664 0.846183
Si Si7 0.090230 0.176619 0.010480
Si Si8 0.082284 0.653290 0.897766
O O1 0.859424 0.069286 0.071387
O O2 0.753480 0.007563 0.214298
O O3 0.000000 0.000000 0.085089
O O4 0.743176 0.001724 0.964617
O O5 0.725583 0.871892 0.701690
O O6 0.811945 0.929956 0.863441
O O7 0.564800 0.878612 0.893210
O O8 0.851767 0.848610 0.896235
O O9 0.250000 0.250000 0.263142
O O10 0.495878 0.227561 0.155277
O O11 0.233396 0.193853 0.084441
O O12 0.349394 0.164527 0.269296
O O13 0.250000 0.250000 0.561386
O O14 0.494760 0.281910 0.467301
O O15 0.459790 0.200464 0.444337
O O16 0.978985 0.145521 0.086563
O O17 0.714555 0.130914 0.972231
O O18 0.500000 0.500000 0.845558
#
# Coordination Sequence:
#
# PCOD8176994 Si02
#       8
#     8   8   8   8   8   8   8   8
#     4   9  18  38  63  97 131 161 214 276 333 407
#     4  11  25  42  68  98 137 177 221 282 341 404
#     4  10  24  42  61  90 129 180 231 286 327 397
#     4  11  22  42  62  90 133 180 228 281 338 395
#     4  11  25  41  68 102 133 175 224 277 346 414
#     4   9  18  38  65  96 131 164 213 276 337 405
#     4  11  23  40  65  96 129 172 237 273 344 382
#     4  12  24  44  62  93 142 174 229 270 349 399
#
# _framework density 21.066258000000001
#
# number of rings (size 3 to 8) (size 9 to 14) (size 15 to 20)
#    0.000    1.500    2.500    2.625    1.750    1.000 
#    2.250    0.625    0.000    3.000    0.000    0.000 
#    0.000    0.000    0.000    0.000    0.000    0.000 
#
# Total GULP energy -396497.548638 kJ/mol
# GULP energy per Si atom -12390.548395 kJ/mol
# Density = 2.101831 g / cm^3
# Si number density = 21.066258 Si / 1000 Ang^3
#
#
#
# Elastic Constant Matrix: (Units=GPa)
#
#
# Indices 1 2 3 4 5 6 
#
# 1 107.6801 47.7549 32.0530 0.0000 0.0000 0.0000
# 2 47.7549 131.7253 50.3279 0.0000 0.0000 0.0000
# 3 32.0530 50.3279 122.1571 0.0000 0.0000 0.0000
# 4 0.0000 0.0000 0.0000 36.9403 0.0000 0.0000
# 5 0.0000 0.0000 0.0000 0.0000 24.2535 0.0000
# 6 0.0000 0.0000 0.0000 0.0000 0.0000 27.6495
#
#
#
# Elastic Compliance Matrix: (Units=1/GPa)
#
#
# Indices 1 2 3 4 5 6 
#
# 1 0.011298 -0.003517 -0.001516 0.000000 0.000000 0.000000
# 2 -0.003517 0.010104 -0.003240 0.000000 0.000000 0.000000
# 3 -0.001516 -0.003240 0.009919 0.000000 0.000000 0.000000
# 4 0.000000 0.000000 0.000000 0.027071 0.000000 0.000000
# 5 0.000000 0.000000 0.000000 0.000000 0.041231 0.000000
# 6 0.000000 0.000000 0.000000 0.000000 0.000000 0.036167
#
#
# Mechanical properties :
#
#
# Convention : Reuss Voigt Hill
#
# Bulk Modulus (GPa) = 67.67783 69.09268 68.38526
# Shear Modulus (GPa) = 31.79454 33.19711 32.49583
#
# Velocity S-wave (km/s) = 3.88914 3.97400 3.93180
# Velocity P-wave (km/s) = 7.23624 7.34342 7.29003
#
# Compressibility (1/GPa) = 0.01477589
#
# Stress axis : x y z
#
# Youngs Moduli (GPa) = 88.51513 98.96620 100.81878
#
# Poissons Ratio (x) = 0.34803 0.15279
# Poissons Ratio (y) = 0.31128 0.32668
# Poissons Ratio (z) = 0.13415 0.32067
#
# Static dielectric constant tensor:
#      x y z
#    x 3.684750 0.000000 0.000000 
#    y 0.000000 4.226020 0.000000 
#    z 0.000000 0.000000 4.540060 
# 
# 
# High freq. dielectric constant tensor:
#      x y z
#    x 1.803500 0.000000 0.000000 
#    y 0.000000 1.834620 0.000000 
#    z 0.000000 0.000000 1.836320 
# 
# From -- ./inp_files/6614.got.cif
#   From: 2010.03.12/outbox.cif.g09.slc.cpg/sg37_4_cif.got.tgz:6614.got - 2010.04.14 02:25:27.
