data_PCOD8176323
_publ_section_title
;
Structure prediction by ZEFSAII (Michael W. Deem and Ramdas Pophale) SiO2 
 PCOD8176323
Probable space group: C M C 21
;
_chemical_formula_sum "Si O2"
_cell_formula_units_Z 56
_cell_length_a 21.470859
_cell_length_b 13.506840
_cell_length_c 9.861121
_cell_angle_alpha 90.000000
_cell_angle_beta 90.000000
_cell_angle_gamma 90.000000
_cell_volume 2859.759182
_symmetry_space_group_name_H-M "C M C 21"
_symmetry_group_IT_number 36
_symmetry_cell_setting 'orthorhombic'
loop_
_space_group_symop_operation_xyz
x,y,z
-x,-y,1/2+z
x,-y,1/2+z
-x,y,z
1/2+x,1/2+y,z
1/2-x,1/2-y,1/2+z
1/2+x,1/2-y,1/2+z
1/2-x,1/2+y,z
loop_
_atom_site_type_symbol
_atom_site_label
_atom_site_fract_x
_atom_site_fract_y
_atom_site_fract_z
Si Si1 0.500000 0.405864 0.919540
Si Si2 0.662283 0.790891 0.074070
Si Si3 0.781934 0.491845 0.130823
Si Si4 0.627039 0.307062 0.840857
Si Si5 0.000000 0.901249 0.231518
Si Si6 0.301901 0.785711 0.582180
Si Si7 0.299616 0.500089 0.878887
Si Si8 0.873974 0.813059 0.319461
O O1 0.559193 0.337568 0.890772
O O2 0.500000 0.503561 0.827989
O O3 0.500000 0.439459 0.076600
O O4 0.622238 0.747744 0.197590
O O5 0.729498 0.738298 0.060275
O O6 0.667425 0.908951 0.092599
O O7 0.624072 0.770351 0.936207
O O8 0.812531 0.599603 0.118762
O O9 0.758618 0.471281 0.283653
O O10 0.722878 0.480077 0.031181
O O11 0.669854 0.402399 0.817893
O O12 0.659450 0.233511 0.946527
O O13 0.941634 0.829989 0.257279
O O14 0.326245 0.717440 0.702694
O O15 0.350928 0.585213 0.886506
#
# Coordination Sequence:
#
# PCOD8176323 Si02
#       8
#     4   8   8   8   4   8   8   8
#     4  12  28  44  70  97 129 176 218 265 327 387
#     4  12  24  39  63  97 127 175 210 269 329 384
#     4  12  24  36  62  94 134 164 216 250 330 390
#     4  12  24  41  64  95 137 167 215 266 330 387
#     4  12  28  44  70  97 129 176 218 265 327 387
#     4  12  22  41  63  93 135 175 208 273 327 390
#     4  12  20  35  62  96 126 167 204 262 310 412
#     4  12  24  41  64  95 137 167 215 266 330 387
#
# _framework density 19.582070000000002
#
# number of rings (size 3 to 8) (size 9 to 14) (size 15 to 20)
#    0.000    0.000    8.571    2.571    2.000    0.000 
#    0.000    0.000    0.000    5.143    0.000    0.000 
#    0.000    0.000    0.000    0.000    0.000    0.000 
#
# Total GULP energy -347406.455957 kJ/mol
# GULP energy per Si atom -12407.373427 kJ/mol
# Density = 1.953750 g / cm^3
# Si number density = 19.582070 Si / 1000 Ang^3
#
#
#
# Elastic Constant Matrix: (Units=GPa)
#
#
# Indices 1 2 3 4 5 6 
#
# 1 74.6361 28.1544 36.2516 0.0000 0.0000 0.0000
# 2 28.1544 95.6465 3.7564 0.0000 0.0000 0.0000
# 3 36.2516 3.7564 106.8859 0.0000 0.0000 0.0000
# 4 0.0000 0.0000 0.0000 35.8157 0.0000 0.0000
# 5 0.0000 0.0000 0.0000 0.0000 30.2084 0.0000
# 6 0.0000 0.0000 0.0000 0.0000 0.0000 18.3563
#
#
#
# Elastic Compliance Matrix: (Units=1/GPa)
#
#
# Indices 1 2 3 4 5 6 
#
# 1 0.018256 -0.005138 -0.006011 0.000000 0.000000 0.000000
# 2 -0.005138 0.011916 0.001324 0.000000 0.000000 0.000000
# 3 -0.006011 0.001324 0.011348 0.000000 0.000000 0.000000
# 4 0.000000 0.000000 0.000000 0.027921 0.000000 0.000000
# 5 0.000000 0.000000 0.000000 0.000000 0.033103 0.000000
# 6 0.000000 0.000000 0.000000 0.000000 0.000000 0.054477
#
#
# Mechanical properties :
#
#
# Convention : Reuss Voigt Hill
#
# Bulk Modulus (GPa) = 45.72631 45.94371 45.83501
# Shear Modulus (GPa) = 27.17964 30.80980 28.99472
#
# Velocity S-wave (km/s) = 3.72961 3.97087 3.85213
# Velocity P-wave (km/s) = 6.47676 6.67359 6.57591
#
# Compressibility (1/GPa) = 0.02186925
#
# Stress axis : x y z
#
# Youngs Moduli (GPa) = 54.77602 83.92405 88.12109
#
# Poissons Ratio (x) = 0.43118 0.52972
# Poissons Ratio (y) = 0.28143 -0.11665
# Poissons Ratio (z) = 0.32927 -0.11110
#
# Static dielectric constant tensor:
#      x y z
#    x 3.392060 0.000000 0.000000 
#    y 0.000000 3.703840 0.000000 
#    z 0.000000 0.000000 3.723790 
# 
# 
# High freq. dielectric constant tensor:
#      x y z
#    x 1.730790 0.000000 0.000000 
#    y 0.000000 1.767940 0.000000 
#    z 0.000000 0.000000 1.785530 
# 
# From -- ./inp_files/5238.got.cif
#   From: 2010.03.12/outbox.cif.g09.slc.cpg/sg36_3_cif.got.tgz:5238.got - 2010.04.14 02:13:53.
