data_PCOD8176428
_publ_section_title
;
Structure prediction by ZEFSAII (Michael W. Deem and Ramdas Pophale) SiO2 
 PCOD8176428
Probable space group: C C C 2
;
_chemical_formula_sum "Si O2"
_cell_formula_units_Z 44
_cell_length_a 14.000374
_cell_length_b 12.223380
_cell_length_c 13.142907
_cell_angle_alpha 90.000000
_cell_angle_beta 90.000000
_cell_angle_gamma 90.000000
_cell_volume 2249.170535
_symmetry_space_group_name_H-M "C C C 2"
_symmetry_group_IT_number 37
_symmetry_cell_setting 'orthorhombic'
loop_
_space_group_symop_operation_xyz
x,y,z
-x,-y,z
-x,y,1/2+z
x,-y,1/2+z
1/2+x,1/2+y,z
1/2-x,1/2-y,z
1/2-x,1/2+y,1/2+z
1/2+x,1/2-y,1/2+z
loop_
_atom_site_type_symbol
_atom_site_label
_atom_site_fract_x
_atom_site_fract_y
_atom_site_fract_z
Si Si1 0.908909 0.744645 0.315380
Si Si2 0.754431 0.097765 0.762147
Si Si3 0.483610 0.880089 0.150636
Si Si4 0.927166 0.692175 0.953618
Si Si5 0.691516 0.139193 0.267104
Si Si6 0.750000 0.250000 0.576504
O O1 0.856354 0.860858 0.303158
O O2 0.830186 0.647898 0.333380
O O3 0.960628 0.715238 0.209640
O O4 0.985796 0.762148 0.405212
O O5 0.737739 0.142364 0.646782
O O6 0.759425 0.966681 0.763033
O O7 0.370531 0.854540 0.163143
O O8 0.500000 0.000000 0.199845
O O9 0.520443 0.885134 0.035177
O O10 0.879811 0.621891 0.862977
O O11 0.843933 0.765049 0.005699
O O12 0.750000 0.250000 0.280075
#
# Coordination Sequence:
#
# PCOD8176428 Si02
#       6
#     8   8   8   8   8   4
#     4   9  20  36  63  89 122 156 204 251 313 364
#     4  10  19  42  61  88 125 168 194 261 325 367
#     4  11  20  37  62  93 119 158 208 264 303 367
#     4  11  21  36  62  96 119 160 213 258 305 374
#     4  11  24  40  62  91 125 162 210 257 312 369
#     4  10  18  40  68  88 122 170 212 250 318 376
#
# _framework density 19.562766
#
# number of rings (size 3 to 8) (size 9 to 14) (size 15 to 20)
#    0.000    1.818    6.364    0.000    2.545    0.000 
#    3.273    3.636    4.000    0.000    0.000    0.000 
#    0.000    0.000    0.000    0.000    0.000    0.000 
#
# Total GULP energy -272585.855744 kJ/mol
# GULP energy per Si atom -12390.266170 kJ/mol
# Density = 1.951824 g / cm^3
# Si number density = 19.562766 Si / 1000 Ang^3
#
#
#
# Elastic Constant Matrix: (Units=GPa)
#
#
# Indices 1 2 3 4 5 6 
#
# 1 139.4775 64.3498 60.1706 0.0000 0.0000 0.0000
# 2 64.3498 139.3460 34.5151 0.0000 0.0000 0.0000
# 3 60.1706 34.5151 90.3090 0.0000 0.0000 0.0000
# 4 0.0000 0.0000 0.0000 11.4992 0.0000 0.0000
# 5 0.0000 0.0000 0.0000 0.0000 45.2959 0.0000
# 6 0.0000 0.0000 0.0000 0.0000 0.0000 29.8215
#
#
#
# Elastic Compliance Matrix: (Units=1/GPa)
#
#
# Indices 1 2 3 4 5 6 
#
# 1 0.011651 -0.003819 -0.006303 0.000000 0.000000 0.000000
# 2 -0.003819 0.009179 -0.000963 0.000000 0.000000 0.000000
# 3 -0.006303 -0.000963 0.015641 0.000000 0.000000 0.000000
# 4 0.000000 0.000000 0.000000 0.086962 0.000000 0.000000
# 5 0.000000 0.000000 0.000000 0.000000 0.022077 0.000000
# 6 0.000000 0.000000 0.000000 0.000000 0.000000 0.033533
#
#
# Mechanical properties :
#
#
# Convention : Reuss Voigt Hill
#
# Bulk Modulus (GPa) = 69.93379 76.35595 73.14487
# Shear Modulus (GPa) = 24.27423 31.32980 27.80202
#
# Velocity S-wave (km/s) = 3.52638 4.00622 3.77393
# Velocity P-wave (km/s) = 7.23923 7.77918 7.51406
#
# Compressibility (1/GPa) = 0.01429924
#
# Stress axis : x y z
#
# Youngs Moduli (GPa) = 85.83186 108.94843 63.93531
#
# Poissons Ratio (x) = 0.41608 0.40298
# Poissons Ratio (y) = 0.32780 0.06160
# Poissons Ratio (z) = 0.54099 0.10496
#
# Static dielectric constant tensor:
#      x y z
#    x 3.870400 0.000000 0.000000 
#    y 0.000000 3.130400 0.000000 
#    z 0.000000 0.000000 3.603040 
# 
# 
# High freq. dielectric constant tensor:
#      x y z
#    x 1.778140 0.000000 0.000000 
#    y 0.000000 1.722430 0.000000 
#    z 0.000000 0.000000 1.752720 
# 
# From -- ./inp_files/12039.got.cif
#   From: 2010.03.12/outbox.cif.g09.slc.cpg/sg37_7_cif.got.tgz:12039.got - 2010.04.14 02:25:27.
