data_PCOD8176309
_publ_section_title
;
Structure prediction by ZEFSAII (Michael W. Deem and Ramdas Pophale) SiO2 
 PCOD8176309
Probable space group: C M C 21
;
_chemical_formula_sum "Si O2"
_cell_formula_units_Z 32
_cell_length_a 16.354434
_cell_length_b 8.487770
_cell_length_c 9.099999
_cell_angle_alpha 90.000000
_cell_angle_beta 90.000000
_cell_angle_gamma 90.000000
_cell_volume 1263.195197
_symmetry_space_group_name_H-M "C M C 21"
_symmetry_group_IT_number 36
_symmetry_cell_setting 'orthorhombic'
loop_
_space_group_symop_operation_xyz
x,y,z
-x,-y,1/2+z
x,-y,1/2+z
-x,y,z
1/2+x,1/2+y,z
1/2-x,1/2-y,1/2+z
1/2+x,1/2-y,1/2+z
1/2-x,1/2+y,z
loop_
_atom_site_type_symbol
_atom_site_label
_atom_site_fract_x
_atom_site_fract_y
_atom_site_fract_z
Si Si1 0.842846 0.018248 0.487350
Si Si2 0.406204 0.193553 0.155674
Si Si3 0.906205 0.193555 0.226326
Si Si4 0.157155 0.481752 0.394650
O O1 0.850286 0.162873 0.601567
O O2 0.897920 0.049891 0.343356
O O3 0.750001 0.999999 0.440998
O O4 0.874434 0.860027 0.566714
O O5 0.500000 0.247979 0.163743
O O6 0.374432 0.139974 0.315288
O O7 0.397918 0.049889 0.038646
O O8 0.850285 0.337126 0.280434
O O9 0.000000 0.247984 0.218257
#
# Coordination Sequence:
#
# PCOD8176309 Si02
#       4
#     8   8   8   8
#     4  11  25  43  69 104 142 184 233 296 358 419
#     4  11  24  47  72 102 140 187 237 290 351 424
#     4  11  24  47  72 102 140 187 237 290 351 424
#     4  11  25  43  69 104 142 184 233 296 358 419
#
# _framework density 25.332584000000001
#
# number of rings (size 3 to 8) (size 9 to 14) (size 15 to 20)
#    0.000    1.000    0.000    7.500    0.000   18.000 
#    0.000    5.000    0.000    0.000    0.000    0.000 
#    0.000    0.000    0.000    0.000    0.000    0.000 
#
# Total GULP energy -198496.273681 kJ/mol
# GULP energy per Si atom -12406.017105 kJ/mol
# Density = 2.527493 g / cm^3
# Si number density = 25.332584 Si / 1000 Ang^3
#
#
#
# Elastic Constant Matrix: (Units=GPa)
#
#
# Indices 1 2 3 4 5 6 
#
# 1 208.3406 74.5618 55.0404 0.0000 0.0000 0.0000
# 2 74.5618 56.0754 43.2727 0.0000 0.0000 0.0000
# 3 55.0404 43.2727 97.0518 0.0000 0.0000 0.0000
# 4 0.0000 0.0000 0.0000 70.1407 0.0000 0.0000
# 5 0.0000 0.0000 0.0000 0.0000 51.7601 0.0000
# 6 0.0000 0.0000 0.0000 0.0000 0.0000 43.5683
#
#
#
# Elastic Compliance Matrix: (Units=1/GPa)
#
#
# Indices 1 2 3 4 5 6 
#
# 1 0.009166 -0.012465 0.000360 0.000000 0.000000 0.000000
# 2 -0.012465 0.044140 -0.012611 0.000000 0.000000 0.000000
# 3 0.000360 -0.012611 0.015723 0.000000 0.000000 0.000000
# 4 0.000000 0.000000 0.000000 0.014257 0.000000 0.000000
# 5 0.000000 0.000000 0.000000 0.000000 0.019320 0.000000
# 6 0.000000 0.000000 0.000000 0.000000 0.000000 0.022952
#
#
# Mechanical properties :
#
#
# Convention : Reuss Voigt Hill
#
# Bulk Modulus (GPa) = 51.03408 78.57972 64.80690
# Shear Modulus (GPa) = 27.54466 45.66669 36.60567
#
# Velocity S-wave (km/s) = 3.30103 4.25041 3.80544
# Velocity P-wave (km/s) = 5.89224 7.42796 6.70422
#
# Compressibility (1/GPa) = 0.01959475
#
# Stress axis : x y z
#
# Youngs Moduli (GPa) = 109.09994 22.65528 63.60166
#
# Poissons Ratio (x) = 0.28240 -0.02288
# Poissons Ratio (y) = 1.35995 0.80211
# Poissons Ratio (z) = -0.03924 0.28571
#
# Static dielectric constant tensor:
#      x y z
#    x 4.324990 0.000000 0.000000 
#    y 0.000000 4.668550 0.000000 
#    z 0.000000 0.000000 5.078890 
# 
# 
# High freq. dielectric constant tensor:
#      x y z
#    x 2.007090 0.000000 0.000000 
#    y 0.000000 2.012090 0.000000 
#    z 0.000000 0.000000 2.030370 
# 
# From -- ./inp_files/8185.got.cif
#   From: 2010.03.12/outbox.cif.g09.slc.cpg/sg36_5_cif.got.tgz:8185.got - 2010.04.14 02:13:53.
