data_PCOD8176897
_publ_section_title
;
Structure prediction by ZEFSAII (Michael W. Deem and Ramdas Pophale) SiO2 
 PCOD8176897
Probable space group: C C C 2
;
_chemical_formula_sum "Si O2"
_cell_formula_units_Z 56
_cell_length_a 21.990212
_cell_length_b 8.894639
_cell_length_c 13.233508
_cell_angle_alpha 90.000000
_cell_angle_beta 90.000000
_cell_angle_gamma 90.000000
_cell_volume 2588.407961
_symmetry_space_group_name_H-M "C C C 2"
_symmetry_group_IT_number 37
_symmetry_cell_setting 'orthorhombic'
loop_
_space_group_symop_operation_xyz
x,y,z
-x,-y,z
-x,y,1/2+z
x,-y,1/2+z
1/2+x,1/2+y,z
1/2-x,1/2-y,z
1/2-x,1/2+y,1/2+z
1/2+x,1/2-y,1/2+z
loop_
_atom_site_type_symbol
_atom_site_label
_atom_site_fract_x
_atom_site_fract_y
_atom_site_fract_z
Si Si1 0.429911 0.770263 0.506190
Si Si2 0.534035 0.849325 0.358003
Si Si3 0.654488 0.655491 0.669161
Si Si4 0.557609 0.405852 0.701173
Si Si5 0.121773 0.425938 0.530157
Si Si6 0.189156 0.822818 0.387911
Si Si7 0.257911 0.585386 0.991527
O O1 0.486098 0.767414 0.430260
O O2 0.446089 0.642368 0.585332
O O3 0.369639 0.732175 0.445502
O O4 0.418738 0.929930 0.564343
O O5 0.558907 0.742494 0.269892
O O6 0.594821 0.881215 0.421485
O O7 0.500000 0.000000 0.315723
O O8 0.614503 0.517351 0.710777
O O9 0.617012 0.788882 0.611501
O O10 0.684156 0.722097 0.770481
O O11 0.707282 0.592124 0.598352
O O12 0.500000 0.500000 0.735009
O O13 0.191041 0.480984 0.513934
O O14 0.250000 0.750000 0.434421
O O15 0.200814 0.999085 0.409854
O O16 0.250000 0.750000 0.944341
#
# Coordination Sequence:
#
# PCOD8176897 Si02
#       7
#     8   8   8   8   8   8   8
#     4  11  24  44  70  96 138 181 230 292 342 424
#     4  10  25  45  70 100 132 182 233 285 354 415
#     4  11  25  41  68 103 140 182 230 286 345 421
#     4  12  26  42  67 102 135 179 225 287 344 414
#     4  10  22  45  69  96 135 182 227 287 345 407
#     4  12  23  43  67 100 138 184 235 282 355 412
#     4  10  22  43  66  97 139 181 222 282 345 409
#
# _framework density 21.634922
#
# number of rings (size 3 to 8) (size 9 to 14) (size 15 to 20)
#    0.000    1.143    2.857    3.000    4.000    8.000 
#    2.571    0.714    0.000    0.000    0.000    0.000 
#    0.000    0.000    0.000    0.000    0.000    0.000 
#
# Total GULP energy -347075.072965 kJ/mol
# GULP energy per Si atom -12395.538320 kJ/mol
# Density = 2.158568 g / cm^3
# Si number density = 21.634922 Si / 1000 Ang^3
#
#
#
# Elastic Constant Matrix: (Units=GPa)
#
#
# Indices 1 2 3 4 5 6 
#
# 1 109.3145 26.5363 26.0164 0.0000 0.0000 0.0000
# 2 26.5363 83.4177 36.7875 0.0000 0.0000 0.0000
# 3 26.0164 36.7875 87.8691 0.0000 0.0000 0.0000
# 4 0.0000 0.0000 0.0000 73.3093 0.0000 0.0000
# 5 0.0000 0.0000 0.0000 0.0000 37.9558 0.0000
# 6 0.0000 0.0000 0.0000 0.0000 0.0000 77.1649
#
#
#
# Elastic Compliance Matrix: (Units=1/GPa)
#
#
# Indices 1 2 3 4 5 6 
#
# 1 0.010203 -0.002347 -0.002038 0.000000 0.000000 0.000000
# 2 -0.002347 0.015242 -0.005687 0.000000 0.000000 0.000000
# 3 -0.002038 -0.005687 0.014365 0.000000 0.000000 0.000000
# 4 0.000000 0.000000 0.000000 0.013641 0.000000 0.000000
# 5 0.000000 0.000000 0.000000 0.000000 0.026346 0.000000
# 6 0.000000 0.000000 0.000000 0.000000 0.000000 0.012959
#
#
# Mechanical properties :
#
#
# Convention : Reuss Voigt Hill
#
# Bulk Modulus (GPa) = 50.84776 51.03130 50.93953
# Shear Modulus (GPa) = 41.85682 50.43673 46.14677
#
# Velocity S-wave (km/s) = 4.40328 4.83356 4.62343
# Velocity P-wave (km/s) = 7.02890 7.40201 7.21787
#
# Compressibility (1/GPa) = 0.01966655
#
# Stress axis : x y z
#
# Youngs Moduli (GPa) = 98.01321 65.60753 69.61455
#
# Poissons Ratio (x) = 0.15396 0.14190
# Poissons Ratio (y) = 0.23001 0.39586
# Poissons Ratio (z) = 0.19979 0.37308
#
# Static dielectric constant tensor:
#      x y z
#    x 3.980790 0.000000 0.000000 
#    y 0.000000 4.159300 0.000000 
#    z 0.000000 0.000000 3.638480 
# 
# 
# High freq. dielectric constant tensor:
#      x y z
#    x 1.866280 0.000000 0.000000 
#    y 0.000000 1.859120 0.000000 
#    z 0.000000 0.000000 1.834330 
# 
# From -- ./inp_files/12936.got.cif
#   From: 2010.03.12/outbox.cif.g09.slc.cpg/sg37_7_cif.got.tgz:12936.got - 2010.04.14 02:25:27.
