data_PCOD8176496
_publ_section_title
;
Structure prediction by ZEFSAII (Michael W. Deem and Ramdas Pophale) SiO2 
 PCOD8176496
Probable space group: C C C 2
;
_chemical_formula_sum "Si O2"
_cell_formula_units_Z 64
_cell_length_a 23.535358
_cell_length_b 15.341462
_cell_length_c 8.706918
_cell_angle_alpha 90.000000
_cell_angle_beta 90.000000
_cell_angle_gamma 90.000000
_cell_volume 3143.779024
_symmetry_space_group_name_H-M "C C C 2"
_symmetry_group_IT_number 37
_symmetry_cell_setting 'orthorhombic'
loop_
_space_group_symop_operation_xyz
x,y,z
-x,-y,z
-x,y,1/2+z
x,-y,1/2+z
1/2+x,1/2+y,z
1/2-x,1/2-y,z
1/2-x,1/2+y,1/2+z
1/2+x,1/2-y,1/2+z
loop_
_atom_site_type_symbol
_atom_site_label
_atom_site_fract_x
_atom_site_fract_y
_atom_site_fract_z
Si Si1 0.061048 0.237921 0.498230
Si Si2 0.061048 0.762079 0.362203
Si Si3 0.376400 0.909217 0.361251
Si Si4 0.247794 0.647649 0.358942
Si Si5 0.252206 0.147649 0.501491
Si Si6 0.860885 0.909770 0.360821
Si Si7 0.876400 0.590783 0.499183
Si Si8 0.860885 0.909770 0.999613
O O1 0.058906 0.232199 0.680216
O O2 0.106049 0.168668 0.439137
O O3 0.081286 0.333310 0.442143
O O4 0.000000 0.216173 0.430216
O O5 0.081286 0.666691 0.418291
O O6 0.106048 0.831333 0.421297
O O7 0.312685 0.888066 0.416654
O O8 0.398071 1.000000 0.430217
O O9 0.377887 0.915492 0.180217
O O10 0.250000 0.750000 0.389440
O O11 0.259181 0.626800 0.180217
O O12 0.294352 0.599314 0.461638
O O13 0.250000 0.250000 0.470994
O O14 0.205648 0.099314 0.398796
O O15 0.312685 0.111934 0.443780
O O16 0.871203 0.908647 0.180217
O O17 0.884315 1.000000 0.430217
#
# Coordination Sequence:
#
# PCOD8176496 Si02
#       8
#     8   8   8   8   8   8   8   8
#     4  11  24  45  66  90 122 163 209 261 313 365
#     4  11  24  45  66  90 122 163 209 261 313 365
#     4  10  22  39  63  91 126 165 204 252 308 366
#     4  10  19  38  64  92 128 167 202 251 312 368
#     4  10  19  38  64  92 128 167 202 251 312 368
#     4  12  25  41  64  95 127 165 207 255 308 372
#     4  10  22  39  63  91 126 165 204 252 308 366
#     4  12  25  41  64  95 127 165 207 255 308 372
#
# _framework density 20.357665000000001
#
# number of rings (size 3 to 8) (size 9 to 14) (size 15 to 20)
#    0.000    1.250    2.500    3.750    0.000    6.500 
#    0.000    5.000    0.000    0.000    0.000    0.000 
#    0.000    0.000    0.000    0.000    0.000    0.000 
#
# Total GULP energy -396992.276851 kJ/mol
# GULP energy per Si atom -12406.008652 kJ/mol
# Density = 2.031133 g / cm^3
# Si number density = 20.357665 Si / 1000 Ang^3
#
#
#
# Elastic Constant Matrix: (Units=GPa)
#
#
# Indices 1 2 3 4 5 6 
#
# 1 69.7690 7.7475 28.5659 0.0000 0.0000 0.0000
# 2 7.7475 113.6540 42.2903 0.0000 0.0000 0.0000
# 3 28.5659 42.2903 76.9573 0.0000 0.0000 0.0000
# 4 0.0000 0.0000 0.0000 34.7257 0.0000 0.0000
# 5 0.0000 0.0000 0.0000 0.0000 -10.5248 0.0000
# 6 0.0000 0.0000 0.0000 0.0000 0.0000 3.0133
#
#
#
# Elastic Compliance Matrix: (Units=1/GPa)
#
#
# Indices 1 2 3 4 5 6 
#
# 1 0.017104 0.001504 -0.007175 0.000000 0.000000 0.000000
# 2 0.001504 0.011192 -0.006709 0.000000 0.000000 0.000000
# 3 -0.007175 -0.006709 0.019344 0.000000 0.000000 0.000000
# 4 0.000000 0.000000 0.000000 0.028797 0.000000 0.000000
# 5 0.000000 0.000000 0.000000 0.000000 -0.095014 0.000000
# 6 0.000000 0.000000 0.000000 0.000000 0.000000 0.331865
#
#
# Mechanical properties :
#
#
# Convention : Reuss Voigt Hill
#
# Bulk Modulus (GPa) = 43.70570 46.39864 45.05217
# Shear Modulus (GPa) = 14.46443 17.56127 16.01285
#
# Velocity S-wave (km/s) = 2.66844 2.94025 2.80764
# Velocity P-wave (km/s) = 5.56863 5.86242 5.71741
#
# Compressibility (1/GPa) = 0.02288031
#
# Stress axis : x y z
#
# Youngs Moduli (GPa) = 58.46643 89.34591 51.69472
#
# Poissons Ratio (x) = -0.13437 0.37092
# Poissons Ratio (y) = -0.08793 0.34681
# Poissons Ratio (z) = 0.41951 0.59941
#
# Static dielectric constant tensor:
#      x y z
#    x 3.736250 0.000000 0.000000 
#    y 0.000000 4.086620 0.000000 
#    z 0.000000 0.000000 3.558010 
# 
# 
# High freq. dielectric constant tensor:
#      x y z
#    x 1.793220 0.000000 0.000000 
#    y 0.000000 1.813770 0.000000 
#    z 0.000000 0.000000 1.790790 
# 
# From -- ./inp_files/4659.got.cif
#   From: 2010.03.12/outbox.cif.g09.slc.cpg/sg37_3_cif.got.tgz:4659.got - 2010.04.14 02:25:27.
