data_PCOD8176882
_publ_section_title
;
Structure prediction by ZEFSAII (Michael W. Deem and Ramdas Pophale) SiO2 
 PCOD8176882
Probable space group: C C C 2
;
_chemical_formula_sum "Si O2"
_cell_formula_units_Z 20
_cell_length_a 6.433499
_cell_length_b 14.486593
_cell_length_c 10.074947
_cell_angle_alpha 90.000000
_cell_angle_beta 90.000000
_cell_angle_gamma 90.000000
_cell_volume 938.979837
_symmetry_space_group_name_H-M "C C C 2"
_symmetry_group_IT_number 37
_symmetry_cell_setting 'orthorhombic'
loop_
_space_group_symop_operation_xyz
x,y,z
-x,-y,z
-x,y,1/2+z
x,-y,1/2+z
1/2+x,1/2+y,z
1/2-x,1/2-y,z
1/2-x,1/2+y,1/2+z
1/2+x,1/2-y,1/2+z
loop_
_atom_site_type_symbol
_atom_site_label
_atom_site_fract_x
_atom_site_fract_y
_atom_site_fract_z
Si Si1 0.500000 0.000000 0.515740
Si Si2 0.123371 0.088507 0.888590
Si Si3 0.318875 0.350088 0.610672
O O1 0.639774 0.064387 0.422508
O O2 0.356273 0.069474 0.601764
O O3 0.115765 0.159009 0.765064
O O4 0.000000 0.000000 0.835858
O O5 0.017282 0.127624 0.020657
O O6 0.250000 0.250000 0.560507
#
# Coordination Sequence:
#
# PCOD8176882 Si02
#       3
#     4   8   8
#     4  10  22  42  70  94 126 176 206 278 330 382
#     4  10  22  44  65  94 129 167 216 265 327 389
#     4  11  25  41  66  98 131 169 219 269 322 399
#
# _framework density 21.299712
#
# number of rings (size 3 to 8) (size 9 to 14) (size 15 to 20)
#    0.000    1.600    0.000    4.800    5.600    3.200 
#    0.000    0.000    0.000    0.000    0.000    0.000 
#    0.000    0.000    0.000    0.000    0.000    0.000 
#
# Total GULP energy -123993.292614 kJ/mol
# GULP energy per Si atom -12399.329261 kJ/mol
# Density = 2.125123 g / cm^3
# Si number density = 21.299712 Si / 1000 Ang^3
#
#
#
# Elastic Constant Matrix: (Units=GPa)
#
#
# Indices 1 2 3 4 5 6 
#
# 1 129.8233 32.4104 64.0280 0.0000 0.0000 0.0000
# 2 32.4104 100.3104 33.7837 0.0000 0.0000 0.0000
# 3 64.0280 33.7837 153.9646 0.0000 0.0000 0.0000
# 4 0.0000 0.0000 0.0000 18.7549 0.0000 0.0000
# 5 0.0000 0.0000 0.0000 0.0000 12.7596 0.0000
# 6 0.0000 0.0000 0.0000 0.0000 0.0000 17.6272
#
#
#
# Elastic Compliance Matrix: (Units=1/GPa)
#
#
# Indices 1 2 3 4 5 6 
#
# 1 0.010043 -0.001985 -0.003741 0.000000 0.000000 0.000000
# 2 -0.001985 0.011157 -0.001623 0.000000 0.000000 0.000000
# 3 -0.003741 -0.001623 0.008407 0.000000 0.000000 0.000000
# 4 0.000000 0.000000 0.000000 0.053319 0.000000 0.000000
# 5 0.000000 0.000000 0.000000 0.000000 0.078372 0.000000
# 6 0.000000 0.000000 0.000000 0.000000 0.000000 0.056730
#
#
# Mechanical properties :
#
#
# Convention : Reuss Voigt Hill
#
# Bulk Modulus (GPa) = 67.07074 71.61582 69.34328
# Shear Modulus (GPa) = 21.03520 26.75342 23.89431
#
# Velocity S-wave (km/s) = 3.14599 3.54792 3.35298
# Velocity P-wave (km/s) = 6.68982 7.10490 6.90048
#
# Compressibility (1/GPa) = 0.01490963
#
# Stress axis : x y z
#
# Youngs Moduli (GPa) = 99.56748 89.63051 118.95098
#
# Poissons Ratio (x) = 0.17792 0.44501
# Poissons Ratio (y) = 0.19765 0.19301
# Poissons Ratio (z) = 0.37249 0.14543
#
# Static dielectric constant tensor:
#      x y z
#    x 3.911440 0.000000 0.000000 
#    y 0.000000 3.901880 0.000000 
#    z 0.000000 0.000000 3.626230 
# 
# 
# High freq. dielectric constant tensor:
#      x y z
#    x 1.839860 0.000000 0.000000 
#    y 0.000000 1.828670 0.000000 
#    z 0.000000 0.000000 1.841030 
# 
# From -- ./inp_files/1577.got.cif
#   From: 2010.03.12/outbox.cif.g09.slc.cpg/sg37_1_cif.got.tgz:1577.got - 2010.04.14 02:25:27.
