data_PCOD8176485
_publ_section_title
;
Structure prediction by ZEFSAII (Michael W. Deem and Ramdas Pophale) SiO2 
 PCOD8176485
Probable space group: C C C 2
;
_chemical_formula_sum "Si O2"
_cell_formula_units_Z 64
_cell_length_a 15.088287
_cell_length_b 8.688617
_cell_length_c 23.619645
_cell_angle_alpha 90.000000
_cell_angle_beta 90.000000
_cell_angle_gamma 90.000000
_cell_volume 3096.449175
_symmetry_space_group_name_H-M "C C C 2"
_symmetry_group_IT_number 37
_symmetry_cell_setting 'orthorhombic'
loop_
_space_group_symop_operation_xyz
x,y,z
-x,-y,z
-x,y,1/2+z
x,-y,1/2+z
1/2+x,1/2+y,z
1/2-x,1/2-y,z
1/2-x,1/2+y,1/2+z
1/2+x,1/2-y,1/2+z
loop_
_atom_site_type_symbol
_atom_site_label
_atom_site_fract_x
_atom_site_fract_y
_atom_site_fract_z
Si Si1 0.996057 0.255632 0.811000
Si Si2 0.492075 0.827800 0.935473
Si Si3 0.571164 0.899091 0.702751
Si Si4 0.641451 0.509024 0.818601
Si Si5 0.829911 0.132502 0.435731
Si Si6 0.755157 0.932678 0.214519
Si Si7 0.405238 0.418251 0.642050
Si Si8 0.908749 0.091017 0.013654
O O1 0.965423 0.338022 0.869264
O O2 0.014567 0.376310 0.761286
O O3 0.088283 0.166892 0.815658
O O4 0.917290 0.135704 0.798904
O O5 0.582523 0.734224 0.937412
O O6 0.500000 0.000000 0.959945
O O7 0.418588 0.742763 0.974386
O O8 0.593594 0.735371 0.677832
O O9 0.500000 0.000000 0.666117
O O10 0.659662 0.998095 0.702825
O O11 0.676948 0.512592 0.882950
O O12 0.721972 0.509823 0.774866
O O13 0.750000 0.250000 0.438084
O O14 0.830817 0.018950 0.489737
O O15 0.750000 0.750000 0.218595
O O16 0.827146 0.974365 0.166261
O O17 0.500000 0.500000 0.648060
O O18 0.383294 0.369258 0.577882
O O19 0.000000 0.000000 0.011929
#
# Coordination Sequence:
#
# PCOD8176485 Si02
#       8
#     8   8   8   8   8   8   8   8
#     4  10  19  36  63  89 127 168 206 260 325 388
#     4  10  20  37  62  91 124 164 215 262 317 381
#     4  12  25  41  64  96 128 169 220 267 328 392
#     4  10  20  36  61  90 127 166 206 260 325 391
#     4  10  21  38  62  90 126 169 213 262 323 382
#     4  12  26  42  63  95 132 169 217 270 327 389
#     4  11  23  43  69  92 130 171 220 270 328 383
#     4   9  20  42  65  90 122 172 216 262 313 387
#
# _framework density 20.668835000000001
#
# number of rings (size 3 to 8) (size 9 to 14) (size 15 to 20)
#    0.000    1.500    2.500    3.000    3.500    1.000 
#    0.000    5.625    0.000    0.000    0.000    0.000 
#    0.000    0.000    0.000    0.000    0.000    0.000 
#
# Total GULP energy -396562.102491 kJ/mol
# GULP energy per Si atom -12392.565703 kJ/mol
# Density = 2.062179 g / cm^3
# Si number density = 20.668835 Si / 1000 Ang^3
#
#
#
# Elastic Constant Matrix: (Units=GPa)
#
#
# Indices 1 2 3 4 5 6 
#
# 1 100.2885 32.6453 37.9715 0.0000 0.0000 0.0000
# 2 32.6453 111.5555 46.0879 0.0000 0.0000 0.0000
# 3 37.9715 46.0879 130.4809 0.0000 0.0000 0.0000
# 4 0.0000 0.0000 0.0000 0.4178 0.0000 0.0000
# 5 0.0000 0.0000 0.0000 0.0000 23.3738 0.0000
# 6 0.0000 0.0000 0.0000 0.0000 0.0000 31.7026
#
#
#
# Elastic Compliance Matrix: (Units=1/GPa)
#
#
# Indices 1 2 3 4 5 6 
#
# 1 0.011716 -0.002365 -0.002574 0.000000 0.000000 0.000000
# 2 -0.002365 0.010973 -0.003188 0.000000 0.000000 0.000000
# 3 -0.002574 -0.003188 0.009539 0.000000 0.000000 0.000000
# 4 0.000000 0.000000 0.000000 2.393648 0.000000 0.000000
# 5 0.000000 0.000000 0.000000 0.000000 0.042783 0.000000
# 6 0.000000 0.000000 0.000000 0.000000 0.000000 0.031543
#
#
# Mechanical properties :
#
#
# Convention : Reuss Voigt Hill
#
# Bulk Modulus (GPa) = 62.60012 63.97047 63.28529
# Shear Modulus (GPa) = 1.98273 26.14018 14.06145
#
# Velocity S-wave (km/s) = 0.98049 3.56014 2.61113
# Velocity P-wave (km/s) = 5.62448 6.92220 6.30681
#
# Compressibility (1/GPa) = 0.01597441
#
# Stress axis : x y z
#
# Youngs Moduli (GPa) = 85.35581 91.13128 104.83323
#
# Poissons Ratio (x) = 0.21553 0.26984
# Poissons Ratio (y) = 0.20187 0.33417
# Poissons Ratio (z) = 0.21971 0.29049
#
# Static dielectric constant tensor:
#      x y z
#    x 3.420870 0.000000 0.000000 
#    y 0.000000 3.668340 0.000000 
#    z 0.000000 0.000000 3.998310 
# 
# 
# High freq. dielectric constant tensor:
#      x y z
#    x 1.797070 0.000000 0.000000 
#    y 0.000000 1.821900 0.000000 
#    z 0.000000 0.000000 1.802010 
# 
# From -- ./inp_files/18905.got.cif
#   From: 2010.03.12/outbox.cif.g09.slc.cpg/sg37_10_cif.got.tgz:18905.got - 2010.04.14 02:25:27.
