data_PCOD8176092
_publ_section_title
;
Structure prediction by ZEFSAII (Michael W. Deem and Ramdas Pophale) SiO2 
 PCOD8176092
Probable space group: C M C 21
;
_chemical_formula_sum "Si O2"
_cell_formula_units_Z 64
_cell_length_a 8.867851
_cell_length_b 24.550694
_cell_length_c 15.044732
_cell_angle_alpha 90.000000
_cell_angle_beta 90.000000
_cell_angle_gamma 90.000000
_cell_volume 3275.417134
_symmetry_space_group_name_H-M "C M C 21"
_symmetry_group_IT_number 36
_symmetry_cell_setting 'orthorhombic'
loop_
_space_group_symop_operation_xyz
x,y,z
-x,-y,1/2+z
x,-y,1/2+z
-x,y,z
1/2+x,1/2+y,z
1/2-x,1/2-y,1/2+z
1/2+x,1/2-y,1/2+z
1/2-x,1/2+y,z
loop_
_atom_site_type_symbol
_atom_site_label
_atom_site_fract_x
_atom_site_fract_y
_atom_site_fract_z
Si Si1 0.335927 0.249548 0.508940
Si Si2 0.177450 0.434599 0.655642
Si Si3 0.665942 0.246194 0.298997
Si Si4 0.176101 0.560660 0.657937
Si Si5 0.822089 0.136259 0.306628
Si Si6 0.180459 0.633199 0.495982
Si Si7 0.819182 0.866957 0.504469
Si Si8 0.678346 0.634963 0.801831
O O1 0.500000 0.248760 0.554419
O O2 0.353971 0.251013 0.403580
O O3 0.254767 0.192040 0.532314
O O4 0.258224 0.306726 0.537059
O O5 0.220040 0.497849 0.656162
O O6 0.265121 0.407319 0.736216
O O7 0.234901 0.411780 0.562055
O O8 0.000000 0.424754 0.666023
O O9 0.500000 0.235074 0.256844
O O10 0.776080 0.196750 0.273337
O O11 0.732704 0.304890 0.267657
O O12 0.231655 0.587401 0.565467
O O13 0.254522 0.587980 0.741588
O O14 0.000000 0.570187 0.668991
O O15 0.751290 0.119622 0.400886
O O16 0.000000 0.133437 0.314050
O O17 0.000000 0.636558 0.483779
O O18 0.770372 0.876952 0.402804
O O19 0.000000 0.870343 0.516099
O O20 0.500000 0.633494 0.795844
#
# Coordination Sequence:
#
# PCOD8176092 Si02
#       8
#     8   8   8   8   8   8   8   8
#     4   7  12  27  54  81 107 136 167 207 266 330
#     4  11  24  40  54  75 109 150 193 234 273 323
#     4   8  15  32  56  83 114 146 174 211 270 336
#     4  10  23  39  56  79 109 148 194 232 269 323
#     4  11  22  36  57  85 111 142 184 230 276 326
#     4   9  18  37  60  81 109 144 177 221 279 334
#     4   9  18  35  57  83 111 141 177 222 275 330
#     4   9  19  36  60  87 116 145 176 221 280 332
#
# _framework density 19.539497000000001
#
# number of rings (size 3 to 8) (size 9 to 14) (size 15 to 20)
#    0.000    2.750    0.000    3.750    0.000    4.500 
#    0.000   10.000    0.000    0.000    0.000    0.000 
#    0.000    0.000    0.000    0.000    0.000    0.000 
#
# Total GULP energy -396540.377929 kJ/mol
# GULP energy per Si atom -12391.886810 kJ/mol
# Density = 1.949502 g / cm^3
# Si number density = 19.539497 Si / 1000 Ang^3
#
#
#
# Elastic Constant Matrix: (Units=GPa)
#
#
# Indices 1 2 3 4 5 6 
#
# 1 59.9992 50.7484 38.9495 0.0000 0.0000 0.0000
# 2 50.7484 158.2413 75.8498 0.0000 0.0000 0.0000
# 3 38.9495 75.8498 105.7908 0.0000 0.0000 0.0000
# 4 0.0000 0.0000 0.0000 38.4421 0.0000 0.0000
# 5 0.0000 0.0000 0.0000 0.0000 27.0226 0.0000
# 6 0.0000 0.0000 0.0000 0.0000 0.0000 14.9483
#
#
#
# Elastic Compliance Matrix: (Units=1/GPa)
#
#
# Indices 1 2 3 4 5 6 
#
# 1 0.024604 -0.005407 -0.005182 0.000000 0.000000 0.000000
# 2 -0.005407 0.010817 -0.005765 0.000000 0.000000 0.000000
# 3 -0.005182 -0.005765 0.015494 0.000000 0.000000 0.000000
# 4 0.000000 0.000000 0.000000 0.026013 0.000000 0.000000
# 5 0.000000 0.000000 0.000000 0.000000 0.037006 0.000000
# 6 0.000000 0.000000 0.000000 0.000000 0.000000 0.066897
#
#
# Mechanical properties :
#
#
# Convention : Reuss Voigt Hill
#
# Bulk Modulus (GPa) = 54.92273 72.79185 63.85729
# Shear Modulus (GPa) = 22.76801 26.64818 24.70809
#
# Velocity S-wave (km/s) = 3.41725 3.69699 3.55987
# Velocity P-wave (km/s) = 6.61360 7.45374 7.04620
#
# Compressibility (1/GPa) = 0.01820740
#
# Stress axis : x y z
#
# Youngs Moduli (GPa) = 40.64389 92.45085 64.54240
#
# Poissons Ratio (x) = 0.49985 0.33447
# Poissons Ratio (y) = 0.21975 0.37207
# Poissons Ratio (z) = 0.21062 0.53295
#
# Static dielectric constant tensor:
#      x y z
#    x 3.297070 0.000000 0.000000 
#    y 0.000000 3.696100 0.000000 
#    z 0.000000 0.000000 3.418810 
# 
# 
# High freq. dielectric constant tensor:
#      x y z
#    x 1.736670 0.000000 0.000000 
#    y 0.000000 1.772540 0.000000 
#    z 0.000000 0.000000 1.752150 
# 
# From -- ./inp_files/10993.got.cif
#   From: 2010.03.12/outbox.cif.g09.slc.cpg/sg36_6_cif.got.tgz:10993.got - 2010.04.14 02:13:53.
