data_PCOD8176782
_publ_section_title
;
Structure prediction by ZEFSAII (Michael W. Deem and Ramdas Pophale) SiO2 
 PCOD8176782
Probable space group: C C C 2
;
_chemical_formula_sum "Si O2"
_cell_formula_units_Z 36
_cell_length_a 16.410684
_cell_length_b 7.972479
_cell_length_c 13.559649
_cell_angle_alpha 90.000000
_cell_angle_beta 90.000000
_cell_angle_gamma 90.000000
_cell_volume 1774.060860
_symmetry_space_group_name_H-M "C C C 2"
_symmetry_group_IT_number 37
_symmetry_cell_setting 'orthorhombic'
loop_
_space_group_symop_operation_xyz
x,y,z
-x,-y,z
-x,y,1/2+z
x,-y,1/2+z
1/2+x,1/2+y,z
1/2-x,1/2-y,z
1/2-x,1/2+y,1/2+z
1/2+x,1/2-y,1/2+z
loop_
_atom_site_type_symbol
_atom_site_label
_atom_site_fract_x
_atom_site_fract_y
_atom_site_fract_z
Si Si1 0.876617 0.834267 0.567450
Si Si2 0.250000 0.250000 0.895002
Si Si3 0.790710 0.506372 0.051744
Si Si4 0.750000 0.250000 0.719589
Si Si5 0.000000 0.000000 0.932347
Si Si6 0.862594 0.976036 0.780630
O O1 0.859199 0.635541 0.564021
O O2 0.894487 0.908804 0.675546
O O3 0.957549 0.860908 0.501919
O O4 0.798221 0.931329 0.523300
O O5 0.212357 0.129786 0.815489
O O6 0.188985 0.358773 0.965559
O O7 0.787744 0.599704 0.155865
O O8 0.672934 0.330957 0.779578
O O9 0.931514 0.931554 0.859668
#
# Coordination Sequence:
#
# PCOD8176782 Si02
#       6
#     8   4   8   4   4   8
#     4  10  21  42  62  91 126 169 203 262 322 369
#     4  11  20  36  67  98 116 160 225 262 301 376
#     4   9  19  39  68  88 123 159 217 267 305 365
#     4   9  20  38  67  94 114 164 221 270 309 360
#     4  12  24  38  64  90 132 164 204 246 322 404
#     4  11  23  39  67  91 123 164 213 260 315 382
#
# _framework density 20.292427
#
# number of rings (size 3 to 8) (size 9 to 14) (size 15 to 20)
#    0.000    1.778    2.222    3.333    3.111    0.000 
#    0.000    1.111    0.000    0.000    0.000    0.000 
#    0.000    0.000    0.000    0.000    0.000    0.000 
#
# Total GULP energy -222986.792887 kJ/mol
# GULP energy per Si atom -12388.155160 kJ/mol
# Density = 2.024624 g / cm^3
# Si number density = 20.292427 Si / 1000 Ang^3
#
#
#
# Elastic Constant Matrix: (Units=GPa)
#
#
# Indices 1 2 3 4 5 6 
#
# 1 87.9392 48.0968 46.1094 0.0000 0.0000 0.0000
# 2 48.0968 129.2255 40.4578 0.0000 0.0000 0.0000
# 3 46.1094 40.4578 110.0435 0.0000 0.0000 0.0000
# 4 0.0000 0.0000 0.0000 54.1913 0.0000 0.0000
# 5 0.0000 0.0000 0.0000 0.0000 60.8993 0.0000
# 6 0.0000 0.0000 0.0000 0.0000 0.0000 17.9416
#
#
#
# Elastic Compliance Matrix: (Units=1/GPa)
#
#
# Indices 1 2 3 4 5 6 
#
# 1 0.016629 -0.004529 -0.005303 0.000000 0.000000 0.000000
# 2 -0.004529 0.009979 -0.001771 0.000000 0.000000 0.000000
# 3 -0.005303 -0.001771 0.011960 0.000000 0.000000 0.000000
# 4 0.000000 0.000000 0.000000 0.018453 0.000000 0.000000
# 5 0.000000 0.000000 0.000000 0.000000 0.016421 0.000000
# 6 0.000000 0.000000 0.000000 0.000000 0.000000 0.055736
#
#
# Mechanical properties :
#
#
# Convention : Reuss Voigt Hill
#
# Bulk Modulus (GPa) = 65.09312 66.28178 65.68745
# Shear Modulus (GPa) = 31.74533 39.44272 35.59402
#
# Velocity S-wave (km/s) = 3.95953 4.41354 4.19269
# Velocity P-wave (km/s) = 7.28361 7.66203 7.47522
#
# Compressibility (1/GPa) = 0.01536261
#
# Stress axis : x y z
#
# Youngs Moduli (GPa) = 60.13635 100.21526 83.61037
#
# Poissons Ratio (x) = 0.45388 0.44335
# Poissons Ratio (y) = 0.27236 0.14807
# Poissons Ratio (z) = 0.31888 0.17747
#
# Static dielectric constant tensor:
#      x y z
#    x 3.451900 0.000000 0.000000 
#    y 0.000000 2.874920 0.000000 
#    z 0.000000 0.000000 3.928310 
# 
# 
# High freq. dielectric constant tensor:
#      x y z
#    x 1.754980 0.000000 0.000000 
#    y 0.000000 1.792260 0.000000 
#    z 0.000000 0.000000 1.813850 
# 
# From -- ./inp_files/10309.got.cif
#   From: 2010.03.12/outbox.cif.g09.slc.cpg/sg37_6_cif.got.tgz:10309.got - 2010.04.14 02:25:27.
