data_PCOD8176925
_publ_section_title
;
Structure prediction by ZEFSAII (Michael W. Deem and Ramdas Pophale) SiO2 
 PCOD8176925
Probable space group: C C C 2
;
_chemical_formula_sum "Si O2"
_cell_formula_units_Z 32
_cell_length_a 14.267360
_cell_length_b 10.049765
_cell_length_c 7.721918
_cell_angle_alpha 90.000000
_cell_angle_beta 90.000000
_cell_angle_gamma 90.000000
_cell_volume 1107.196519
_symmetry_space_group_name_H-M "C C C 2"
_symmetry_group_IT_number 37
_symmetry_cell_setting 'orthorhombic'
loop_
_space_group_symop_operation_xyz
x,y,z
-x,-y,z
-x,y,1/2+z
x,-y,1/2+z
1/2+x,1/2+y,z
1/2-x,1/2-y,z
1/2-x,1/2+y,1/2+z
1/2+x,1/2-y,1/2+z
loop_
_atom_site_type_symbol
_atom_site_label
_atom_site_fract_x
_atom_site_fract_y
_atom_site_fract_z
Si Si1 0.607896 0.666262 0.994750
Si Si2 0.403307 0.080383 0.197027
Si Si3 0.405256 0.659324 0.875511
Si Si4 0.225016 0.893589 0.170768
O O1 0.512978 0.620831 0.903039
O O2 0.647908 0.428473 0.020527
O O3 0.690283 0.629895 0.865752
O O4 0.597367 0.825920 0.025923
O O5 0.393191 0.178590 0.366460
O O6 0.500000 0.000000 0.208726
O O7 0.314276 0.987145 0.181463
O O8 0.371265 0.600576 0.687392
O O9 0.250000 0.750000 0.093447
#
# Coordination Sequence:
#
# PCOD8176925 Si02
#       4
#     8   8   8   8
#     4  10  22  45  74 114 161 205 270 336 401 479
#     4  10  24  46  74 119 163 210 272 332 391 483
#     4  10  22  45  74 114 161 205 270 336 401 479
#     4  12  24  42  69 115 167 206 266 336 404 477
#
# _framework density 28.901827000000001
#
# number of rings (size 3 to 8) (size 9 to 14) (size 15 to 20)
#    1.500    0.000    2.500    3.000    0.000    8.000 
#    4.500    1.250    0.000    0.000    0.000   84.000 
#    0.000    0.000    0.000    0.000    0.000    0.000 
#
# Total GULP energy -198271.088273 kJ/mol
# GULP energy per Si atom -12391.943017 kJ/mol
# Density = 2.883605 g / cm^3
# Si number density = 28.901827 Si / 1000 Ang^3
#
#
#
# Elastic Constant Matrix: (Units=GPa)
#
#
# Indices 1 2 3 4 5 6 
#
# 1 204.6291 71.2338 78.7714 0.0000 0.0000 0.0000
# 2 71.2338 182.2988 63.1946 0.0000 0.0000 0.0000
# 3 78.7714 63.1946 185.7199 0.0000 0.0000 0.0000
# 4 0.0000 0.0000 0.0000 74.5357 0.0000 0.0000
# 5 0.0000 0.0000 0.0000 0.0000 14.6243 0.0000
# 6 0.0000 0.0000 0.0000 0.0000 0.0000 32.4916
#
#
#
# Elastic Compliance Matrix: (Units=1/GPa)
#
#
# Indices 1 2 3 4 5 6 
#
# 1 0.006292 -0.001738 -0.002077 0.000000 0.000000 0.000000
# 2 -0.001738 0.006699 -0.001542 0.000000 0.000000 0.000000
# 3 -0.002077 -0.001542 0.006790 0.000000 0.000000 0.000000
# 4 0.000000 0.000000 0.000000 0.013416 0.000000 0.000000
# 5 0.000000 0.000000 0.000000 0.000000 0.068379 0.000000
# 6 0.000000 0.000000 0.000000 0.000000 0.000000 0.030777
#
#
# Mechanical properties :
#
#
# Convention : Reuss Voigt Hill
#
# Bulk Modulus (GPa) = 110.30458 111.00525 110.65492
# Shear Modulus (GPa) = 34.22520 48.29355 41.25937
#
# Velocity S-wave (km/s) = 3.44494 4.09216 3.78242
# Velocity P-wave (km/s) = 7.35334 7.79864 7.57926
#
# Compressibility (1/GPa) = 0.00906581
#
# Stress axis : x y z
#
# Youngs Moduli (GPa) = 158.94217 149.26622 147.27193
#
# Poissons Ratio (x) = 0.25949 0.30588
# Poissons Ratio (y) = 0.27632 0.22713
# Poissons Ratio (z) = 0.33012 0.23021
#
# Static dielectric constant tensor:
#      x y z
#    x 5.042830 0.000000 0.000000 
#    y 0.000000 5.954970 0.000000 
#    z 0.000000 0.000000 5.297660 
# 
# 
# High freq. dielectric constant tensor:
#      x y z
#    x 2.172470 0.000000 0.000000 
#    y 0.000000 2.237430 0.000000 
#    z 0.000000 0.000000 2.180950 
# 
# From -- ./inp_files/7543.got.cif
#   From: 2010.03.12/outbox.cif.g09.slc.cpg/sg37_4_cif.got.tgz:7543.got - 2010.04.14 02:25:27.
