data_PCOD8176535
_publ_section_title
;
Structure prediction by ZEFSAII (Michael W. Deem and Ramdas Pophale) SiO2 
 PCOD8176535
Probable space group: C C C 2
;
_chemical_formula_sum "Si O2"
_cell_formula_units_Z 64
_cell_length_a 7.929792
_cell_length_b 18.824873
_cell_length_c 23.740411
_cell_angle_alpha 90.000000
_cell_angle_beta 90.000000
_cell_angle_gamma 90.000000
_cell_volume 3543.905103
_symmetry_space_group_name_H-M "C C C 2"
_symmetry_group_IT_number 37
_symmetry_cell_setting 'orthorhombic'
loop_
_space_group_symop_operation_xyz
x,y,z
-x,-y,z
-x,y,1/2+z
x,-y,1/2+z
1/2+x,1/2+y,z
1/2-x,1/2-y,z
1/2-x,1/2+y,1/2+z
1/2+x,1/2-y,1/2+z
loop_
_atom_site_type_symbol
_atom_site_label
_atom_site_fract_x
_atom_site_fract_y
_atom_site_fract_z
Si Si1 0.938499 0.670971 0.644740
Si Si2 0.250000 0.166087 0.541170
Si Si3 0.440248 0.420067 0.240669
Si Si4 0.438965 0.168035 0.841635
Si Si5 0.750000 0.334368 0.916703
Si Si6 0.561035 0.331965 0.341635
Si Si7 0.061501 0.829029 0.144740
Si Si8 0.940248 0.420067 0.740669
O O1 0.917301 0.646535 0.578660
O O2 0.019442 0.750000 0.648529
O O3 0.750000 0.672908 0.671542
O O4 0.051218 0.615437 0.678912
O O5 0.250000 0.250000 0.533500
O O6 0.250000 0.130495 0.479373
O O7 0.082699 0.146535 0.578660
O O8 0.500000 0.500000 0.235445
O O9 0.553528 0.376986 0.284583
O O10 0.448782 0.384563 0.178912
O O11 0.250000 0.417691 0.262625
O O12 0.579514 0.139657 0.885533
O O13 0.475736 0.250000 0.826360
O O14 0.250000 0.159212 0.867269
O O15 0.446472 0.123014 0.784583
O O16 0.750000 0.250000 0.920680
O O17 0.579514 0.360343 0.885533
O O18 0.000000 0.500000 0.735445
#
# Coordination Sequence:
#
# PCOD8176535 Si02
#       8
#     8   8   8   8   8   8   8   8
#     4   8  16  32  53  77 103 137 171 211 266 312
#     4   7  14  30  55  78 104 140 173 214 262 311
#     4  12  23  34  50  77 108 144 180 223 268 326
#     4  10  20  34  54  82 113 142 175 221 267 316
#     4   9  16  32  55  82 108 140 183 214 262 317
#     4  10  20  34  54  82 113 142 175 221 267 316
#     4   8  16  32  53  77 103 137 171 211 266 312
#     4  12  23  34  50  77 108 144 180 223 268 326
#
# _framework density 18.059173000000001
#
# number of rings (size 3 to 8) (size 9 to 14) (size 15 to 20)
#    0.750    1.750    1.250    3.000    0.000    3.500 
#    0.000    1.250    0.000    6.000    0.000    0.000 
#    0.000    0.000    0.000    0.000    0.000    0.000 
#
# Total GULP energy -396432.665658 kJ/mol
# GULP energy per Si atom -12388.520802 kJ/mol
# Density = 1.801807 g / cm^3
# Si number density = 18.059173 Si / 1000 Ang^3
#
#
#
# Elastic Constant Matrix: (Units=GPa)
#
#
# Indices 1 2 3 4 5 6 
#
# 1 99.4537 24.7534 42.2032 0.0000 0.0000 0.0000
# 2 24.7534 76.1270 45.8551 0.0000 0.0000 0.0000
# 3 42.2032 45.8551 134.0143 0.0000 0.0000 0.0000
# 4 0.0000 0.0000 0.0000 4.2401 0.0000 0.0000
# 5 0.0000 0.0000 0.0000 0.0000 21.3799 0.0000
# 6 0.0000 0.0000 0.0000 0.0000 0.0000 14.4585
#
#
#
# Elastic Compliance Matrix: (Units=1/GPa)
#
#
# Indices 1 2 3 4 5 6 
#
# 1 0.011848 -0.002022 -0.003039 0.000000 0.000000 0.000000
# 2 -0.002022 0.016891 -0.005143 0.000000 0.000000 0.000000
# 3 -0.003039 -0.005143 0.010179 0.000000 0.000000 0.000000
# 4 0.000000 0.000000 0.000000 0.235844 0.000000 0.000000
# 5 0.000000 0.000000 0.000000 0.000000 0.046773 0.000000
# 6 0.000000 0.000000 0.000000 0.000000 0.000000 0.069164
#
#
# Mechanical properties :
#
#
# Convention : Reuss Voigt Hill
#
# Bulk Modulus (GPa) = 54.02515 59.46869 56.74692
# Shear Modulus (GPa) = 11.98248 21.13458 16.55853
#
# Velocity S-wave (km/s) = 2.57867 3.42467 3.03133
# Velocity P-wave (km/s) = 6.23270 6.97418 6.61384
#
# Compressibility (1/GPa) = 0.01850990
#
# Stress axis : x y z
#
# Youngs Moduli (GPa) = 84.40345 59.20263 98.24399
#
# Poissons Ratio (x) = 0.11969 0.29859
# Poissons Ratio (y) = 0.17064 0.50526
# Poissons Ratio (z) = 0.25653 0.30447
#
# Static dielectric constant tensor:
#      x y z
#    x 3.255280 0.000000 0.000000 
#    y 0.000000 3.015810 0.000000 
#    z 0.000000 0.000000 3.497750 
# 
# 
# High freq. dielectric constant tensor:
#      x y z
#    x 1.689960 0.000000 0.000000 
#    y 0.000000 1.666850 0.000000 
#    z 0.000000 0.000000 1.688460 
# 
# From -- ./inp_files/18531.got.cif
#   From: 2010.03.12/outbox.cif.g09.slc.cpg/sg37_10_cif.got.tgz:18531.got - 2010.04.14 02:25:27.
