data_PCOD8176254
_publ_section_title
;
Structure prediction by ZEFSAII (Michael W. Deem and Ramdas Pophale) SiO2 
 PCOD8176254
Probable space group: C M C 21
;
_chemical_formula_sum "Si O2"
_cell_formula_units_Z 64
_cell_length_a 22.993588
_cell_length_b 14.127008
_cell_length_c 8.681967
_cell_angle_alpha 90.000000
_cell_angle_beta 90.000000
_cell_angle_gamma 90.000000
_cell_volume 2820.168564
_symmetry_space_group_name_H-M "C M C 21"
_symmetry_group_IT_number 36
_symmetry_cell_setting 'orthorhombic'
loop_
_space_group_symop_operation_xyz
x,y,z
-x,-y,1/2+z
x,-y,1/2+z
-x,y,z
1/2+x,1/2+y,z
1/2-x,1/2-y,1/2+z
1/2+x,1/2-y,1/2+z
1/2-x,1/2+y,z
loop_
_atom_site_type_symbol
_atom_site_label
_atom_site_fract_x
_atom_site_fract_y
_atom_site_fract_z
Si Si1 0.327034 0.199190 0.425120
Si Si2 0.627715 0.499337 0.404108
Si Si3 0.934668 0.814546 0.372181
Si Si4 0.663439 0.026638 0.217554
Si Si5 0.632897 0.137411 0.913738
Si Si6 0.933972 0.187214 0.510511
Si Si7 0.273620 0.759743 0.239453
Si Si8 0.707608 0.454131 0.655736
O O1 0.388373 0.249535 0.463382
O O2 0.338840 0.093685 0.367249
O O3 0.287318 0.187924 0.578241
O O4 0.294129 0.260261 0.290964
O O5 0.575819 0.423699 0.419459
O O6 0.606463 0.602393 0.454279
O O7 0.689147 0.464735 0.479089
O O8 0.649944 0.498368 0.229277
O O9 0.926283 0.796598 0.191626
O O10 0.000000 0.787791 0.424438
O O11 0.730282 0.995761 0.184337
O O12 0.625705 0.934268 0.267592
O O13 0.635870 0.078776 0.071738
O O14 0.692655 0.194566 0.884692
O O15 0.581561 0.214195 0.923842
O O16 0.000000 0.162086 0.467669
O O17 0.291541 0.651584 0.218688
#
# Coordination Sequence:
#
# PCOD8176254 Si02
#       8
#     8   8   8   8   8   8   8   8
#     4  11  23  42  66 103 138 183 237 286 354 413
#     4  12  22  42  65 101 139 176 225 272 337 416
#     4  11  24  42  69 100 141 186 232 282 340 418
#     4  11  25  41  66 100 137 176 228 287 357 420
#     4  12  24  46  66  98 135 178 228 291 354 421
#     4  11  25  45  69  98 136 184 234 289 346 416
#     4  11  23  39  66  99 140 181 226 288 351 420
#     4  11  23  37  63  99 134 176 215 273 343 416
#
# _framework density 22.693678999999999
#
# number of rings (size 3 to 8) (size 9 to 14) (size 15 to 20)
#    0.000    0.750    5.000    3.375    1.750    1.000 
#    0.000    3.125    0.000    0.000    0.000    0.000 
#    0.000    0.000    0.000    0.000    0.000    0.000 
#
# Total GULP energy -396688.420782 kJ/mol
# GULP energy per Si atom -12396.513149 kJ/mol
# Density = 2.264203 g / cm^3
# Si number density = 22.693679 Si / 1000 Ang^3
#
#
#
# Elastic Constant Matrix: (Units=GPa)
#
#
# Indices 1 2 3 4 5 6 
#
# 1 96.1205 34.4185 19.6661 0.0000 0.0000 0.0000
# 2 34.4185 107.1386 29.2118 0.0000 0.0000 0.0000
# 3 19.6661 29.2118 64.9579 0.0000 0.0000 0.0000
# 4 0.0000 0.0000 0.0000 40.9207 0.0000 0.0000
# 5 0.0000 0.0000 0.0000 0.0000 21.9434 0.0000
# 6 0.0000 0.0000 0.0000 0.0000 0.0000 32.8501
#
#
#
# Elastic Compliance Matrix: (Units=1/GPa)
#
#
# Indices 1 2 3 4 5 6 
#
# 1 0.012018 -0.003270 -0.002168 0.000000 0.000000 0.000000
# 2 -0.003270 0.011528 -0.004194 0.000000 0.000000 0.000000
# 3 -0.002168 -0.004194 0.017937 0.000000 0.000000 0.000000
# 4 0.000000 0.000000 0.000000 0.024437 0.000000 0.000000
# 5 0.000000 0.000000 0.000000 0.000000 0.045572 0.000000
# 6 0.000000 0.000000 0.000000 0.000000 0.000000 0.030441
#
#
# Mechanical properties :
#
#
# Convention : Reuss Voigt Hill
#
# Bulk Modulus (GPa) = 45.00658 48.31219 46.65938
# Shear Modulus (GPa) = 29.65541 31.47090 30.56315
#
# Velocity S-wave (km/s) = 3.61885 3.72798 3.67382
# Velocity P-wave (km/s) = 6.11038 6.31391 6.21298
#
# Compressibility (1/GPa) = 0.02221897
#
# Stress axis : x y z
#
# Youngs Moduli (GPa) = 83.20870 86.74805 55.75042
#
# Poissons Ratio (x) = 0.28364 0.12087
# Poissons Ratio (y) = 0.27206 0.23382
# Poissons Ratio (z) = 0.18040 0.36383
#
# Static dielectric constant tensor:
#      x y z
#    x 3.860370 0.000000 0.000000 
#    y 0.000000 4.119070 0.000000 
#    z 0.000000 0.000000 4.124940 
# 
# 
# High freq. dielectric constant tensor:
#      x y z
#    x 1.865340 0.000000 0.000000 
#    y 0.000000 1.906310 0.000000 
#    z 0.000000 0.000000 1.899880 
# 
# From -- ./inp_files/5667.got.cif
#   From: 2010.03.12/outbox.cif.g09.slc.cpg/sg36_3_cif.got.tgz:5667.got - 2010.04.14 02:13:53.
