data_PCOD8176705
_publ_section_title
;
Structure prediction by ZEFSAII (Michael W. Deem and Ramdas Pophale) SiO2 
 PCOD8176705
Probable space group: C C C 2
;
_chemical_formula_sum "Si O2"
_cell_formula_units_Z 64
_cell_length_a 15.644561
_cell_length_b 20.762181
_cell_length_c 8.460336
_cell_angle_alpha 90.000000
_cell_angle_beta 90.000000
_cell_angle_gamma 90.000000
_cell_volume 2748.045790
_symmetry_space_group_name_H-M "C C C 2"
_symmetry_group_IT_number 37
_symmetry_cell_setting 'orthorhombic'
loop_
_space_group_symop_operation_xyz
x,y,z
-x,-y,z
-x,y,1/2+z
x,-y,1/2+z
1/2+x,1/2+y,z
1/2-x,1/2-y,z
1/2-x,1/2+y,1/2+z
1/2+x,1/2-y,1/2+z
loop_
_atom_site_type_symbol
_atom_site_label
_atom_site_fract_x
_atom_site_fract_y
_atom_site_fract_z
Si Si1 0.433563 0.845184 0.241140
Si Si2 0.373978 0.594591 0.262257
Si Si3 0.724209 0.616268 0.247677
Si Si4 0.111305 0.368094 0.397540
Si Si5 0.120186 0.224060 0.342929
Si Si6 0.519130 0.293267 0.137028
Si Si7 0.267519 0.825321 0.414573
Si Si8 0.097150 0.020761 0.088231
O O1 0.522838 0.875346 0.301354
O O2 0.436485 0.769220 0.210632
O O3 0.362922 0.850371 0.377096
O O4 0.406506 0.883052 0.081356
O O5 0.452815 0.640411 0.219029
O O6 0.291849 0.637883 0.289770
O O7 0.353507 0.547512 0.112626
O O8 0.398602 0.550363 0.414312
O O9 0.811788 0.586646 0.326911
O O10 0.693223 0.671554 0.371368
O O11 0.646790 0.566936 0.214174
O O12 0.750718 0.653516 0.090815
O O13 0.150445 0.296147 0.374837
O O14 0.037903 0.206495 0.451507
O O15 0.083350 0.214219 0.163366
O O16 0.250000 0.750000 0.392680
O O17 0.000000 0.000000 0.138252
#
# Coordination Sequence:
#
# PCOD8176705 Si02
#       8
#     8   8   8   8   8   8   8   8
#     4  10  21  38  61  95 134 172 213 282 354 432
#     4  11  25  40  62  89 125 176 228 281 334 415
#     4  11  24  39  62  91 130 182 231 288 337 411
#     4  10  21  37  60  92 131 174 219 277 358 415
#     4  10  22  35  58  89 130 171 224 281 346 415
#     4  10  22  36  59  88 128 173 221 273 349 414
#     4  11  22  38  63  94 133 168 224 284 362 417
#     4  11  26  44  62  89 130 184 233 280 333 397
#
# _framework density 23.289276999999998
#
# number of rings (size 3 to 8) (size 9 to 14) (size 15 to 20)
#    0.000    1.500    1.250    3.000    8.750    2.000 
#    0.000    0.000    0.000    0.750    0.000    5.250 
#    0.000    0.000    0.000    0.000    0.000    0.000 
#
# Total GULP energy -396456.843859 kJ/mol
# GULP energy per Si atom -12389.276371 kJ/mol
# Density = 2.323627 g / cm^3
# Si number density = 23.289277 Si / 1000 Ang^3
#
#
#
# Elastic Constant Matrix: (Units=GPa)
#
#
# Indices 1 2 3 4 5 6 
#
# 1 132.8930 23.1500 24.8468 0.0000 0.0000 0.0000
# 2 23.1500 57.1397 14.9671 0.0000 0.0000 0.0000
# 3 24.8468 14.9671 62.0297 0.0000 0.0000 0.0000
# 4 0.0000 0.0000 0.0000 32.6502 0.0000 0.0000
# 5 0.0000 0.0000 0.0000 0.0000 37.3306 0.0000
# 6 0.0000 0.0000 0.0000 0.0000 0.0000 31.4685
#
#
#
# Elastic Compliance Matrix: (Units=1/GPa)
#
#
# Indices 1 2 3 4 5 6 
#
# 1 0.008515 -0.002729 -0.002752 0.000000 0.000000 0.000000
# 2 -0.002729 0.019556 -0.003626 0.000000 0.000000 0.000000
# 3 -0.002752 -0.003626 0.018099 0.000000 0.000000 0.000000
# 4 0.000000 0.000000 0.000000 0.030628 0.000000 0.000000
# 5 0.000000 0.000000 0.000000 0.000000 0.026788 0.000000
# 6 0.000000 0.000000 0.000000 0.000000 0.000000 0.031778
#
#
# Mechanical properties :
#
#
# Convention : Reuss Voigt Hill
#
# Bulk Modulus (GPa) = 35.77028 41.99889 38.88459
# Shear Modulus (GPa) = 30.69463 32.89644 31.79554
#
# Velocity S-wave (km/s) = 3.63433 3.76242 3.69893
# Velocity P-wave (km/s) = 5.74487 6.07842 5.91400
#
# Compressibility (1/GPa) = 0.02795617
#
# Stress axis : x y z
#
# Youngs Moduli (GPa) = 117.44257 51.13458 55.25294
#
# Poissons Ratio (x) = 0.13954 0.15207
# Poissons Ratio (y) = 0.32048 0.20033
# Poissons Ratio (z) = 0.32323 0.18540
#
# Static dielectric constant tensor:
#      x y z
#    x 4.378230 0.000000 0.000000 
#    y 0.000000 4.023550 0.000000 
#    z 0.000000 0.000000 4.269120 
# 
# 
# High freq. dielectric constant tensor:
#      x y z
#    x 1.930890 0.000000 0.000000 
#    y 0.000000 1.886330 0.000000 
#    z 0.000000 0.000000 1.926420 
# 
# From -- ./inp_files/3746.got.cif
#   From: 2010.03.12/outbox.cif.g09.slc.cpg/sg37_2_cif.got.tgz:3746.got - 2010.04.14 02:25:27.
