data_PCOD8176684
_publ_section_title
;
Structure prediction by ZEFSAII (Michael W. Deem and Ramdas Pophale) SiO2 
 PCOD8176684
Probable space group: C C C 2
;
_chemical_formula_sum "Si O2"
_cell_formula_units_Z 64
_cell_length_a 17.609807
_cell_length_b 34.587813
_cell_length_c 5.210029
_cell_angle_alpha 90.000000
_cell_angle_beta 90.000000
_cell_angle_gamma 90.000000
_cell_volume 3173.349010
_symmetry_space_group_name_H-M "C C C 2"
_symmetry_group_IT_number 37
_symmetry_cell_setting 'orthorhombic'
loop_
_space_group_symop_operation_xyz
x,y,z
-x,-y,z
-x,y,1/2+z
x,-y,1/2+z
1/2+x,1/2+y,z
1/2-x,1/2-y,z
1/2-x,1/2+y,1/2+z
1/2+x,1/2-y,1/2+z
loop_
_atom_site_type_symbol
_atom_site_label
_atom_site_fract_x
_atom_site_fract_y
_atom_site_fract_z
Si Si1 0.677669 0.914103 0.298900
Si Si2 0.148930 0.095902 0.270201
Si Si3 0.158284 0.855627 0.274408
Si Si4 0.830772 0.634418 0.802524
Si Si5 0.047395 0.301039 0.802198
Si Si6 0.533425 0.043333 0.730872
Si Si7 0.451819 0.713435 0.261493
Si Si8 0.415209 0.483577 0.340492
O O1 0.766931 0.923649 0.270105
O O2 0.660211 0.897202 0.579080
O O3 0.625020 0.952738 0.264755
O O4 0.652088 0.884052 0.079577
O O5 0.138528 0.125935 0.500106
O O6 0.086523 0.062403 0.304471
O O7 0.130291 0.116203 0.001405
O O8 0.246974 0.847856 0.301058
O O9 0.119441 0.814297 0.300603
O O10 0.884438 0.670233 0.747271
O O11 0.078302 0.257293 0.778922
O O12 0.983598 0.308454 0.587559
O O13 0.507788 0.064764 0.469150
O O14 0.500000 0.000000 0.704574
O O15 0.512808 0.705087 0.483368
O O16 0.500000 0.500000 0.378894
O O17 0.372453 0.495442 0.603533
#
# Coordination Sequence:
#
# PCOD8176684 Si02
#       8
#     8   8   8   8   8   8   8   8
#     4  10  21  37  57  82 114 145 189 240 282 339
#     4  10  21  40  59  84 114 148 188 236 288 335
#     4  10  21  39  60  85 116 149 195 236 280 340
#     4  10  21  36  59  86 113 151 192 234 285 334
#     4  10  21  36  57  85 122 154 191 233 282 339
#     4  10  21  37  53  78 108 141 183 230 279 336
#     4  10  21  39  56  86 121 154 191 234 281 334
#     4  10  21  40  57  82 114 140 181 237 276 344
#
# _framework density 20.167964999999999
#
# number of rings (size 3 to 8) (size 9 to 14) (size 15 to 20)
#    0.000    2.000    0.000    3.000    0.000    3.500 
#   18.000    0.000    0.000    9.000    0.000    0.000 
#    0.000    0.000    0.000    0.000    0.000    0.000 
#
# Total GULP energy -396687.113971 kJ/mol
# GULP energy per Si atom -12396.472312 kJ/mol
# Density = 2.012206 g / cm^3
# Si number density = 20.167965 Si / 1000 Ang^3
#
#
#
# Elastic Constant Matrix: (Units=GPa)
#
#
# Indices 1 2 3 4 5 6 
#
# 1 62.5946 43.9061 -5.0285 0.0000 0.0000 0.0000
# 2 43.9061 73.9398 -9.1383 0.0000 0.0000 0.0000
# 3 -5.0285 -9.1383 109.0612 0.0000 0.0000 0.0000
# 4 0.0000 0.0000 0.0000 19.7945 0.0000 0.0000
# 5 0.0000 0.0000 0.0000 0.0000 14.5228 0.0000
# 6 0.0000 0.0000 0.0000 0.0000 0.0000 34.1404
#
#
#
# Elastic Compliance Matrix: (Units=1/GPa)
#
#
# Indices 1 2 3 4 5 6 
#
# 1 0.027381 -0.016272 -0.000101 0.000000 0.000000 0.000000
# 2 -0.016272 0.023336 0.001205 0.000000 0.000000 0.000000
# 3 -0.000101 0.001205 0.009265 0.000000 0.000000 0.000000
# 4 0.000000 0.000000 0.000000 0.050519 0.000000 0.000000
# 5 0.000000 0.000000 0.000000 0.000000 0.068857 0.000000
# 6 0.000000 0.000000 0.000000 0.000000 0.000000 0.029291
#
#
# Mechanical properties :
#
#
# Convention : Reuss Voigt Hill
#
# Bulk Modulus (GPa) = 33.72986 33.89714 33.81350
# Shear Modulus (GPa) = 20.09102 28.08195 24.08648
#
# Velocity S-wave (km/s) = 3.15966 3.73554 3.45961
# Velocity P-wave (km/s) = 5.48380 5.95396 5.72371
#
# Compressibility (1/GPa) = 0.02964732
#
# Stress axis : x y z
#
# Youngs Moduli (GPa) = 36.52124 42.85268 107.92742
#
# Poissons Ratio (x) = 0.69729 0.01089
# Poissons Ratio (y) = 0.59426 -0.13006
# Poissons Ratio (z) = 0.00369 -0.05164
#
# Static dielectric constant tensor:
#      x y z
#    x 3.506120 0.000000 0.000000 
#    y 0.000000 3.455450 0.000000 
#    z 0.000000 0.000000 4.805230 
# 
# 
# High freq. dielectric constant tensor:
#      x y z
#    x 1.769980 0.000000 0.000000 
#    y 0.000000 1.771340 0.000000 
#    z 0.000000 0.000000 1.824020 
# 
# From -- ./inp_files/880.got.cif
#   From: 2010.03.12/outbox.cif.g09.slc.cpg/sg37_1_cif.got.tgz:880.got - 2010.04.14 02:25:27.
