data_PCOD8176282
_publ_section_title
;
Structure prediction by ZEFSAII (Michael W. Deem and Ramdas Pophale) SiO2 
 PCOD8176282
Probable space group: C M C 21
;
_chemical_formula_sum "Si O2"
_cell_formula_units_Z 48
_cell_length_a 8.390454
_cell_length_b 27.083192
_cell_length_c 9.944090
_cell_angle_alpha 90.000000
_cell_angle_beta 90.000000
_cell_angle_gamma 90.000000
_cell_volume 2259.697763
_symmetry_space_group_name_H-M "C M C 21"
_symmetry_group_IT_number 36
_symmetry_cell_setting 'orthorhombic'
loop_
_space_group_symop_operation_xyz
x,y,z
-x,-y,1/2+z
x,-y,1/2+z
-x,y,z
1/2+x,1/2+y,z
1/2-x,1/2-y,1/2+z
1/2+x,1/2-y,1/2+z
1/2-x,1/2+y,z
loop_
_atom_site_type_symbol
_atom_site_label
_atom_site_fract_x
_atom_site_fract_y
_atom_site_fract_z
Si Si1 0.683000 0.285502 0.171140
Si Si2 0.182768 0.393502 0.562402
Si Si3 0.183414 0.928373 0.834206
Si Si4 0.317595 0.707614 0.974905
Si Si5 0.315592 0.110309 0.599879
Si Si6 0.187814 0.042355 0.822680
O O1 0.500000 0.273315 0.138186
O O2 0.724351 0.273127 0.325751
O O3 0.794231 0.252446 0.077344
O O4 0.713950 0.342775 0.144441
O O5 0.292102 0.402297 0.691593
O O6 0.205060 0.337943 0.511028
O O7 0.228162 0.431686 0.447085
O O8 0.000000 0.401527 0.602626
O O9 0.000000 0.923336 0.877330
O O10 0.234598 0.985198 0.824760
O O11 0.291603 0.900670 0.942964
O O12 0.500000 0.689461 0.980057
O O13 0.500000 0.120563 0.629885
O O14 0.253931 0.063411 0.683094
O O15 0.000000 0.051029 0.831760
#
# Coordination Sequence:
#
# PCOD8176282 Si02
#       6
#     8   8   8   8   8   8
#     4  11  25  45  70  97 131 172 216 265 324 390
#     4  12  25  42  67  98 134 172 217 271 326 385
#     4  11  25  43  66  95 132 177 221 269 323 387
#     4  11  25  45  70  97 131 172 216 265 324 390
#     4  12  25  42  67  98 134 172 217 271 326 385
#     4  11  23  43  68  95 130 175 223 267 325 389
#
# _framework density 21.241779999999999
#
# number of rings (size 3 to 8) (size 9 to 14) (size 15 to 20)
#    0.000    0.667    1.667    6.000    2.333    8.667 
#    0.000    0.000    0.000    0.000    0.000    0.000 
#    0.000    0.000    0.000    0.000    0.000    0.000 
#
# Total GULP energy -297842.630388 kJ/mol
# GULP energy per Si atom -12410.109599 kJ/mol
# Density = 2.119343 g / cm^3
# Si number density = 21.241780 Si / 1000 Ang^3
#
#
#
# Elastic Constant Matrix: (Units=GPa)
#
#
# Indices 1 2 3 4 5 6 
#
# 1 56.9557 45.2510 13.9664 0.0000 0.0000 0.0000
# 2 45.2510 38.7801 77.4497 0.0000 0.0000 0.0000
# 3 13.9664 77.4497 98.8235 0.0000 0.0000 0.0000
# 4 0.0000 0.0000 0.0000 40.7496 0.0000 0.0000
# 5 0.0000 0.0000 0.0000 0.0000 32.8638 0.0000
# 6 0.0000 0.0000 0.0000 0.0000 0.0000 26.1489
#
#
#
# Elastic Compliance Matrix: (Units=1/GPa)
#
#
# Indices 1 2 3 4 5 6 
#
# 1 0.009202 0.014402 -0.012588 0.000000 0.000000 0.000000
# 2 0.014402 -0.023082 0.016055 0.000000 0.000000 0.000000
# 3 -0.012588 0.016055 -0.000684 0.000000 0.000000 0.000000
# 4 0.000000 0.000000 0.000000 0.024540 0.000000 0.000000
# 5 0.000000 0.000000 0.000000 0.000000 0.030429 0.000000
# 6 0.000000 0.000000 0.000000 0.000000 0.000000 0.038242
#
#
# Mechanical properties :
#
#
# Convention : Reuss Voigt Hill
#
# Bulk Modulus (GPa) = 47.22914 51.98815 49.60864
# Shear Modulus (GPa) = 100.06863 23.81195 61.94029
#
# Velocity S-wave (km/s) = 6.87107 3.35176 5.40583
# Velocity P-wave (km/s) = 9.23207 6.28543 7.89740
#
# Compressibility (1/GPa) = 0.02117337
#
# Stress axis : x y z
#
# Youngs Moduli (GPa) = 108.67396 -43.32296 -1461.21909
#
# Poissons Ratio (x) = 0.62394 -18.39320
# Poissons Ratio (y) = -1.56512 23.45948
# Poissons Ratio (z) = 1.36794 0.69554
#
# Static dielectric constant tensor:
#      x y z
#    x 3.785450 0.000000 0.000000 
#    y 0.000000 3.832890 0.000000 
#    z 0.000000 0.000000 3.963970 
# 
# 
# High freq. dielectric constant tensor:
#      x y z
#    x 1.842180 0.000000 0.000000 
#    y 0.000000 1.837260 0.000000 
#    z 0.000000 0.000000 1.848310 
# 
# From -- ./inp_files/2669.got.cif
#   From: 2010.03.12/outbox.cif.g09.slc.cpg/sg36_2_cif.got.tgz:2669.got - 2010.04.14 02:13:53.
