data_PCOD8176521
_publ_section_title
;
Structure prediction by ZEFSAII (Michael W. Deem and Ramdas Pophale) SiO2 
 PCOD8176521
Probable space group: C C C 2
;
_chemical_formula_sum "Si O2"
_cell_formula_units_Z 52
_cell_length_a 13.777568
_cell_length_b 23.879359
_cell_length_c 9.458943
_cell_angle_alpha 90.000000
_cell_angle_beta 90.000000
_cell_angle_gamma 90.000000
_cell_volume 3111.987446
_symmetry_space_group_name_H-M "C C C 2"
_symmetry_group_IT_number 37
_symmetry_cell_setting 'orthorhombic'
loop_
_space_group_symop_operation_xyz
x,y,z
-x,-y,z
-x,y,1/2+z
x,-y,1/2+z
1/2+x,1/2+y,z
1/2-x,1/2-y,z
1/2-x,1/2+y,1/2+z
1/2+x,1/2-y,1/2+z
loop_
_atom_site_type_symbol
_atom_site_label
_atom_site_fract_x
_atom_site_fract_y
_atom_site_fract_z
Si Si1 0.777402 0.339903 0.098500
Si Si2 0.277401 0.160097 0.924938
Si Si3 0.813839 0.550425 0.421331
Si Si4 0.000000 0.500000 0.011719
Si Si5 0.404958 0.264889 0.599803
Si Si6 0.904958 0.235110 0.423635
Si Si7 0.186161 0.550425 0.602108
O O1 0.791958 0.358174 0.261719
O O2 0.670532 0.315055 0.075690
O O3 0.856962 0.293824 0.054431
O O4 0.789406 0.391683 0.995418
O O5 0.170531 0.184944 0.947747
O O6 0.356959 0.206178 0.969007
O O7 0.289408 0.108317 0.028021
O O8 0.930685 0.540040 0.416932
O O9 0.764001 0.500000 0.511719
O O10 0.773117 0.550992 0.261719
O O11 0.069315 0.459960 0.106507
O O12 0.500000 0.278078 0.511719
O O13 0.436315 0.261697 0.761719
#
# Coordination Sequence:
#
# PCOD8176521 Si02
#       7
#     8   8   8   4   8   8   8
#     4   9  19  35  51  72 105 136 167 205 251 297
#     4   9  19  35  51  72 105 136 167 205 251 297
#     4  10  20  32  49  72 101 132 165 202 246 297
#     4   8  22  32  46  72 104 128 166 196 256 292
#     4   9  19  34  52  74 101 136 169 207 251 295
#     4   9  19  34  52  74 101 136 169 207 251 295
#     4  10  20  32  49  72 101 132 165 202 246 297
#
# _framework density 16.709579000000002
#
# number of rings (size 3 to 8) (size 9 to 14) (size 15 to 20)
#    0.923    1.846    0.000    3.231    2.154    2.462 
#    0.000    3.077    0.000    0.923    0.000    6.462 
#    0.000    0.000    0.000    0.000    0.000    0.000 
#
# Total GULP energy -322221.302210 kJ/mol
# GULP energy per Si atom -12393.127008 kJ/mol
# Density = 1.667155 g / cm^3
# Si number density = 16.709579 Si / 1000 Ang^3
#
#
#
# Elastic Constant Matrix: (Units=GPa)
#
#
# Indices 1 2 3 4 5 6 
#
# 1 74.5862 28.3976 38.5490 0.0000 0.0000 0.0000
# 2 28.3976 120.8026 72.7236 0.0000 0.0000 0.0000
# 3 38.5490 72.7236 116.8378 0.0000 0.0000 0.0000
# 4 0.0000 0.0000 0.0000 -607.3755 0.0000 0.0000
# 5 0.0000 0.0000 0.0000 0.0000 28.5108 0.0000
# 6 0.0000 0.0000 0.0000 0.0000 0.0000 16.2973
#
#
#
# Elastic Compliance Matrix: (Units=1/GPa)
#
#
# Indices 1 2 3 4 5 6 
#
# 1 0.016231 -0.000946 -0.004766 0.000000 0.000000 0.000000
# 2 -0.000946 0.013294 -0.007962 0.000000 0.000000 0.000000
# 3 -0.004766 -0.007962 0.015087 0.000000 0.000000 0.000000
# 4 0.000000 0.000000 0.000000 -0.001646 0.000000 0.000000
# 5 0.000000 0.000000 0.000000 0.000000 0.035074 0.000000
# 6 0.000000 0.000000 0.000000 0.000000 0.000000 0.061360
#
#
# Mechanical properties :
#
#
# Convention : Reuss Voigt Hill
#
# Bulk Modulus (GPa) = 57.92843 65.72968 61.82905
# Shear Modulus (GPa) = 28.98492 -101.00973 -36.01241
#
# Velocity S-wave (km/s) = 4.16941 -7.78341 -4.64744
# Velocity P-wave (km/s) = 7.61063 6.43065 2.87822
#
# Compressibility (1/GPa) = 0.01726268
#
# Stress axis : x y z
#
# Youngs Moduli (GPa) = 61.61077 75.22364 66.28057
#
# Poissons Ratio (x) = 0.07118 0.31591
# Poissons Ratio (y) = 0.05830 0.52774
# Poissons Ratio (z) = 0.29365 0.59895
#
# Static dielectric constant tensor:
#      x y z
#    x 2.870520 0.000000 0.000000 
#    y 0.000000 3.022100 0.000000 
#    z 0.000000 0.000000 3.038990 
# 
# 
# High freq. dielectric constant tensor:
#      x y z
#    x 1.617360 0.000000 0.000000 
#    y 0.000000 1.643550 0.000000 
#    z 0.000000 0.000000 1.645430 
# 
# From -- ./inp_files/3704.got.cif
#   From: 2010.03.12/outbox.cif.g09.slc.cpg/sg37_2_cif.got.tgz:3704.got - 2010.04.14 02:25:27.
