data_PCOD8176702
_publ_section_title
;
Structure prediction by ZEFSAII (Michael W. Deem and Ramdas Pophale) SiO2 
 PCOD8176702
Probable space group: C C C 2
;
_chemical_formula_sum "Si O2"
_cell_formula_units_Z 48
_cell_length_a 4.999694
_cell_length_b 15.105926
_cell_length_c 28.373164
_cell_angle_alpha 90.000000
_cell_angle_beta 90.000000
_cell_angle_gamma 90.000000
_cell_volume 2142.883426
_symmetry_space_group_name_H-M "C C C 2"
_symmetry_group_IT_number 37
_symmetry_cell_setting 'orthorhombic'
loop_
_space_group_symop_operation_xyz
x,y,z
-x,-y,z
-x,y,1/2+z
x,-y,1/2+z
1/2+x,1/2+y,z
1/2-x,1/2-y,z
1/2-x,1/2+y,1/2+z
1/2+x,1/2-y,1/2+z
loop_
_atom_site_type_symbol
_atom_site_label
_atom_site_fract_x
_atom_site_fract_y
_atom_site_fract_z
Si Si1 0.494006 0.605193 0.754960
Si Si2 0.009511 0.309519 0.903974
Si Si3 0.503637 0.188761 0.508969
Si Si4 0.243773 0.556936 0.081728
Si Si5 0.494696 0.690486 0.156729
Si Si6 0.001073 0.397426 0.809099
O O1 0.500000 0.500000 0.756247
O O2 0.430481 0.631939 0.701468
O O3 0.262232 0.646286 0.787305
O O4 0.756934 0.645816 0.779456
O O5 0.750000 0.250000 0.904267
O O6 0.998239 0.387036 0.865600
O O7 0.250000 0.250000 0.886453
O O8 0.068015 0.348083 0.956405
O O9 0.250000 0.250000 0.507192
O O10 0.428786 0.104878 0.540918
O O11 0.750000 0.250000 0.527966
O O12 0.500000 0.500000 0.062537
O O13 0.383424 0.627853 0.115523
O O14 0.000000 0.500000 0.106525
O O15 0.250000 0.750000 0.172918
O O16 0.750000 0.750000 0.139959
O O17 0.000000 0.500000 0.798202
#
# Coordination Sequence:
#
# PCOD8176702 Si02
#       6
#     8   8   8   8   8   8
#     4  10  22  40  60  86 124 164 205 255 312 369
#     4  10  21  37  61  90 123 162 204 253 309 367
#     4  10  22  43  66  92 128 168 209 262 321 378
#     4  12  26  44  68  97 127 167 215 269 326 387
#     4  12  26  43  66  95 126 166 211 263 321 383
#     4  10  21  37  59  88 123 163 203 252 308 368
#
# _framework density 22.399726000000001
#
# number of rings (size 3 to 8) (size 9 to 14) (size 15 to 20)
#    0.000    1.333    0.000    5.000    0.000    8.000 
#    0.000    2.500    0.000    0.000    0.000    0.000 
#    0.000    0.000    0.000    0.000    0.000    0.000 
#
# Total GULP energy -297402.717905 kJ/mol
# GULP energy per Si atom -12391.779913 kJ/mol
# Density = 2.234874 g / cm^3
# Si number density = 22.399726 Si / 1000 Ang^3
#
#
#
# Elastic Constant Matrix: (Units=GPa)
#
#
# Indices 1 2 3 4 5 6 
#
# 1 187.2315 51.6431 48.2168 0.0000 0.0000 0.0000
# 2 51.6431 56.6486 43.6408 0.0000 0.0000 0.0000
# 3 48.2168 43.6408 138.6581 0.0000 0.0000 0.0000
# 4 0.0000 0.0000 0.0000 7.6209 0.0000 0.0000
# 5 0.0000 0.0000 0.0000 0.0000 29.6191 0.0000
# 6 0.0000 0.0000 0.0000 0.0000 0.0000 34.4845
#
#
#
# Elastic Compliance Matrix: (Units=1/GPa)
#
#
# Indices 1 2 3 4 5 6 
#
# 1 0.007170 -0.006093 -0.000576 0.000000 0.000000 0.000000
# 2 -0.006093 0.028480 -0.006845 0.000000 0.000000 0.000000
# 3 -0.000576 -0.006845 0.009567 0.000000 0.000000 0.000000
# 4 0.000000 0.000000 0.000000 0.131218 0.000000 0.000000
# 5 0.000000 0.000000 0.000000 0.000000 0.033762 0.000000
# 6 0.000000 0.000000 0.000000 0.000000 0.000000 0.028998
#
#
# Mechanical properties :
#
#
# Convention : Reuss Voigt Hill
#
# Bulk Modulus (GPa) = 54.97611 74.39328 64.68470
# Shear Modulus (GPa) = 18.36304 30.28073 24.32189
#
# Velocity S-wave (km/s) = 2.86630 3.68072 3.29874
# Velocity P-wave (km/s) = 5.96244 7.16571 6.59159
#
# Compressibility (1/GPa) = 0.01818972
#
# Stress axis : x y z
#
# Youngs Moduli (GPa) = 139.47470 35.11177 104.53092
#
# Poissons Ratio (x) = 0.21393 0.06016
# Poissons Ratio (y) = 0.84980 0.71553
# Poissons Ratio (z) = 0.08028 0.24034
#
# Static dielectric constant tensor:
#      x y z
#    x 4.683240 0.000000 0.000000 
#    y 0.000000 3.885290 0.000000 
#    z 0.000000 0.000000 4.132040 
# 
# 
# High freq. dielectric constant tensor:
#      x y z
#    x 1.910640 0.000000 0.000000 
#    y 0.000000 1.869760 0.000000 
#    z 0.000000 0.000000 1.883050 
# 
# From -- ./inp_files/19313.got.cif
#   From: 2010.03.12/outbox.cif.g09.slc.cpg/sg37_10_cif.got.tgz:19313.got - 2010.04.14 02:25:27.
