data_PCOD8176188
_publ_section_title
;
Structure prediction by ZEFSAII (Michael W. Deem and Ramdas Pophale) SiO2 
 PCOD8176188
Probable space group: C M C 21
;
_chemical_formula_sum "Si O2"
_cell_formula_units_Z 64
_cell_length_a 8.822079
_cell_length_b 20.067487
_cell_length_c 19.905298
_cell_angle_alpha 90.000000
_cell_angle_beta 90.000000
_cell_angle_gamma 90.000000
_cell_volume 3523.973359
_symmetry_space_group_name_H-M "C M C 21"
_symmetry_group_IT_number 36
_symmetry_cell_setting 'orthorhombic'
loop_
_space_group_symop_operation_xyz
x,y,z
-x,-y,1/2+z
x,-y,1/2+z
-x,y,z
1/2+x,1/2+y,z
1/2-x,1/2-y,1/2+z
1/2+x,1/2-y,1/2+z
1/2-x,1/2+y,z
loop_
_atom_site_type_symbol
_atom_site_label
_atom_site_fract_x
_atom_site_fract_y
_atom_site_fract_z
Si Si1 0.320259 0.915901 0.598390
Si Si2 0.172574 0.192805 0.325028
Si Si3 0.319860 0.200794 0.008108
Si Si4 0.678437 0.019672 0.487866
Si Si5 0.678440 0.920733 0.749499
Si Si6 0.178846 0.025787 0.848737
Si Si7 0.825543 0.155785 0.479136
Si Si8 0.322126 0.838816 0.362248
O O1 0.500000 0.913416 0.599461
O O2 0.260157 0.845028 0.569069
O O3 0.259145 0.926486 0.673409
O O4 0.264408 0.975549 0.550530
O O5 0.284689 0.153277 0.276046
O O6 0.194016 0.165277 0.399836
O O7 0.213053 0.271181 0.321190
O O8 0.000000 0.181019 0.301816
O O9 0.500000 0.202577 0.002728
O O10 0.265381 0.277311 0.016655
O O11 0.261133 0.169423 0.938299
O O12 0.500000 0.012823 0.477116
O O13 0.722062 0.095489 0.504515
O O14 0.757958 0.994814 0.420778
O O15 0.500000 0.933279 0.754124
O O16 0.764096 0.975807 0.792170
O O17 0.232777 0.099965 0.828746
O O18 0.000000 0.021976 0.851390
O O19 0.000000 0.140511 0.496993
O O20 0.500000 0.855003 0.361146
#
# Coordination Sequence:
#
# PCOD8176188 Si02
#       8
#     8   8   8   8   8   8   8   8
#     4   9  19  35  56  80 106 141 187 227 269 327
#     4   9  18  33  54  81 111 141 174 220 272 327
#     4   8  14  30  55  79 104 137 172 214 267 325
#     4  11  20  34  57  81 108 143 183 231 277 324
#     4  11  22  36  56  80 109 150 189 224 271 331
#     4  12  23  35  53  81 114 145 184 234 277 322
#     4   9  17  30  53  82 110 137 171 217 269 324
#     4   9  17  33  58  82 106 140 178 219 276 328
#
# _framework density 18.161317
#
# number of rings (size 3 to 8) (size 9 to 14) (size 15 to 20)
#    0.000    2.250    2.500    3.375    0.000    0.500 
#    0.000    5.625    0.000    3.000    0.000    0.000 
#    0.000    0.000    0.000    0.000    0.000    0.000 
#
# Total GULP energy -396745.042993 kJ/mol
# GULP energy per Si atom -12398.282594 kJ/mol
# Density = 1.811998 g / cm^3
# Si number density = 18.161317 Si / 1000 Ang^3
#
#
#
# Elastic Constant Matrix: (Units=GPa)
#
#
# Indices 1 2 3 4 5 6 
#
# 1 69.6019 47.6824 38.5267 0.0000 0.0000 0.0000
# 2 47.6824 162.0737 71.0880 0.0000 0.0000 0.0000
# 3 38.5267 71.0880 112.3034 0.0000 0.0000 0.0000
# 4 0.0000 0.0000 0.0000 25.5148 0.0000 0.0000
# 5 0.0000 0.0000 0.0000 0.0000 12.4295 0.0000
# 6 0.0000 0.0000 0.0000 0.0000 0.0000 32.9789
#
#
#
# Elastic Compliance Matrix: (Units=1/GPa)
#
#
# Indices 1 2 3 4 5 6 
#
# 1 0.019324 -0.003845 -0.004195 0.000000 0.000000 0.000000
# 2 -0.003845 0.009307 -0.004572 0.000000 0.000000 0.000000
# 3 -0.004195 -0.004572 0.013238 0.000000 0.000000 0.000000
# 4 0.000000 0.000000 0.000000 0.039193 0.000000 0.000000
# 5 0.000000 0.000000 0.000000 0.000000 0.080454 0.000000
# 6 0.000000 0.000000 0.000000 0.000000 0.000000 0.030322
#
#
# Mechanical properties :
#
#
# Convention : Reuss Voigt Hill
#
# Bulk Modulus (GPa) = 60.08350 73.17481 66.62916
# Shear Modulus (GPa) = 22.46084 26.63010 24.54547
#
# Velocity S-wave (km/s) = 3.52055 3.83340 3.68030
# Velocity P-wave (km/s) = 7.04846 7.74418 7.40449
#
# Compressibility (1/GPa) = 0.01664350
#
# Stress axis : x y z
#
# Youngs Moduli (GPa) = 51.74984 107.45083 75.54132
#
# Poissons Ratio (x) = 0.41314 0.31692
# Poissons Ratio (y) = 0.19898 0.34538
# Poissons Ratio (z) = 0.21711 0.49127
#
# Static dielectric constant tensor:
#      x y z
#    x 3.105500 0.000000 0.000000 
#    y 0.000000 3.720410 0.000000 
#    z 0.000000 0.000000 3.334690 
# 
# 
# High freq. dielectric constant tensor:
#      x y z
#    x 1.680300 0.000000 0.000000 
#    y 0.000000 1.723630 0.000000 
#    z 0.000000 0.000000 1.675820 
# 
# From -- ./inp_files/15811.got.cif
#   From: 2010.03.12/outbox.cif.g09.slc.cpg/sg36_8_cif.got.tgz:15811.got - 2010.04.14 02:13:53.
