data_PCOD8176979
_publ_section_title
;
Structure prediction by ZEFSAII (Michael W. Deem and Ramdas Pophale) SiO2 
 PCOD8176979
Probable space group: C C C 2
;
_chemical_formula_sum "Si O2"
_cell_formula_units_Z 60
_cell_length_a 8.864903
_cell_length_b 26.750963
_cell_length_c 10.488974
_cell_angle_alpha 90.000000
_cell_angle_beta 90.000000
_cell_angle_gamma 90.000000
_cell_volume 2487.404510
_symmetry_space_group_name_H-M "C C C 2"
_symmetry_group_IT_number 37
_symmetry_cell_setting 'orthorhombic'
loop_
_space_group_symop_operation_xyz
x,y,z
-x,-y,z
-x,y,1/2+z
x,-y,1/2+z
1/2+x,1/2+y,z
1/2-x,1/2-y,z
1/2-x,1/2+y,1/2+z
1/2+x,1/2-y,1/2+z
loop_
_atom_site_type_symbol
_atom_site_label
_atom_site_fract_x
_atom_site_fract_y
_atom_site_fract_z
Si Si1 0.750000 0.250000 0.878070
Si Si2 0.976875 0.291402 0.680717
Si Si3 0.865483 0.927426 0.187962
Si Si4 0.915372 0.950641 0.460631
Si Si5 0.766826 0.841902 0.033383
Si Si6 0.667572 0.978398 0.633963
Si Si7 0.096281 0.195078 0.580973
Si Si8 0.292960 0.872674 0.252023
O O1 0.889782 0.268265 0.798020
O O2 0.799317 0.200522 0.956764
O O3 0.866366 0.302507 0.561012
O O4 0.102580 0.250393 0.644385
O O5 0.057255 0.342018 0.722211
O O6 0.922594 0.916055 0.333065
O O7 0.753782 0.883456 0.145239
O O8 0.778283 0.980026 0.193472
O O9 0.002304 0.926756 0.084371
O O10 0.740496 0.961517 0.498395
O O11 0.000000 0.000000 0.417065
O O12 0.924791 0.813810 0.040999
O O13 0.749039 0.869080 0.899380
O O14 0.670083 0.930643 0.726691
O O15 0.500000 0.000000 0.612315
O O16 0.154927 0.149799 0.668702
#
# Coordination Sequence:
#
# PCOD8176979 Si02
#       8
#     4   8   8   8   8   8   8   8
#     4  12  24  46  80 108 154 196 252 310 394 460
#     4  12  25  50  74 110 153 198 249 317 389 464
#     4  11  26  47  76 109 150 197 255 315 372 457
#     4  10  23  45  76 102 145 196 254 309 376 440
#     4  12  28  46  78 112 150 202 260 318 386 464
#     4  11  26  50  73 110 152 200 249 312 383 452
#     4  12  25  48  78 112 148 197 251 318 384 462
#     4  12  28  49  76 113 153 201 259 318 391 462
#
# _framework density 24.121527
#
# number of rings (size 3 to 8) (size 9 to 14) (size 15 to 20)
#    0.000    0.533    2.667    4.400    7.467    2.667 
#    4.800    0.000    0.000    0.000    0.000    0.000 
#    0.000    0.000    0.000    0.000    0.000    0.000 
#
# Total GULP energy -372031.405693 kJ/mol
# GULP energy per Si atom -12401.046856 kJ/mol
# Density = 2.406663 g / cm^3
# Si number density = 24.121527 Si / 1000 Ang^3
#
#
#
# Elastic Constant Matrix: (Units=GPa)
#
#
# Indices 1 2 3 4 5 6 
#
# 1 125.5920 28.7366 55.5879 0.0000 0.0000 0.0000
# 2 28.7366 115.6257 34.8690 0.0000 0.0000 0.0000
# 3 55.5879 34.8690 160.8000 0.0000 0.0000 0.0000
# 4 0.0000 0.0000 0.0000 4.5385 0.0000 0.0000
# 5 0.0000 0.0000 0.0000 0.0000 -5.1468 0.0000
# 6 0.0000 0.0000 0.0000 0.0000 0.0000 41.0899
#
#
#
# Elastic Compliance Matrix: (Units=1/GPa)
#
#
# Indices 1 2 3 4 5 6 
#
# 1 0.009634 -0.001487 -0.003008 0.000000 0.000000 0.000000
# 2 -0.001487 0.009483 -0.001542 0.000000 0.000000 0.000000
# 3 -0.003008 -0.001542 0.007593 0.000000 0.000000 0.000000
# 4 0.000000 0.000000 0.000000 0.220336 0.000000 0.000000
# 5 0.000000 0.000000 0.000000 0.000000 -0.194296 0.000000
# 6 0.000000 0.000000 0.000000 0.000000 0.000000 0.024337
#
#
# Mechanical properties :
#
#
# Convention : Reuss Voigt Hill
#
# Bulk Modulus (GPa) = 68.32689 71.15607 69.74148
# Shear Modulus (GPa) = 53.16877 26.95128 40.06002
#
# Velocity S-wave (km/s) = 4.69999 3.34625 4.07966
# Velocity P-wave (km/s) = 7.60531 6.67030 7.15310
#
# Compressibility (1/GPa) = 0.01463553
#
# Stress axis : x y z
#
# Youngs Moduli (GPa) = 103.80012 105.44824 131.69733
#
# Poissons Ratio (x) = 0.15683 0.39613
# Poissons Ratio (y) = 0.15438 0.20312
# Poissons Ratio (z) = 0.31222 0.16263
#
# Static dielectric constant tensor:
#      x y z
#    x 4.412050 0.000000 0.000000 
#    y 0.000000 4.545570 0.000000 
#    z 0.000000 0.000000 4.325480 
# 
# 
# High freq. dielectric constant tensor:
#      x y z
#    x 1.967600 0.000000 0.000000 
#    y 0.000000 1.969000 0.000000 
#    z 0.000000 0.000000 1.955080 
# 
# From -- ./inp_files/6538.got.cif
#   From: 2010.03.12/outbox.cif.g09.slc.cpg/sg37_4_cif.got.tgz:6538.got - 2010.04.14 02:25:27.
