data_PCOD8176232
_publ_section_title
;
Structure prediction by ZEFSAII (Michael W. Deem and Ramdas Pophale) SiO2 
 PCOD8176232
Probable space group: C M C 21
;
_chemical_formula_sum "Si O2"
_cell_formula_units_Z 48
_cell_length_a 20.798569
_cell_length_b 9.294861
_cell_length_c 11.107607
_cell_angle_alpha 90.000000
_cell_angle_beta 90.000000
_cell_angle_gamma 90.000000
_cell_volume 2147.320451
_symmetry_space_group_name_H-M "C M C 21"
_symmetry_group_IT_number 36
_symmetry_cell_setting 'orthorhombic'
loop_
_space_group_symop_operation_xyz
x,y,z
-x,-y,1/2+z
x,-y,1/2+z
-x,y,z
1/2+x,1/2+y,z
1/2-x,1/2-y,1/2+z
1/2+x,1/2-y,1/2+z
1/2-x,1/2+y,z
loop_
_atom_site_type_symbol
_atom_site_label
_atom_site_fract_x
_atom_site_fract_y
_atom_site_fract_z
Si Si1 0.637156 0.103757 0.431760
Si Si2 0.424282 0.817306 0.523557
Si Si3 0.648819 0.395701 0.869829
Si Si4 0.240899 0.832835 0.070463
Si Si5 0.766572 0.581160 0.224462
Si Si6 0.073621 0.173146 0.778534
O O1 0.688841 0.188102 0.512493
O O2 0.673872 0.055200 0.311779
O O3 0.581239 0.211140 0.386427
O O4 0.608056 0.973767 0.509699
O O5 0.500000 0.840368 0.520311
O O6 0.404415 0.722407 0.406648
O O7 0.404465 0.739110 0.649374
O O8 0.703541 0.337098 0.778372
O O9 0.616181 0.535789 0.813233
O O10 0.690977 0.424002 0.989809
O O11 0.213117 0.674672 0.105894
O O12 0.246016 0.920692 0.193143
O O13 0.000000 0.123801 0.772214
#
# Coordination Sequence:
#
# PCOD8176232 Si02
#       6
#     8   8   8   8   8   8
#     4  11  22  39  63  90 123 163 205 252 312 371
#     4  11  24  42  63  89 125 167 212 259 305 364
#     4  11  22  39  63  90 123 163 205 252 312 371
#     4  11  22  37  61  92 123 155 196 252 309 366
#     4  11  22  37  61  92 123 155 196 252 309 366
#     4  11  24  42  63  89 125 167 212 259 305 364
#
# _framework density 22.353439999999999
#
# number of rings (size 3 to 8) (size 9 to 14) (size 15 to 20)
#    0.000    1.000    0.000    8.000    0.000    5.333 
#    0.000    0.000    0.000   10.000    0.000    0.000 
#    0.000    0.000    0.000    0.000    0.000    0.000 
#
# Total GULP energy -297416.868159 kJ/mol
# GULP energy per Si atom -12392.369507 kJ/mol
# Density = 2.230256 g / cm^3
# Si number density = 22.353440 Si / 1000 Ang^3
#
#
#
# Elastic Constant Matrix: (Units=GPa)
#
#
# Indices 1 2 3 4 5 6 
#
# 1 107.3945 28.9738 28.9052 0.0000 0.0000 0.0000
# 2 28.9738 85.2397 22.9019 0.0000 0.0000 0.0000
# 3 28.9052 22.9019 78.7706 0.0000 0.0000 0.0000
# 4 0.0000 0.0000 0.0000 44.0015 0.0000 0.0000
# 5 0.0000 0.0000 0.0000 0.0000 29.3669 0.0000
# 6 0.0000 0.0000 0.0000 0.0000 0.0000 38.3000
#
#
#
# Elastic Compliance Matrix: (Units=1/GPa)
#
#
# Indices 1 2 3 4 5 6 
#
# 1 0.010941 -0.002864 -0.003182 0.000000 0.000000 0.000000
# 2 -0.002864 0.013475 -0.002867 0.000000 0.000000 0.000000
# 3 -0.003182 -0.002867 0.014696 0.000000 0.000000 0.000000
# 4 0.000000 0.000000 0.000000 0.022727 0.000000 0.000000
# 5 0.000000 0.000000 0.000000 0.000000 0.034052 0.000000
# 6 0.000000 0.000000 0.000000 0.000000 0.000000 0.026110
#
#
# Mechanical properties :
#
#
# Convention : Reuss Voigt Hill
#
# Bulk Modulus (GPa) = 46.97809 48.10740 47.54275
# Shear Modulus (GPa) = 34.03179 35.04194 34.53687
#
# Velocity S-wave (km/s) = 3.90608 3.96363 3.93496
# Velocity P-wave (km/s) = 6.43467 6.52036 6.47766
#
# Compressibility (1/GPa) = 0.02128652
#
# Stress axis : x y z
#
# Youngs Moduli (GPa) = 91.40322 74.20956 68.04442
#
# Poissons Ratio (x) = 0.21253 0.21652
# Poissons Ratio (y) = 0.26177 0.19508
# Poissons Ratio (z) = 0.29085 0.21275
#
# Static dielectric constant tensor:
#      x y z
#    x 4.125120 0.000000 0.000000 
#    y 0.000000 3.855710 0.000000 
#    z 0.000000 0.000000 4.220960 
# 
# 
# High freq. dielectric constant tensor:
#      x y z
#    x 1.895320 0.000000 0.000000 
#    y 0.000000 1.868610 0.000000 
#    z 0.000000 0.000000 1.884690 
# 
# From -- ./inp_files/9419.got.cif
#   From: 2010.03.12/outbox.cif.g09.slc.cpg/sg36_5_cif.got.tgz:9419.got - 2010.04.14 02:13:53.
