data_PCOD8176678
_publ_section_title
;
Structure prediction by ZEFSAII (Michael W. Deem and Ramdas Pophale) SiO2 
 PCOD8176678
Probable space group: C C C 2
;
_chemical_formula_sum "Si O2"
_cell_formula_units_Z 52
_cell_length_a 17.210013
_cell_length_b 16.170798
_cell_length_c 9.127529
_cell_angle_alpha 90.000000
_cell_angle_beta 90.000000
_cell_angle_gamma 90.000000
_cell_volume 2540.188069
_symmetry_space_group_name_H-M "C C C 2"
_symmetry_group_IT_number 37
_symmetry_cell_setting 'orthorhombic'
loop_
_space_group_symop_operation_xyz
x,y,z
-x,-y,z
-x,y,1/2+z
x,-y,1/2+z
1/2+x,1/2+y,z
1/2-x,1/2-y,z
1/2-x,1/2+y,1/2+z
1/2+x,1/2-y,1/2+z
loop_
_atom_site_type_symbol
_atom_site_label
_atom_site_fract_x
_atom_site_fract_y
_atom_site_fract_z
Si Si1 0.000000 0.000000 0.013140
Si Si2 0.612985 0.364579 0.926593
Si Si3 0.923369 0.700433 0.936533
Si Si4 0.278654 0.843687 0.924907
Si Si5 0.423369 0.200433 0.589748
Si Si6 0.221346 0.656313 0.601374
Si Si7 0.887015 0.135421 0.599688
O O1 0.055731 0.057552 0.109818
O O2 0.944269 0.057552 0.916463
O O3 0.700803 0.395245 0.969095
O O4 0.615682 0.324316 0.763140
O O5 0.584086 0.296298 0.041901
O O6 0.931636 0.695935 0.763140
O O7 0.849178 0.645557 0.986815
O O8 0.915915 0.796298 0.984380
O O9 0.000000 0.662655 0.013140
O O10 0.250000 0.750000 0.927165
O O11 0.308451 0.869426 0.763140
O O12 0.349178 0.854443 0.039465
O O13 0.250000 0.750000 0.599115
O O14 0.299197 0.604756 0.557186
#
# Coordination Sequence:
#
# PCOD8176678 Si02
#       7
#     4   8   8   8   8   8   8
#     4  12  22  32  56  78 108 148 182 206 242 312
#     4  10  21  35  49  71 104 141 177 213 254 301
#     4  11  20  31  51  76 102 131 171 217 264 312
#     4   8  16  32  50  68  98 134 169 213 262 304
#     4  11  20  31  51  76 102 131 171 217 264 312
#     4   8  16  32  50  68  98 134 169 213 262 304
#     4  10  21  35  49  71 104 141 177 213 254 301
#
# _framework density 20.470925000000001
#
# number of rings (size 3 to 8) (size 9 to 14) (size 15 to 20)
#    0.000    2.154    1.538    5.077    0.000    6.769 
#    0.000    0.000    0.000    0.000    0.000    1.077 
#    0.000    7.385    0.000    0.000    0.000    0.000 
#
# Total GULP energy -322144.840226 kJ/mol
# GULP energy per Si atom -12390.186163 kJ/mol
# Density = 2.042433 g / cm^3
# Si number density = 20.470925 Si / 1000 Ang^3
#
#
#
# Elastic Constant Matrix: (Units=GPa)
#
#
# Indices 1 2 3 4 5 6 
#
# 1 199.4865 34.8511 79.8715 0.0000 0.0000 0.0000
# 2 34.8511 29.8912 7.2803 0.0000 0.0000 0.0000
# 3 79.8715 7.2803 150.4000 0.0000 0.0000 0.0000
# 4 0.0000 0.0000 0.0000 3.7273 0.0000 0.0000
# 5 0.0000 0.0000 0.0000 0.0000 34.7091 0.0000
# 6 0.0000 0.0000 0.0000 0.0000 0.0000 32.0234
#
#
#
# Elastic Compliance Matrix: (Units=1/GPa)
#
#
# Indices 1 2 3 4 5 6 
#
# 1 0.008028 -0.008421 -0.003856 0.000000 0.000000 0.000000
# 2 -0.008421 0.042687 0.002406 0.000000 0.000000 0.000000
# 3 -0.003856 0.002406 0.008580 0.000000 0.000000 0.000000
# 4 0.000000 0.000000 0.000000 0.268287 0.000000 0.000000
# 5 0.000000 0.000000 0.000000 0.000000 0.028811 0.000000
# 6 0.000000 0.000000 0.000000 0.000000 0.000000 0.031227
#
#
# Mechanical properties :
#
#
# Convention : Reuss Voigt Hill
#
# Bulk Modulus (GPa) = 25.28245 69.30927 47.29586
# Shear Modulus (GPa) = 11.88931 31.27697 21.58314
#
# Velocity S-wave (km/s) = 2.41257 3.91304 3.25057
# Velocity P-wave (km/s) = 4.48753 7.37203 6.10265
#
# Compressibility (1/GPa) = 0.03955313
#
# Stress axis : x y z
#
# Youngs Moduli (GPa) = 124.56825 23.42645 116.54958
#
# Poissons Ratio (x) = 0.19727 0.44937
# Poissons Ratio (y) = 1.04895 -0.28037
# Poissons Ratio (z) = 0.48028 -0.05635
#
# Static dielectric constant tensor:
#      x y z
#    x 4.706530 0.000000 0.000000 
#    y 0.000000 3.130050 0.000000 
#    z 0.000000 0.000000 3.507570 
# 
# 
# High freq. dielectric constant tensor:
#      x y z
#    x 1.835220 0.000000 0.000000 
#    y 0.000000 1.721160 0.000000 
#    z 0.000000 0.000000 1.792790 
# 
# From -- ./inp_files/4049.got.cif
#   From: 2010.03.12/outbox.cif.g09.slc.cpg/sg37_3_cif.got.tgz:4049.got - 2010.04.14 02:25:27.
