data_PCOD8176489
_publ_section_title
;
Structure prediction by ZEFSAII (Michael W. Deem and Ramdas Pophale) SiO2 
 PCOD8176489
Probable space group: C C C 2
;
_chemical_formula_sum "Si O2"
_cell_formula_units_Z 60
_cell_length_a 9.444026
_cell_length_b 21.831142
_cell_length_c 13.459056
_cell_angle_alpha 90.000000
_cell_angle_beta 90.000000
_cell_angle_gamma 90.000000
_cell_volume 2774.905698
_symmetry_space_group_name_H-M "C C C 2"
_symmetry_group_IT_number 37
_symmetry_cell_setting 'orthorhombic'
loop_
_space_group_symop_operation_xyz
x,y,z
-x,-y,z
-x,y,1/2+z
x,-y,1/2+z
1/2+x,1/2+y,z
1/2-x,1/2-y,z
1/2-x,1/2+y,1/2+z
1/2+x,1/2-y,1/2+z
loop_
_atom_site_type_symbol
_atom_site_label
_atom_site_fract_x
_atom_site_fract_y
_atom_site_fract_z
Si Si1 0.757215 0.915037 0.656210
Si Si2 0.000000 0.000000 0.615710
Si Si3 0.425098 0.100811 0.844755
Si Si4 0.782878 0.429905 0.927838
Si Si5 0.412367 0.763020 0.288927
Si Si6 0.540353 0.656380 0.402071
Si Si7 0.628641 0.710351 0.592121
Si Si8 0.833958 0.943946 0.943156
O O1 0.642085 0.925907 0.742759
O O2 0.693329 0.931118 0.547445
O O3 0.804537 0.844237 0.659502
O O4 0.891867 0.959188 0.680195
O O5 0.907205 0.048425 0.550528
O O6 0.570373 0.065740 0.869005
O O7 0.459112 0.172387 0.833922
O O8 0.320803 0.088314 0.938964
O O9 0.700938 0.368371 0.895787
O O10 0.685053 0.487903 0.897260
O O11 0.250000 0.750000 0.319668
O O12 0.518792 0.711591 0.328240
O O13 0.437699 0.758949 0.170083
O O14 0.516565 0.683108 0.514149
O O15 0.433349 0.600765 0.378161
O O16 0.750000 0.750000 0.534956
#
# Coordination Sequence:
#
# PCOD8176489 Si02
#       8
#     8   4   8   8   8   8   8   8
#     4  10  20  41  66  94 130 174 219 267 335 386
#     4  10  20  40  68 100 122 168 234 282 308 398
#     4  12  24  39  64  95 137 175 209 271 343 397
#     4  10  24  42  66  95 131 171 217 275 331 397
#     4  11  22  37  61  95 130 166 218 269 318 395
#     4  11  21  39  70  92 121 176 223 264 327 388
#     4  10  19  37  62  93 127 171 210 267 322 388
#     4  11  19  42  65  93 124 163 225 273 322 380
#
# _framework density 21.622356
#
# number of rings (size 3 to 8) (size 9 to 14) (size 15 to 20)
#    0.000    1.333    8.000    0.400    3.733    0.533 
#    2.400    6.667    2.933    0.000    0.000    0.000 
#    0.000    0.000    0.000    0.000    0.000    0.000 
#
# Total GULP energy -371758.065324 kJ/mol
# GULP energy per Si atom -12391.935511 kJ/mol
# Density = 2.157314 g / cm^3
# Si number density = 21.622356 Si / 1000 Ang^3
#
#
#
# Elastic Constant Matrix: (Units=GPa)
#
#
# Indices 1 2 3 4 5 6 
#
# 1 111.3907 38.9734 45.8593 0.0000 0.0000 0.0000
# 2 38.9734 116.3326 35.4891 0.0000 0.0000 0.0000
# 3 45.8593 35.4891 68.9159 0.0000 0.0000 0.0000
# 4 0.0000 0.0000 0.0000 21.1170 0.0000 0.0000
# 5 0.0000 0.0000 0.0000 0.0000 33.3863 0.0000
# 6 0.0000 0.0000 0.0000 0.0000 0.0000 34.9940
#
#
#
# Elastic Compliance Matrix: (Units=1/GPa)
#
#
# Indices 1 2 3 4 5 6 
#
# 1 0.012744 -0.001996 -0.007452 0.000000 0.000000 0.000000
# 2 -0.001996 0.010511 -0.004084 0.000000 0.000000 0.000000
# 3 -0.007452 -0.004084 0.021573 0.000000 0.000000 0.000000
# 4 0.000000 0.000000 0.000000 0.047355 0.000000 0.000000
# 5 0.000000 0.000000 0.000000 0.000000 0.029952 0.000000
# 6 0.000000 0.000000 0.000000 0.000000 0.000000 0.028576
#
#
# Mechanical properties :
#
#
# Convention : Reuss Voigt Hill
#
# Bulk Modulus (GPa) = 56.30037 59.69810 57.99923
# Shear Modulus (GPa) = 27.21862 29.65396 28.43629
#
# Velocity S-wave (km/s) = 3.55183 3.70733 3.63041
# Velocity P-wave (km/s) = 6.55097 6.78197 6.66747
#
# Compressibility (1/GPa) = 0.01776187
#
# Stress axis : x y z
#
# Youngs Moduli (GPa) = 78.46889 95.14072 46.35438
#
# Poissons Ratio (x) = 0.18989 0.34545
# Poissons Ratio (y) = 0.15662 0.18933
# Poissons Ratio (z) = 0.58479 0.38860
#
# Static dielectric constant tensor:
#      x y z
#    x 3.775070 0.000000 0.000000 
#    y 0.000000 4.205900 0.000000 
#    z 0.000000 0.000000 3.672210 
# 
# 
# High freq. dielectric constant tensor:
#      x y z
#    x 1.827050 0.000000 0.000000 
#    y 0.000000 1.870420 0.000000 
#    z 0.000000 0.000000 1.823990 
# 
# From -- ./inp_files/10963.got.cif
#   From: 2010.03.12/outbox.cif.g09.slc.cpg/sg37_6_cif.got.tgz:10963.got - 2010.04.14 02:25:27.
