data_PCOD8176049
_publ_section_title
;
Structure prediction by ZEFSAII (Michael W. Deem and Ramdas Pophale) SiO2 
 PCOD8176049
Probable space group: C M C 21
;
_chemical_formula_sum "Si O2"
_cell_formula_units_Z 64
_cell_length_a 17.342350
_cell_length_b 11.231224
_cell_length_c 15.670185
_cell_angle_alpha 90.000000
_cell_angle_beta 90.000000
_cell_angle_gamma 90.000000
_cell_volume 3052.173094
_symmetry_space_group_name_H-M "C M C 21"
_symmetry_group_IT_number 36
_symmetry_cell_setting 'orthorhombic'
loop_
_space_group_symop_operation_xyz
x,y,z
-x,-y,1/2+z
x,-y,1/2+z
-x,y,z
1/2+x,1/2+y,z
1/2-x,1/2-y,1/2+z
1/2+x,1/2-y,1/2+z
1/2-x,1/2+y,z
loop_
_atom_site_type_symbol
_atom_site_label
_atom_site_fract_x
_atom_site_fract_y
_atom_site_fract_z
Si Si1 0.587317 0.671348 0.978640
Si Si2 0.641094 0.194697 0.640785
Si Si3 0.589470 0.747394 0.322242
Si Si4 0.409881 0.124360 0.369067
Si Si5 0.091826 0.571390 0.175259
Si Si6 0.691293 0.066674 0.920961
Si Si7 0.338013 0.435984 0.937038
Si Si8 0.699072 0.766845 0.571088
O O1 0.500000 0.643599 0.960058
O O2 0.621910 0.745602 0.897403
O O3 0.625871 0.544824 0.987923
O O4 0.595499 0.753343 0.061232
O O5 0.603450 0.260492 0.721764
O O6 0.731342 0.229474 0.633210
O O7 0.630168 0.052207 0.645654
O O8 0.500000 0.787103 0.339833
O O9 0.655155 0.837301 0.356454
O O10 0.604660 0.619886 0.366431
O O11 0.500000 0.121208 0.382059
O O12 0.385331 0.091064 0.273659
O O13 0.376848 0.028061 0.436434
O O14 0.126117 0.684757 0.124685
O O15 0.000000 0.568193 0.161903
O O16 0.762531 0.985734 0.886489
O O17 0.722763 0.125852 0.007682
O O18 0.322480 0.343949 0.012633
#
# Coordination Sequence:
#
# PCOD8176049 Si02
#       8
#     8   8   8   8   8   8   8   8
#     4  11  23  42  67  92 136 183 220 271 338 411
#     4  12  24  43  70 101 135 170 233 286 340 402
#     4  11  25  44  71 102 134 177 229 283 340 401
#     4  10  22  41  68  99 131 171 226 284 336 396
#     4  11  24  44  71 102 135 175 232 288 341 399
#     4  11  22  42  69  94 130 174 225 280 332 400
#     4  11  25  44  65  98 140 178 225 269 336 418
#     4  11  25  42  67 102 135 176 224 281 339 405
#
# _framework density 20.968665000000001
#
# number of rings (size 3 to 8) (size 9 to 14) (size 15 to 20)
#    0.000    1.000    2.500    4.125    3.500    4.000 
#    2.250    0.000    0.000    0.000    0.000    0.000 
#    0.000    0.000    0.000    0.000    0.000    0.000 
#
# Total GULP energy -396592.624770 kJ/mol
# GULP energy per Si atom -12393.519524 kJ/mol
# Density = 2.092094 g / cm^3
# Si number density = 20.968665 Si / 1000 Ang^3
#
#
#
# Elastic Constant Matrix: (Units=GPa)
#
#
# Indices 1 2 3 4 5 6 
#
# 1 89.7447 62.1499 60.7219 0.0000 0.0000 0.0000
# 2 62.1499 134.9454 57.8531 0.0000 0.0000 0.0000
# 3 60.7219 57.8531 86.6455 0.0000 0.0000 0.0000
# 4 0.0000 0.0000 0.0000 30.2174 0.0000 0.0000
# 5 0.0000 0.0000 0.0000 0.0000 35.2894 0.0000
# 6 0.0000 0.0000 0.0000 0.0000 0.0000 38.6635
#
#
#
# Elastic Compliance Matrix: (Units=1/GPa)
#
#
# Indices 1 2 3 4 5 6 
#
# 1 0.023616 -0.005298 -0.013013 0.000000 0.000000 0.000000
# 2 -0.005298 0.011571 -0.004013 0.000000 0.000000 0.000000
# 3 -0.013013 -0.004013 0.023341 0.000000 0.000000 0.000000
# 4 0.000000 0.000000 0.000000 0.033093 0.000000 0.000000
# 5 0.000000 0.000000 0.000000 0.000000 0.028337 0.000000
# 6 0.000000 0.000000 0.000000 0.000000 0.000000 0.025864
#
#
# Mechanical properties :
#
#
# Convention : Reuss Voigt Hill
#
# Bulk Modulus (GPa) = 72.04819 74.75394 73.40107
# Shear Modulus (GPa) = 25.62823 29.54144 27.58484
#
# Velocity S-wave (km/s) = 3.49981 3.75752 3.63095
# Velocity P-wave (km/s) = 7.12503 7.38600 7.25669
#
# Compressibility (1/GPa) = 0.01387960
#
# Stress axis : x y z
#
# Youngs Moduli (GPa) = 42.34356 86.42473 42.84362
#
# Poissons Ratio (x) = 0.45785 0.55754
# Poissons Ratio (y) = 0.22432 0.17194
# Poissons Ratio (z) = 0.55103 0.34684
#
# Static dielectric constant tensor:
#      x y z
#    x 3.909580 0.000000 0.000000 
#    y 0.000000 4.088950 0.000000 
#    z 0.000000 0.000000 3.872210 
# 
# 
# High freq. dielectric constant tensor:
#      x y z
#    x 1.830680 0.000000 0.000000 
#    y 0.000000 1.833620 0.000000 
#    z 0.000000 0.000000 1.813590 
# 
# From -- ./inp_files/14709.got.cif
#   From: 2010.03.12/outbox.cif.g09.slc.cpg/sg36_8_cif.got.tgz:14709.got - 2010.04.14 02:13:53.
