data_PCOD8176469
_publ_section_title
;
Structure prediction by ZEFSAII (Michael W. Deem and Ramdas Pophale) SiO2 
 PCOD8176469
Probable space group: C C C 2
;
_chemical_formula_sum "Si O2"
_cell_formula_units_Z 64
_cell_length_a 14.611152
_cell_length_b 8.396454
_cell_length_c 24.500508
_cell_angle_alpha 90.000000
_cell_angle_beta 90.000000
_cell_angle_gamma 90.000000
_cell_volume 3005.768031
_symmetry_space_group_name_H-M "C C C 2"
_symmetry_group_IT_number 37
_symmetry_cell_setting 'orthorhombic'
loop_
_space_group_symop_operation_xyz
x,y,z
-x,-y,z
-x,y,1/2+z
x,-y,1/2+z
1/2+x,1/2+y,z
1/2-x,1/2-y,z
1/2-x,1/2+y,1/2+z
1/2+x,1/2-y,1/2+z
loop_
_atom_site_type_symbol
_atom_site_label
_atom_site_fract_x
_atom_site_fract_y
_atom_site_fract_z
Si Si1 0.903278 0.422841 0.250000
Si Si2 0.897503 0.436745 0.640629
Si Si3 0.167920 0.886221 0.251046
Si Si4 0.397558 0.436425 0.354182
Si Si5 0.756001 0.060547 0.064527
Si Si6 0.755244 0.937985 0.441648
Si Si7 0.397570 0.059626 0.359734
Si Si8 0.896841 0.060386 0.647798
O O1 0.852568 0.482875 0.195050
O O2 0.919751 0.231993 0.249804
O O3 0.852417 0.480441 0.305190
O O4 0.000000 0.500000 0.250381
O O5 0.834508 0.483834 0.590197
O O6 0.897416 0.249333 0.648793
O O7 0.000000 0.500000 0.629839
O O8 0.250000 0.750000 0.250716
O O9 0.162195 0.995675 0.304129
O O10 0.164635 0.997154 0.198037
O O11 0.500000 0.500000 0.354744
O O12 0.346459 0.492442 0.409393
O O13 0.397300 0.247239 0.350175
O O14 0.750000 0.250000 0.067755
O O15 0.849105 0.002455 0.092900
O O16 0.759082 0.994007 0.002711
O O17 0.750000 0.750000 0.444267
O O18 0.664213 0.998139 0.410332
O O19 0.500000 0.000000 0.370946
O O20 0.000000 0.000000 0.650384
#
# Coordination Sequence:
#
# PCOD8176469 Si02
#       8
#     8   8   8   8   8   8   8   8
#     4  10  19  35  58  87 120 155 192 239 298 362
#     4  11  23  41  64  93 125 164 206 256 315 376
#     4  12  24  39  62  93 127 163 201 253 312 368
#     4  11  22  39  62  92 124 160 204 253 306 367
#     4  11  23  43  64  89 123 162 209 262 311 368
#     4   9  22  41  62  86 120 162 207 254 307 365
#     4  10  20  39  63  91 124 163 203 251 310 373
#     4  12  24  41  64  93 125 163 207 256 311 373
#
# _framework density 21.292396
#
# number of rings (size 3 to 8) (size 9 to 14) (size 15 to 20)
#    0.000    1.250    0.000    7.875    0.000    1.000 
#    0.000   12.500    0.000    0.000    0.000    0.000 
#    0.000    0.000    0.000    0.000    0.000    0.000 
#
# Total GULP energy -396629.476218 kJ/mol
# GULP energy per Si atom -12394.671132 kJ/mol
# Density = 2.124393 g / cm^3
# Si number density = 21.292396 Si / 1000 Ang^3
#
#
#
# Elastic Constant Matrix: (Units=GPa)
#
#
# Indices 1 2 3 4 5 6 
#
# 1 122.0602 28.1065 59.2236 0.0000 0.0000 0.0000
# 2 28.1065 133.8688 44.7137 0.0000 0.0000 0.0000
# 3 59.2236 44.7137 193.0829 0.0000 0.0000 0.0000
# 4 0.0000 0.0000 0.0000 21.4187 0.0000 0.0000
# 5 0.0000 0.0000 0.0000 0.0000 28.2094 0.0000
# 6 0.0000 0.0000 0.0000 0.0000 0.0000 30.3756
#
#
#
# Elastic Compliance Matrix: (Units=1/GPa)
#
#
# Indices 1 2 3 4 5 6 
#
# 1 0.009783 -0.001140 -0.002737 0.000000 0.000000 0.000000
# 2 -0.001140 0.008229 -0.001556 0.000000 0.000000 0.000000
# 3 -0.002737 -0.001556 0.006379 0.000000 0.000000 0.000000
# 4 0.000000 0.000000 0.000000 0.046688 0.000000 0.000000
# 5 0.000000 0.000000 0.000000 0.000000 0.035449 0.000000
# 6 0.000000 0.000000 0.000000 0.000000 0.000000 0.032921
#
#
# Mechanical properties :
#
#
# Convention : Reuss Voigt Hill
#
# Bulk Modulus (GPa) = 73.93362 79.23328 76.58345
# Shear Modulus (GPa) = 32.29486 37.13195 34.71341
#
# Velocity S-wave (km/s) = 3.89875 4.18054 4.04210
# Velocity P-wave (km/s) = 7.42061 7.78430 7.60463
#
# Compressibility (1/GPa) = 0.01352565
#
# Stress axis : x y z
#
# Youngs Moduli (GPa) = 102.21792 121.52057 156.76707
#
# Poissons Ratio (x) = 0.13852 0.42903
# Poissons Ratio (y) = 0.11652 0.24393
# Poissons Ratio (z) = 0.27974 0.18909
#
# Static dielectric constant tensor:
#      x y z
#    x 4.255730 0.000000 0.000000 
#    y 0.000000 7.483850 0.000000 
#    z 0.000000 0.000000 5.204110 
# 
# 
# High freq. dielectric constant tensor:
#      x y z
#    x 1.848920 0.000000 0.000000 
#    y 0.000000 1.844390 0.000000 
#    z 0.000000 0.000000 1.837170 
# 
# From -- ./inp_files/18892.got.cif
#   From: 2010.03.12/outbox.cif.g09.slc.cpg/sg37_10_cif.got.tgz:18892.got - 2010.04.14 02:25:27.
