data_PCOD8176524
_publ_section_title
;
Structure prediction by ZEFSAII (Michael W. Deem and Ramdas Pophale) SiO2 
 PCOD8176524
Probable space group: C C C 2
;
_chemical_formula_sum "Si O2"
_cell_formula_units_Z 40
_cell_length_a 10.190081
_cell_length_b 21.274009
_cell_length_c 8.698008
_cell_angle_alpha 90.000000
_cell_angle_beta 90.000000
_cell_angle_gamma 90.000000
_cell_volume 1885.587878
_symmetry_space_group_name_H-M "C C C 2"
_symmetry_group_IT_number 37
_symmetry_cell_setting 'orthorhombic'
loop_
_space_group_symop_operation_xyz
x,y,z
-x,-y,z
-x,y,1/2+z
x,-y,1/2+z
1/2+x,1/2+y,z
1/2-x,1/2-y,z
1/2-x,1/2+y,1/2+z
1/2+x,1/2-y,1/2+z
loop_
_atom_site_type_symbol
_atom_site_label
_atom_site_fract_x
_atom_site_fract_y
_atom_site_fract_z
Si Si1 0.615060 0.311356 0.852240
Si Si2 0.250000 0.250000 0.075773
Si Si3 0.125130 0.344734 0.854935
Si Si4 0.610766 0.413846 0.366790
Si Si5 0.623924 0.175636 0.997859
Si Si6 0.500000 0.500000 0.119680
O O1 0.664115 0.298536 0.678133
O O2 0.484267 0.353330 0.850033
O O3 0.592348 0.245333 0.935462
O O4 0.731321 0.347485 0.945498
O O5 0.150941 0.286050 0.965780
O O6 0.237665 0.395824 0.872447
O O7 0.112027 0.322227 0.680405
O O8 0.984235 0.370376 0.917688
O O9 0.598897 0.460184 0.223349
O O10 0.584114 0.451311 0.521925
#
# Coordination Sequence:
#
# PCOD8176524 Si02
#       6
#     8   4   8   8   8   4
#     4  10  21  38  61  94 130 160 192 246 308 383
#     4  10  20  32  56  92 126 158 194 228 298 388
#     4  12  22  36  58  86 126 166 197 244 300 363
#     4  11  23  42  67  86 116 160 210 265 310 348
#     4  10  22  36  56  94 132 162 195 229 303 402
#     4  10  24  42  64  92 110 150 226 276 308 352
#
# _framework density 21.213543000000001
#
# number of rings (size 3 to 8) (size 9 to 14) (size 15 to 20)
#    0.000    1.600    0.000    7.200    0.000    4.800 
#    0.000    0.000    0.000   20.400    0.000    0.000 
#    0.000    0.000    0.000    0.000    0.000    0.000 
#
# Total GULP energy -247959.695327 kJ/mol
# GULP energy per Si atom -12397.984766 kJ/mol
# Density = 2.116526 g / cm^3
# Si number density = 21.213543 Si / 1000 Ang^3
#
#
#
# Elastic Constant Matrix: (Units=GPa)
#
#
# Indices 1 2 3 4 5 6 
#
# 1 141.1500 35.9458 39.0286 0.0000 0.0000 0.0000
# 2 35.9458 62.1565 18.9812 0.0000 0.0000 0.0000
# 3 39.0286 18.9812 153.8200 0.0000 0.0000 0.0000
# 4 0.0000 0.0000 0.0000 30.3825 0.0000 0.0000
# 5 0.0000 0.0000 0.0000 0.0000 24.6103 0.0000
# 6 0.0000 0.0000 0.0000 0.0000 0.0000 17.2271
#
#
#
# Elastic Compliance Matrix: (Units=1/GPa)
#
#
# Indices 1 2 3 4 5 6 
#
# 1 0.008692 -0.004524 -0.001647 0.000000 0.000000 0.000000
# 2 -0.004524 0.019073 -0.001206 0.000000 0.000000 0.000000
# 3 -0.001647 -0.001206 0.007068 0.000000 0.000000 0.000000
# 4 0.000000 0.000000 0.000000 0.032914 0.000000 0.000000
# 5 0.000000 0.000000 0.000000 0.000000 0.040633 0.000000
# 6 0.000000 0.000000 0.000000 0.000000 0.000000 0.058048
#
#
# Mechanical properties :
#
#
# Convention : Reuss Voigt Hill
#
# Bulk Modulus (GPa) = 49.80249 60.55977 55.18113
# Shear Modulus (GPa) = 26.61349 31.98869 29.30109
#
# Velocity S-wave (km/s) = 3.54581 3.88743 3.72054
# Velocity P-wave (km/s) = 6.34755 6.98277 6.67273
#
# Compressibility (1/GPa) = 0.02007932
#
# Stress axis : x y z
#
# Youngs Moduli (GPa) = 115.04615 52.43073 141.48586
#
# Poissons Ratio (x) = 0.23718 0.23306
# Poissons Ratio (y) = 0.52044 0.17060
# Poissons Ratio (z) = 0.18951 0.06322
#
# Static dielectric constant tensor:
#      x y z
#    x 4.316050 0.000000 0.000000 
#    y 0.000000 3.492380 0.000000 
#    z 0.000000 0.000000 4.187660 
# 
# 
# High freq. dielectric constant tensor:
#      x y z
#    x 1.847190 0.000000 0.000000 
#    y 0.000000 1.784040 0.000000 
#    z 0.000000 0.000000 1.860630 
# 
# From -- ./inp_files/2850.got.cif
#   From: 2010.03.12/outbox.cif.g09.slc.cpg/sg37_2_cif.got.tgz:2850.got - 2010.04.14 02:25:27.
