data_PCOD8176777
_publ_section_title
;
Structure prediction by ZEFSAII (Michael W. Deem and Ramdas Pophale) SiO2 
 PCOD8176777
Probable space group: C C C 2
;
_chemical_formula_sum "Si O2"
_cell_formula_units_Z 56
_cell_length_a 12.403325
_cell_length_b 13.272917
_cell_length_c 14.699223
_cell_angle_alpha 90.000000
_cell_angle_beta 90.000000
_cell_angle_gamma 90.000000
_cell_volume 2419.908142
_symmetry_space_group_name_H-M "C C C 2"
_symmetry_group_IT_number 37
_symmetry_cell_setting 'orthorhombic'
loop_
_space_group_symop_operation_xyz
x,y,z
-x,-y,z
-x,y,1/2+z
x,-y,1/2+z
1/2+x,1/2+y,z
1/2-x,1/2-y,z
1/2-x,1/2+y,1/2+z
1/2+x,1/2-y,1/2+z
loop_
_atom_site_type_symbol
_atom_site_label
_atom_site_fract_x
_atom_site_fract_y
_atom_site_fract_z
Si Si1 0.727925 0.861252 0.085480
Si Si2 0.553132 0.406093 0.631927
Si Si3 0.336805 0.839692 0.947880
Si Si4 0.502420 0.187497 0.111012
Si Si5 0.970666 0.686477 0.822744
Si Si6 0.218838 0.558007 0.396484
Si Si7 0.437451 0.591592 0.324993
O O1 0.750000 0.750000 0.121783
O O2 0.817416 0.927134 0.140557
O O3 0.601845 0.887583 0.104186
O O4 0.754641 0.870238 0.979010
O O5 0.500000 0.500000 0.577065
O O6 0.532060 0.300640 0.580524
O O7 0.494891 0.401200 0.728305
O O8 0.250000 0.750000 0.952849
O O9 0.407940 0.831942 0.856254
O O10 0.279517 0.946408 0.938158
O O11 0.405776 0.845889 0.040861
O O12 0.543513 0.184393 0.214167
O O13 0.895420 0.596652 0.859296
O O14 0.942738 0.795751 0.866701
O O15 0.310635 0.564706 0.318882
O O16 0.500000 0.500000 0.378831
#
# Coordination Sequence:
#
# PCOD8176777 Si02
#       7
#     8   8   8   8   8   8   8
#     4  10  21  41  69 100 141 186 234 293 363 438
#     4   9  21  39  68 108 138 179 244 294 365 440
#     4  12  28  48  70 106 150 190 249 316 375 441
#     4  10  24  45  72 102 149 194 243 303 370 456
#     4  11  24  47  73 104 145 195 245 299 376 456
#     4  12  25  44  70 102 141 193 241 300 379 439
#     4  10  22  42  70 104 141 181 239 299 359 446
#
# _framework density 23.141373000000002
#
# number of rings (size 3 to 8) (size 9 to 14) (size 15 to 20)
#    0.000    1.429    1.429    2.571    4.000    8.000 
#    7.714    0.000    0.000    0.000    0.000    0.000 
#    0.000    0.000    0.000    0.000    0.000    0.000 
#
# Total GULP energy -346876.305602 kJ/mol
# GULP energy per Si atom -12388.439486 kJ/mol
# Density = 2.308870 g / cm^3
# Si number density = 23.141373 Si / 1000 Ang^3
#
#
#
# Elastic Constant Matrix: (Units=GPa)
#
#
# Indices 1 2 3 4 5 6 
#
# 1 182.9265 51.1540 44.2236 0.0000 0.0000 0.0000
# 2 51.1540 105.8855 19.1061 0.0000 0.0000 0.0000
# 3 44.2236 19.1061 94.7800 0.0000 0.0000 0.0000
# 4 0.0000 0.0000 0.0000 19.3835 0.0000 0.0000
# 5 0.0000 0.0000 0.0000 0.0000 41.7227 0.0000
# 6 0.0000 0.0000 0.0000 0.0000 0.0000 41.2130
#
#
#
# Elastic Compliance Matrix: (Units=1/GPa)
#
#
# Indices 1 2 3 4 5 6 
#
# 1 0.006906 -0.002859 -0.002646 0.000000 0.000000 0.000000
# 2 -0.002859 0.010984 -0.000880 0.000000 0.000000 0.000000
# 3 -0.002646 -0.000880 0.011963 0.000000 0.000000 0.000000
# 4 0.000000 0.000000 0.000000 0.051590 0.000000 0.000000
# 5 0.000000 0.000000 0.000000 0.000000 0.023968 0.000000
# 6 0.000000 0.000000 0.000000 0.000000 0.000000 0.024264
#
#
# Mechanical properties :
#
#
# Convention : Reuss Voigt Hill
#
# Bulk Modulus (GPa) = 58.53903 68.06214 63.30059
# Shear Modulus (GPa) = 33.75205 38.40439 36.07822
#
# Velocity S-wave (km/s) = 3.82319 4.07818 3.95275
# Velocity P-wave (km/s) = 6.69629 7.18685 6.94590
#
# Compressibility (1/GPa) = 0.01708262
#
# Stress axis : x y z
#
# Youngs Moduli (GPa) = 144.80622 91.04057 83.59275
#
# Poissons Ratio (x) = 0.26027 0.22118
# Poissons Ratio (y) = 0.41397 0.07359
# Poissons Ratio (z) = 0.38314 0.08015
#
# Static dielectric constant tensor:
#      x y z
#    x 4.372050 0.000000 0.000000 
#    y 0.000000 5.263700 0.000000 
#    z 0.000000 0.000000 3.786900 
# 
# 
# High freq. dielectric constant tensor:
#      x y z
#    x 1.923680 0.000000 0.000000 
#    y 0.000000 1.925550 0.000000 
#    z 0.000000 0.000000 1.895020 
# 
# From -- ./inp_files/11624.got.cif
#   From: 2010.03.12/outbox.cif.g09.slc.cpg/sg37_6_cif.got.tgz:11624.got - 2010.04.14 02:25:27.
