data_PCOD8176435
_publ_section_title
;
Structure prediction by ZEFSAII (Michael W. Deem and Ramdas Pophale) SiO2 
 PCOD8176435
Probable space group: C C C 2
;
_chemical_formula_sum "Si O2"
_cell_formula_units_Z 64
_cell_length_a 18.187131
_cell_length_b 26.672789
_cell_length_c 8.858725
_cell_angle_alpha 90.000000
_cell_angle_beta 90.000000
_cell_angle_gamma 90.000000
_cell_volume 4297.380854
_symmetry_space_group_name_H-M "C C C 2"
_symmetry_group_IT_number 37
_symmetry_cell_setting 'orthorhombic'
loop_
_space_group_symop_operation_xyz
x,y,z
-x,-y,z
-x,y,1/2+z
x,-y,1/2+z
1/2+x,1/2+y,z
1/2-x,1/2-y,z
1/2-x,1/2+y,1/2+z
1/2+x,1/2-y,1/2+z
loop_
_atom_site_type_symbol
_atom_site_label
_atom_site_fract_x
_atom_site_fract_y
_atom_site_fract_z
Si Si1 0.421877 0.551130 0.604100
Si Si2 0.341984 0.651471 0.603144
Si Si3 0.578123 0.448870 0.248289
Si Si4 0.800089 0.298715 0.592532
Si Si5 0.658016 0.348529 0.249244
Si Si6 0.699912 0.798715 0.759857
Si Si7 0.922300 0.756485 0.603398
Si Si8 0.577700 0.256485 0.748991
O O1 0.365040 0.595140 0.643925
O O2 0.432027 0.544054 0.426194
O O3 0.390434 0.500000 0.676194
O O4 0.500000 0.564952 0.676194
O O5 0.255528 0.657286 0.648368
O O6 0.352620 0.663294 0.426194
O O7 0.393319 0.689992 0.692487
O O8 0.634960 0.404860 0.208464
O O9 0.750000 0.250000 0.582604
O O10 0.832313 0.311122 0.426194
O O11 0.867020 0.289106 0.706774
O O12 0.744472 0.342714 0.204021
O O13 0.606681 0.310008 0.159902
O O14 0.750000 0.750000 0.769783
O O15 0.632980 0.789107 0.645615
O O16 0.931418 0.758919 0.426194
O O17 0.000000 0.743900 0.676194
#
# Coordination Sequence:
#
# PCOD8176435 Si02
#       8
#     8   8   8   8   8   8   8   8
#     4  10  19  30  43  60  82 109 140 173 207 239
#     4   9  18  31  45  60  81 110 140 170 207 246
#     4  10  19  30  43  60  82 109 140 173 207 239
#     4   8  15  29  44  58  80 107 134 167 205 243
#     4   9  18  31  45  60  81 110 140 170 207 246
#     4   8  15  29  44  58  80 107 134 167 205 243
#     4  11  20  28  41  61  84 110 140 171 203 241
#     4  11  20  28  41  61  84 110 140 171 203 241
#
# _framework density 14.892792999999999
#
# number of rings (size 3 to 8) (size 9 to 14) (size 15 to 20)
#    0.000    2.500    0.000    6.000    0.000    8.500 
#    0.000    0.000    0.000    0.000    0.000    0.000 
#    0.000    1.000    0.000   11.500    0.000    3.500 
#
# Total GULP energy -396657.281926 kJ/mol
# GULP energy per Si atom -12395.540060 kJ/mol
# Density = 1.485890 g / cm^3
# Si number density = 14.892793 Si / 1000 Ang^3
#
#
#
# Elastic Constant Matrix: (Units=GPa)
#
#
# Indices 1 2 3 4 5 6 
#
# 1 104.5778 61.3600 54.6636 0.0000 0.0000 0.0000
# 2 61.3600 95.0254 41.3062 0.0000 0.0000 0.0000
# 3 54.6636 41.3062 95.5407 0.0000 0.0000 0.0000
# 4 0.0000 0.0000 0.0000 -1.6001 0.0000 0.0000
# 5 0.0000 0.0000 0.0000 0.0000 22.3222 0.0000
# 6 0.0000 0.0000 0.0000 0.0000 0.0000 28.8750
#
#
#
# Elastic Compliance Matrix: (Units=1/GPa)
#
#
# Indices 1 2 3 4 5 6 
#
# 1 0.018229 -0.008912 -0.006577 0.000000 0.000000 0.000000
# 2 -0.008912 0.017316 -0.002387 0.000000 0.000000 0.000000
# 3 -0.006577 -0.002387 0.015262 0.000000 0.000000 0.000000
# 4 0.000000 0.000000 0.000000 -0.624951 0.000000 0.000000
# 5 0.000000 0.000000 0.000000 0.000000 0.044798 0.000000
# 6 0.000000 0.000000 0.000000 0.000000 0.000000 0.034632
#
#
# Mechanical properties :
#
#
# Convention : Reuss Voigt Hill
#
# Bulk Modulus (GPa) = 66.42532 67.75594 67.09063
# Shear Modulus (GPa) = -11.01460 19.10701 4.04621
#
# Velocity S-wave (km/s) = -2.72250 3.58574 1.65009
# Velocity P-wave (km/s) = 5.90055 7.92073 6.98407
#
# Compressibility (1/GPa) = 0.01505450
#
# Stress axis : x y z
#
# Youngs Moduli (GPa) = 54.85757 57.75005 65.52333
#
# Poissons Ratio (x) = 0.51467 0.43093
# Poissons Ratio (y) = 0.48890 0.15643
# Poissons Ratio (z) = 0.36078 0.13787
#
# Static dielectric constant tensor:
#      x y z
#    x 3.093210 0.000000 0.000000 
#    y 0.000000 2.936000 0.000000 
#    z 0.000000 0.000000 2.934180 
# 
# 
# High freq. dielectric constant tensor:
#      x y z
#    x 1.558930 0.000000 0.000000 
#    y 0.000000 1.539290 0.000000 
#    z 0.000000 0.000000 1.578480 
# 
# From -- ./inp_files/3814.got.cif
#   From: 2010.03.12/outbox.cif.g09.slc.cpg/sg37_2_cif.got.tgz:3814.got - 2010.04.14 02:25:27.
