data_PCOD8176920
_publ_section_title
;
Structure prediction by ZEFSAII (Michael W. Deem and Ramdas Pophale) SiO2 
 PCOD8176920
Probable space group: C C C 2
;
_chemical_formula_sum "Si O2"
_cell_formula_units_Z 64
_cell_length_a 14.383994
_cell_length_b 23.136337
_cell_length_c 8.726161
_cell_angle_alpha 90.000000
_cell_angle_beta 90.000000
_cell_angle_gamma 90.000000
_cell_volume 2904.004709
_symmetry_space_group_name_H-M "C C C 2"
_symmetry_group_IT_number 37
_symmetry_cell_setting 'orthorhombic'
loop_
_space_group_symop_operation_xyz
x,y,z
-x,-y,z
-x,y,1/2+z
x,-y,1/2+z
1/2+x,1/2+y,z
1/2-x,1/2-y,z
1/2-x,1/2+y,1/2+z
1/2+x,1/2-y,1/2+z
loop_
_atom_site_type_symbol
_atom_site_label
_atom_site_fract_x
_atom_site_fract_y
_atom_site_fract_z
Si Si1 0.617729 0.889043 0.476020
Si Si2 0.117261 0.892012 0.618826
Si Si3 0.808618 0.010160 0.075470
Si Si4 0.258799 0.817265 0.433109
Si Si5 0.719632 0.314745 0.090003
Si Si6 0.174973 0.488983 0.838874
Si Si7 0.071687 0.881688 0.960310
Si Si8 0.432515 0.879922 0.327866
O O1 0.713571 0.853612 0.481271
O O2 0.537084 0.861427 0.370312
O O3 0.575376 0.887294 0.645851
O O4 0.638121 0.948259 0.384964
O O5 0.134703 0.959533 0.657841
O O6 0.207422 0.856151 0.561576
O O7 0.037050 0.886535 0.492363
O O8 0.081810 0.870001 0.780973
O O9 0.709296 0.023547 0.162880
O O10 0.871511 0.065478 0.039332
O O11 0.774894 0.979388 0.919243
O O12 0.250000 0.750000 0.478363
O O13 0.216790 0.832312 0.267448
O O14 0.367447 0.832756 0.412248
O O15 0.750000 0.250000 0.066382
O O16 0.614276 0.323581 0.034079
O O17 0.097115 0.443248 0.891906
#
# Coordination Sequence:
#
# PCOD8176920 Si02
#       8
#     8   8   8   8   8   8   8   8
#     4  11  24  40  62  96 129 169 213 262 325 384
#     4  12  26  41  66  97 132 171 215 270 324 391
#     4  12  23  40  67  93 128 169 210 260 319 384
#     4  10  23  45  69  92 125 171 221 273 330 381
#     4  10  22  45  69  91 126 171 218 276 327 381
#     4  12  22  40  65  93 128 167 209 258 321 383
#     4  12  26  42  65  99 132 172 215 266 327 387
#     4  11  24  39  63  93 130 168 211 267 321 389
#
# _framework density 22.038530999999999
#
# number of rings (size 3 to 8) (size 9 to 14) (size 15 to 20)
#    0.000    0.750    5.000    2.250    3.500    4.500 
#    0.000    2.500    0.000    0.000    0.000    0.000 
#    0.000    0.000    0.000    0.000    0.000    0.000 
#
# Total GULP energy -396504.334099 kJ/mol
# GULP energy per Si atom -12390.760441 kJ/mol
# Density = 2.198837 g / cm^3
# Si number density = 22.038531 Si / 1000 Ang^3
#
#
#
# Elastic Constant Matrix: (Units=GPa)
#
#
# Indices 1 2 3 4 5 6 
#
# 1 75.7566 7.1745 17.5986 0.0000 0.0000 0.0000
# 2 7.1745 80.8921 16.8297 0.0000 0.0000 0.0000
# 3 17.5986 16.8297 68.8641 0.0000 0.0000 0.0000
# 4 0.0000 0.0000 0.0000 24.8214 0.0000 0.0000
# 5 0.0000 0.0000 0.0000 0.0000 39.9756 0.0000
# 6 0.0000 0.0000 0.0000 0.0000 0.0000 18.0625
#
#
#
# Elastic Compliance Matrix: (Units=1/GPa)
#
#
# Indices 1 2 3 4 5 6 
#
# 1 0.014054 -0.000526 -0.003463 0.000000 0.000000 0.000000
# 2 -0.000526 0.013044 -0.003053 0.000000 0.000000 0.000000
# 3 -0.003463 -0.003053 0.016153 0.000000 0.000000 0.000000
# 4 0.000000 0.000000 0.000000 0.040288 0.000000 0.000000
# 5 0.000000 0.000000 0.000000 0.000000 0.025015 0.000000
# 6 0.000000 0.000000 0.000000 0.000000 0.000000 0.055363
#
#
# Mechanical properties :
#
#
# Convention : Reuss Voigt Hill
#
# Bulk Modulus (GPa) = 34.28650 34.30206 34.29428
# Shear Modulus (GPa) = 26.63474 28.83257 27.73365
#
# Velocity S-wave (km/s) = 3.48020 3.62094 3.55127
# Velocity P-wave (km/s) = 5.63386 5.75152 5.69299
#
# Compressibility (1/GPa) = 0.02916600
#
# Stress axis : x y z
#
# Youngs Moduli (GPa) = 71.15166 76.66322 61.90947
#
# Poissons Ratio (x) = 0.04033 0.21440
# Poissons Ratio (y) = 0.03743 0.18904
# Poissons Ratio (z) = 0.24641 0.23409
#
# Static dielectric constant tensor:
#      x y z
#    x 4.078590 0.000000 0.000000 
#    y 0.000000 3.827980 0.000000 
#    z 0.000000 0.000000 4.025640 
# 
# 
# High freq. dielectric constant tensor:
#      x y z
#    x 1.868350 0.000000 0.000000 
#    y 0.000000 1.853670 0.000000 
#    z 0.000000 0.000000 1.876060 
# 
# From -- ./inp_files/3749.got.cif
#   From: 2010.03.12/outbox.cif.g09.slc.cpg/sg37_2_cif.got.tgz:3749.got - 2010.04.14 02:25:27.
