data_PCOD8176570
_publ_section_title
;
Structure prediction by ZEFSAII (Michael W. Deem and Ramdas Pophale) SiO2 
 PCOD8176570
Probable space group: C C C 2
;
_chemical_formula_sum "Si O2"
_cell_formula_units_Z 36
_cell_length_a 22.403533
_cell_length_b 5.132899
_cell_length_c 17.577240
_cell_angle_alpha 90.000000
_cell_angle_beta 90.000000
_cell_angle_gamma 90.000000
_cell_volume 2021.295982
_symmetry_space_group_name_H-M "C C C 2"
_symmetry_group_IT_number 37
_symmetry_cell_setting 'orthorhombic'
loop_
_space_group_symop_operation_xyz
x,y,z
-x,-y,z
-x,y,1/2+z
x,-y,1/2+z
1/2+x,1/2+y,z
1/2-x,1/2-y,z
1/2-x,1/2+y,1/2+z
1/2+x,1/2-y,1/2+z
loop_
_atom_site_type_symbol
_atom_site_label
_atom_site_fract_x
_atom_site_fract_y
_atom_site_fract_z
Si Si1 0.431617 0.479575 0.635890
Si Si2 0.250000 0.750000 0.337166
Si Si3 0.068383 0.479575 0.038442
Si Si4 0.135796 0.009725 0.791147
Si Si5 0.864204 0.490276 0.383185
O O1 0.500000 0.500000 0.663080
O O2 0.417398 0.698559 0.573516
O O3 0.389417 0.521388 0.707391
O O4 0.417398 0.198559 0.600816
O O5 0.292747 0.566977 0.284984
O O6 0.207253 0.566977 0.389348
O O7 0.000000 0.500000 0.011252
O O8 0.110583 0.521387 0.966941
O O9 0.122097 0.750000 0.837166
O O10 0.104878 0.250001 0.837166
#
# Coordination Sequence:
#
# PCOD8176570 Si02
#       5
#     8   4   8   8   8
#     4  10  21  37  56  83 117 145 178 228 281 330
#     4   8  22  36  58  80 110 144 188 238 262 312
#     4  10  21  37  56  83 117 145 178 228 281 330
#     4  10  20  36  59  80 111 145 187 227 273 320
#     4  10  20  36  59  80 111 145 187 227 273 320
#
# _framework density 17.810355000000001
#
# number of rings (size 3 to 8) (size 9 to 14) (size 15 to 20)
#    1.333    0.889    0.000    3.333    0.000    1.778 
#    0.000    2.222    0.000    0.000    0.000    0.000 
#    0.000    0.000    0.000    0.000    0.000    0.000 
#
# Total GULP energy -223104.642725 kJ/mol
# GULP energy per Si atom -12394.702374 kJ/mol
# Density = 1.776982 g / cm^3
# Si number density = 17.810355 Si / 1000 Ang^3
#
#
#
# Elastic Constant Matrix: (Units=GPa)
#
#
# Indices 1 2 3 4 5 6 
#
# 1 93.8283 28.5542 71.1632 0.0000 0.0000 0.0000
# 2 28.5542 111.9902 23.6990 0.0000 0.0000 0.0000
# 3 71.1632 23.6990 99.2922 0.0000 0.0000 0.0000
# 4 0.0000 0.0000 0.0000 19.7992 0.0000 0.0000
# 5 0.0000 0.0000 0.0000 0.0000 174.5285 0.0000
# 6 0.0000 0.0000 0.0000 0.0000 0.0000 10.1747
#
#
#
# Elastic Compliance Matrix: (Units=1/GPa)
#
#
# Indices 1 2 3 4 5 6 
#
# 1 0.024058 -0.002617 -0.016618 0.000000 0.000000 0.000000
# 2 -0.002617 0.009689 -0.000437 0.000000 0.000000 0.000000
# 3 -0.016618 -0.000437 0.022085 0.000000 0.000000 0.000000
# 4 0.000000 0.000000 0.000000 0.050507 0.000000 0.000000
# 5 0.000000 0.000000 0.000000 0.000000 0.005730 0.000000
# 6 0.000000 0.000000 0.000000 0.000000 0.000000 0.098283
#
#
# Mechanical properties :
#
#
# Convention : Reuss Voigt Hill
#
# Bulk Modulus (GPa) = 60.64682 61.32708 60.98695
# Shear Modulus (GPa) = 19.59310 53.01342 36.30326
#
# Velocity S-wave (km/s) = 3.32037 5.46170 4.51968
# Velocity P-wave (km/s) = 6.98750 8.61868 7.84560
#
# Compressibility (1/GPa) = 0.01648891
#
# Stress axis : x y z
#
# Youngs Moduli (GPa) = 41.56656 103.20838 45.27872
#
# Poissons Ratio (x) = 0.27014 0.75242
# Poissons Ratio (y) = 0.10880 0.01977
# Poissons Ratio (z) = 0.69074 0.04507
#
# Static dielectric constant tensor:
#      x y z
#    x 3.166670 0.000000 0.000000 
#    y 0.000000 3.518480 0.000000 
#    z 0.000000 0.000000 3.022450 
# 
# 
# High freq. dielectric constant tensor:
#      x y z
#    x 1.673730 0.000000 0.000000 
#    y 0.000000 1.712390 0.000000 
#    z 0.000000 0.000000 1.673590 
# 
# From -- ./inp_files/9594.got.cif
#   From: 2010.03.12/outbox.cif.g09.slc.cpg/sg37_5_cif.got.tgz:9594.got - 2010.04.14 02:25:27.
