data_PCOD8176971
_publ_section_title
;
Structure prediction by ZEFSAII (Michael W. Deem and Ramdas Pophale) SiO2 
 PCOD8176971
Probable space group: C C C 2
;
_chemical_formula_sum "Si O2"
_cell_formula_units_Z 40
_cell_length_a 7.565501
_cell_length_b 16.801463
_cell_length_c 13.046147
_cell_angle_alpha 90.000000
_cell_angle_beta 90.000000
_cell_angle_gamma 90.000000
_cell_volume 1658.315120
_symmetry_space_group_name_H-M "C C C 2"
_symmetry_group_IT_number 37
_symmetry_cell_setting 'orthorhombic'
loop_
_space_group_symop_operation_xyz
x,y,z
-x,-y,z
-x,y,1/2+z
x,-y,1/2+z
1/2+x,1/2+y,z
1/2-x,1/2-y,z
1/2-x,1/2+y,1/2+z
1/2+x,1/2-y,1/2+z
loop_
_atom_site_type_symbol
_atom_site_label
_atom_site_fract_x
_atom_site_fract_y
_atom_site_fract_z
Si Si1 0.196469 0.496539 0.765120
Si Si2 0.301544 0.851042 0.874314
Si Si3 0.991829 0.835100 0.024027
Si Si4 0.750000 0.250000 0.679316
Si Si5 0.803985 0.333829 0.366288
Si Si6 0.000000 0.000000 0.117793
O O1 0.215547 0.552496 0.866843
O O2 0.237097 0.404426 0.788266
O O3 0.333768 0.528641 0.683428
O O4 0.000000 0.500000 0.719036
O O5 0.292531 0.823208 0.755253
O O6 0.498256 0.829705 0.912728
O O7 0.153245 0.808467 0.946896
O O8 0.929538 0.772979 0.113496
O O9 0.059731 0.921857 0.057207
O O10 0.811101 0.848460 0.965491
O O11 0.750000 0.250000 0.312707
#
# Coordination Sequence:
#
# PCOD8176971 Si02
#       6
#     8   8   8   4   8   4
#     4  10  23  44  72 108 150 201 251 317 386 451
#     4  11  25  50  73 104 157 199 248 320 380 452
#     4  12  26  46  73 111 148 203 256 313 382 465
#     4  12  26  48  74 112 150 188 264 314 376 474
#     4  11  24  45  73 107 146 194 253 310 380 452
#     4  12  24  44  74 112 150 196 266 308 384 468
#
# _framework density 24.120868999999999
#
# number of rings (size 3 to 8) (size 9 to 14) (size 15 to 20)
#    0.000    0.800    3.000    3.600    2.800    1.600 
#    0.000    2.000    0.000    0.000    0.000    0.000 
#    0.000    0.000    0.000    0.000    0.000    0.000 
#
# Total GULP energy -247809.380705 kJ/mol
# GULP energy per Si atom -12390.469035 kJ/mol
# Density = 2.406597 g / cm^3
# Si number density = 24.120869 Si / 1000 Ang^3
#
#
#
# Elastic Constant Matrix: (Units=GPa)
#
#
# Indices 1 2 3 4 5 6 
#
# 1 173.0204 35.8958 74.1358 0.0000 0.0000 0.0000
# 2 35.8958 137.6859 20.0317 0.0000 0.0000 0.0000
# 3 74.1358 20.0317 97.1768 0.0000 0.0000 0.0000
# 4 0.0000 0.0000 0.0000 -4.6603 0.0000 0.0000
# 5 0.0000 0.0000 0.0000 0.0000 62.4411 0.0000
# 6 0.0000 0.0000 0.0000 0.0000 0.0000 39.6510
#
#
#
# Elastic Compliance Matrix: (Units=1/GPa)
#
#
# Indices 1 2 3 4 5 6 
#
# 1 0.008828 -0.001362 -0.006454 0.000000 0.000000 0.000000
# 2 -0.001362 0.007698 -0.000547 0.000000 0.000000 0.000000
# 3 -0.006454 -0.000547 0.015327 0.000000 0.000000 0.000000
# 4 0.000000 0.000000 0.000000 -0.214577 0.000000 0.000000
# 5 0.000000 0.000000 0.000000 0.000000 0.016015 0.000000
# 6 0.000000 0.000000 0.000000 0.000000 0.000000 0.025220
#
#
# Mechanical properties :
#
#
# Convention : Reuss Voigt Hill
#
# Bulk Modulus (GPa) = 66.11506 74.22332 70.16919
# Shear Modulus (GPa) = -41.76378 38.00768 -1.87805
#
# Velocity S-wave (km/s) = -4.16557 3.97384 -0.88334
# Velocity P-wave (km/s) = 2.08169 7.20371 5.30221
#
# Compressibility (1/GPa) = 0.01512515
#
# Stress axis : x y z
#
# Youngs Moduli (GPa) = 113.28088 129.90799 65.24501
#
# Poissons Ratio (x) = 0.17700 0.42107
# Poissons Ratio (y) = 0.15434 0.03571
# Poissons Ratio (z) = 0.73108 0.07110
#
# Static dielectric constant tensor:
#      x y z
#    x 4.478700 0.000000 0.000000 
#    y 0.000000 5.212640 0.000000 
#    z 0.000000 0.000000 4.010950 
# 
# 
# High freq. dielectric constant tensor:
#      x y z
#    x 1.968960 0.000000 0.000000 
#    y 0.000000 1.988230 0.000000 
#    z 0.000000 0.000000 1.924320 
# 
# From -- ./inp_files/6155.got.cif
#   From: 2010.03.12/outbox.cif.g09.slc.cpg/sg37_4_cif.got.tgz:6155.got - 2010.04.14 02:25:27.
