data_PCOD8176227
_publ_section_title
;
Structure prediction by ZEFSAII (Michael W. Deem and Ramdas Pophale) SiO2 
 PCOD8176227
Probable space group: C M C 21
;
_chemical_formula_sum "Si O2"
_cell_formula_units_Z 64
_cell_length_a 8.502541
_cell_length_b 33.341837
_cell_length_c 10.501758
_cell_angle_alpha 90.000000
_cell_angle_beta 90.000000
_cell_angle_gamma 90.000000
_cell_volume 2977.146905
_symmetry_space_group_name_H-M "C M C 21"
_symmetry_group_IT_number 36
_symmetry_cell_setting 'orthorhombic'
loop_
_space_group_symop_operation_xyz
x,y,z
-x,-y,1/2+z
x,-y,1/2+z
-x,y,z
1/2+x,1/2+y,z
1/2-x,1/2-y,1/2+z
1/2+x,1/2-y,1/2+z
1/2-x,1/2+y,z
loop_
_atom_site_type_symbol
_atom_site_label
_atom_site_fract_x
_atom_site_fract_y
_atom_site_fract_z
Si Si1 0.187651 0.364239 0.208050
Si Si2 0.178919 0.803259 0.816086
Si Si3 0.184500 0.036543 0.355623
Si Si4 0.179995 0.591561 0.950701
Si Si5 0.672043 0.171960 0.080180
Si Si6 0.683151 0.117804 0.427906
Si Si7 0.812604 0.513433 0.083607
Si Si8 0.176060 0.284378 0.315288
O O1 0.258982 0.393134 0.318448
O O2 0.253542 0.317963 0.220706
O O3 0.000000 0.360613 0.228081
O O4 0.234470 0.384255 0.075617
O O5 0.185978 0.812769 0.666466
O O6 0.280557 0.836955 0.885883
O O7 0.260130 0.758995 0.828716
O O8 0.000000 0.804484 0.866525
O O9 0.223589 0.084184 0.347386
O O10 0.248038 0.012898 0.229678
O O11 0.000000 0.029614 0.361003
O O12 0.260150 0.022869 0.491235
O O13 0.000000 0.581071 0.920675
O O14 0.196733 0.624955 0.058650
O O15 0.259247 0.552027 0.009452
O O16 0.500000 0.178321 0.144986
O O17 0.676367 0.195574 0.950917
O O18 0.500000 0.109056 0.410083
O O19 0.000000 0.513513 0.095837
O O20 0.000000 0.274356 0.267436
#
# Coordination Sequence:
#
# PCOD8176227 Si02
#       8
#     8   8   8   8   8   8   8   8
#     4   8  16  33  58  88 118 154 204 261 311 370
#     4  11  22  34  53  81 119 158 196 249 318 374
#     4  12  27  46  66  97 141 178 215 274 344 396
#     4   8  16  33  61  90 113 144 199 262 309 357
#     4   9  17  34  57  79 107 146 197 246 296 364
#     4  11  23  39  63  90 121 165 220 267 316 388
#     4  11  23  42  71 102 131 171 225 273 321 398
#     4   8  17  33  53  81 116 154 194 248 311 371
#
# _framework density 21.497091000000001
#
# number of rings (size 3 to 8) (size 9 to 14) (size 15 to 20)
#    0.000    2.250    0.000    4.500    3.500    1.000 
#    0.000    1.250    0.000    6.000    0.000    0.000 
#    0.000    0.000    0.000    0.000    0.000    0.000 
#
# Total GULP energy -396456.211307 kJ/mol
# GULP energy per Si atom -12389.256603 kJ/mol
# Density = 2.144816 g / cm^3
# Si number density = 21.497091 Si / 1000 Ang^3
#
#
#
# Elastic Constant Matrix: (Units=GPa)
#
#
# Indices 1 2 3 4 5 6 
#
# 1 58.3310 20.3667 25.6688 0.0000 0.0000 0.0000
# 2 20.3667 98.2406 34.7849 0.0000 0.0000 0.0000
# 3 25.6688 34.7849 84.7903 0.0000 0.0000 0.0000
# 4 0.0000 0.0000 0.0000 11.9002 0.0000 0.0000
# 5 0.0000 0.0000 0.0000 0.0000 24.9896 0.0000
# 6 0.0000 0.0000 0.0000 0.0000 0.0000 18.4168
#
#
#
# Elastic Compliance Matrix: (Units=1/GPa)
#
#
# Indices 1 2 3 4 5 6 
#
# 1 0.020240 -0.002371 -0.005155 0.000000 0.000000 0.000000
# 2 -0.002371 0.012187 -0.004282 0.000000 0.000000 0.000000
# 3 -0.005155 -0.004282 0.015111 0.000000 0.000000 0.000000
# 4 0.000000 0.000000 0.000000 0.084032 0.000000 0.000000
# 5 0.000000 0.000000 0.000000 0.000000 0.040017 0.000000
# 6 0.000000 0.000000 0.000000 0.000000 0.000000 0.054298
#
#
# Mechanical properties :
#
#
# Convention : Reuss Voigt Hill
#
# Bulk Modulus (GPa) = 41.80127 44.77809 43.28968
# Shear Modulus (GPa) = 19.41952 21.76409 20.59180
#
# Velocity S-wave (km/s) = 3.00885 3.18531 3.09833
# Velocity P-wave (km/s) = 5.61767 5.86543 5.74289
#
# Compressibility (1/GPa) = 0.02392272
#
# Stress axis : x y z
#
# Youngs Moduli (GPa) = 49.40807 82.05665 66.17758
#
# Poissons Ratio (x) = 0.19454 0.34112
# Poissons Ratio (y) = 0.11714 0.28336
# Poissons Ratio (z) = 0.25468 0.35135
#
# Static dielectric constant tensor:
#      x y z
#    x 3.536560 0.000000 0.000000 
#    y 0.000000 4.262410 0.000000 
#    z 0.000000 0.000000 4.142920 
# 
# 
# High freq. dielectric constant tensor:
#      x y z
#    x 1.795110 0.000000 0.000000 
#    y 0.000000 1.859610 0.000000 
#    z 0.000000 0.000000 1.847460 
# 
# From -- ./inp_files/7142.got.cif
#   From: 2010.03.12/outbox.cif.g09.slc.cpg/sg36_4_cif.got.tgz:7142.got - 2010.04.14 02:13:53.
