data_PCOD8176529
_publ_section_title
;
Structure prediction by ZEFSAII (Michael W. Deem and Ramdas Pophale) SiO2 
 PCOD8176529
Probable space group: C C C 2
;
_chemical_formula_sum "Si O2"
_cell_formula_units_Z 56
_cell_length_a 20.828848
_cell_length_b 15.691853
_cell_length_c 8.882964
_cell_angle_alpha 90.000000
_cell_angle_beta 90.000000
_cell_angle_gamma 90.000000
_cell_volume 2903.336566
_symmetry_space_group_name_H-M "C C C 2"
_symmetry_group_IT_number 37
_symmetry_cell_setting 'orthorhombic'
loop_
_space_group_symop_operation_xyz
x,y,z
-x,-y,z
-x,y,1/2+z
x,-y,1/2+z
1/2+x,1/2+y,z
1/2-x,1/2-y,z
1/2-x,1/2+y,1/2+z
1/2+x,1/2-y,1/2+z
loop_
_atom_site_type_symbol
_atom_site_label
_atom_site_fract_x
_atom_site_fract_y
_atom_site_fract_z
Si Si1 0.624755 0.252867 0.698340
Si Si2 0.540169 0.381028 0.573895
Si Si3 0.500000 0.500000 0.327821
Si Si4 0.049267 0.269941 0.490479
Si Si5 0.880143 0.503948 0.772416
Si Si6 0.068899 0.391352 0.035723
Si Si7 0.250000 0.750000 0.890799
Si Si8 0.167136 0.619272 0.029720
O O1 0.606312 0.328460 0.583239
O O2 0.564359 0.243698 0.813818
O O3 0.627358 0.168517 0.595008
O O4 0.690344 0.272664 0.783581
O O5 0.547234 0.444868 0.433658
O O6 0.539470 0.435098 0.726439
O O7 0.477013 0.319290 0.558969
O O8 0.114131 0.307031 0.566890
O O9 0.997579 0.343494 0.516842
O O10 0.934285 0.467533 0.658138
O O11 0.826752 0.553087 0.668329
O O12 0.914743 0.573894 0.872355
O O13 0.849351 0.429321 0.873228
O O14 0.233857 0.668859 0.997435
#
# Coordination Sequence:
#
# PCOD8176529 Si02
#       8
#     8   8   4   8   8   8   4   8
#     4  10  20  39  58  86 110 164 196 243 284 356
#     4  10  20  35  57  81 119 146 196 236 304 348
#     4  10  20  34  56  84 120 148 176 262 304 342
#     4  10  20  33  56  86 116 155 190 228 287 366
#     4  10  21  36  55  91 121 151 187 242 291 347
#     4  10  21  34  56  85 124 150 188 233 298 344
#     4  10  20  42  62  78 114 166 202 240 284 352
#     4  10  22  37  61  79 119 155 195 235 292 338
#
# _framework density 19.288153000000001
#
# number of rings (size 3 to 8) (size 9 to 14) (size 15 to 20)
#    0.000    2.000    4.286    0.000    4.000    3.429 
#    0.000    2.143    0.000    0.000    0.000    0.000 
#    0.000    0.000    0.000    0.000    0.000    0.000 
#
# Total GULP energy -346949.663311 kJ/mol
# GULP energy per Si atom -12391.059404 kJ/mol
# Density = 1.924425 g / cm^3
# Si number density = 19.288153 Si / 1000 Ang^3
#
#
#
# Elastic Constant Matrix: (Units=GPa)
#
#
# Indices 1 2 3 4 5 6 
#
# 1 84.5010 45.2836 35.1908 0.0000 0.0000 0.0000
# 2 45.2836 117.0157 58.2651 0.0000 0.0000 0.0000
# 3 35.1908 58.2651 118.3497 0.0000 0.0000 0.0000
# 4 0.0000 0.0000 0.0000 18.5262 0.0000 0.0000
# 5 0.0000 0.0000 0.0000 0.0000 24.0851 0.0000
# 6 0.0000 0.0000 0.0000 0.0000 0.0000 29.5166
#
#
#
# Elastic Compliance Matrix: (Units=1/GPa)
#
#
# Indices 1 2 3 4 5 6 
#
# 1 0.015340 -0.004856 -0.002171 0.000000 0.000000 0.000000
# 2 -0.004856 0.012858 -0.004886 0.000000 0.000000 0.000000
# 3 -0.002171 -0.004886 0.011501 0.000000 0.000000 0.000000
# 4 0.000000 0.000000 0.000000 0.053977 0.000000 0.000000
# 5 0.000000 0.000000 0.000000 0.000000 0.041519 0.000000
# 6 0.000000 0.000000 0.000000 0.000000 0.000000 0.033879
#
#
# Mechanical properties :
#
#
# Convention : Reuss Voigt Hill
#
# Bulk Modulus (GPa) = 62.99903 66.37173 64.68538
# Shear Modulus (GPa) = 25.22808 26.50071 25.86440
#
# Velocity S-wave (km/s) = 3.62049 3.71069 3.66587
# Velocity P-wave (km/s) = 7.08592 7.26941 7.17825
#
# Compressibility (1/GPa) = 0.01587326
#
# Stress axis : x y z
#
# Youngs Moduli (GPa) = 65.18762 77.77288 86.95149
#
# Poissons Ratio (x) = 0.37763 0.18877
# Poissons Ratio (y) = 0.31652 0.42488
# Poissons Ratio (z) = 0.14152 0.38003
#
# Static dielectric constant tensor:
#      x y z
#    x 3.066030 0.000000 0.000000 
#    y 0.000000 3.955060 0.000000 
#    z 0.000000 0.000000 3.715390 
# 
# 
# High freq. dielectric constant tensor:
#      x y z
#    x 1.692130 0.000000 0.000000 
#    y 0.000000 1.772310 0.000000 
#    z 0.000000 0.000000 1.760390 
# 
# From -- ./inp_files/4140.got.cif
#   From: 2010.03.12/outbox.cif.g09.slc.cpg/sg37_3_cif.got.tgz:4140.got - 2010.04.14 02:25:27.
