data_PCOD8176423
_publ_section_title
;
Structure prediction by ZEFSAII (Michael W. Deem and Ramdas Pophale) SiO2 
 PCOD8176423
Probable space group: C C C 2
;
_chemical_formula_sum "Si O2"
_cell_formula_units_Z 52
_cell_length_a 12.670522
_cell_length_b 9.444336
_cell_length_c 20.290745
_cell_angle_alpha 90.000000
_cell_angle_beta 90.000000
_cell_angle_gamma 90.000000
_cell_volume 2428.085245
_symmetry_space_group_name_H-M "C C C 2"
_symmetry_group_IT_number 37
_symmetry_cell_setting 'orthorhombic'
loop_
_space_group_symop_operation_xyz
x,y,z
-x,-y,z
-x,y,1/2+z
x,-y,1/2+z
1/2+x,1/2+y,z
1/2-x,1/2-y,z
1/2-x,1/2+y,1/2+z
1/2+x,1/2-y,1/2+z
loop_
_atom_site_type_symbol
_atom_site_label
_atom_site_fract_x
_atom_site_fract_y
_atom_site_fract_z
Si Si1 0.750000 0.250000 0.302070
Si Si2 0.608894 0.088345 0.609962
Si Si3 0.838713 0.647177 0.517558
Si Si4 0.934978 0.135564 0.388282
Si Si5 0.411935 0.886138 0.880465
Si Si6 0.126240 0.501745 0.749066
Si Si7 0.462686 0.655210 0.537383
O O1 0.826413 0.156294 0.348532
O O2 0.820608 0.346863 0.253584
O O3 0.608243 0.256444 0.590196
O O4 0.500000 0.000000 0.615502
O O5 0.675249 0.001994 0.555336
O O6 0.663981 0.079025 0.682033
O O7 0.750000 0.750000 0.544943
O O8 0.827063 0.619255 0.439613
O O9 0.946782 0.728994 0.528626
O O10 0.020953 0.248557 0.367944
O O11 0.906763 0.131878 0.466682
O O12 0.000000 0.000000 0.366011
O O13 0.500000 0.000000 0.900238
O O14 0.340757 0.916547 0.815838
O O15 0.000000 0.500000 0.752047
O O16 0.500000 0.500000 0.564690
#
# Coordination Sequence:
#
# PCOD8176423 Si02
#       7
#     4   8   8   8   8   8   8
#     4  12  22  38  70  96 128 186 210 274 340 394
#     4   9  19  37  61  87 124 172 210 263 326 388
#     4  10  20  33  61  89 115 164 214 262 315 393
#     4  10  21  38  62  99 129 162 219 278 322 391
#     4  10  18  38  57  82 127 159 208 272 323 378
#     4  10  21  37  64  93 127 169 223 265 321 399
#     4   9  19  39  59  88 131 160 205 273 335 377
#
# _framework density 21.416052000000001
#
# number of rings (size 3 to 8) (size 9 to 14) (size 15 to 20)
#    0.000    2.154    3.077    2.308    1.077    3.692 
#    0.000    0.769    0.000    3.692    0.000    0.000 
#    0.000    0.000    0.000    0.000    0.000    0.000 
#
# Total GULP energy -322089.875222 kJ/mol
# GULP energy per Si atom -12388.072124 kJ/mol
# Density = 2.136731 g / cm^3
# Si number density = 21.416052 Si / 1000 Ang^3
#
#
#
# Elastic Constant Matrix: (Units=GPa)
#
#
# Indices 1 2 3 4 5 6 
#
# 1 52.9691 30.1580 32.0902 0.0000 0.0000 0.0000
# 2 30.1580 166.6807 62.3645 0.0000 0.0000 0.0000
# 3 32.0902 62.3645 136.5943 0.0000 0.0000 0.0000
# 4 0.0000 0.0000 0.0000 25.0895 0.0000 0.0000
# 5 0.0000 0.0000 0.0000 0.0000 2.6626 0.0000
# 6 0.0000 0.0000 0.0000 0.0000 0.0000 36.8724
#
#
#
# Elastic Compliance Matrix: (Units=1/GPa)
#
#
# Indices 1 2 3 4 5 6 
#
# 1 0.022888 -0.002568 -0.004205 0.000000 0.000000 0.000000
# 2 -0.002568 0.007524 -0.002832 0.000000 0.000000 0.000000
# 3 -0.004205 -0.002832 0.009602 0.000000 0.000000 0.000000
# 4 0.000000 0.000000 0.000000 0.039857 0.000000 0.000000
# 5 0.000000 0.000000 0.000000 0.000000 0.375576 0.000000
# 6 0.000000 0.000000 0.000000 0.000000 0.000000 0.027121
#
#
# Mechanical properties :
#
#
# Convention : Reuss Voigt Hill
#
# Bulk Modulus (GPa) = 48.06602 67.27439 57.67020
# Shear Modulus (GPa) = 9.82876 28.36699 19.09787
#
# Velocity S-wave (km/s) = 2.14462 3.64341 2.98947
# Velocity P-wave (km/s) = 5.35025 7.01288 6.23721
#
# Compressibility (1/GPa) = 0.02080472
#
# Stress axis : x y z
#
# Youngs Moduli (GPa) = 43.69027 132.91423 104.14890
#
# Poissons Ratio (x) = 0.34133 0.43791
# Poissons Ratio (y) = 0.11220 0.29492
# Poissons Ratio (z) = 0.18370 0.37638
#
# Static dielectric constant tensor:
#      x y z
#    x 3.582400 0.000000 0.000000 
#    y 0.000000 3.906970 0.000000 
#    z 0.000000 0.000000 4.391680 
# 
# 
# High freq. dielectric constant tensor:
#      x y z
#    x 1.809370 0.000000 0.000000 
#    y 0.000000 1.846370 0.000000 
#    z 0.000000 0.000000 1.836970 
# 
# From -- ./inp_files/17119.got.cif
#   From: 2010.03.12/outbox.cif.g09.slc.cpg/sg37_9_cif.got.tgz:17119.got - 2010.04.14 02:25:27.
