data_PCOD8176251
_publ_section_title
;
Structure prediction by ZEFSAII (Michael W. Deem and Ramdas Pophale) SiO2 
 PCOD8176251
Probable space group: C M C 21
;
_chemical_formula_sum "Si O2"
_cell_formula_units_Z 48
_cell_length_a 21.868737
_cell_length_b 11.317166
_cell_length_c 8.724349
_cell_angle_alpha 90.000000
_cell_angle_beta 90.000000
_cell_angle_gamma 90.000000
_cell_volume 2159.207689
_symmetry_space_group_name_H-M "C M C 21"
_symmetry_group_IT_number 36
_symmetry_cell_setting 'orthorhombic'
loop_
_space_group_symop_operation_xyz
x,y,z
-x,-y,1/2+z
x,-y,1/2+z
-x,y,z
1/2+x,1/2+y,z
1/2-x,1/2-y,1/2+z
1/2+x,1/2-y,1/2+z
1/2-x,1/2+y,z
loop_
_atom_site_type_symbol
_atom_site_label
_atom_site_fract_x
_atom_site_fract_y
_atom_site_fract_z
Si Si1 0.393942 0.353322 0.007170
Si Si2 0.564973 0.892853 0.571142
Si Si3 0.673930 0.742330 0.986700
Si Si4 0.203861 0.719299 0.826386
Si Si5 0.572504 0.586566 0.842379
Si Si6 0.635723 0.974520 0.849722
O O1 0.437290 0.239188 0.003998
O O2 0.394360 0.405359 0.178320
O O3 0.327136 0.307641 0.951247
O O4 0.421368 0.451477 0.894596
O O5 0.500000 0.920533 0.648941
O O6 0.573592 0.982728 0.430747
O O7 0.619780 0.907370 0.692405
O O8 0.725630 0.698850 0.868753
O O9 0.609698 0.674379 0.955838
O O10 0.668081 0.882486 0.962426
O O11 0.695061 0.719527 0.160924
O O12 0.177131 0.588103 0.823019
O O13 0.500000 0.621466 0.837624
#
# Coordination Sequence:
#
# PCOD8176251 Si02
#       6
#     8   8   8   8   8   8
#     4  11  25  45  70 104 142 190 238 293 354 427
#     4  11  22  43  71 102 142 185 228 282 351 420
#     4  12  26  46  74 102 143 188 236 300 359 427
#     4  11  27  47  72 106 140 186 244 298 361 427
#     4  12  25  45  72 105 146 191 238 292 362 434
#     4  11  24  44  69 105 138 178 234 291 347 421
#
# _framework density 22.230374999999999
#
# number of rings (size 3 to 8) (size 9 to 14) (size 15 to 20)
#    0.000    0.667    3.333    4.000    4.667    0.667 
#    0.000    1.667    0.000    0.000    0.000    0.000 
#    0.000    0.000    0.000    0.000    0.000    0.000 
#
# Total GULP energy -297526.943005 kJ/mol
# GULP energy per Si atom -12396.955959 kJ/mol
# Density = 2.217978 g / cm^3
# Si number density = 22.230375 Si / 1000 Ang^3
#
#
#
# Elastic Constant Matrix: (Units=GPa)
#
#
# Indices 1 2 3 4 5 6 
#
# 1 128.6817 58.7734 48.7049 0.0000 0.0000 0.0000
# 2 58.7734 102.7560 59.0974 0.0000 0.0000 0.0000
# 3 48.7049 59.0974 125.9085 0.0000 0.0000 0.0000
# 4 0.0000 0.0000 0.0000 43.5643 0.0000 0.0000
# 5 0.0000 0.0000 0.0000 0.0000 27.2705 0.0000
# 6 0.0000 0.0000 0.0000 0.0000 0.0000 3.0340
#
#
#
# Elastic Compliance Matrix: (Units=1/GPa)
#
#
# Indices 1 2 3 4 5 6 
#
# 1 0.010793 -0.005167 -0.001750 0.000000 0.000000 0.000000
# 2 -0.005167 0.015804 -0.005419 0.000000 0.000000 0.000000
# 3 -0.001750 -0.005419 0.011163 0.000000 0.000000 0.000000
# 4 0.000000 0.000000 0.000000 0.022955 0.000000 0.000000
# 5 0.000000 0.000000 0.000000 0.000000 0.036670 0.000000
# 6 0.000000 0.000000 0.000000 0.000000 0.000000 0.329597
#
#
# Mechanical properties :
#
#
# Convention : Reuss Voigt Hill
#
# Bulk Modulus (GPa) = 76.40668 76.72196 76.56432
# Shear Modulus (GPa) = 10.96452 27.49180 19.22816
#
# Velocity S-wave (km/s) = 2.22327 3.52046 2.94419
# Velocity P-wave (km/s) = 6.40590 7.14926 6.78777
#
# Compressibility (1/GPa) = 0.01308786
#
# Stress axis : x y z
#
# Youngs Moduli (GPa) = 92.64887 63.27578 89.58387
#
# Poissons Ratio (x) = 0.32695 0.15677
# Poissons Ratio (y) = 0.47873 0.48546
# Poissons Ratio (z) = 0.16213 0.34289
#
# Static dielectric constant tensor:
#      x y z
#    x 3.963960 0.000000 0.000000 
#    y 0.000000 4.073970 0.000000 
#    z 0.000000 0.000000 4.062380 
# 
# 
# High freq. dielectric constant tensor:
#      x y z
#    x 1.869790 0.000000 0.000000 
#    y 0.000000 1.885340 0.000000 
#    z 0.000000 0.000000 1.882490 
# 
# From -- ./inp_files/5545.got.cif
#   From: 2010.03.12/outbox.cif.g09.slc.cpg/sg36_3_cif.got.tgz:5545.got - 2010.04.14 02:13:53.
