data_PCOD8176924
_publ_section_title
;
Structure prediction by ZEFSAII (Michael W. Deem and Ramdas Pophale) SiO2 
 PCOD8176924
Probable space group: C C C 2
;
_chemical_formula_sum "Si O2"
_cell_formula_units_Z 64
_cell_length_a 11.802316
_cell_length_b 29.650778
_cell_length_c 8.766623
_cell_angle_alpha 90.000000
_cell_angle_beta 90.000000
_cell_angle_gamma 90.000000
_cell_volume 3067.860885
_symmetry_space_group_name_H-M "C C C 2"
_symmetry_group_IT_number 37
_symmetry_cell_setting 'orthorhombic'
loop_
_space_group_symop_operation_xyz
x,y,z
-x,-y,z
-x,y,1/2+z
x,-y,1/2+z
1/2+x,1/2+y,z
1/2-x,1/2-y,z
1/2-x,1/2+y,1/2+z
1/2+x,1/2-y,1/2+z
loop_
_atom_site_type_symbol
_atom_site_label
_atom_site_fract_x
_atom_site_fract_y
_atom_site_fract_z
Si Si1 0.838779 0.127582 0.619860
Si Si2 0.060631 0.385386 0.616291
Si Si3 0.153910 0.440549 0.074313
Si Si4 0.669051 0.027926 0.233028
Si Si5 0.415914 0.461035 0.652744
Si Si6 0.008011 0.677684 0.866795
Si Si7 0.665838 0.208118 0.608302
Si Si8 0.524829 0.601456 0.396646
O O1 0.780378 0.078049 0.606261
O O2 0.744631 0.164814 0.596390
O O3 0.897544 0.132326 0.786363
O O4 0.933045 0.132168 0.486558
O O5 0.136427 0.430015 0.624435
O O6 0.073123 0.354527 0.765929
O O7 0.928923 0.398574 0.599294
O O8 0.089679 0.354300 0.470277
O O9 0.110757 0.480426 0.187741
O O10 0.142411 0.460757 0.905851
O O11 0.798740 0.016437 0.198973
O O12 0.500000 0.500000 0.596317
O O13 0.397205 0.424545 0.518824
O O14 0.461767 0.436303 0.800602
O O15 0.091524 0.708343 0.763974
O O16 0.924137 0.708778 0.968298
O O17 0.750000 0.250000 0.602307
#
# Coordination Sequence:
#
# PCOD8176924 Si02
#       8
#     8   8   8   8   8   8   8   8
#     4  11  22  45  61  91 131 175 221 281 346 398
#     4  11  22  42  65  92 134 178 226 271 340 405
#     4  12  25  39  59  92 136 180 231 291 335 383
#     4  12  26  36  60  92 131 182 243 283 323 387
#     4  11  23  37  56  82 127 173 229 278 328 373
#     4  10  22  45  73  99 135 175 211 270 350 409
#     4  11  25  46  77 103 136 167 213 276 342 418
#     4  10  23  38  59  84 121 175 225 270 326 395
#
# _framework density 20.861443000000001
#
# number of rings (size 3 to 8) (size 9 to 14) (size 15 to 20)
#    0.000    1.000    5.000    2.250    7.000    2.000 
#    0.000    2.500    0.000    0.000    0.000    0.000 
#    0.000    0.000    0.000    0.000    0.000    0.000 
#
# Total GULP energy -396763.449717 kJ/mol
# GULP energy per Si atom -12398.857804 kJ/mol
# Density = 2.081396 g / cm^3
# Si number density = 20.861443 Si / 1000 Ang^3
#
#
#
# Elastic Constant Matrix: (Units=GPa)
#
#
# Indices 1 2 3 4 5 6 
#
# 1 80.6712 33.7321 42.5059 0.0000 0.0000 0.0000
# 2 33.7321 88.2018 37.0818 0.0000 0.0000 0.0000
# 3 42.5059 37.0818 127.3901 0.0000 0.0000 0.0000
# 4 0.0000 0.0000 0.0000 18.9751 0.0000 0.0000
# 5 0.0000 0.0000 0.0000 0.0000 26.3979 0.0000
# 6 0.0000 0.0000 0.0000 0.0000 0.0000 38.9993
#
#
#
# Elastic Compliance Matrix: (Units=1/GPa)
#
#
# Indices 1 2 3 4 5 6 
#
# 1 0.016503 -0.004554 -0.004181 0.000000 0.000000 0.000000
# 2 -0.004554 0.014175 -0.002607 0.000000 0.000000 0.000000
# 3 -0.004181 -0.002607 0.010004 0.000000 0.000000 0.000000
# 4 0.000000 0.000000 0.000000 0.052701 0.000000 0.000000
# 5 0.000000 0.000000 0.000000 0.000000 0.037882 0.000000
# 6 0.000000 0.000000 0.000000 0.000000 0.000000 0.025641
#
#
# Mechanical properties :
#
#
# Convention : Reuss Voigt Hill
#
# Bulk Modulus (GPa) = 55.55870 58.10028 56.82949
# Shear Modulus (GPa) = 26.94134 29.07070 28.00602
#
# Velocity S-wave (km/s) = 3.59756 3.73703 3.66796
# Velocity P-wave (km/s) = 6.62923 6.82140 6.72600
#
# Compressibility (1/GPa) = 0.01799898
#
# Stress axis : x y z
#
# Youngs Moduli (GPa) = 60.59473 70.54624 99.96230
#
# Poissons Ratio (x) = 0.32125 0.41794
# Poissons Ratio (y) = 0.27593 0.26058
# Poissons Ratio (z) = 0.25335 0.18390
#
# Static dielectric constant tensor:
#      x y z
#    x 3.850860 0.000000 0.000000 
#    y 0.000000 3.564080 0.000000 
#    z 0.000000 0.000000 3.987490 
# 
# 
# High freq. dielectric constant tensor:
#      x y z
#    x 1.817590 0.000000 0.000000 
#    y 0.000000 1.788730 0.000000 
#    z 0.000000 0.000000 1.830440 
# 
# From -- ./inp_files/3117.got.cif
#   From: 2010.03.12/outbox.cif.g09.slc.cpg/sg37_2_cif.got.tgz:3117.got - 2010.04.14 02:25:27.
