data_PCOD8176682
_publ_section_title
;
Structure prediction by ZEFSAII (Michael W. Deem and Ramdas Pophale) SiO2 
 PCOD8176682
Probable space group: C C C 2
;
_chemical_formula_sum "Si O2"
_cell_formula_units_Z 60
_cell_length_a 17.599994
_cell_length_b 18.692576
_cell_length_c 9.483905
_cell_angle_alpha 90.000000
_cell_angle_beta 90.000000
_cell_angle_gamma 90.000000
_cell_volume 3120.102560
_symmetry_space_group_name_H-M "C C C 2"
_symmetry_group_IT_number 37
_symmetry_cell_setting 'orthorhombic'
loop_
_space_group_symop_operation_xyz
x,y,z
-x,-y,z
-x,y,1/2+z
x,-y,1/2+z
1/2+x,1/2+y,z
1/2-x,1/2-y,z
1/2-x,1/2+y,1/2+z
1/2+x,1/2-y,1/2+z
loop_
_atom_site_type_symbol
_atom_site_label
_atom_site_fract_x
_atom_site_fract_y
_atom_site_fract_z
Si Si1 0.566347 0.860017 0.579310
Si Si2 0.166228 0.284912 0.043104
Si Si3 0.067452 0.759566 0.291867
Si Si4 0.338002 0.054536 0.930239
Si Si5 0.283885 0.065122 0.622563
Si Si6 0.907963 0.252925 0.837672
Si Si7 0.185580 0.191630 0.574114
Si Si8 0.500000 0.000000 0.986825
O O1 0.551949 0.819861 0.726789
O O2 0.653889 0.879486 0.568724
O O3 0.553872 0.813415 0.438839
O O4 0.514729 0.930968 0.584647
O O5 0.250000 0.250000 0.040232
O O6 0.164034 0.365447 0.987677
O O7 0.131239 0.285322 0.199181
O O8 0.111073 0.240128 0.940778
O O9 0.115889 0.803463 0.180646
O O10 0.983050 0.794740 0.303136
O O11 0.289429 0.009419 0.041900
O O12 0.291412 0.049426 0.787015
O O13 0.422837 0.020949 0.901425
O O14 0.207916 0.108557 0.585523
O O15 0.843769 0.206755 0.916140
O O16 0.250000 0.250000 0.617029
#
# Coordination Sequence:
#
# PCOD8176682 Si02
#       8
#     8   8   8   8   8   8   8   4
#     4  10  21  36  56  77 126 168 204 227 297 365
#     4  12  24  38  60  91 124 160 214 263 299 358
#     4  11  20  38  60  86 120 158 209 251 309 363
#     4  11  24  38  57  90 125 164 209 242 308 366
#     4  11  23  39  57  85 116 168 203 248 296 371
#     4  11  23  35  60  90 119 159 205 260 304 362
#     4  11  20  40  63  81 120 167 205 248 317 365
#     4  10  22  36  56  86 132 170 198 240 292 384
#
# _framework density 19.230136999999999
#
# number of rings (size 3 to 8) (size 9 to 14) (size 15 to 20)
#    0.000    1.067    4.000    4.800    3.733    2.133 
#    0.000    0.000    0.000    0.000    0.000   15.867 
#    0.000    0.000    0.000    0.000    0.000    0.000 
#
# Total GULP energy -371804.121251 kJ/mol
# GULP energy per Si atom -12393.470708 kJ/mol
# Density = 1.918637 g / cm^3
# Si number density = 19.230137 Si / 1000 Ang^3
#
#
#
# Elastic Constant Matrix: (Units=GPa)
#
#
# Indices 1 2 3 4 5 6 
#
# 1 102.7813 37.9934 43.1254 0.0000 0.0000 0.0000
# 2 37.9934 65.2721 30.3459 0.0000 0.0000 0.0000
# 3 43.1254 30.3459 129.8186 0.0000 0.0000 0.0000
# 4 0.0000 0.0000 0.0000 23.5544 0.0000 0.0000
# 5 0.0000 0.0000 0.0000 0.0000 32.1760 0.0000
# 6 0.0000 0.0000 0.0000 0.0000 0.0000 32.6194
#
#
#
# Elastic Compliance Matrix: (Units=1/GPa)
#
#
# Indices 1 2 3 4 5 6 
#
# 1 0.013322 -0.006392 -0.002931 0.000000 0.000000 0.000000
# 2 -0.006392 0.020255 -0.002611 0.000000 0.000000 0.000000
# 3 -0.002931 -0.002611 0.009287 0.000000 0.000000 0.000000
# 4 0.000000 0.000000 0.000000 0.042455 0.000000 0.000000
# 5 0.000000 0.000000 0.000000 0.000000 0.031079 0.000000
# 6 0.000000 0.000000 0.000000 0.000000 0.000000 0.030657
#
#
# Mechanical properties :
#
#
# Convention : Reuss Voigt Hill
#
# Bulk Modulus (GPa) = 52.64452 57.86680 55.25566
# Shear Modulus (GPa) = 28.20782 30.09711 29.15246
#
# Velocity S-wave (km/s) = 3.83411 3.96043 3.89778
# Velocity P-wave (km/s) = 6.85828 7.14635 7.00380
#
# Compressibility (1/GPa) = 0.01899533
#
# Stress axis : x y z
#
# Youngs Moduli (GPa) = 75.06345 49.37061 107.67357
#
# Poissons Ratio (x) = 0.31556 0.31564
# Poissons Ratio (y) = 0.47977 0.28119
# Poissons Ratio (z) = 0.22005 0.12893
#
# Static dielectric constant tensor:
#      x y z
#    x 3.826890 0.000000 0.000000 
#    y 0.000000 3.366210 0.000000 
#    z 0.000000 0.000000 3.664710 
# 
# 
# High freq. dielectric constant tensor:
#      x y z
#    x 1.749820 0.000000 0.000000 
#    y 0.000000 1.712220 0.000000 
#    z 0.000000 0.000000 1.762660 
# 
# From -- ./inp_files/4077.got.cif
#   From: 2010.03.12/outbox.cif.g09.slc.cpg/sg37_3_cif.got.tgz:4077.got - 2010.04.14 02:25:27.
