data_PCOD8176544
_publ_section_title
;
Structure prediction by ZEFSAII (Michael W. Deem and Ramdas Pophale) SiO2 
 PCOD8176544
Probable space group: C C C 2
;
_chemical_formula_sum "Si O2"
_cell_formula_units_Z 56
_cell_length_a 13.514918
_cell_length_b 11.601311
_cell_length_c 18.393498
_cell_angle_alpha 90.000000
_cell_angle_beta 90.000000
_cell_angle_gamma 90.000000
_cell_volume 2883.930657
_symmetry_space_group_name_H-M "C C C 2"
_symmetry_group_IT_number 37
_symmetry_cell_setting 'orthorhombic'
loop_
_space_group_symop_operation_xyz
x,y,z
-x,-y,z
-x,y,1/2+z
x,-y,1/2+z
1/2+x,1/2+y,z
1/2-x,1/2-y,z
1/2-x,1/2+y,1/2+z
1/2+x,1/2-y,1/2+z
loop_
_atom_site_type_symbol
_atom_site_label
_atom_site_fract_x
_atom_site_fract_y
_atom_site_fract_z
Si Si1 0.410336 0.194035 0.530780
Si Si2 0.604558 0.182925 0.621849
Si Si3 0.716281 0.130100 0.168520
Si Si4 0.788982 0.377235 0.899477
Si Si5 0.898903 0.536150 0.261944
Si Si6 0.397320 0.453337 0.474743
Si Si7 0.311623 0.421811 0.105475
O O1 0.518239 0.162315 0.562408
O O2 0.329084 0.161996 0.590414
O O3 0.377908 0.120032 0.459425
O O4 0.407751 0.328796 0.511920
O O5 0.577830 0.129694 0.699659
O O6 0.626822 0.316800 0.640697
O O7 0.699770 0.119294 0.587610
O O8 0.750000 0.250000 0.204512
O O9 0.639132 0.080213 0.225106
O O10 0.804025 0.034892 0.157463
O O11 0.750000 0.250000 0.891003
O O12 0.824182 0.417240 0.821164
O O13 0.693923 0.455827 0.918631
O O14 0.000000 0.500000 0.301739
O O15 0.500000 0.500000 0.438473
O O16 0.371778 0.548772 0.534053
#
# Coordination Sequence:
#
# PCOD8176544 Si02
#       7
#     8   8   8   8   8   8   8
#     4  11  19  38  65  93 124 154 212 255 306 372
#     4  10  22  36  61  99 122 162 204 258 310 364
#     4  11  20  37  64  92 124 163 206 257 308 360
#     4  10  24  41  60  89 122 171 202 253 315 385
#     4  11  24  41  61  90 130 162 206 257 317 382
#     4  11  20  37  64  91 121 161 207 262 306 371
#     4  10  20  34  59  93 127 155 201 261 307 352
#
# _framework density 19.417943000000001
#
# number of rings (size 3 to 8) (size 9 to 14) (size 15 to 20)
#    0.000    1.429    5.714    0.429    4.000    1.143 
#    0.000    2.857    3.143    3.429    0.000    0.000 
#    0.000    0.000    0.000    0.000    0.000    0.000 
#
# Total GULP energy -346999.172378 kJ/mol
# GULP energy per Si atom -12392.827585 kJ/mol
# Density = 1.937375 g / cm^3
# Si number density = 19.417943 Si / 1000 Ang^3
#
#
#
# Elastic Constant Matrix: (Units=GPa)
#
#
# Indices 1 2 3 4 5 6 
#
# 1 117.4820 40.2085 49.2702 0.0000 0.0000 0.0000
# 2 40.2085 110.1319 32.7271 0.0000 0.0000 0.0000
# 3 49.2702 32.7271 91.8465 0.0000 0.0000 0.0000
# 4 0.0000 0.0000 0.0000 9.7833 0.0000 0.0000
# 5 0.0000 0.0000 0.0000 0.0000 27.0329 0.0000
# 6 0.0000 0.0000 0.0000 0.0000 0.0000 23.7777
#
#
#
# Elastic Compliance Matrix: (Units=1/GPa)
#
#
# Indices 1 2 3 4 5 6 
#
# 1 0.011650 -0.002680 -0.005294 0.000000 0.000000 0.000000
# 2 -0.002680 0.010772 -0.002401 0.000000 0.000000 0.000000
# 3 -0.005294 -0.002401 0.014583 0.000000 0.000000 0.000000
# 4 0.000000 0.000000 0.000000 0.102215 0.000000 0.000000
# 5 0.000000 0.000000 0.000000 0.000000 0.036992 0.000000
# 6 0.000000 0.000000 0.000000 0.000000 0.000000 0.042056
#
#
# Mechanical properties :
#
#
# Convention : Reuss Voigt Hill
#
# Bulk Modulus (GPa) = 61.52038 62.65244 62.08641
# Shear Modulus (GPa) = 20.45522 25.26907 22.86214
#
# Velocity S-wave (km/s) = 3.24916 3.61130 3.43501
# Velocity P-wave (km/s) = 6.76957 7.05152 6.91198
#
# Compressibility (1/GPa) = 0.01625478
#
# Stress axis : x y z
#
# Youngs Moduli (GPa) = 85.84046 92.83489 68.57175
#
# Poissons Ratio (x) = 0.24879 0.36304
# Poissons Ratio (y) = 0.23004 0.16462
# Poissons Ratio (z) = 0.45447 0.22287
#
# Static dielectric constant tensor:
#      x y z
#    x 3.836480 0.000000 0.000000 
#    y 0.000000 3.912370 0.000000 
#    z 0.000000 0.000000 3.293960 
# 
# 
# High freq. dielectric constant tensor:
#      x y z
#    x 1.764750 0.000000 0.000000 
#    y 0.000000 1.768290 0.000000 
#    z 0.000000 0.000000 1.719850 
# 
# From -- ./inp_files/12157.got.cif
#   From: 2010.03.12/outbox.cif.g09.slc.cpg/sg37_7_cif.got.tgz:12157.got - 2010.04.14 02:25:27.
