data_PCOD8176110
_publ_section_title
;
Structure prediction by ZEFSAII (Michael W. Deem and Ramdas Pophale) SiO2 
 PCOD8176110
Probable space group: C M C 21
;
_chemical_formula_sum "Si O2"
_cell_formula_units_Z 48
_cell_length_a 12.374228
_cell_length_b 8.560155
_cell_length_c 20.237766
_cell_angle_alpha 90.000000
_cell_angle_beta 90.000000
_cell_angle_gamma 90.000000
_cell_volume 2143.691631
_symmetry_space_group_name_H-M "C M C 21"
_symmetry_group_IT_number 36
_symmetry_cell_setting 'orthorhombic'
loop_
_space_group_symop_operation_xyz
x,y,z
-x,-y,1/2+z
x,-y,1/2+z
-x,y,z
1/2+x,1/2+y,z
1/2-x,1/2-y,1/2+z
1/2+x,1/2-y,1/2+z
1/2-x,1/2+y,z
loop_
_atom_site_type_symbol
_atom_site_label
_atom_site_fract_x
_atom_site_fract_y
_atom_site_fract_z
Si Si1 0.878543 0.594800 0.945430
Si Si2 0.335972 0.250467 0.420821
Si Si3 0.500000 0.381170 0.733975
Si Si4 0.000000 0.864005 0.129037
Si Si5 0.500000 0.407715 0.504921
Si Si6 0.500000 0.537963 0.867299
Si Si7 0.879292 0.285654 0.134717
Si Si8 0.674573 0.117349 0.095525
O O1 0.793080 0.723332 0.920590
O O2 0.853856 0.432392 0.908955
O O3 0.000000 0.650243 0.928957
O O4 0.864496 0.570107 0.023420
O O5 0.391712 0.301380 0.491389
O O6 0.393825 0.348675 0.361749
O O7 0.500000 0.551421 0.699577
O O8 0.500000 0.402497 0.812605
O O9 0.605294 0.281906 0.709517
O O10 0.106114 0.759063 0.124953
O O11 0.000000 0.995319 0.072178
O O12 0.500000 0.533868 0.442501
O O13 0.839603 0.463119 0.140246
O O14 0.000000 0.273724 0.098724
O O15 0.798593 0.171565 0.095912
#
# Coordination Sequence:
#
# PCOD8176110 Si02
#       8
#     8   8   4   4   4   4   8   8
#     4  12  22  38  61 101 130 174 208 271 329 400
#     4   9  23  39  67  89 137 167 218 267 333 383
#     4  10  23  41  73  94 132 181 234 271 337 391
#     4  12  23  37  68 108 128 182 220 276 340 408
#     4   8  22  40  65  92 136 163 218 269 336 380
#     4   8  20  48  66  92 130 184 220 278 331 393
#     4  10  24  42  62  94 133 182 216 273 329 399
#     4  12  24  40  63 101 150 167 220 276 343 401
#
# _framework density 22.391280999999999
#
# number of rings (size 3 to 8) (size 9 to 14) (size 15 to 20)
#    1.500    0.000    3.333    2.000    9.333    0.000 
#    3.000    3.333    0.000    6.000    0.000    0.000 
#    0.000    0.000    0.000    0.000    0.000    0.000 
#
# Total GULP energy -297337.404766 kJ/mol
# GULP energy per Si atom -12389.058532 kJ/mol
# Density = 2.234032 g / cm^3
# Si number density = 22.391281 Si / 1000 Ang^3
#
#
#
# Elastic Constant Matrix: (Units=GPa)
#
#
# Indices 1 2 3 4 5 6 
#
# 1 171.3661 30.3002 4.4355 0.0000 0.0000 0.0000
# 2 30.3002 90.9597 -4.0091 0.0000 0.0000 0.0000
# 3 4.4355 -4.0091 40.9445 0.0000 0.0000 0.0000
# 4 0.0000 0.0000 0.0000 16.1467 0.0000 0.0000
# 5 0.0000 0.0000 0.0000 0.0000 14.6462 0.0000
# 6 0.0000 0.0000 0.0000 0.0000 0.0000 33.6446
#
#
#
# Elastic Compliance Matrix: (Units=1/GPa)
#
#
# Indices 1 2 3 4 5 6 
#
# 1 0.006232 -0.002115 -0.000882 0.000000 0.000000 0.000000
# 2 -0.002115 0.011759 0.001381 0.000000 0.000000 0.000000
# 3 -0.000882 0.001381 0.024654 0.000000 0.000000 0.000000
# 4 0.000000 0.000000 0.000000 0.061932 0.000000 0.000000
# 5 0.000000 0.000000 0.000000 0.000000 0.068277 0.000000
# 6 0.000000 0.000000 0.000000 0.000000 0.000000 0.029722
#
#
# Mechanical properties :
#
#
# Convention : Reuss Voigt Hill
#
# Bulk Modulus (GPa) = 25.37280 40.52481 32.94881
# Shear Modulus (GPa) = 22.83650 31.05709 26.94680
#
# Velocity S-wave (km/s) = 3.19703 3.72831 3.47284
# Velocity P-wave (km/s) = 4.99841 6.05570 5.55228
#
# Compressibility (1/GPa) = 0.03941228
#
# Stress axis : x y z
#
# Youngs Moduli (GPa) = 160.45563 85.03937 40.56126
#
# Poissons Ratio (x) = 0.17985 0.03578
# Poissons Ratio (y) = 0.33936 -0.05600
# Poissons Ratio (z) = 0.14156 -0.11740
#
# Static dielectric constant tensor:
#      x y z
#    x 4.255720 0.000000 0.000000 
#    y 0.000000 3.977350 0.000000 
#    z 0.000000 0.000000 3.349480 
# 
# 
# High freq. dielectric constant tensor:
#      x y z
#    x 1.896590 0.000000 0.000000 
#    y 0.000000 1.891290 0.000000 
#    z 0.000000 0.000000 1.818620 
# 
# From -- ./inp_files/16840.got.cif
#   From: 2010.03.12/outbox.cif.g09.slc.cpg/sg36_9_cif.got.tgz:16840.got - 2010.04.14 02:13:53.
