data_PCOD8176175
_publ_section_title
;
Structure prediction by ZEFSAII (Michael W. Deem and Ramdas Pophale) SiO2 
 PCOD8176175
Probable space group: C M C 21
;
_chemical_formula_sum "Si O2"
_cell_formula_units_Z 40
_cell_length_a 22.917707
_cell_length_b 7.599871
_cell_length_c 9.097863
_cell_angle_alpha 90.000000
_cell_angle_beta 90.000000
_cell_angle_gamma 90.000000
_cell_volume 1584.589508
_symmetry_space_group_name_H-M "C M C 21"
_symmetry_group_IT_number 36
_symmetry_cell_setting 'orthorhombic'
loop_
_space_group_symop_operation_xyz
x,y,z
-x,-y,1/2+z
x,-y,1/2+z
-x,y,z
1/2+x,1/2+y,z
1/2-x,1/2-y,1/2+z
1/2+x,1/2-y,1/2+z
1/2-x,1/2+y,z
loop_
_atom_site_type_symbol
_atom_site_label
_atom_site_fract_x
_atom_site_fract_y
_atom_site_fract_z
Si Si1 0.637883 0.073078 0.190030
Si Si2 0.933415 0.872423 0.351800
Si Si3 0.696758 0.722337 0.477914
Si Si4 0.933520 0.783478 0.681097
Si Si5 0.735724 0.454663 0.278534
O O1 0.606382 0.220446 0.285273
O O2 0.607071 0.886096 0.199217
O O3 0.704136 0.055895 0.245425
O O4 0.642648 0.146180 0.019112
O O5 0.923594 0.875850 0.525262
O O6 0.000000 0.828060 0.307896
O O7 0.917274 0.068855 0.300040
O O8 0.684902 0.583823 0.344861
O O9 0.712226 0.631105 0.631856
O O10 0.752853 0.827470 0.417459
O O11 0.000000 0.717800 0.699145
#
# Coordination Sequence:
#
# PCOD8176175 Si02
#       5
#     8   8   8   8   8
#     4  12  25  44  77 103 144 193 251 293 380 426
#     4  10  24  46  75 110 147 187 239 304 369 441
#     4  12  25  46  69 100 144 191 250 306 366 434
#     4  10  24  48  75 110 148 188 241 302 370 448
#     4  12  25  46  68  99 143 191 246 311 363 435
#
# _framework density 25.243131000000002
#
# number of rings (size 3 to 8) (size 9 to 14) (size 15 to 20)
#    0.000    0.800    4.000    1.800    0.000    8.000 
#    0.000    4.000    0.000    0.000    0.000    0.000 
#    0.000    0.000    0.000    0.000    0.000    0.000 
#
# Total GULP energy -247822.784998 kJ/mol
# GULP energy per Si atom -12391.139250 kJ/mol
# Density = 2.518568 g / cm^3
# Si number density = 25.243131 Si / 1000 Ang^3
#
#
#
# Elastic Constant Matrix: (Units=GPa)
#
#
# Indices 1 2 3 4 5 6 
#
# 1 73.4336 14.5505 25.6167 0.0000 0.0000 0.0000
# 2 14.5505 142.6529 51.0873 0.0000 0.0000 0.0000
# 3 25.6167 51.0873 98.6495 0.0000 0.0000 0.0000
# 4 0.0000 0.0000 0.0000 33.3764 0.0000 0.0000
# 5 0.0000 0.0000 0.0000 0.0000 30.5040 0.0000
# 6 0.0000 0.0000 0.0000 0.0000 0.0000 62.6975
#
#
#
# Elastic Compliance Matrix: (Units=1/GPa)
#
#
# Indices 1 2 3 4 5 6 
#
# 1 0.014977 -0.000166 -0.003803 0.000000 0.000000 0.000000
# 2 -0.000166 0.008608 -0.004415 0.000000 0.000000 0.000000
# 3 -0.003803 -0.004415 0.013411 0.000000 0.000000 0.000000
# 4 0.000000 0.000000 0.000000 0.029961 0.000000 0.000000
# 5 0.000000 0.000000 0.000000 0.000000 0.032783 0.000000
# 6 0.000000 0.000000 0.000000 0.000000 0.000000 0.015950
#
#
# Mechanical properties :
#
#
# Convention : Reuss Voigt Hill
#
# Bulk Modulus (GPa) = 49.43525 55.24944 52.34235
# Shear Modulus (GPa) = 35.91954 40.21437 38.06696
#
# Velocity S-wave (km/s) = 3.77628 3.99567 3.88753
# Velocity P-wave (km/s) = 6.21610 6.57432 6.39772
#
# Compressibility (1/GPa) = 0.02022848
#
# Stress axis : x y z
#
# Youngs Moduli (GPa) = 66.76745 116.17182 74.56661
#
# Poissons Ratio (x) = 0.01923 0.28361
# Poissons Ratio (y) = 0.01105 0.32919
# Poissons Ratio (z) = 0.25395 0.51287
#
# Static dielectric constant tensor:
#      x y z
#    x 5.056010 0.000000 0.000000 
#    y 0.000000 5.118440 0.000000 
#    z 0.000000 0.000000 4.821710 
# 
# 
# High freq. dielectric constant tensor:
#      x y z
#    x 2.003770 0.000000 0.000000 
#    y 0.000000 2.032110 0.000000 
#    z 0.000000 0.000000 2.020670 
# 
# From -- ./inp_files/5747.got.cif
#   From: 2010.03.12/outbox.cif.g09.slc.cpg/sg36_3_cif.got.tgz:5747.got - 2010.04.14 02:13:53.
