data_PCOD8176043
_publ_section_title
;
Structure prediction by ZEFSAII (Michael W. Deem and Ramdas Pophale) SiO2 
 PCOD8176043
Probable space group: C M C 21
;
_chemical_formula_sum "Si O2"
_cell_formula_units_Z 64
_cell_length_a 8.583292
_cell_length_b 23.853637
_cell_length_c 15.079162
_cell_angle_alpha 90.000000
_cell_angle_beta 90.000000
_cell_angle_gamma 90.000000
_cell_volume 3087.348819
_symmetry_space_group_name_H-M "C M C 21"
_symmetry_group_IT_number 36
_symmetry_cell_setting 'orthorhombic'
loop_
_space_group_symop_operation_xyz
x,y,z
-x,-y,1/2+z
x,-y,1/2+z
-x,y,z
1/2+x,1/2+y,z
1/2-x,1/2-y,1/2+z
1/2+x,1/2-y,1/2+z
1/2-x,1/2+y,z
loop_
_atom_site_type_symbol
_atom_site_label
_atom_site_fract_x
_atom_site_fract_y
_atom_site_fract_z
Si Si1 0.175283 0.621273 0.201510
Si Si2 0.818002 0.302588 0.145108
Si Si3 0.178584 0.260331 0.481188
Si Si4 0.816111 0.926000 0.142688
Si Si5 0.815734 0.995969 0.478891
Si Si6 0.821061 0.871455 0.522547
Si Si7 0.824249 0.732649 0.303188
Si Si8 0.317641 0.004707 0.287118
O O1 0.297562 0.638968 0.126745
O O2 0.182653 0.668119 0.276115
O O3 0.228830 0.562379 0.240590
O O4 0.000000 0.617616 0.161985
O O5 0.767697 0.366720 0.133884
O O6 0.726184 0.274623 0.225779
O O7 0.000000 0.299579 0.165626
O O8 0.784300 0.269265 0.054799
O O9 0.219997 0.325908 0.470083
O O10 0.208229 0.234112 0.385661
O O11 0.000000 0.252342 0.509111
O O12 0.000000 0.916767 0.140937
O O13 0.770640 0.954738 0.236091
O O14 0.760593 0.964074 0.059463
O O15 0.759633 0.933104 0.499553
O O16 0.000000 0.999390 0.467598
O O17 0.734565 0.012896 0.387998
O O18 0.000000 0.863584 0.496599
O O19 0.000000 0.749355 0.331038
O O20 0.500000 0.992210 0.283277
#
# Coordination Sequence:
#
# PCOD8176043 Si02
#       8
#     8   8   8   8   8   8   8   8
#     4  10  22  41  66  95 128 165 211 267 327 384
#     4  12  26  45  67  96 131 171 217 269 326 387
#     4  12  26  44  66  97 132 173 217 265 322 387
#     4  11  24  45  67  93 130 173 216 265 322 385
#     4  10  24  43  65  95 128 169 216 263 320 381
#     4  11  22  41  68  95 125 167 216 270 322 378
#     4  11  24  44  68  97 131 171 216 267 323 385
#     4  11  24  41  65  98 131 169 213 264 322 383
#
# _framework density 20.729762000000001
#
# number of rings (size 3 to 8) (size 9 to 14) (size 15 to 20)
#    0.000    1.000    2.500    3.750    3.500    3.000 
#    0.000    0.000    0.000    0.000    0.000    0.000 
#    0.000    0.000    0.000    0.000    0.000    0.000 
#
# Total GULP energy -396962.750485 kJ/mol
# GULP energy per Si atom -12405.085953 kJ/mol
# Density = 2.068258 g / cm^3
# Si number density = 20.729762 Si / 1000 Ang^3
#
#
#
# Elastic Constant Matrix: (Units=GPa)
#
#
# Indices 1 2 3 4 5 6 
#
# 1 65.2030 27.1307 7.6718 0.0000 0.0000 0.0000
# 2 27.1307 98.0276 1.1372 0.0000 0.0000 0.0000
# 3 7.6718 1.1372 79.2604 0.0000 0.0000 0.0000
# 4 0.0000 0.0000 0.0000 26.8306 0.0000 0.0000
# 5 0.0000 0.0000 0.0000 0.0000 36.2197 0.0000
# 6 0.0000 0.0000 0.0000 0.0000 0.0000 16.3201
#
#
#
# Elastic Compliance Matrix: (Units=1/GPa)
#
#
# Indices 1 2 3 4 5 6 
#
# 1 0.017540 -0.004836 -0.001628 0.000000 0.000000 0.000000
# 2 -0.004836 0.011536 0.000303 0.000000 0.000000 0.000000
# 3 -0.001628 0.000303 0.012770 0.000000 0.000000 0.000000
# 4 0.000000 0.000000 0.000000 0.037271 0.000000 0.000000
# 5 0.000000 0.000000 0.000000 0.000000 0.027609 0.000000
# 6 0.000000 0.000000 0.000000 0.000000 0.000000 0.061274
#
#
# Mechanical properties :
#
#
# Convention : Reuss Voigt Hill
#
# Bulk Modulus (GPa) = 33.87157 34.93005 34.40081
# Shear Modulus (GPa) = 26.29295 29.64417 27.96856
#
# Velocity S-wave (km/s) = 3.56528 3.78568 3.67713
# Velocity P-wave (km/s) = 5.77264 5.99960 5.88721
#
# Compressibility (1/GPa) = 0.02952328
#
# Stress axis : x y z
#
# Youngs Moduli (GPa) = 57.01115 86.68473 78.30902
#
# Poissons Ratio (x) = 0.41918 0.12752
# Poissons Ratio (y) = 0.27569 -0.02369
# Poissons Ratio (z) = 0.09284 -0.02623
#
# Static dielectric constant tensor:
#      x y z
#    x 3.775540 0.000000 0.000000 
#    y 0.000000 3.958700 0.000000 
#    z 0.000000 0.000000 3.763400 
# 
# 
# High freq. dielectric constant tensor:
#      x y z
#    x 1.815410 0.000000 0.000000 
#    y 0.000000 1.826720 0.000000 
#    z 0.000000 0.000000 1.814030 
# 
# From -- ./inp_files/10984.got.cif
#   From: 2010.03.12/outbox.cif.g09.slc.cpg/sg36_6_cif.got.tgz:10984.got - 2010.04.14 02:13:53.
