data_PCOD8176117
_publ_section_title
;
Structure prediction by ZEFSAII (Michael W. Deem and Ramdas Pophale) SiO2 
 PCOD8176117
Probable space group: C M C 21
;
_chemical_formula_sum "Si O2"
_cell_formula_units_Z 44
_cell_length_a 11.630352
_cell_length_b 14.358296
_cell_length_c 13.020565
_cell_angle_alpha 90.000000
_cell_angle_beta 90.000000
_cell_angle_gamma 90.000000
_cell_volume 2174.330667
_symmetry_space_group_name_H-M "C M C 21"
_symmetry_group_IT_number 36
_symmetry_cell_setting 'orthorhombic'
loop_
_space_group_symop_operation_xyz
x,y,z
-x,-y,1/2+z
x,-y,1/2+z
-x,y,z
1/2+x,1/2+y,z
1/2-x,1/2-y,1/2+z
1/2+x,1/2-y,1/2+z
1/2-x,1/2+y,z
loop_
_atom_site_type_symbol
_atom_site_label
_atom_site_fract_x
_atom_site_fract_y
_atom_site_fract_z
Si Si1 0.500000 0.602506 0.728140
Si Si2 0.732538 0.364971 0.875758
Si Si3 0.250276 0.593245 0.157680
Si Si4 0.773234 0.215304 0.721747
Si Si5 0.000000 0.946800 0.592328
Si Si6 0.500000 0.457821 0.898575
Si Si7 0.136221 0.585215 0.575490
O O1 0.388761 0.662449 0.750839
O O2 0.500000 0.559946 0.613559
O O3 0.500000 0.502362 0.785834
O O4 0.765054 0.433344 0.779244
O O5 0.726250 0.259330 0.829245
O O6 0.609682 0.393182 0.920636
O O7 0.826267 0.372969 0.965915
O O8 0.200186 0.698474 0.142777
O O9 0.385889 0.603209 0.133265
O O10 0.185878 0.519599 0.085856
O O11 0.681823 0.146257 0.670384
O O12 0.000000 0.948904 0.468824
O O13 0.000000 0.582336 0.580537
#
# Coordination Sequence:
#
# PCOD8176117 Si02
#       7
#     4   8   8   8   4   4   8
#     4  12  20  42  66  96 130 178 216 278 318 394
#     4  10  23  42  65  98 130 166 220 275 323 389
#     4  10  23  43  64  94 132 170 212 274 327 384
#     4  10  25  41  64  96 136 169 219 268 335 382
#     4  12  20  40  70  97 120 169 228 270 322 378
#     4  12  20  38  74  91 126 167 230 276 318 382
#     4  12  25  44  66  95 135 175 219 269 336 399
#
# _framework density 20.236111999999999
#
# number of rings (size 3 to 8) (size 9 to 14) (size 15 to 20)
#    1.091    0.000    5.455    0.000    5.091    2.182 
#    3.273    0.000    0.000    0.000    0.000    0.000 
#    0.000    0.000    0.000    0.000    0.000    0.000 
#
# Total GULP energy -272593.977674 kJ/mol
# GULP energy per Si atom -12390.635349 kJ/mol
# Density = 2.019005 g / cm^3
# Si number density = 20.236112 Si / 1000 Ang^3
#
#
#
# Elastic Constant Matrix: (Units=GPa)
#
#
# Indices 1 2 3 4 5 6 
#
# 1 141.9878 30.2562 23.7049 0.0000 0.0000 0.0000
# 2 30.2562 68.1247 -18.0307 0.0000 0.0000 0.0000
# 3 23.7049 -18.0307 40.2389 0.0000 0.0000 0.0000
# 4 0.0000 0.0000 0.0000 32.8287 0.0000 0.0000
# 5 0.0000 0.0000 0.0000 0.0000 22.0355 0.0000
# 6 0.0000 0.0000 0.0000 0.0000 0.0000 20.2355
#
#
#
# Elastic Compliance Matrix: (Units=1/GPa)
#
#
# Indices 1 2 3 4 5 6 
#
# 1 0.009981 -0.006795 -0.008924 0.000000 0.000000 0.000000
# 2 -0.006795 0.021280 0.013538 0.000000 0.000000 0.000000
# 3 -0.008924 0.013538 0.036175 0.000000 0.000000 0.000000
# 4 0.000000 0.000000 0.000000 0.030461 0.000000 0.000000
# 5 0.000000 0.000000 0.000000 0.000000 0.045381 0.000000
# 6 0.000000 0.000000 0.000000 0.000000 0.000000 0.049418
#
#
# Mechanical properties :
#
#
# Convention : Reuss Voigt Hill
#
# Bulk Modulus (GPa) = 15.85440 35.80135 25.82787
# Shear Modulus (GPa) = 22.92707 29.31467 26.12087
#
# Velocity S-wave (km/s) = 3.36963 3.81022 3.59667
# Velocity P-wave (km/s) = 4.79488 6.08993 5.48079
#
# Compressibility (1/GPa) = 0.06307398
#
# Stress axis : x y z
#
# Youngs Moduli (GPa) = 100.19376 46.99276 27.64322
#
# Poissons Ratio (x) = 0.31930 0.24670
# Poissons Ratio (y) = 0.68079 -0.37424
# Poissons Ratio (z) = 0.89416 -0.63619
#
# Static dielectric constant tensor:
#      x y z
#    x 3.492260 0.000000 0.000000 
#    y 0.000000 3.612460 0.000000 
#    z 0.000000 0.000000 3.642800 
# 
# 
# High freq. dielectric constant tensor:
#      x y z
#    x 1.784620 0.000000 0.000000 
#    y 0.000000 1.782130 0.000000 
#    z 0.000000 0.000000 1.791900 
# 
# From -- ./inp_files/11505.got.cif
#   From: 2010.03.12/outbox.cif.g09.slc.cpg/sg36_6_cif.got.tgz:11505.got - 2010.04.14 02:13:53.
