data_PCOD8176138
_publ_section_title
;
Structure prediction by ZEFSAII (Michael W. Deem and Ramdas Pophale) SiO2 
 PCOD8176138
Probable space group: C M C 21
;
_chemical_formula_sum "Si O2"
_cell_formula_units_Z 64
_cell_length_a 30.510751
_cell_length_b 8.922113
_cell_length_c 10.671396
_cell_angle_alpha 90.000000
_cell_angle_beta 90.000000
_cell_angle_gamma 90.000000
_cell_volume 2904.971348
_symmetry_space_group_name_H-M "C M C 21"
_symmetry_group_IT_number 36
_symmetry_cell_setting 'orthorhombic'
loop_
_space_group_symop_operation_xyz
x,y,z
-x,-y,1/2+z
x,-y,1/2+z
-x,y,z
1/2+x,1/2+y,z
1/2-x,1/2-y,1/2+z
1/2+x,1/2-y,1/2+z
1/2-x,1/2+y,z
loop_
_atom_site_type_symbol
_atom_site_label
_atom_site_fract_x
_atom_site_fract_y
_atom_site_fract_z
Si Si1 0.794569 0.528860 0.915050
Si Si2 0.392840 0.899427 0.426771
Si Si3 0.088508 0.939612 0.312966
Si Si4 0.548889 0.732612 0.235839
Si Si5 0.369178 0.595134 0.545322
Si Si6 0.449841 0.180005 0.458911
Si Si7 0.277043 0.526253 0.611217
Si Si8 0.244878 0.781326 0.772930
O O1 0.782978 0.702576 0.882752
O O2 0.778160 0.411122 0.813164
O O3 0.846745 0.514663 0.913129
O O4 0.770253 0.485937 0.043469
O O5 0.413105 0.835311 0.297304
O O6 0.386004 0.763999 0.523911
O O7 0.426062 0.021743 0.479849
O O8 0.119568 0.942089 0.190111
O O9 0.068333 0.775579 0.340477
O O10 0.050964 0.062524 0.286805
O O11 0.112336 0.983263 0.441677
O O12 0.500000 0.794138 0.268194
O O13 0.555986 0.726969 0.086874
O O14 0.317122 0.572307 0.522370
O O15 0.500000 0.143738 0.429871
O O16 0.275111 0.654183 0.714814
O O17 0.287483 0.363407 0.673841
#
# Coordination Sequence:
#
# PCOD8176138 Si02
#       8
#     8   8   8   8   8   8   8   8
#     4  11  24  43  64  96 133 183 233 290 345 425
#     4  11  26  43  69 102 144 183 237 292 370 432
#     4  11  24  46  71 107 136 187 238 290 352 433
#     4  10  23  46  69 100 140 182 237 298 356 427
#     4  11  26  43  73 104 143 186 240 295 354 423
#     4  11  25  45  72 103 138 185 236 298 368 431
#     4  11  24  42  64  98 137 184 234 288 346 414
#     4  10  24  40  66  92 131 182 231 287 347 403
#
# _framework density 22.031196999999999
#
# number of rings (size 3 to 8) (size 9 to 14) (size 15 to 20)
#    0.000    1.250    1.250    3.000   10.500    3.000 
#    0.000    1.250    0.000    0.000    0.000    0.000 
#    0.000    0.000    0.000    0.000    0.000    0.000 
#
# Total GULP energy -396660.337462 kJ/mol
# GULP energy per Si atom -12395.635546 kJ/mol
# Density = 2.198105 g / cm^3
# Si number density = 22.031197 Si / 1000 Ang^3
#
#
#
# Elastic Constant Matrix: (Units=GPa)
#
#
# Indices 1 2 3 4 5 6 
#
# 1 125.8892 40.4726 38.5372 0.0000 0.0000 0.0000
# 2 40.4726 118.0456 28.8146 0.0000 0.0000 0.0000
# 3 38.5372 28.8146 98.9912 0.0000 0.0000 0.0000
# 4 0.0000 0.0000 0.0000 31.7823 0.0000 0.0000
# 5 0.0000 0.0000 0.0000 0.0000 27.2803 0.0000
# 6 0.0000 0.0000 0.0000 0.0000 0.0000 31.2300
#
#
#
# Elastic Compliance Matrix: (Units=1/GPa)
#
#
# Indices 1 2 3 4 5 6 
#
# 1 0.009701 -0.002588 -0.003023 0.000000 0.000000 0.000000
# 2 -0.002588 0.009810 -0.001848 0.000000 0.000000 0.000000
# 3 -0.003023 -0.001848 0.011817 0.000000 0.000000 0.000000
# 4 0.000000 0.000000 0.000000 0.031464 0.000000 0.000000
# 5 0.000000 0.000000 0.000000 0.000000 0.036656 0.000000
# 6 0.000000 0.000000 0.000000 0.000000 0.000000 0.032020
#
#
# Mechanical properties :
#
#
# Convention : Reuss Voigt Hill
#
# Bulk Modulus (GPa) = 60.94213 62.06388 61.50301
# Shear Modulus (GPa) = 32.92580 33.73197 33.32889
#
# Velocity S-wave (km/s) = 3.87008 3.91717 3.89370
# Velocity P-wave (km/s) = 6.90593 6.97790 6.94201
#
# Compressibility (1/GPa) = 0.01640901
#
# Stress axis : x y z
#
# Youngs Moduli (GPa) = 103.08189 101.93983 84.62566
#
# Poissons Ratio (x) = 0.26383 0.25585
# Poissons Ratio (y) = 0.26678 0.15638
# Poissons Ratio (z) = 0.31164 0.18837
#
# Static dielectric constant tensor:
#      x y z
#    x 3.945660 0.000000 0.000000 
#    y 0.000000 4.106930 0.000000 
#    z 0.000000 0.000000 3.928510 
# 
# 
# High freq. dielectric constant tensor:
#      x y z
#    x 1.860300 0.000000 0.000000 
#    y 0.000000 1.880070 0.000000 
#    z 0.000000 0.000000 1.866000 
# 
# From -- ./inp_files/9750.got.cif
#   From: 2010.03.12/outbox.cif.g09.slc.cpg/sg36_5_cif.got.tgz:9750.got - 2010.04.14 02:13:53.
