data_PCOD8176120
_publ_section_title
;
Structure prediction by ZEFSAII (Michael W. Deem and Ramdas Pophale) SiO2 
 PCOD8176120
Probable space group: C M C 21
;
_chemical_formula_sum "Si O2"
_cell_formula_units_Z 64
_cell_length_a 22.921170
_cell_length_b 15.186914
_cell_length_c 8.741773
_cell_angle_alpha 90.000000
_cell_angle_beta 90.000000
_cell_angle_gamma 90.000000
_cell_volume 3043.027245
_symmetry_space_group_name_H-M "C M C 21"
_symmetry_group_IT_number 36
_symmetry_cell_setting 'orthorhombic'
loop_
_space_group_symop_operation_xyz
x,y,z
-x,-y,1/2+z
x,-y,1/2+z
-x,y,z
1/2+x,1/2+y,z
1/2-x,1/2-y,1/2+z
1/2+x,1/2-y,1/2+z
1/2-x,1/2+y,z
loop_
_atom_site_type_symbol
_atom_site_label
_atom_site_fract_x
_atom_site_fract_y
_atom_site_fract_z
Si Si1 0.851291 0.402164 0.004260
Si Si2 0.934017 0.753784 0.565706
Si Si3 0.155242 0.576454 0.863133
Si Si4 0.606071 0.575957 0.918856
Si Si5 0.066678 0.090629 0.593265
Si Si6 0.879628 0.768785 0.892249
Si Si7 0.230538 0.134973 0.990722
Si Si8 0.749335 0.311081 0.836457
O O1 0.897040 0.323059 0.983983
O O2 0.840622 0.421107 0.181435
O O3 0.878237 0.489246 0.922572
O O4 0.789839 0.381274 0.922563
O O5 0.933500 0.840412 0.462123
O O6 0.906638 0.782215 0.725944
O O7 0.000000 0.720016 0.587276
O O8 0.124187 0.664361 0.927872
O O9 0.220035 0.568354 0.933169
O O10 0.609410 0.573318 0.735505
O O11 0.669923 0.582982 0.994330
O O12 0.576181 0.485888 0.970241
O O13 0.079892 0.185322 0.517626
O O14 0.000000 0.090626 0.649069
O O15 0.816487 0.815333 0.900075
O O16 0.224592 0.214447 0.869235
O O17 0.248379 0.173369 0.155412
#
# Coordination Sequence:
#
# PCOD8176120 Si02
#       8
#     8   8   8   8   8   8   8   8
#     4  11  23  42  65  99 134 176 220 276 335 395
#     4  11  22  45  70  94 132 178 225 273 329 394
#     4  10  24  39  65  96 138 172 215 276 342 397
#     4  12  26  43  65  97 129 172 228 268 337 397
#     4  12  27  44  65  93 132 179 226 282 330 393
#     4  10  23  42  68  96 127 176 223 275 335 394
#     4  11  23  39  66 100 130 177 209 272 338 409
#     4  11  21  40  64  99 134 168 219 272 334 405
#
# _framework density 21.031689
#
# number of rings (size 3 to 8) (size 9 to 14) (size 15 to 20)
#    0.000    1.000    2.500    4.500    7.000    1.000 
#    0.000    3.125    0.000    0.000    0.000    0.000 
#    0.000    0.000    0.000    0.000    0.000    0.000 
#
# Total GULP energy -396918.181729 kJ/mol
# GULP energy per Si atom -12403.693179 kJ/mol
# Density = 2.098382 g / cm^3
# Si number density = 21.031689 Si / 1000 Ang^3
#
#
#
# Elastic Constant Matrix: (Units=GPa)
#
#
# Indices 1 2 3 4 5 6 
#
# 1 94.3539 40.8535 30.1686 0.0000 0.0000 0.0000
# 2 40.8535 119.8995 55.0789 0.0000 0.0000 0.0000
# 3 30.1686 55.0789 106.0745 0.0000 0.0000 0.0000
# 4 0.0000 0.0000 0.0000 38.7099 0.0000 0.0000
# 5 0.0000 0.0000 0.0000 0.0000 27.2648 0.0000
# 6 0.0000 0.0000 0.0000 0.0000 0.0000 21.3649
#
#
#
# Elastic Compliance Matrix: (Units=1/GPa)
#
#
# Indices 1 2 3 4 5 6 
#
# 1 0.012686 -0.003500 -0.001791 0.000000 0.000000 0.000000
# 2 -0.003500 0.011919 -0.005193 0.000000 0.000000 0.000000
# 3 -0.001791 -0.005193 0.012633 0.000000 0.000000 0.000000
# 4 0.000000 0.000000 0.000000 0.025833 0.000000 0.000000
# 5 0.000000 0.000000 0.000000 0.000000 0.036677 0.000000
# 6 0.000000 0.000000 0.000000 0.000000 0.000000 0.046806
#
#
# Mechanical properties :
#
#
# Convention : Reuss Voigt Hill
#
# Bulk Modulus (GPa) = 61.46227 63.61442 62.53835
# Shear Modulus (GPa) = 28.91078 30.41638 29.66358
#
# Velocity S-wave (km/s) = 3.71162 3.80704 3.75963
# Velocity P-wave (km/s) = 6.90328 7.04538 6.97469
#
# Compressibility (1/GPa) = 0.01627014
#
# Stress axis : x y z
#
# Youngs Moduli (GPa) = 78.82451 83.90300 79.15643
#
# Poissons Ratio (x) = 0.29366 0.14175
# Poissons Ratio (y) = 0.27589 0.41108
# Poissons Ratio (z) = 0.14116 0.43573
#
# Static dielectric constant tensor:
#      x y z
#    x 3.728910 0.000000 0.000000 
#    y 0.000000 3.920330 0.000000 
#    z 0.000000 0.000000 3.742620 
# 
# 
# High freq. dielectric constant tensor:
#      x y z
#    x 1.811370 0.000000 0.000000 
#    y 0.000000 1.831640 0.000000 
#    z 0.000000 0.000000 1.828940 
# 
# From -- ./inp_files/5678.got.cif
#   From: 2010.03.12/outbox.cif.g09.slc.cpg/sg36_3_cif.got.tgz:5678.got - 2010.04.14 02:13:53.
