data_PCOD8176723
_publ_section_title
;
Structure prediction by ZEFSAII (Michael W. Deem and Ramdas Pophale) SiO2 
 PCOD8176723
Probable space group: C C C 2
;
_chemical_formula_sum "Si O2"
_cell_formula_units_Z 48
_cell_length_a 8.338934
_cell_length_b 14.699970
_cell_length_c 17.342101
_cell_angle_alpha 90.000000
_cell_angle_beta 90.000000
_cell_angle_gamma 90.000000
_cell_volume 2125.830806
_symmetry_space_group_name_H-M "C C C 2"
_symmetry_group_IT_number 37
_symmetry_cell_setting 'orthorhombic'
loop_
_space_group_symop_operation_xyz
x,y,z
-x,-y,z
-x,y,1/2+z
x,-y,1/2+z
1/2+x,1/2+y,z
1/2-x,1/2-y,z
1/2-x,1/2+y,1/2+z
1/2+x,1/2-y,1/2+z
loop_
_atom_site_type_symbol
_atom_site_label
_atom_site_fract_x
_atom_site_fract_y
_atom_site_fract_z
Si Si1 0.418665 0.766579 0.046230
Si Si2 0.370492 0.079386 0.988097
Si Si3 0.598236 0.592014 0.110018
Si Si4 0.857169 0.333587 0.211067
Si Si5 0.221306 0.346468 0.260755
Si Si6 0.184595 0.523697 0.326381
O O1 0.250000 0.750000 0.001173
O O2 0.488251 0.669364 0.071612
O O3 0.369220 0.831228 0.118813
O O4 0.544573 0.821676 0.993955
O O5 0.275732 0.075544 0.906142
O O6 0.500000 0.000000 0.995378
O O7 0.242133 0.064088 0.054375
O O8 0.500000 0.500000 0.128985
O O9 0.672079 0.640808 0.184527
O O10 0.750000 0.250000 0.241548
O O11 0.766378 0.420893 0.248556
O O12 0.033900 0.342287 0.243741
O O13 0.250000 0.250000 0.301034
O O14 0.272743 0.425946 0.320234
O O15 0.000000 0.500000 0.326741
#
# Coordination Sequence:
#
# PCOD8176723 Si02
#       6
#     8   8   8   8   8   8
#     4  11  23  41  69 100 130 173 228 277 338 388
#     4  11  23  44  67  98 136 180 217 268 345 394
#     4  12  25  41  68 102 135 173 228 281 329 400
#     4  10  21  38  64  99 126 169 222 269 328 391
#     4  11  21  41  66  98 134 171 221 283 328 390
#     4   9  23  41  64  97 133 178 218 265 335 406
#
# _framework density 22.579408000000001
#
# number of rings (size 3 to 8) (size 9 to 14) (size 15 to 20)
#    0.000    1.333    3.333    1.500    7.000    1.333 
#    0.000   15.000    0.000    0.000    0.000    0.000 
#    0.000    0.000    0.000    0.000    0.000    0.000 
#
# Total GULP energy -297345.407723 kJ/mol
# GULP energy per Si atom -12389.391988 kJ/mol
# Density = 2.252802 g / cm^3
# Si number density = 22.579408 Si / 1000 Ang^3
#
#
#
# Elastic Constant Matrix: (Units=GPa)
#
#
# Indices 1 2 3 4 5 6 
#
# 1 83.1104 33.4365 8.6329 0.0000 0.0000 0.0000
# 2 33.4365 171.7105 48.2019 0.0000 0.0000 0.0000
# 3 8.6329 48.2019 78.6472 0.0000 0.0000 0.0000
# 4 0.0000 0.0000 0.0000 32.9068 0.0000 0.0000
# 5 0.0000 0.0000 0.0000 0.0000 -72.8237 0.0000
# 6 0.0000 0.0000 0.0000 0.0000 0.0000 40.6294
#
#
#
# Elastic Compliance Matrix: (Units=1/GPa)
#
#
# Indices 1 2 3 4 5 6 
#
# 1 0.013056 -0.002585 0.000151 0.000000 0.000000 0.000000
# 2 -0.002585 0.007546 -0.004341 0.000000 0.000000 0.000000
# 3 0.000151 -0.004341 0.015359 0.000000 0.000000 0.000000
# 4 0.000000 0.000000 0.000000 0.030389 0.000000 0.000000
# 5 0.000000 0.000000 0.000000 0.000000 -0.013732 0.000000
# 6 0.000000 0.000000 0.000000 0.000000 0.000000 0.024613
#
#
# Mechanical properties :
#
#
# Convention : Reuss Voigt Hill
#
# Bulk Modulus (GPa) = 44.61979 57.11233 50.86606
# Shear Modulus (GPa) = 50.89026 16.35563 33.62294
#
# Velocity S-wave (km/s) = 4.75261 2.69431 3.86307
# Velocity P-wave (km/s) = 7.06545 5.91845 6.51723
#
# Compressibility (1/GPa) = 0.02241158
#
# Stress axis : x y z
#
# Youngs Moduli (GPa) = 76.59075 132.52665 65.10876
#
# Poissons Ratio (x) = 0.34256 -0.00983
# Poissons Ratio (y) = 0.19797 0.28263
# Poissons Ratio (z) = -0.01157 0.57529
#
# Static dielectric constant tensor:
#      x y z
#    x 4.428980 0.000000 0.000000 
#    y 0.000000 4.694260 0.000000 
#    z 0.000000 0.000000 4.205730 
# 
# 
# High freq. dielectric constant tensor:
#      x y z
#    x 1.888220 0.000000 0.000000 
#    y 0.000000 1.908910 0.000000 
#    z 0.000000 0.000000 1.863650 
# 
# From -- ./inp_files/14509.got.cif
#   From: 2010.03.12/outbox.cif.g09.slc.cpg/sg37_8_cif.got.tgz:14509.got - 2010.04.14 02:25:27.
