data_PCOD8176868
_publ_section_title
;
Structure prediction by ZEFSAII (Michael W. Deem and Ramdas Pophale) SiO2 
 PCOD8176868
Probable space group: C C C 2
;
_chemical_formula_sum "Si O2"
_cell_formula_units_Z 48
_cell_length_a 10.656956
_cell_length_b 14.220202
_cell_length_c 15.159026
_cell_angle_alpha 90.000000
_cell_angle_beta 90.000000
_cell_angle_gamma 90.000000
_cell_volume 2297.260452
_symmetry_space_group_name_H-M "C C C 2"
_symmetry_group_IT_number 37
_symmetry_cell_setting 'orthorhombic'
loop_
_space_group_symop_operation_xyz
x,y,z
-x,-y,z
-x,y,1/2+z
x,-y,1/2+z
1/2+x,1/2+y,z
1/2-x,1/2-y,z
1/2-x,1/2+y,1/2+z
1/2+x,1/2-y,1/2+z
loop_
_atom_site_type_symbol
_atom_site_label
_atom_site_fract_x
_atom_site_fract_y
_atom_site_fract_z
Si Si1 0.216267 0.592849 0.273290
Si Si2 0.895285 0.257130 0.618898
Si Si3 0.951476 0.225870 0.279345
Si Si4 0.020709 0.845583 0.958799
Si Si5 0.869734 0.465682 0.612575
Si Si6 0.698981 0.492253 0.448815
O O1 0.106970 0.670114 0.276700
O O2 0.348216 0.645616 0.262664
O O3 0.191137 0.525889 0.190655
O O4 0.219447 0.526097 0.360311
O O5 0.750000 0.250000 0.591544
O O6 0.910991 0.364290 0.646649
O O7 0.940618 0.203916 0.706994
O O8 0.988292 0.221020 0.541707
O O9 0.018933 0.220106 0.373393
O O10 0.920364 0.926362 0.945877
O O11 0.156345 0.898447 0.962795
O O12 0.773887 0.458657 0.533272
O O13 0.000000 0.500000 0.572991
#
# Coordination Sequence:
#
# PCOD8176868 Si02
#       6
#     8   8   8   8   8   8
#     4  10  22  42  66  89 129 168 211 266 321 380
#     4  12  24  42  66  94 133 172 215 261 322 386
#     4  10  22  42  66  93 126 170 215 262 324 382
#     4  10  22  41  68  96 124 168 217 267 314 377
#     4  12  24  42  62  93 130 170 210 259 326 381
#     4  10  22  41  66  95 125 165 217 264 319 378
#
# _framework density 20.894452999999999
#
# number of rings (size 3 to 8) (size 9 to 14) (size 15 to 20)
#    0.000    1.333    3.333    2.000    4.667    0.667 
#    3.000    0.000    0.000    0.000    0.000    0.000 
#    0.000    0.000    0.000    0.000    0.000    0.000 
#
# Total GULP energy -297409.301953 kJ/mol
# GULP energy per Si atom -12392.054248 kJ/mol
# Density = 2.084690 g / cm^3
# Si number density = 20.894453 Si / 1000 Ang^3
#
#
#
# Elastic Constant Matrix: (Units=GPa)
#
#
# Indices 1 2 3 4 5 6 
#
# 1 42.6685 22.3786 36.6416 0.0000 0.0000 0.0000
# 2 22.3786 100.2356 43.5880 0.0000 0.0000 0.0000
# 3 36.6416 43.5880 165.7369 0.0000 0.0000 0.0000
# 4 0.0000 0.0000 0.0000 36.1804 0.0000 0.0000
# 5 0.0000 0.0000 0.0000 0.0000 90.8634 0.0000
# 6 0.0000 0.0000 0.0000 0.0000 0.0000 20.5545
#
#
#
# Elastic Compliance Matrix: (Units=1/GPa)
#
#
# Indices 1 2 3 4 5 6 
#
# 1 0.030545 -0.004384 -0.005600 0.000000 0.000000 0.000000
# 2 -0.004384 0.011894 -0.002159 0.000000 0.000000 0.000000
# 3 -0.005600 -0.002159 0.007839 0.000000 0.000000 0.000000
# 4 0.000000 0.000000 0.000000 0.027639 0.000000 0.000000
# 5 0.000000 0.000000 0.000000 0.000000 0.011006 0.000000
# 6 0.000000 0.000000 0.000000 0.000000 0.000000 0.048651
#
#
# Mechanical properties :
#
#
# Convention : Reuss Voigt Hill
#
# Bulk Modulus (GPa) = 38.47276 57.09525 47.78400
# Shear Modulus (GPa) = 29.32133 43.25520 36.28826
#
# Velocity S-wave (km/s) = 3.75014 4.55485 4.17194
# Velocity P-wave (km/s) = 6.09953 7.41938 6.79159
#
# Compressibility (1/GPa) = 0.02599242
#
# Stress axis : x y z
#
# Youngs Moduli (GPa) = 32.73879 84.07529 127.55992
#
# Poissons Ratio (x) = 0.36861 0.71432
# Poissons Ratio (y) = 0.14354 0.27538
# Poissons Ratio (z) = 0.18333 0.18150
#
# Static dielectric constant tensor:
#      x y z
#    x 3.664940 0.000000 0.000000 
#    y 0.000000 3.856110 0.000000 
#    z 0.000000 0.000000 3.824370 
# 
# 
# High freq. dielectric constant tensor:
#      x y z
#    x 1.812990 0.000000 0.000000 
#    y 0.000000 1.823410 0.000000 
#    z 0.000000 0.000000 1.825800 
# 
# From -- ./inp_files/11514.got.cif
#   From: 2010.03.12/outbox.cif.g09.slc.cpg/sg37_6_cif.got.tgz:11514.got - 2010.04.14 02:25:27.
