data_PCOD8176332
_publ_section_title
;
Structure prediction by ZEFSAII (Michael W. Deem and Ramdas Pophale) SiO2 
 PCOD8176332
Probable space group: C M C 21
;
_chemical_formula_sum "Si O2"
_cell_formula_units_Z 28
_cell_length_a 7.793390
_cell_length_b 32.613705
_cell_length_c 5.050954
_cell_angle_alpha 90.000000
_cell_angle_beta 90.000000
_cell_angle_gamma 90.000000
_cell_volume 1283.807658
_symmetry_space_group_name_H-M "C M C 21"
_symmetry_group_IT_number 36
_symmetry_cell_setting 'orthorhombic'
loop_
_space_group_symop_operation_xyz
x,y,z
-x,-y,1/2+z
x,-y,1/2+z
-x,y,z
1/2+x,1/2+y,z
1/2-x,1/2-y,1/2+z
1/2+x,1/2-y,1/2+z
1/2-x,1/2+y,z
loop_
_atom_site_type_symbol
_atom_site_label
_atom_site_fract_x
_atom_site_fract_y
_atom_site_fract_z
Si Si1 0.500000 0.026994 0.113011
Si Si2 0.807808 0.910948 0.678344
Si Si3 0.196927 0.364626 0.178370
Si Si4 0.696342 0.725879 0.713494
O O1 0.327240 0.052505 0.156463
O O2 0.500000 0.988907 0.312985
O O3 0.766975 0.875500 0.467539
O O4 0.000000 0.928495 0.634937
O O5 0.803170 0.890137 0.964779
O O6 0.215066 0.316402 0.128908
O O7 0.000000 0.377859 0.151920
O O8 0.500000 0.718240 0.791033
O O9 0.706270 0.756696 0.467879
#
# Coordination Sequence:
#
# PCOD8176332 Si02
#       4
#     4   8   8   8
#     4  12  26  46  72 102 142 172 218 284 344 406
#     4  12  25  45  71 103 133 177 229 272 336 407
#     4  12  23  44  69  96 134 180 225 284 332 398
#     4  12  25  42  62  95 133 178 227 281 341 394
#
# _framework density 21.810119
#
# number of rings (size 3 to 8) (size 9 to 14) (size 15 to 20)
#    0.000    0.000    2.857    8.571    0.000    1.143 
#    0.000    0.000    0.000    0.000    0.000    0.000 
#    0.000    0.000    0.000    0.000    0.000    0.000 
#
# Total GULP energy -173741.361873 kJ/mol
# GULP energy per Si atom -12410.097277 kJ/mol
# Density = 2.176048 g / cm^3
# Si number density = 21.810119 Si / 1000 Ang^3
#
#
#
# Elastic Constant Matrix: (Units=GPa)
#
#
# Indices 1 2 3 4 5 6 
#
# 1 163.6980 42.9777 18.3087 0.0000 0.0000 0.0000
# 2 42.9777 87.3923 19.5915 0.0000 0.0000 0.0000
# 3 18.3087 19.5915 86.6572 0.0000 0.0000 0.0000
# 4 0.0000 0.0000 0.0000 41.9414 0.0000 0.0000
# 5 0.0000 0.0000 0.0000 0.0000 31.2437 0.0000
# 6 0.0000 0.0000 0.0000 0.0000 0.0000 52.4263
#
#
#
# Elastic Compliance Matrix: (Units=1/GPa)
#
#
# Indices 1 2 3 4 5 6 
#
# 1 0.007060 -0.003305 -0.000744 0.000000 0.000000 0.000000
# 2 -0.003305 0.013601 -0.002377 0.000000 0.000000 0.000000
# 3 -0.000744 -0.002377 0.012234 0.000000 0.000000 0.000000
# 4 0.000000 0.000000 0.000000 0.023843 0.000000 0.000000
# 5 0.000000 0.000000 0.000000 0.000000 0.032006 0.000000
# 6 0.000000 0.000000 0.000000 0.000000 0.000000 0.019074
#
#
# Mechanical properties :
#
#
# Convention : Reuss Voigt Hill
#
# Bulk Modulus (GPa) = 49.89295 55.50038 52.69666
# Shear Modulus (GPa) = 39.26147 42.24692 40.75420
#
# Velocity S-wave (km/s) = 4.24742 4.40595 4.32741
# Velocity P-wave (km/s) = 6.85418 7.16837 7.01303
#
# Compressibility (1/GPa) = 0.02004291
#
# Stress axis : x y z
#
# Youngs Moduli (GPa) = 141.64787 73.52534 81.73748
#
# Poissons Ratio (x) = 0.24300 0.06084
# Poissons Ratio (y) = 0.46814 0.19426
# Poissons Ratio (z) = 0.10544 0.17474
#
# Static dielectric constant tensor:
#      x y z
#    x 4.097020 0.000000 0.000000 
#    y 0.000000 3.818860 0.000000 
#    z 0.000000 0.000000 4.099000 
# 
# 
# High freq. dielectric constant tensor:
#      x y z
#    x 1.875890 0.000000 0.000000 
#    y 0.000000 1.852380 0.000000 
#    z 0.000000 0.000000 1.872700 
# 
# From -- ./inp_files/194.got.cif
#   From: 2010.03.12/outbox.cif.g09.slc.cpg/sg36_1_cif.got.tgz:194.got - 2010.04.14 02:13:53.
