data_PCOD8176966
_publ_section_title
;
Structure prediction by ZEFSAII (Michael W. Deem and Ramdas Pophale) SiO2 
 PCOD8176966
Probable space group: C C C 2
;
_chemical_formula_sum "Si O2"
_cell_formula_units_Z 64
_cell_length_a 22.375135
_cell_length_b 8.692755
_cell_length_c 15.026382
_cell_angle_alpha 90.000000
_cell_angle_beta 90.000000
_cell_angle_gamma 90.000000
_cell_volume 2922.654840
_symmetry_space_group_name_H-M "C C C 2"
_symmetry_group_IT_number 37
_symmetry_cell_setting 'orthorhombic'
loop_
_space_group_symop_operation_xyz
x,y,z
-x,-y,z
-x,y,1/2+z
x,-y,1/2+z
1/2+x,1/2+y,z
1/2-x,1/2-y,z
1/2-x,1/2+y,1/2+z
1/2+x,1/2-y,1/2+z
loop_
_atom_site_type_symbol
_atom_site_label
_atom_site_fract_x
_atom_site_fract_y
_atom_site_fract_z
Si Si1 0.253322 0.432508 0.427290
Si Si2 0.131698 0.371326 0.372182
Si Si3 0.948059 0.385635 0.324750
Si Si4 0.559559 0.327265 0.007542
Si Si5 0.802926 0.869209 0.076192
Si Si6 0.555700 0.385532 0.202011
Si Si7 0.575050 0.335675 0.482925
Si Si8 0.164581 0.066226 0.272423
O O1 0.250000 0.250000 0.423910
O O2 0.183651 0.473540 0.418914
O O3 0.286265 0.482364 0.517204
O O4 0.289945 0.507392 0.344319
O O5 0.103306 0.492112 0.302931
O O6 0.088099 0.312146 0.451966
O O7 0.150430 0.235155 0.308030
O O8 0.966416 0.277972 0.242067
O O9 0.921486 0.274661 0.399514
O O10 0.000000 0.500000 0.357704
O O11 0.586725 0.351864 0.106476
O O12 0.489205 0.299576 0.028014
O O13 0.573502 0.484251 0.952446
O O14 0.750000 0.750000 0.056062
O O15 0.802132 0.917943 0.178483
O O16 0.868892 0.804707 0.049051
O O17 0.500000 0.500000 0.193111
O O18 0.605705 0.461529 0.264889
#
# Coordination Sequence:
#
# PCOD8176966 Si02
#       8
#     8   8   8   8   8   8   8   8
#     4  10  23  43  68  95 141 183 226 281 340 409
#     4  11  23  46  65 101 141 179 220 290 346 410
#     4  12  25  41  65 102 138 177 222 282 365 397
#     4  11  22  44  71  96 133 181 236 278 344 409
#     4  12  23  43  70 104 136 185 233 285 343 410
#     4  12  24  43  68 101 134 181 231 287 332 424
#     4  11  22  42  68  99 131 181 231 278 334 421
#     4  11  24  45  72  98 136 184 241 275 341 415
#
# _framework density 21.897898999999999
#
# number of rings (size 3 to 8) (size 9 to 14) (size 15 to 20)
#    0.000    0.750    3.750    5.625    1.750    0.000 
#    9.000    0.625    0.000    0.000    0.000    0.000 
#    0.000    0.000    0.000    0.000    0.000    0.000 
#
# Total GULP energy -396491.773856 kJ/mol
# GULP energy per Si atom -12390.367933 kJ/mol
# Density = 2.184806 g / cm^3
# Si number density = 21.897899 Si / 1000 Ang^3
#
#
#
# Elastic Constant Matrix: (Units=GPa)
#
#
# Indices 1 2 3 4 5 6 
#
# 1 127.3229 37.4755 41.4794 0.0000 0.0000 0.0000
# 2 37.4755 85.5539 53.6318 0.0000 0.0000 0.0000
# 3 41.4794 53.6318 132.5174 0.0000 0.0000 0.0000
# 4 0.0000 0.0000 0.0000 19.0002 0.0000 0.0000
# 5 0.0000 0.0000 0.0000 0.0000 27.8312 0.0000
# 6 0.0000 0.0000 0.0000 0.0000 0.0000 32.2316
#
#
#
# Elastic Compliance Matrix: (Units=1/GPa)
#
#
# Indices 1 2 3 4 5 6 
#
# 1 0.009291 -0.003010 -0.001690 0.000000 0.000000 0.000000
# 2 -0.003010 0.016638 -0.005791 0.000000 0.000000 0.000000
# 3 -0.001690 -0.005791 0.010419 0.000000 0.000000 0.000000
# 4 0.000000 0.000000 0.000000 0.052631 0.000000 0.000000
# 5 0.000000 0.000000 0.000000 0.000000 0.035931 0.000000
# 6 0.000000 0.000000 0.000000 0.000000 0.000000 0.031025
#
#
# Mechanical properties :
#
#
# Convention : Reuss Voigt Hill
#
# Bulk Modulus (GPa) = 65.08522 67.84082 66.46302
# Shear Modulus (GPa) = 27.46676 29.99978 28.73327
#
# Velocity S-wave (km/s) = 3.54547 3.70535 3.62629
# Velocity P-wave (km/s) = 6.82254 7.02523 6.92463
#
# Compressibility (1/GPa) = 0.01536447
#
# Stress axis : x y z
#
# Youngs Moduli (GPa) = 107.63608 60.10508 95.97979
#
# Poissons Ratio (x) = 0.18094 0.16218
# Poissons Ratio (y) = 0.32402 0.55584
# Poissons Ratio (z) = 0.18187 0.34808
#
# Static dielectric constant tensor:
#      x y z
#    x 5.624800 0.000000 0.000000 
#    y 0.000000 3.989520 0.000000 
#    z 0.000000 0.000000 3.874990 
# 
# 
# High freq. dielectric constant tensor:
#      x y z
#    x 1.877360 0.000000 0.000000 
#    y 0.000000 1.851200 0.000000 
#    z 0.000000 0.000000 1.852990 
# 
# From -- ./inp_files/13181.got.cif
#   From: 2010.03.12/outbox.cif.g09.slc.cpg/sg37_7_cif.got.tgz:13181.got - 2010.04.14 02:25:27.
