data_PCOD8176342
_publ_section_title
;
Structure prediction by ZEFSAII (Michael W. Deem and Ramdas Pophale) SiO2 
 PCOD8176342
Probable space group: C M C 21
;
_chemical_formula_sum "Si O2"
_cell_formula_units_Z 48
_cell_length_a 14.711785
_cell_length_b 9.922942
_cell_length_c 14.681893
_cell_angle_alpha 90.000000
_cell_angle_beta 90.000000
_cell_angle_gamma 90.000000
_cell_volume 2143.324247
_symmetry_space_group_name_H-M "C M C 21"
_symmetry_group_IT_number 36
_symmetry_cell_setting 'orthorhombic'
loop_
_space_group_symop_operation_xyz
x,y,z
-x,-y,1/2+z
x,-y,1/2+z
-x,y,z
1/2+x,1/2+y,z
1/2-x,1/2-y,1/2+z
1/2+x,1/2-y,1/2+z
1/2-x,1/2+y,z
loop_
_atom_site_type_symbol
_atom_site_label
_atom_site_fract_x
_atom_site_fract_y
_atom_site_fract_z
Si Si1 0.500000 0.164880 0.315230
Si Si2 0.500000 0.623103 0.659325
Si Si3 0.500000 0.874848 0.021713
Si Si4 0.838834 0.194210 0.525264
Si Si5 0.162169 0.762089 0.827483
Si Si6 0.812904 0.492541 0.567877
Si Si7 0.686784 0.975997 0.776576
Si Si8 0.500000 0.309811 0.694426
O O1 0.500000 0.301112 0.256079
O O2 0.500000 0.197586 0.422969
O O3 0.414644 0.075493 0.288838
O O4 0.411506 0.659545 0.601939
O O5 0.500000 0.468264 0.683396
O O6 0.586723 0.971503 0.032177
O O7 0.500000 0.756132 0.095181
O O8 0.883362 0.200671 0.424561
O O9 0.792385 0.336018 0.549976
O O10 0.760413 0.083115 0.516272
O O11 0.243404 0.862249 0.805371
O O12 0.202438 0.610633 0.836363
O O13 0.088661 0.763444 0.747965
O O14 0.799587 0.522529 0.673555
#
# Coordination Sequence:
#
# PCOD8176342 Si02
#       8
#     4   4   4   8   8   8   8   4
#     4  12  26  47  73 102 140 189 244 292 354 426
#     4  12  28  48  70 105 144 191 235 298 356 418
#     4  12  26  47  73 102 140 189 244 292 354 426
#     4  12  26  46  74 107 145 187 236 291 355 426
#     4  12  26  46  74 107 145 187 236 291 355 426
#     4  12  25  48  73 105 142 189 235 293 355 421
#     4  12  25  48  73 105 142 189 235 293 355 421
#     4  12  28  48  70 105 144 191 235 298 356 418
#
# _framework density 22.395118
#
# number of rings (size 3 to 8) (size 9 to 14) (size 15 to 20)
#    0.000    0.000    3.333    7.000    4.667    1.333 
#    0.000    0.000    0.000    0.000    0.000    0.000 
#    0.000    0.000    0.000    0.000    0.000    0.000 
#
# Total GULP energy -297760.314657 kJ/mol
# GULP energy per Si atom -12406.679777 kJ/mol
# Density = 2.234415 g / cm^3
# Si number density = 22.395118 Si / 1000 Ang^3
#
#
#
# Elastic Constant Matrix: (Units=GPa)
#
#
# Indices 1 2 3 4 5 6 
#
# 1 105.6458 59.2276 8.0686 0.0000 0.0000 0.0000
# 2 59.2276 163.7771 11.5332 0.0000 0.0000 0.0000
# 3 8.0686 11.5332 100.3358 0.0000 0.0000 0.0000
# 4 0.0000 0.0000 0.0000 30.0177 0.0000 0.0000
# 5 0.0000 0.0000 0.0000 0.0000 63.6674 0.0000
# 6 0.0000 0.0000 0.0000 0.0000 0.0000 19.4000
#
#
#
# Elastic Compliance Matrix: (Units=1/GPa)
#
#
# Indices 1 2 3 4 5 6 
#
# 1 0.011894 -0.004269 -0.000466 0.000000 0.000000 0.000000
# 2 -0.004269 0.007688 -0.000540 0.000000 0.000000 0.000000
# 3 -0.000466 -0.000540 0.010066 0.000000 0.000000 0.000000
# 4 0.000000 0.000000 0.000000 0.033314 0.000000 0.000000
# 5 0.000000 0.000000 0.000000 0.000000 0.015707 0.000000
# 6 0.000000 0.000000 0.000000 0.000000 0.000000 0.051546
#
#
# Mechanical properties :
#
#
# Convention : Reuss Voigt Hill
#
# Bulk Modulus (GPa) = 52.36059 58.60193 55.48126
# Shear Modulus (GPa) = 33.98348 42.01231 37.99789
#
# Velocity S-wave (km/s) = 3.89967 4.33593 4.12358
# Velocity P-wave (km/s) = 6.61118 7.16178 6.89198
#
# Compressibility (1/GPa) = 0.01909833
#
# Stress axis : x y z
#
# Youngs Moduli (GPa) = 84.07434 130.07995 99.34323
#
# Poissons Ratio (x) = 0.55526 0.04628
# Poissons Ratio (y) = 0.35888 0.05368
# Poissons Ratio (z) = 0.03916 0.07029
#
# Static dielectric constant tensor:
#      x y z
#    x 4.028500 0.000000 0.000000 
#    y 0.000000 4.234230 0.000000 
#    z 0.000000 0.000000 4.441350 
# 
# 
# High freq. dielectric constant tensor:
#      x y z
#    x 1.882040 0.000000 0.000000 
#    y 0.000000 1.896960 0.000000 
#    z 0.000000 0.000000 1.906970 
# 
# From -- ./inp_files/12545.got.cif
#   From: 2010.03.12/outbox.cif.g09.slc.cpg/sg36_7_cif.got.tgz:12545.got - 2010.04.14 02:13:53.
