data_PCOD8176189
_publ_section_title
;
Structure prediction by ZEFSAII (Michael W. Deem and Ramdas Pophale) SiO2 
 PCOD8176189
Probable space group: C M C 21
;
_chemical_formula_sum "Si O2"
_cell_formula_units_Z 64
_cell_length_a 30.062284
_cell_length_b 13.422385
_cell_length_c 9.367221
_cell_angle_alpha 90.000000
_cell_angle_beta 90.000000
_cell_angle_gamma 90.000000
_cell_volume 3779.744394
_symmetry_space_group_name_H-M "C M C 21"
_symmetry_group_IT_number 36
_symmetry_cell_setting 'orthorhombic'
loop_
_space_group_symop_operation_xyz
x,y,z
-x,-y,1/2+z
x,-y,1/2+z
-x,y,z
1/2+x,1/2+y,z
1/2-x,1/2-y,1/2+z
1/2+x,1/2-y,1/2+z
1/2-x,1/2+y,z
loop_
_atom_site_type_symbol
_atom_site_label
_atom_site_fract_x
_atom_site_fract_y
_atom_site_fract_z
Si Si1 0.863882 0.773874 0.121050
Si Si2 0.451350 0.368571 0.167969
Si Si3 0.783454 0.590735 0.765469
Si Si4 0.814094 0.899617 0.347402
Si Si5 0.790646 0.194085 0.133388
Si Si6 0.856039 0.103352 0.349851
Si Si7 0.549693 0.538862 0.372583
Si Si8 0.802524 0.599287 0.096243
O O1 0.917256 0.777968 0.140299
O O2 0.846867 0.850510 0.237068
O O3 0.845881 0.662648 0.141667
O O4 0.847496 0.812081 0.967238
O O5 0.500000 0.318853 0.160554
O O6 0.444946 0.424673 0.319483
O O7 0.445930 0.453664 0.044593
O O8 0.730979 0.568501 0.766304
O O9 0.794270 0.693214 0.685386
O O10 0.807594 0.507086 0.670922
O O11 0.801973 0.587857 0.925863
O O12 0.802023 0.817670 0.466916
O O13 0.838858 0.996899 0.411081
O O14 0.826881 0.127309 0.212732
O O15 0.740587 0.155792 0.158950
O O16 0.908650 0.101167 0.307865
O O17 0.500000 0.578196 0.325284
#
# Coordination Sequence:
#
# PCOD8176189 Si02
#       8
#     8   8   8   8   8   8   8   8
#     4  11  21  34  52  78 106 139 183 212 261 317
#     4   9  18  32  51  76 107 138 173 214 263 319
#     4  11  24  38  53  74 104 144 178 221 263 301
#     4  11  22  32  54  76 107 144 172 214 255 315
#     4  11  23  36  52  77 108 139 180 215 260 312
#     4  11  20  35  52  77 107 143 181 207 262 314
#     4   9  18  30  48  74 106 138 169 210 257 317
#     4  11  24  37  55  74 105 141 181 223 259 311
#
# _framework density 16.932362000000001
#
# number of rings (size 3 to 8) (size 9 to 14) (size 15 to 20)
#    0.000    1.500    5.000    0.750    5.250    0.000 
#    0.000    0.000    0.000    0.000    0.000    1.750 
#    0.000    0.000    0.000    0.000    0.000    0.000 
#
# Total GULP energy -396666.489388 kJ/mol
# GULP energy per Si atom -12395.827793 kJ/mol
# Density = 1.689382 g / cm^3
# Si number density = 16.932362 Si / 1000 Ang^3
#
#
#
# Elastic Constant Matrix: (Units=GPa)
#
#
# Indices 1 2 3 4 5 6 
#
# 1 111.3941 45.1651 36.0881 0.0000 0.0000 0.0000
# 2 45.1651 99.8597 32.6740 0.0000 0.0000 0.0000
# 3 36.0881 32.6740 48.9287 0.0000 0.0000 0.0000
# 4 0.0000 0.0000 0.0000 22.8445 0.0000 0.0000
# 5 0.0000 0.0000 0.0000 0.0000 19.6913 0.0000
# 6 0.0000 0.0000 0.0000 0.0000 0.0000 23.2068
#
#
#
# Elastic Compliance Matrix: (Units=1/GPa)
#
#
# Indices 1 2 3 4 5 6 
#
# 1 0.012644 -0.003413 -0.007046 0.000000 0.000000 0.000000
# 2 -0.003413 0.013735 -0.006655 0.000000 0.000000 0.000000
# 3 -0.007046 -0.006655 0.030079 0.000000 0.000000 0.000000
# 4 0.000000 0.000000 0.000000 0.043774 0.000000 0.000000
# 5 0.000000 0.000000 0.000000 0.000000 0.050784 0.000000
# 6 0.000000 0.000000 0.000000 0.000000 0.000000 0.043091
#
#
# Mechanical properties :
#
#
# Convention : Reuss Voigt Hill
#
# Bulk Modulus (GPa) = 44.98536 54.22633 49.60585
# Shear Modulus (GPa) = 21.20933 22.89888 22.05410
#
# Velocity S-wave (km/s) = 3.54304 3.68145 3.61291
# Velocity P-wave (km/s) = 6.58505 7.08277 6.83844
#
# Compressibility (1/GPa) = 0.02222945
#
# Stress axis : x y z
#
# Youngs Moduli (GPa) = 79.09036 72.80578 33.24566
#
# Poissons Ratio (x) = 0.24849 0.23426
# Poissons Ratio (y) = 0.26994 0.22125
# Poissons Ratio (z) = 0.55730 0.48451
#
# Static dielectric constant tensor:
#      x y z
#    x 3.355370 0.000000 0.000000 
#    y 0.000000 2.886940 0.000000 
#    z 0.000000 0.000000 3.202840 
# 
# 
# High freq. dielectric constant tensor:
#      x y z
#    x 1.651850 0.000000 0.000000 
#    y 0.000000 1.619610 0.000000 
#    z 0.000000 0.000000 1.659430 
# 
# From -- ./inp_files/6074.got.cif
#   From: 2010.03.12/outbox.cif.g09.slc.cpg/sg36_4_cif.got.tgz:6074.got - 2010.04.14 02:13:53.
