data_PCOD8176179
_publ_section_title
;
Structure prediction by ZEFSAII (Michael W. Deem and Ramdas Pophale) SiO2 
 PCOD8176179
Probable space group: C M C 21
;
_chemical_formula_sum "Si O2"
_cell_formula_units_Z 40
_cell_length_a 22.306970
_cell_length_b 7.702472
_cell_length_c 9.000582
_cell_angle_alpha 90.000000
_cell_angle_beta 90.000000
_cell_angle_gamma 90.000000
_cell_volume 1546.469305
_symmetry_space_group_name_H-M "C M C 21"
_symmetry_group_IT_number 36
_symmetry_cell_setting 'orthorhombic'
loop_
_space_group_symop_operation_xyz
x,y,z
-x,-y,1/2+z
x,-y,1/2+z
-x,y,z
1/2+x,1/2+y,z
1/2-x,1/2-y,1/2+z
1/2+x,1/2-y,1/2+z
1/2-x,1/2+y,z
loop_
_atom_site_type_symbol
_atom_site_label
_atom_site_fract_x
_atom_site_fract_y
_atom_site_fract_z
Si Si1 0.111198 0.208695 0.799140
Si Si2 0.311677 0.186222 0.920015
Si Si3 0.771775 0.376908 0.745502
Si Si4 0.931926 0.090947 0.108570
Si Si5 0.931840 0.593136 0.821892
O O1 0.181920 0.239905 0.819850
O O2 0.078108 0.394115 0.771288
O O3 0.106417 0.073523 0.663168
O O4 0.082638 0.110085 0.936842
O O5 0.291664 0.363399 0.836257
O O6 0.383268 0.157186 0.947918
O O7 0.294915 0.067103 0.778448
O O8 0.272712 0.151163 0.067519
O O9 0.919938 0.278249 0.183502
O O10 0.000000 0.034752 0.131181
O O11 0.000000 0.613513 0.883653
#
# Coordination Sequence:
#
# PCOD8176179 Si02
#       5
#     8   8   8   8   8
#     4  11  27  45  73 111 153 196 253 312 377 452
#     4  11  26  47  74 111 143 198 245 312 381 445
#     4  11  27  46  77 108 150 194 253 315 379 452
#     4  11  25  45  73 107 148 201 249 307 376 450
#     4  10  25  47  75 109 152 197 252 310 377 453
#
# _framework density 25.865369000000001
#
# number of rings (size 3 to 8) (size 9 to 14) (size 15 to 20)
#    0.000    1.200    0.000    3.000   19.600    0.000 
#    0.000    1.000    0.000    0.000    0.000    0.000 
#    0.000    0.000    0.000    0.000    0.000    0.000 
#
# Total GULP energy -247797.620255 kJ/mol
# GULP energy per Si atom -12389.881013 kJ/mol
# Density = 2.580650 g / cm^3
# Si number density = 25.865369 Si / 1000 Ang^3
#
#
#
# Elastic Constant Matrix: (Units=GPa)
#
#
# Indices 1 2 3 4 5 6 
#
# 1 113.6225 24.0932 20.8331 0.0000 0.0000 0.0000
# 2 24.0932 103.5553 6.2337 0.0000 0.0000 0.0000
# 3 20.8331 6.2337 96.5317 0.0000 0.0000 0.0000
# 4 0.0000 0.0000 0.0000 28.5440 0.0000 0.0000
# 5 0.0000 0.0000 0.0000 0.0000 38.4792 0.0000
# 6 0.0000 0.0000 0.0000 0.0000 0.0000 28.6720
#
#
#
# Elastic Compliance Matrix: (Units=1/GPa)
#
#
# Indices 1 2 3 4 5 6 
#
# 1 0.009605 -0.002118 -0.001936 0.000000 0.000000 0.000000
# 2 -0.002118 0.010161 -0.000199 0.000000 0.000000 0.000000
# 3 -0.001936 -0.000199 0.010790 0.000000 0.000000 0.000000
# 4 0.000000 0.000000 0.000000 0.035034 0.000000 0.000000
# 5 0.000000 0.000000 0.000000 0.000000 0.025988 0.000000
# 6 0.000000 0.000000 0.000000 0.000000 0.000000 0.034877
#
#
# Mechanical properties :
#
#
# Convention : Reuss Voigt Hill
#
# Bulk Modulus (GPa) = 45.35177 46.22549 45.78863
# Shear Modulus (GPa) = 35.13396 36.64235 35.88815
#
# Velocity S-wave (km/s) = 3.68956 3.76793 3.72895
# Velocity P-wave (km/s) = 5.97682 6.06961 6.02339
#
# Compressibility (1/GPa) = 0.02204986
#
# Stress axis : x y z
#
# Youngs Moduli (GPa) = 104.10995 98.41090 92.67838
#
# Poissons Ratio (x) = 0.20845 0.17944
# Poissons Ratio (y) = 0.22053 0.01845
# Poissons Ratio (z) = 0.20157 0.01959
#
# Static dielectric constant tensor:
#      x y z
#    x 5.254200 0.000000 0.000000 
#    y 0.000000 5.162290 0.000000 
#    z 0.000000 0.000000 4.250280 
# 
# 
# High freq. dielectric constant tensor:
#      x y z
#    x 2.042720 0.000000 0.000000 
#    y 0.000000 2.053080 0.000000 
#    z 0.000000 0.000000 2.019150 
# 
# From -- ./inp_files/5466.got.cif
#   From: 2010.03.12/outbox.cif.g09.slc.cpg/sg36_3_cif.got.tgz:5466.got - 2010.04.14 02:13:53.
