data_PCOD8176810
_publ_section_title
;
Structure prediction by ZEFSAII (Michael W. Deem and Ramdas Pophale) SiO2 
 PCOD8176810
Probable space group: C C C 2
;
_chemical_formula_sum "Si O2"
_cell_formula_units_Z 24
_cell_length_a 13.266194
_cell_length_b 6.990762
_cell_length_c 9.937492
_cell_angle_alpha 90.000000
_cell_angle_beta 90.000000
_cell_angle_gamma 90.000000
_cell_volume 921.611007
_symmetry_space_group_name_H-M "C C C 2"
_symmetry_group_IT_number 37
_symmetry_cell_setting 'orthorhombic'
loop_
_space_group_symop_operation_xyz
x,y,z
-x,-y,z
-x,y,1/2+z
x,-y,1/2+z
1/2+x,1/2+y,z
1/2-x,1/2-y,z
1/2-x,1/2+y,1/2+z
1/2+x,1/2-y,1/2+z
loop_
_atom_site_type_symbol
_atom_site_label
_atom_site_fract_x
_atom_site_fract_y
_atom_site_fract_z
Si Si1 0.092928 0.793192 0.280640
Si Si2 0.059583 0.310252 0.059347
Si Si3 0.775419 0.444497 0.739718
O O1 0.060912 0.840198 0.434174
O O2 0.141370 0.581910 0.304495
O O3 0.995564 0.791772 0.185825
O O4 0.172113 0.939990 0.214368
O O5 0.174379 0.364150 0.101107
O O6 0.000000 0.500000 0.015891
O O7 0.750000 0.250000 0.826168
#
# Coordination Sequence:
#
# PCOD8176810 Si02
#       3
#     8   8   8
#     4  10  23  47  72 103 149 190 241 307 373 436
#     4  10  21  45  74 102 149 192 240 308 369 442
#     4  10  23  43  70 109 140 192 243 301 364 447
#
# _framework density 26.041357000000001
#
# number of rings (size 3 to 8) (size 9 to 14) (size 15 to 20)
#    0.000    2.000    0.000    3.000    4.667    1.333 
#   18.000   10.000    0.000    0.000    0.000    0.000 
#    0.000    0.000    0.000    0.000    0.000    0.000 
#
# Total GULP energy -148682.155769 kJ/mol
# GULP energy per Si atom -12390.179647 kJ/mol
# Density = 2.598209 g / cm^3
# Si number density = 26.041357 Si / 1000 Ang^3
#
#
#
# Elastic Constant Matrix: (Units=GPa)
#
#
# Indices 1 2 3 4 5 6 
#
# 1 169.3949 61.4682 86.1298 0.0000 0.0000 0.0000
# 2 61.4682 116.7174 22.4872 0.0000 0.0000 0.0000
# 3 86.1298 22.4872 183.7607 0.0000 0.0000 0.0000
# 4 0.0000 0.0000 0.0000 -2.4910 0.0000 0.0000
# 5 0.0000 0.0000 0.0000 0.0000 27.6205 0.0000
# 6 0.0000 0.0000 0.0000 0.0000 0.0000 38.0175
#
#
#
# Elastic Compliance Matrix: (Units=1/GPa)
#
#
# Indices 1 2 3 4 5 6 
#
# 1 0.009410 -0.004205 -0.003896 0.000000 0.000000 0.000000
# 2 -0.004205 0.010654 0.000667 0.000000 0.000000 0.000000
# 3 -0.003896 0.000667 0.007186 0.000000 0.000000 0.000000
# 4 0.000000 0.000000 0.000000 -0.401440 0.000000 0.000000
# 5 0.000000 0.000000 0.000000 0.000000 0.036205 0.000000
# 6 0.000000 0.000000 0.000000 0.000000 0.000000 0.026304
#
#
# Mechanical properties :
#
#
# Convention : Reuss Voigt Hill
#
# Bulk Modulus (GPa) = 80.75982 90.00482 85.38232
# Shear Modulus (GPa) = -17.08319 32.61526 7.76604
#
# Velocity S-wave (km/s) = -2.56403 3.54282 1.72878
# Velocity P-wave (km/s) = 4.72375 7.16748 6.06987
#
# Compressibility (1/GPa) = 0.01238240
#
# Stress axis : x y z
#
# Youngs Moduli (GPa) = 106.26684 93.86347 139.15351
#
# Poissons Ratio (x) = 0.39472 0.54215
# Poissons Ratio (y) = 0.44687 -0.09285
# Poissons Ratio (z) = 0.41402 -0.06263
#
# Static dielectric constant tensor:
#      x y z
#    x 4.871610 0.000000 0.000000 
#    y 0.000000 5.218200 0.000000 
#    z 0.000000 0.000000 4.145060 
# 
# 
# High freq. dielectric constant tensor:
#      x y z
#    x 2.065530 0.000000 0.000000 
#    y 0.000000 2.054350 0.000000 
#    z 0.000000 0.000000 2.003240 
# 
# From -- ./inp_files/1931.got.cif
#   From: 2010.03.12/outbox.cif.g09.slc.cpg/sg37_1_cif.got.tgz:1931.got - 2010.04.14 02:25:27.
