data_PCOD8176629
_publ_section_title
;
Structure prediction by ZEFSAII (Michael W. Deem and Ramdas Pophale) SiO2 
 PCOD8176629
Probable space group: C C C 2
;
_chemical_formula_sum "Si O2"
_cell_formula_units_Z 36
_cell_length_a 9.946599
_cell_length_b 9.946597
_cell_length_c 21.115787
_cell_angle_alpha 90.000000
_cell_angle_beta 90.000000
_cell_angle_gamma 90.000000
_cell_volume 2089.086412
_symmetry_space_group_name_H-M "C C C 2"
_symmetry_group_IT_number 37
_symmetry_cell_setting 'orthorhombic'
loop_
_space_group_symop_operation_xyz
x,y,z
-x,-y,z
-x,y,1/2+z
x,-y,1/2+z
1/2+x,1/2+y,z
1/2-x,1/2-y,z
1/2-x,1/2+y,1/2+z
1/2+x,1/2-y,1/2+z
loop_
_atom_site_type_symbol
_atom_site_label
_atom_site_fract_x
_atom_site_fract_y
_atom_site_fract_z
Si Si1 0.354081 0.854081 0.814910
Si Si2 0.139864 0.360136 0.868144
Si Si3 0.750000 0.750000 0.193079
Si Si4 0.886087 0.113913 0.579937
Si Si5 0.608822 0.108822 0.516816
O O1 0.250000 0.750000 0.847359
O O2 0.501932 0.812128 0.836635
O O3 0.343620 0.843619 0.738184
O O4 0.312128 0.001932 0.836635
O O5 0.250000 0.250000 0.852817
O O6 0.118112 0.381888 0.941919
O O7 0.845884 0.845884 0.151377
O O8 0.752765 0.061776 0.544079
O O9 0.938224 0.247235 0.544079
O O10 0.000000 0.000000 0.579705
O O11 0.500000 0.000000 0.538278
#
# Coordination Sequence:
#
# PCOD8176629 Si02
#       5
#     8   8   4   8   8
#     4   9  21  38  58  81 114 161 192 239 297 347
#     4  11  20  37  58  87 122 153 190 241 296 353
#     4   8  20  44  58  82 124 150 202 254 282 346
#     4  10  22  40  64  84 116 160 197 249 294 343
#     4  10  20  40  57  86 125 147 191 246 298 349
#
# _framework density 17.232412
#
# number of rings (size 3 to 8) (size 9 to 14) (size 15 to 20)
#    0.667    1.778    4.444    0.000    0.000    5.333 
#   16.000    0.000    0.000    0.000    0.000    0.000 
#    0.000    0.000    0.000    0.000    0.000    0.000 
#
# Total GULP energy -223104.025844 kJ/mol
# GULP energy per Si atom -12394.668102 kJ/mol
# Density = 1.719319 g / cm^3
# Si number density = 17.232412 Si / 1000 Ang^3
#
#
#
# Elastic Constant Matrix: (Units=GPa)
#
#
# Indices 1 2 3 4 5 6 
#
# 1 138.0009 112.7080 57.0851 0.0000 0.0000 0.0000
# 2 112.7080 138.0007 57.0850 0.0000 0.0000 0.0000
# 3 57.0851 57.0850 144.0380 0.0000 0.0000 0.0000
# 4 0.0000 0.0000 0.0000 25.6695 0.0000 0.0000
# 5 0.0000 0.0000 0.0000 0.0000 25.6695 0.0000
# 6 0.0000 0.0000 0.0000 0.0000 0.0000 55.0914
#
#
#
# Elastic Compliance Matrix: (Units=1/GPa)
#
#
# Indices 1 2 3 4 5 6 
#
# 1 0.022202 -0.017335 -0.001929 0.000000 0.000000 0.000000
# 2 -0.017335 0.022202 -0.001929 0.000000 0.000000 0.000000
# 3 -0.001929 -0.001929 0.008472 0.000000 0.000000 0.000000
# 4 0.000000 0.000000 0.000000 0.038957 0.000000 0.000000
# 5 0.000000 0.000000 0.000000 0.000000 0.038957 0.000000
# 6 0.000000 0.000000 0.000000 0.000000 0.000000 0.018152
#
#
# Mechanical properties :
#
#
# Convention : Reuss Voigt Hill
#
# Bulk Modulus (GPa) = 95.32840 97.08842 96.20841
# Shear Modulus (GPa) = 25.66435 34.16352 29.91393
#
# Velocity S-wave (km/s) = 3.86334 4.45737 4.17095
# Velocity P-wave (km/s) = 8.67985 9.10790 8.89645
#
# Compressibility (1/GPa) = 0.01049005
#
# Stress axis : x y z
#
# Youngs Moduli (GPa) = 45.04108 45.04102 118.04214
#
# Poissons Ratio (x) = 0.78078 0.22770
# Poissons Ratio (y) = 0.78078 0.22769
# Poissons Ratio (z) = 0.08688 0.08688
#
# Static dielectric constant tensor:
#      x y z
#    x 3.007110 0.000000 0.000000 
#    y 0.000000 3.007110 0.000000 
#    z 0.000000 0.000000 3.276150 
# 
# 
# High freq. dielectric constant tensor:
#      x y z
#    x 1.664040 0.000000 0.000000 
#    y 0.000000 1.664040 0.000000 
#    z 0.000000 0.000000 1.673420 
# 
# From -- ./inp_files/16753.got.cif
#   From: 2010.03.12/outbox.cif.g09.slc.cpg/sg37_9_cif.got.tgz:16753.got - 2010.04.14 02:25:27.
