data_PCOD8176988
_publ_section_title
;
Structure prediction by ZEFSAII (Michael W. Deem and Ramdas Pophale) SiO2 
 PCOD8176988
Probable space group: C C C 2
;
_chemical_formula_sum "Si O2"
_cell_formula_units_Z 36
_cell_length_a 16.195597
_cell_length_b 8.892865
_cell_length_c 8.747775
_cell_angle_alpha 90.000000
_cell_angle_beta 90.000000
_cell_angle_gamma 90.000000
_cell_volume 1259.900549
_symmetry_space_group_name_H-M "C C C 2"
_symmetry_group_IT_number 37
_symmetry_cell_setting 'orthorhombic'
loop_
_space_group_symop_operation_xyz
x,y,z
-x,-y,z
-x,y,1/2+z
x,-y,1/2+z
1/2+x,1/2+y,z
1/2-x,1/2-y,z
1/2-x,1/2+y,1/2+z
1/2+x,1/2-y,1/2+z
loop_
_atom_site_type_symbol
_atom_site_label
_atom_site_fract_x
_atom_site_fract_y
_atom_site_fract_z
Si Si1 0.750000 0.250000 0.130690
Si Si2 0.314615 0.543623 0.690549
Si Si3 0.334826 0.050894 0.384875
Si Si4 0.044108 0.238005 0.258844
Si Si5 0.610366 0.274251 0.440787
O O1 0.684618 0.358315 0.221875
O O2 0.700116 0.121083 0.041370
O O3 0.225704 0.605303 0.747091
O O4 0.387511 0.608002 0.797756
O O5 0.330510 0.591334 0.511450
O O6 0.426307 0.111924 0.349009
O O7 0.335030 0.869925 0.391614
O O8 0.047190 0.273026 0.078133
O O9 0.953746 0.180325 0.306143
#
# Coordination Sequence:
#
# PCOD8176988 Si02
#       5
#     4   8   8   8   8
#     4  12  24  44  82 114 166 224 286 348 424 498
#     4  10  26  49  78 125 167 224 293 357 426 533
#     4  12  23  46  82 124 166 227 292 358 430 529
#     4  10  23  50  80 125 172 220 285 361 448 519
#     4  10  25  47  86 119 179 219 288 367 438 525
#
# _framework density 28.573682000000002
#
# number of rings (size 3 to 8) (size 9 to 14) (size 15 to 20)
#    1.333    0.000    2.222    2.000    3.111    7.111 
#    0.000    1.111   19.556    0.000    0.000    0.000 
#    0.000    0.000    0.000    0.000    0.000    0.000 
#
# Total GULP energy -223108.199627 kJ/mol
# GULP energy per Si atom -12394.899979 kJ/mol
# Density = 2.850865 g / cm^3
# Si number density = 28.573682 Si / 1000 Ang^3
#
#
#
# Elastic Constant Matrix: (Units=GPa)
#
#
# Indices 1 2 3 4 5 6 
#
# 1 154.1284 43.5329 51.6732 0.0000 0.0000 0.0000
# 2 43.5329 175.5988 15.5387 0.0000 0.0000 0.0000
# 3 51.6732 15.5387 50.5855 0.0000 0.0000 0.0000
# 4 0.0000 0.0000 0.0000 40.3037 0.0000 0.0000
# 5 0.0000 0.0000 0.0000 0.0000 13.8021 0.0000
# 6 0.0000 0.0000 0.0000 0.0000 0.0000 43.6153
#
#
#
# Elastic Compliance Matrix: (Units=1/GPa)
#
#
# Indices 1 2 3 4 5 6 
#
# 1 0.010324 -0.001672 -0.010032 0.000000 0.000000 0.000000
# 2 -0.001672 0.006125 -0.000174 0.000000 0.000000 0.000000
# 3 -0.010032 -0.000174 0.030070 0.000000 0.000000 0.000000
# 4 0.000000 0.000000 0.000000 0.024812 0.000000 0.000000
# 5 0.000000 0.000000 0.000000 0.000000 0.072453 0.000000
# 6 0.000000 0.000000 0.000000 0.000000 0.000000 0.022928
#
#
# Mechanical properties :
#
#
# Convention : Reuss Voigt Hill
#
# Bulk Modulus (GPa) = 43.93111 66.86694 55.39903
# Shear Modulus (GPa) = 25.24581 37.51540 31.38061
#
# Velocity S-wave (km/s) = 2.97565 3.62738 3.31756
# Velocity P-wave (km/s) = 5.21671 6.40283 5.83996
#
# Compressibility (1/GPa) = 0.02276291
#
# Stress axis : x y z
#
# Youngs Moduli (GPa) = 96.86535 163.27636 33.25604
#
# Poissons Ratio (x) = 0.27293 0.33363
# Poissons Ratio (y) = 0.16192 0.00578
# Poissons Ratio (z) = 0.97176 0.02838
#
# Static dielectric constant tensor:
#      x y z
#    x 5.044370 0.000000 0.000000 
#    y 0.000000 5.241650 0.000000 
#    z 0.000000 0.000000 5.222280 
# 
# 
# High freq. dielectric constant tensor:
#      x y z
#    x 2.160930 0.000000 0.000000 
#    y 0.000000 2.167450 0.000000 
#    z 0.000000 0.000000 2.167690 
# 
# From -- ./inp_files/8162.got.cif
#   From: 2010.03.12/outbox.cif.g09.slc.cpg/sg37_5_cif.got.tgz:8162.got - 2010.04.14 02:25:27.
