data_PCOD8176797
_publ_section_title
;
Structure prediction by ZEFSAII (Michael W. Deem and Ramdas Pophale) SiO2 
 PCOD8176797
Probable space group: C C C 2
;
_chemical_formula_sum "Si O2"
_cell_formula_units_Z 64
_cell_length_a 8.861504
_cell_length_b 17.817227
_cell_length_c 20.386084
_cell_angle_alpha 90.000000
_cell_angle_beta 90.000000
_cell_angle_gamma 90.000000
_cell_volume 3218.706376
_symmetry_space_group_name_H-M "C C C 2"
_symmetry_group_IT_number 37
_symmetry_cell_setting 'orthorhombic'
loop_
_space_group_symop_operation_xyz
x,y,z
-x,-y,z
-x,y,1/2+z
x,-y,1/2+z
1/2+x,1/2+y,z
1/2-x,1/2-y,z
1/2-x,1/2+y,1/2+z
1/2+x,1/2-y,1/2+z
loop_
_atom_site_type_symbol
_atom_site_label
_atom_site_fract_x
_atom_site_fract_y
_atom_site_fract_z
Si Si1 0.921996 0.268648 0.072600
Si Si2 0.348851 0.455169 0.823368
Si Si3 0.123122 0.563929 0.066500
Si Si4 0.155459 0.960736 0.949536
Si Si5 0.092560 0.789663 0.325534
Si Si6 0.401171 0.927479 0.213826
Si Si7 0.095209 0.792275 0.942089
Si Si8 0.073869 0.270456 0.207146
O O1 0.750000 0.250000 0.093357
O O2 0.939700 0.354395 0.046753
O O3 0.029464 0.250309 0.133357
O O4 0.983814 0.216064 0.013519
O O5 0.500000 0.500000 0.799659
O O6 0.271266 0.497352 0.885790
O O7 0.396967 0.374558 0.849917
O O8 0.233032 0.435673 0.765551
O O9 0.178176 0.573360 0.142115
O O10 0.000000 0.500000 0.063318
O O11 0.249587 0.536762 0.016105
O O12 0.128301 0.877389 0.924594
O O13 0.000000 0.000000 0.968000
O O14 0.250000 0.750000 0.316551
O O15 0.998862 0.750945 0.384626
O O16 0.007202 0.786073 0.256611
O O17 0.513313 0.855306 0.223821
O O18 0.500000 0.000000 0.223576
O O19 0.250000 0.750000 0.951342
O O20 0.250000 0.250000 0.215782
#
# Coordination Sequence:
#
# PCOD8176797 Si02
#       8
#     8   8   8   8   8   8   8   8
#     4  10  21  43  70  95 130 177 217 273 333 399
#     4  11  24  42  66  93 135 172 216 274 334 400
#     4  10  22  43  66  95 133 167 216 269 328 393
#     4  11  22  43  64  95 131 170 215 269 327 398
#     4  12  24  42  65  98 131 171 223 279 329 397
#     4  10  24  45  65  97 133 173 225 273 332 404
#     4  11  22  42  68  95 130 172 222 267 331 403
#     4  11  25  43  68  98 134 176 224 282 336 399
#
# _framework density 19.883765
#
# number of rings (size 3 to 8) (size 9 to 14) (size 15 to 20)
#    0.000    1.250    6.250    0.750    3.500    3.500 
#    6.750    0.000    0.000    0.000    0.000    0.000 
#    0.000    0.000    0.000    0.000    0.000    0.000 
#
# Total GULP energy -396500.138193 kJ/mol
# GULP energy per Si atom -12390.629319 kJ/mol
# Density = 1.983851 g / cm^3
# Si number density = 19.883765 Si / 1000 Ang^3
#
#
#
# Elastic Constant Matrix: (Units=GPa)
#
#
# Indices 1 2 3 4 5 6 
#
# 1 96.7032 35.3581 62.4863 0.0000 0.0000 0.0000
# 2 35.3581 117.1889 43.5577 0.0000 0.0000 0.0000
# 3 62.4863 43.5577 151.3586 0.0000 0.0000 0.0000
# 4 0.0000 0.0000 0.0000 37.6971 0.0000 0.0000
# 5 0.0000 0.0000 0.0000 0.0000 64.6456 0.0000
# 6 0.0000 0.0000 0.0000 0.0000 0.0000 29.3710
#
#
#
# Elastic Compliance Matrix: (Units=1/GPa)
#
#
# Indices 1 2 3 4 5 6 
#
# 1 0.014701 -0.002441 -0.005367 0.000000 0.000000 0.000000
# 2 -0.002441 0.009961 -0.001859 0.000000 0.000000 0.000000
# 3 -0.005367 -0.001859 0.009357 0.000000 0.000000 0.000000
# 4 0.000000 0.000000 0.000000 0.026527 0.000000 0.000000
# 5 0.000000 0.000000 0.000000 0.000000 0.015469 0.000000
# 6 0.000000 0.000000 0.000000 0.000000 0.000000 0.034047
#
#
# Mechanical properties :
#
#
# Convention : Reuss Voigt Hill
#
# Bulk Modulus (GPa) = 68.09052 72.00609 70.04830
# Shear Modulus (GPa) = 37.23265 41.26596 39.24931
#
# Velocity S-wave (km/s) = 4.33195 4.56055 4.44772
# Velocity P-wave (km/s) = 7.70323 8.00148 7.85377
#
# Compressibility (1/GPa) = 0.01468633
#
# Stress axis : x y z
#
# Youngs Moduli (GPa) = 68.02163 100.39586 106.86809
#
# Poissons Ratio (x) = 0.24505 0.57354
# Poissons Ratio (y) = 0.16603 0.19864
# Poissons Ratio (z) = 0.36506 0.18661
#
# Static dielectric constant tensor:
#      x y z
#    x 3.470500 0.000000 0.000000 
#    y 0.000000 3.648790 0.000000 
#    z 0.000000 0.000000 4.098940 
# 
# 
# High freq. dielectric constant tensor:
#      x y z
#    x 1.757760 0.000000 0.000000 
#    y 0.000000 1.787690 0.000000 
#    z 0.000000 0.000000 1.795290 
# 
# From -- ./inp_files/16567.got.cif
#   From: 2010.03.12/outbox.cif.g09.slc.cpg/sg37_9_cif.got.tgz:16567.got - 2010.04.14 02:25:27.
