data_PCOD8176929
_publ_section_title
;
Structure prediction by ZEFSAII (Michael W. Deem and Ramdas Pophale) SiO2 
 PCOD8176929
Probable space group: C C C 2
;
_chemical_formula_sum "Si O2"
_cell_formula_units_Z 64
_cell_length_a 8.905359
_cell_length_b 27.789392
_cell_length_c 11.616221
_cell_angle_alpha 90.000000
_cell_angle_beta 90.000000
_cell_angle_gamma 90.000000
_cell_volume 2874.718625
_symmetry_space_group_name_H-M "C C C 2"
_symmetry_group_IT_number 37
_symmetry_cell_setting 'orthorhombic'
loop_
_space_group_symop_operation_xyz
x,y,z
-x,-y,z
-x,y,1/2+z
x,-y,1/2+z
1/2+x,1/2+y,z
1/2-x,1/2-y,z
1/2-x,1/2+y,1/2+z
1/2+x,1/2-y,1/2+z
loop_
_atom_site_type_symbol
_atom_site_label
_atom_site_fract_x
_atom_site_fract_y
_atom_site_fract_z
Si Si1 0.862172 0.969665 0.945870
Si Si2 0.357386 0.196970 0.869567
Si Si3 0.808180 0.825301 0.637111
Si Si4 0.763978 0.444501 0.814081
Si Si5 0.542006 0.296690 0.451853
Si Si6 0.987698 0.114598 0.298937
Si Si7 0.588025 0.953511 0.094286
Si Si8 0.579983 0.873237 0.474610
O O1 0.903268 0.918904 0.890132
O O2 0.786606 0.002345 0.848126
O O3 0.757078 0.958549 0.052029
O O4 0.000000 0.000000 0.997888
O O5 0.275174 0.201578 0.744203
O O6 0.459747 0.243784 0.894205
O O7 0.221855 0.191054 0.964425
O O8 0.472785 0.152497 0.880261
O O9 0.679828 0.835169 0.543792
O O10 0.944781 0.796277 0.571661
O O11 0.881798 0.873977 0.689155
O O12 0.632256 0.413789 0.751866
O O13 0.906162 0.452317 0.732069
O O14 0.811216 0.412938 0.922186
O O15 0.468085 0.335569 0.364237
O O16 0.523446 0.902186 0.061712
O O17 0.500000 0.000000 0.047058
#
# Coordination Sequence:
#
# PCOD8176929 Si02
#       8
#     8   8   8   8   8   8   8   8
#     4  10  24  45  66  93 137 182 237 297 347 431
#     4  10  25  45  72 109 144 179 239 301 353 430
#     4  11  24  45  78  97 147 190 229 285 377 413
#     4  11  25  42  62 102 135 178 248 284 356 431
#     4  10  22  46  72 102 140 182 235 286 352 432
#     4  10  23  42  70  99 134 184 238 292 339 433
#     4  12  26  39  67  91 140 183 227 297 364 410
#     4  12  25  45  67 105 142 185 238 296 360 436
#
# _framework density 22.263047
#
# number of rings (size 3 to 8) (size 9 to 14) (size 15 to 20)
#    0.000    1.250    2.500    2.250    7.000    6.000 
#    0.000    0.000    0.000    0.000    0.000    0.000 
#    0.000    0.000    0.000    0.000    0.000    0.000 
#
# Total GULP energy -396555.314256 kJ/mol
# GULP energy per Si atom -12392.353570 kJ/mol
# Density = 2.221238 g / cm^3
# Si number density = 22.263047 Si / 1000 Ang^3
#
#
#
# Elastic Constant Matrix: (Units=GPa)
#
#
# Indices 1 2 3 4 5 6 
#
# 1 99.0333 32.4768 49.6043 0.0000 0.0000 0.0000
# 2 32.4768 98.5856 27.4630 0.0000 0.0000 0.0000
# 3 49.6043 27.4630 92.3890 0.0000 0.0000 0.0000
# 4 0.0000 0.0000 0.0000 14.3186 0.0000 0.0000
# 5 0.0000 0.0000 0.0000 0.0000-2506.4848 0.0000
# 6 0.0000 0.0000 0.0000 0.0000 0.0000 28.6835
#
#
#
# Elastic Compliance Matrix: (Units=1/GPa)
#
#
# Indices 1 2 3 4 5 6 
#
# 1 0.014509 -0.002845 -0.006944 0.000000 0.000000 0.000000
# 2 -0.002845 0.011617 -0.001926 0.000000 0.000000 0.000000
# 3 -0.006944 -0.001926 0.015125 0.000000 0.000000 0.000000
# 4 0.000000 0.000000 0.000000 0.069839 0.000000 0.000000
# 5 0.000000 0.000000 0.000000 0.000000 -0.000399 0.000000
# 6 0.000000 0.000000 0.000000 0.000000 0.000000 0.034863
#
#
# Mechanical properties :
#
#
# Convention : Reuss Voigt Hill
#
# Bulk Modulus (GPa) = 56.11478 56.56623 56.34050
# Shear Modulus (GPa) = 28.58379 -480.66563 -226.04092
#
# Velocity S-wave (km/s) = 3.58706 -14.70958 -10.08723
# Velocity P-wave (km/s) = 6.51276 16.21827 10.50276
#
# Compressibility (1/GPa) = 0.01782062
#
# Stress axis : x y z
#
# Youngs Moduli (GPa) = 68.92321 86.07943 66.11744
#
# Poissons Ratio (x) = 0.24491 0.45913
# Poissons Ratio (y) = 0.19610 0.12732
# Poissons Ratio (z) = 0.47862 0.16576
#
# Static dielectric constant tensor:
#      x y z
#    x 21.980990 0.000000 0.000000 
#    y 0.000000 4.126050 0.000000 
#    z 0.000000 0.000000 3.754260 
# 
# 
# High freq. dielectric constant tensor:
#      x y z
#    x 1.883740 0.000000 0.000000 
#    y 0.000000 1.886310 0.000000 
#    z 0.000000 0.000000 1.858160 
# 
# From -- ./inp_files/6620.got.cif
#   From: 2010.03.12/outbox.cif.g09.slc.cpg/sg37_4_cif.got.tgz:6620.got - 2010.04.14 02:25:27.
