data_PCOD8176750
_publ_section_title
;
Structure prediction by ZEFSAII (Michael W. Deem and Ramdas Pophale) SiO2 
 PCOD8176750
Probable space group: C C C 2
;
_chemical_formula_sum "Si O2"
_cell_formula_units_Z 64
_cell_length_a 8.642833
_cell_length_b 22.282311
_cell_length_c 15.600094
_cell_angle_alpha 90.000000
_cell_angle_beta 90.000000
_cell_angle_gamma 90.000000
_cell_volume 3004.301871
_symmetry_space_group_name_H-M "C C C 2"
_symmetry_group_IT_number 37
_symmetry_cell_setting 'orthorhombic'
loop_
_space_group_symop_operation_xyz
x,y,z
-x,-y,z
-x,y,1/2+z
x,-y,1/2+z
1/2+x,1/2+y,z
1/2-x,1/2-y,z
1/2-x,1/2+y,1/2+z
1/2+x,1/2-y,1/2+z
loop_
_atom_site_type_symbol
_atom_site_label
_atom_site_fract_x
_atom_site_fract_y
_atom_site_fract_z
Si Si1 0.286095 0.454277 0.123280
Si Si2 0.072315 0.271425 0.709408
Si Si3 0.579190 0.911450 0.459180
Si Si4 0.078560 0.849717 0.707969
Si Si5 0.229503 0.469688 0.934799
Si Si6 0.666688 0.808934 0.339789
Si Si7 0.678307 0.559153 0.753264
Si Si8 0.454686 0.100035 0.647813
O O1 0.373513 0.390724 0.128059
O O2 0.358624 0.502496 0.190755
O O3 0.109432 0.439917 0.150393
O O4 0.316498 0.476419 0.026152
O O5 0.250000 0.250000 0.717779
O O6 0.034693 0.327321 0.646814
O O7 0.974136 0.215112 0.673658
O O8 0.000594 0.290709 0.801137
O O9 0.393780 0.915801 0.448381
O O10 0.640934 0.849808 0.421813
O O11 0.629409 0.916510 0.558827
O O12 0.651554 0.967415 0.409891
O O13 0.225882 0.843462 0.771050
O O14 0.934992 0.884185 0.750277
O O15 0.337618 0.457689 0.853389
O O16 0.750000 0.750000 0.375165
O O17 0.850909 0.581317 0.729102
#
# Coordination Sequence:
#
# PCOD8176750 Si02
#       8
#     8   8   8   8   8   8   8   8
#     4  11  23  43  62  98 134 173 214 272 330 393
#     4  11  22  41  68  93 119 174 225 267 320 386
#     4  10  21  40  62 100 123 166 217 267 323 385
#     4  11  24  41  64  94 133 171 219 258 335 391
#     4  10  23  38  66  97 133 166 217 263 329 387
#     4  10  22  42  66  90 129 169 213 270 327 390
#     4  12  23  41  65 100 130 177 212 269 326 393
#     4  11  22  40  69  91 130 167 224 271 320 387
#
# _framework density 21.302786000000001
#
# number of rings (size 3 to 8) (size 9 to 14) (size 15 to 20)
#    0.000    1.250    3.750    2.250    3.500    0.500 
#    2.250    2.500    0.000    0.000    0.000    0.000 
#    0.000    0.000    0.000    0.000    0.000    0.000 
#
# Total GULP energy -396560.951541 kJ/mol
# GULP energy per Si atom -12392.529736 kJ/mol
# Density = 2.125430 g / cm^3
# Si number density = 21.302786 Si / 1000 Ang^3
#
#
#
# Elastic Constant Matrix: (Units=GPa)
#
#
# Indices 1 2 3 4 5 6 
#
# 1 59.4551 9.4469 16.9822 0.0000 0.0000 0.0000
# 2 9.4469 118.1442 31.7919 0.0000 0.0000 0.0000
# 3 16.9822 31.7919 104.8185 0.0000 0.0000 0.0000
# 4 0.0000 0.0000 0.0000 35.9982 0.0000 0.0000
# 5 0.0000 0.0000 0.0000 0.0000 12.4062 0.0000
# 6 0.0000 0.0000 0.0000 0.0000 0.0000 39.8201
#
#
#
# Elastic Compliance Matrix: (Units=1/GPa)
#
#
# Indices 1 2 3 4 5 6 
#
# 1 0.017689 -0.000700 -0.002653 0.000000 0.000000 0.000000
# 2 -0.000700 0.009244 -0.002690 0.000000 0.000000 0.000000
# 3 -0.002653 -0.002690 0.010786 0.000000 0.000000 0.000000
# 4 0.000000 0.000000 0.000000 0.027779 0.000000 0.000000
# 5 0.000000 0.000000 0.000000 0.000000 0.080605 0.000000
# 6 0.000000 0.000000 0.000000 0.000000 0.000000 0.025113
#
#
# Mechanical properties :
#
#
# Convention : Reuss Voigt Hill
#
# Bulk Modulus (GPa) = 39.01562 44.31774 41.66668
# Shear Modulus (GPa) = 26.06231 32.59135 29.32683
#
# Velocity S-wave (km/s) = 3.50154 3.91565 3.71437
# Velocity P-wave (km/s) = 5.89086 6.42588 6.16418
#
# Compressibility (1/GPa) = 0.02563076
#
# Stress axis : x y z
#
# Youngs Moduli (GPa) = 56.53357 108.17613 92.71119
#
# Poissons Ratio (x) = 0.07576 0.24600
# Poissons Ratio (y) = 0.03959 0.24942
# Poissons Ratio (z) = 0.15001 0.29103
#
# Static dielectric constant tensor:
#      x y z
#    x 3.874530 0.000000 0.000000 
#    y 0.000000 4.116140 0.000000 
#    z 0.000000 0.000000 3.565260 
# 
# 
# High freq. dielectric constant tensor:
#      x y z
#    x 1.834200 0.000000 0.000000 
#    y 0.000000 1.854740 0.000000 
#    z 0.000000 0.000000 1.810070 
# 
# From -- ./inp_files/11012.got.cif
#   From: 2010.03.12/outbox.cif.g09.slc.cpg/sg37_6_cif.got.tgz:11012.got - 2010.04.14 02:25:27.
