data_PCOD8176787
_publ_section_title
;
Structure prediction by ZEFSAII (Michael W. Deem and Ramdas Pophale) SiO2 
 PCOD8176787
Probable space group: C C C 2
;
_chemical_formula_sum "Si O2"
_cell_formula_units_Z 36
_cell_length_a 12.109023
_cell_length_b 9.156803
_cell_length_c 11.944624
_cell_angle_alpha 90.000000
_cell_angle_beta 90.000000
_cell_angle_gamma 90.000000
_cell_volume 1324.419170
_symmetry_space_group_name_H-M "C C C 2"
_symmetry_group_IT_number 37
_symmetry_cell_setting 'orthorhombic'
loop_
_space_group_symop_operation_xyz
x,y,z
-x,-y,z
-x,y,1/2+z
x,-y,1/2+z
1/2+x,1/2+y,z
1/2-x,1/2-y,z
1/2-x,1/2+y,1/2+z
1/2+x,1/2-y,1/2+z
loop_
_atom_site_type_symbol
_atom_site_label
_atom_site_fract_x
_atom_site_fract_y
_atom_site_fract_z
Si Si1 0.168859 0.086095 0.013530
Si Si2 0.908702 0.754395 0.813267
Si Si3 0.134650 0.223136 0.418774
Si Si4 0.000000 0.000000 0.175162
Si Si5 0.376242 0.943203 0.115233
O O1 0.074111 0.115717 0.105584
O O2 0.287649 0.067108 0.075806
O O3 0.164967 0.221687 0.925391
O O4 0.123444 0.946592 0.945959
O O5 0.911740 0.904883 0.743972
O O6 0.856498 0.619491 0.742245
O O7 0.035617 0.715541 0.843403
O O8 0.250000 0.250000 0.352536
O O9 0.141360 0.305975 0.536067
O O10 0.500000 0.000000 0.101902
#
# Coordination Sequence:
#
# PCOD8176787 Si02
#       5
#     8   8   8   4   8
#     4  11  22  46  74 112 149 203 278 329 370 494
#     4  12  22  44  77 109 147 216 265 318 412 466
#     4  10  21  42  70 106 154 198 260 329 384 480
#     4  12  20  40  78 110 138 196 282 324 360 482
#     4  11  27  48  67 113 170 199 254 344 411 472
#
# _framework density 27.181726000000001
#
# number of rings (size 3 to 8) (size 9 to 14) (size 15 to 20)
#    0.000    0.889    6.667    0.000    0.000    2.667 
#    8.000    2.222    0.000    0.000    0.000    0.000 
#    0.000    0.000    0.000    0.000    0.000    0.000 
#
# Total GULP energy -223099.078275 kJ/mol
# GULP energy per Si atom -12394.393238 kJ/mol
# Density = 2.711986 g / cm^3
# Si number density = 27.181726 Si / 1000 Ang^3
#
#
#
# Elastic Constant Matrix: (Units=GPa)
#
#
# Indices 1 2 3 4 5 6 
#
# 1 206.2918 48.7841 89.7424 0.0000 0.0000 0.0000
# 2 48.7841 34.4512 31.6286 0.0000 0.0000 0.0000
# 3 89.7424 31.6286 145.7289 0.0000 0.0000 0.0000
# 4 0.0000 0.0000 0.0000 29.4072 0.0000 0.0000
# 5 0.0000 0.0000 0.0000 0.0000 28.1158 0.0000
# 6 0.0000 0.0000 0.0000 0.0000 0.0000 42.3788
#
#
#
# Elastic Compliance Matrix: (Units=1/GPa)
#
#
# Indices 1 2 3 4 5 6 
#
# 1 0.008341 -0.008861 -0.003213 0.000000 0.000000 0.000000
# 2 -0.008861 0.045663 -0.004454 0.000000 0.000000 0.000000
# 3 -0.003213 -0.004454 0.009807 0.000000 0.000000 0.000000
# 4 0.000000 0.000000 0.000000 0.034005 0.000000 0.000000
# 5 0.000000 0.000000 0.000000 0.000000 0.035567 0.000000
# 6 0.000000 0.000000 0.000000 0.000000 0.000000 0.023597
#
#
# Mechanical properties :
#
#
# Convention : Reuss Voigt Hill
#
# Bulk Modulus (GPa) = 32.51493 80.75357 56.63425
# Shear Modulus (GPa) = 24.96407 34.40147 29.68277
#
# Velocity S-wave (km/s) = 3.03382 3.56140 3.30815
# Velocity P-wave (km/s) = 4.92546 6.83262 5.95587
#
# Compressibility (1/GPa) = 0.03075510
#
# Stress axis : x y z
#
# Youngs Moduli (GPa) = 119.89289 21.89968 101.96280
#
# Poissons Ratio (x) = 0.19405 0.32763
# Poissons Ratio (y) = 1.06235 0.45413
# Poissons Ratio (z) = 0.38525 0.09754
#
# Static dielectric constant tensor:
#      x y z
#    x 5.438050 0.000000 0.000000 
#    y 0.000000 4.622010 0.000000 
#    z 0.000000 0.000000 5.128990 
# 
# 
# High freq. dielectric constant tensor:
#      x y z
#    x 2.119960 0.000000 0.000000 
#    y 0.000000 2.069090 0.000000 
#    z 0.000000 0.000000 2.091310 
# 
# From -- ./inp_files/6879.got.cif
#   From: 2010.03.12/outbox.cif.g09.slc.cpg/sg37_4_cif.got.tgz:6879.got - 2010.04.14 02:25:27.
