data_PCOD8176751
_publ_section_title
;
Structure prediction by ZEFSAII (Michael W. Deem and Ramdas Pophale) SiO2 
 PCOD8176751
Probable space group: C C C 2
;
_chemical_formula_sum "Si O2"
_cell_formula_units_Z 60
_cell_length_a 18.152584
_cell_length_b 8.967131
_cell_length_c 18.983633
_cell_angle_alpha 90.000000
_cell_angle_beta 90.000000
_cell_angle_gamma 90.000000
_cell_volume 3090.091211
_symmetry_space_group_name_H-M "C C C 2"
_symmetry_group_IT_number 37
_symmetry_cell_setting 'orthorhombic'
loop_
_space_group_symop_operation_xyz
x,y,z
-x,-y,z
-x,y,1/2+z
x,-y,1/2+z
1/2+x,1/2+y,z
1/2-x,1/2-y,z
1/2-x,1/2+y,1/2+z
1/2+x,1/2-y,1/2+z
loop_
_atom_site_type_symbol
_atom_site_label
_atom_site_fract_x
_atom_site_fract_y
_atom_site_fract_z
Si Si1 0.391430 0.602503 0.661750
Si Si2 0.968336 0.743302 0.435482
Si Si3 0.245353 0.578687 0.175037
Si Si4 0.524462 0.241151 0.780194
Si Si5 0.117976 0.442368 0.785827
Si Si6 0.317252 0.151420 0.075828
Si Si7 0.000000 0.000000 0.046031
Si Si8 0.893230 0.459890 0.439672
O O1 0.324731 0.498923 0.690491
O O2 0.451079 0.634279 0.723173
O O3 0.363357 0.763375 0.635704
O O4 0.428983 0.523571 0.594747
O O5 0.962582 0.816736 0.357445
O O6 0.897766 0.639011 0.454456
O O7 0.029390 0.618101 0.427300
O O8 0.982510 0.860358 0.496660
O O9 0.250000 0.750000 0.154652
O O10 0.192436 0.562987 0.241688
O O11 0.208789 0.504574 0.107109
O O12 0.438906 0.193324 0.767109
O O13 0.576107 0.097086 0.773293
O O14 0.148845 0.433055 0.865863
O O15 0.250000 0.250000 0.050825
O O16 0.360187 0.124756 0.005028
#
# Coordination Sequence:
#
# PCOD8176751 Si02
#       8
#     8   8   8   8   8   8   4   8
#     4  11  24  40  62  89 126 165 206 248 319 368
#     4   9  20  37  62  89 126 147 203 253 310 353
#     4  11  25  41  58  89 125 162 203 263 297 371
#     4   9  19  40  65  94 115 163 200 259 304 378
#     4   9  19  38  67  90 121 152 213 246 307 369
#     4  10  21  40  62  81 121 163 197 245 305 365
#     4  12  24  38  58  98 122 158 208 258 304 374
#     4   9  18  39  64  89 112 164 196 247 304 378
#
# _framework density 19.416903999999999
#
# number of rings (size 3 to 8) (size 9 to 14) (size 15 to 20)
#    0.000    2.133    2.667    1.600    3.733    1.067 
#    2.400    2.667    0.000    0.000    0.000    0.000 
#    0.000    0.000    0.000    0.000    0.000    0.000 
#
# Total GULP energy -371762.179665 kJ/mol
# GULP energy per Si atom -12392.072655 kJ/mol
# Density = 1.937271 g / cm^3
# Si number density = 19.416904 Si / 1000 Ang^3
#
#
#
# Elastic Constant Matrix: (Units=GPa)
#
#
# Indices 1 2 3 4 5 6 
#
# 1 83.7157 36.5054 47.8061 0.0000 0.0000 0.0000
# 2 36.5054 96.6205 53.6761 0.0000 0.0000 0.0000
# 3 47.8061 53.6761 113.0214 0.0000 0.0000 0.0000
# 4 0.0000 0.0000 0.0000 1835.3631 0.0000 0.0000
# 5 0.0000 0.0000 0.0000 0.0000 -1.8724 0.0000
# 6 0.0000 0.0000 0.0000 0.0000 0.0000 10.3775
#
#
#
# Elastic Compliance Matrix: (Units=1/GPa)
#
#
# Indices 1 2 3 4 5 6 
#
# 1 0.016443 -0.003190 -0.005440 0.000000 0.000000 0.000000
# 2 -0.003190 0.014678 -0.005621 0.000000 0.000000 0.000000
# 3 -0.005440 -0.005621 0.013819 0.000000 0.000000 0.000000
# 4 0.000000 0.000000 0.000000 0.000545 0.000000 0.000000
# 5 0.000000 0.000000 0.000000 0.000000 -0.534079 0.000000
# 6 0.000000 0.000000 0.000000 0.000000 0.000000 0.096362
#
#
# Mechanical properties :
#
#
# Convention : Reuss Voigt Hill
#
# Bulk Modulus (GPa) = 60.84166 63.25920 62.05043
# Shear Modulus (GPa) = -13.95675 379.13163 182.58744
#
# Velocity S-wave (km/s) = -2.68394 13.98865 9.70770
# Velocity P-wave (km/s) = 4.66880 17.13360 12.55703
#
# Compressibility (1/GPa) = 0.01643611
#
# Stress axis : x y z
#
# Youngs Moduli (GPa) = 60.81659 68.12871 72.36643
#
# Poissons Ratio (x) = 0.21736 0.39366
# Poissons Ratio (y) = 0.19403 0.40680
# Poissons Ratio (z) = 0.33083 0.38298
#
# Static dielectric constant tensor:
#      x y z
#    x 3.610810 0.000000 0.000000 
#    y 0.000000 3.246150 0.000000 
#    z 0.000000 0.000000 3.619070 
# 
# 
# High freq. dielectric constant tensor:
#      x y z
#    x 1.740720 0.000000 0.000000 
#    y 0.000000 1.756250 0.000000 
#    z 0.000000 0.000000 1.764400 
# 
# From -- ./inp_files/14693.got.cif
#   From: 2010.03.12/outbox.cif.g09.slc.cpg/sg37_8_cif.got.tgz:14693.got - 2010.04.14 02:25:27.
