data_PCOD8176036
_publ_section_title
;
Structure prediction by ZEFSAII (Michael W. Deem and Ramdas Pophale) SiO2 
 PCOD8176036
Probable space group: C M C 21
;
_chemical_formula_sum "Si O2"
_cell_formula_units_Z 64
_cell_length_a 8.834655
_cell_length_b 15.306248
_cell_length_c 23.602012
_cell_angle_alpha 90.000000
_cell_angle_beta 90.000000
_cell_angle_gamma 90.000000
_cell_volume 3191.591996
_symmetry_space_group_name_H-M "C M C 21"
_symmetry_group_IT_number 36
_symmetry_cell_setting 'orthorhombic'
loop_
_space_group_symop_operation_xyz
x,y,z
-x,-y,1/2+z
x,-y,1/2+z
-x,y,z
1/2+x,1/2+y,z
1/2-x,1/2-y,1/2+z
1/2+x,1/2-y,1/2+z
1/2-x,1/2+y,z
loop_
_atom_site_type_symbol
_atom_site_label
_atom_site_fract_x
_atom_site_fract_y
_atom_site_fract_z
Si Si1 0.322428 0.660859 0.704510
Si Si2 0.675397 0.898500 0.093915
Si Si3 0.174163 0.594382 0.080371
Si Si4 0.676375 0.090596 0.814377
Si Si5 0.324993 0.653126 0.193783
Si Si6 0.325539 0.583945 0.316598
Si Si7 0.824064 0.752220 0.891646
Si Si8 0.677848 0.743953 0.011641
O O1 0.500000 0.680701 0.704293
O O2 0.278465 0.604651 0.649641
O O3 0.279166 0.605711 0.759523
O O4 0.228325 0.749323 0.705238
O O5 0.500000 0.884520 0.110678
O O6 0.732729 0.823688 0.051163
O O7 0.698505 0.992778 0.064541
O O8 0.231480 0.609853 0.143715
O O9 0.259278 0.652356 0.034220
O O10 0.000000 0.621383 0.078149
O O11 0.500000 0.095540 0.797994
O O12 0.716479 0.160505 0.862556
O O13 0.720743 0.995313 0.838301
O O14 0.500000 0.656327 0.176035
O O15 0.298958 0.596624 0.249831
O O16 0.500000 0.562436 0.329544
O O17 0.274407 0.670939 0.349246
O O18 0.000000 0.757474 0.906591
O O19 0.731241 0.762661 0.948639
O O20 0.500000 0.737463 0.011943
#
# Coordination Sequence:
#
# PCOD8176036 Si02
#       8
#     8   8   8   8   8   8   8   8
#     4  12  23  36  62  95 125 161 204 248 301 367
#     4  10  23  42  63  89 126 162 199 249 308 366
#     4  11  23  40  63  93 124 161 204 248 302 366
#     4  11  23  41  64  91 125 164 201 249 310 364
#     4  11  21  38  62  90 128 164 197 245 307 365
#     4  10  22  41  64  92 125 162 203 250 304 364
#     4  10  23  44  64  85 121 164 205 255 308 360
#     4  11  24  42  64  89 120 162 207 258 308 358
#
# _framework density 20.052689000000001
#
# number of rings (size 3 to 8) (size 9 to 14) (size 15 to 20)
#    0.000    1.250    2.500    3.375    0.000    7.000 
#    0.000    3.750    0.000    0.000    0.000    0.000 
#    0.000    0.000    0.000    0.000    0.000    0.000 
#
# Total GULP energy -396994.092929 kJ/mol
# GULP energy per Si atom -12406.065404 kJ/mol
# Density = 2.000705 g / cm^3
# Si number density = 20.052689 Si / 1000 Ang^3
#
#
#
# Elastic Constant Matrix: (Units=GPa)
#
#
# Indices 1 2 3 4 5 6 
#
# 1 41.6449 22.7903 35.3432 0.0000 0.0000 0.0000
# 2 22.7903 106.8771 14.8786 0.0000 0.0000 0.0000
# 3 35.3432 14.8786 83.4476 0.0000 0.0000 0.0000
# 4 0.0000 0.0000 0.0000 15.4209 0.0000 0.0000
# 5 0.0000 0.0000 0.0000 0.0000 36.5087 0.0000
# 6 0.0000 0.0000 0.0000 0.0000 0.0000 34.7255
#
#
#
# Elastic Compliance Matrix: (Units=1/GPa)
#
#
# Indices 1 2 3 4 5 6 
#
# 1 0.041550 -0.006573 -0.016426 0.000000 0.000000 0.000000
# 2 -0.006573 0.010635 0.000888 0.000000 0.000000 0.000000
# 3 -0.016426 0.000888 0.018782 0.000000 0.000000 0.000000
# 4 0.000000 0.000000 0.000000 0.064847 0.000000 0.000000
# 5 0.000000 0.000000 0.000000 0.000000 0.027391 0.000000
# 6 0.000000 0.000000 0.000000 0.000000 0.000000 0.028797
#
#
# Mechanical properties :
#
#
# Convention : Reuss Voigt Hill
#
# Bulk Modulus (GPa) = 37.39132 41.99931 39.69531
# Shear Modulus (GPa) = 20.39646 27.92816 24.16231
#
# Velocity S-wave (km/s) = 3.19273 3.73599 3.47499
# Velocity P-wave (km/s) = 5.68141 6.29286 5.99493
#
# Compressibility (1/GPa) = 0.02674418
#
# Stress axis : x y z
#
# Youngs Moduli (GPa) = 24.06716 94.03245 53.24149
#
# Poissons Ratio (x) = 0.61811 0.87455
# Poissons Ratio (y) = 0.15820 -0.04728
# Poissons Ratio (z) = 0.39533 -0.08349
#
# Static dielectric constant tensor:
#      x y z
#    x 3.624000 0.000000 0.000000 
#    y 0.000000 3.839350 0.000000 
#    z 0.000000 0.000000 3.563670 
# 
# 
# High freq. dielectric constant tensor:
#      x y z
#    x 1.785670 0.000000 0.000000 
#    y 0.000000 1.798990 0.000000 
#    z 0.000000 0.000000 1.775480 
# 
# From -- ./inp_files/16583.got.cif
#   From: 2010.03.12/outbox.cif.g09.slc.cpg/sg36_9_cif.got.tgz:16583.got - 2010.04.14 02:13:53.
