data_PCOD8176257
_publ_section_title
;
Structure prediction by ZEFSAII (Michael W. Deem and Ramdas Pophale) SiO2 
 PCOD8176257
Probable space group: C M C 21
;
_chemical_formula_sum "Si O2"
_cell_formula_units_Z 40
_cell_length_a 7.653732
_cell_length_b 28.154775
_cell_length_c 8.555776
_cell_angle_alpha 90.000000
_cell_angle_beta 90.000000
_cell_angle_gamma 90.000000
_cell_volume 1843.676490
_symmetry_space_group_name_H-M "C M C 21"
_symmetry_group_IT_number 36
_symmetry_cell_setting 'orthorhombic'
loop_
_space_group_symop_operation_xyz
x,y,z
-x,-y,1/2+z
x,-y,1/2+z
-x,y,z
1/2+x,1/2+y,z
1/2-x,1/2-y,1/2+z
1/2+x,1/2-y,1/2+z
1/2-x,1/2+y,z
loop_
_atom_site_type_symbol
_atom_site_label
_atom_site_fract_x
_atom_site_fract_y
_atom_site_fract_z
Si Si1 0.301127 0.811234 0.274500
Si Si2 0.706970 0.216379 0.117676
Si Si3 0.195583 0.903230 0.110673
Si Si4 0.500000 0.936855 0.614423
Si Si5 0.300676 0.621142 0.259848
Si Si6 0.000000 0.462926 0.255578
O O1 0.500000 0.829038 0.285949
O O2 0.228447 0.796950 0.444165
O O3 0.289302 0.766892 0.158313
O O4 0.190264 0.855065 0.210774
O O5 0.500000 0.219760 0.127817
O O6 0.780055 0.177611 0.238707
O O7 0.325586 0.941975 0.179607
O O8 0.000000 0.924763 0.112695
O O9 0.256066 0.891250 0.935383
O O10 0.326756 0.905466 0.639527
O O11 0.500000 0.954513 0.438712
O O12 0.500000 0.980765 0.732658
O O13 0.500000 0.605627 0.226343
#
# Coordination Sequence:
#
# PCOD8176257 Si02
#       6
#     8   8   8   4   8   4
#     4  11  23  38  59  91 130 175 223 271 326 388
#     4  11  23  38  59  91 130 175 223 271 326 388
#     4  11  24  43  68  98 133 173 219 272 330 393
#     4  12  26  46  72 100 132 174 220 274 335 394
#     4  11  24  43  68  98 133 173 219 272 330 393
#     4  12  26  46  72 100 132 174 220 274 335 394
#
# _framework density 21.695781
#
# number of rings (size 3 to 8) (size 9 to 14) (size 15 to 20)
#    0.000    0.800    2.000    5.400    0.000   11.200 
#    0.000    0.000    0.000    0.000    0.000    0.000 
#    0.000    0.000    0.000    0.000    0.000    0.000 
#
# Total GULP energy -248164.439739 kJ/mol
# GULP energy per Si atom -12408.221987 kJ/mol
# Density = 2.164640 g / cm^3
# Si number density = 21.695781 Si / 1000 Ang^3
#
#
#
# Elastic Constant Matrix: (Units=GPa)
#
#
# Indices 1 2 3 4 5 6 
#
# 1 95.2912 17.1426 17.0839 0.0000 0.0000 0.0000
# 2 17.1426 77.1653 -16.6197 0.0000 0.0000 0.0000
# 3 17.0839 -16.6197 71.7406 0.0000 0.0000 0.0000
# 4 0.0000 0.0000 0.0000 41.7978 0.0000 0.0000
# 5 0.0000 0.0000 0.0000 0.0000 26.9644 0.0000
# 6 0.0000 0.0000 0.0000 0.0000 0.0000 6.8648
#
#
#
# Elastic Compliance Matrix: (Units=1/GPa)
#
#
# Indices 1 2 3 4 5 6 
#
# 1 0.011744 -0.003380 -0.003580 0.000000 0.000000 0.000000
# 2 -0.003380 0.014613 0.004190 0.000000 0.000000 0.000000
# 3 -0.003580 0.004190 0.015762 0.000000 0.000000 0.000000
# 4 0.000000 0.000000 0.000000 0.023925 0.000000 0.000000
# 5 0.000000 0.000000 0.000000 0.000000 0.037086 0.000000
# 6 0.000000 0.000000 0.000000 0.000000 0.000000 0.145671
#
#
# Mechanical properties :
#
#
# Convention : Reuss Voigt Hill
#
# Bulk Modulus (GPa) = 27.33761 31.04565 29.19163
# Shear Modulus (GPa) = 18.75940 30.23140 24.49540
#
# Velocity S-wave (km/s) = 2.94369 3.73691 3.36376
# Velocity P-wave (km/s) = 4.91748 5.74107 5.34516
#
# Compressibility (1/GPa) = 0.03657964
#
# Stress axis : x y z
#
# Youngs Moduli (GPa) = 85.15014 68.43448 63.44272
#
# Poissons Ratio (x) = 0.23131 0.22710
# Poissons Ratio (y) = 0.28780 -0.26583
# Poissons Ratio (z) = 0.30481 -0.28675
#
# Static dielectric constant tensor:
#      x y z
#    x 3.913040 0.000000 0.000000 
#    y 0.000000 3.827230 0.000000 
#    z 0.000000 0.000000 4.033790 
# 
# 
# High freq. dielectric constant tensor:
#      x y z
#    x 1.862240 0.000000 0.000000 
#    y 0.000000 1.848020 0.000000 
#    z 0.000000 0.000000 1.864440 
# 
# From -- ./inp_files/2541.got.cif
#   From: 2010.03.12/outbox.cif.g09.slc.cpg/sg36_2_cif.got.tgz:2541.got - 2010.04.14 02:13:53.
