data_PCOD8176692
_publ_section_title
;
Structure prediction by ZEFSAII (Michael W. Deem and Ramdas Pophale) SiO2 
 PCOD8176692
Probable space group: C C C 2
;
_chemical_formula_sum "Si O2"
_cell_formula_units_Z 64
_cell_length_a 11.952596
_cell_length_b 27.364401
_cell_length_c 8.778231
_cell_angle_alpha 90.000000
_cell_angle_beta 90.000000
_cell_angle_gamma 90.000000
_cell_volume 2871.145434
_symmetry_space_group_name_H-M "C C C 2"
_symmetry_group_IT_number 37
_symmetry_cell_setting 'orthorhombic'
loop_
_space_group_symop_operation_xyz
x,y,z
-x,-y,z
-x,y,1/2+z
x,-y,1/2+z
1/2+x,1/2+y,z
1/2-x,1/2-y,z
1/2-x,1/2+y,1/2+z
1/2+x,1/2-y,1/2+z
loop_
_atom_site_type_symbol
_atom_site_label
_atom_site_fract_x
_atom_site_fract_y
_atom_site_fract_z
Si Si1 0.147760 0.426629 0.154540
Si Si2 0.341087 0.707286 0.225801
Si Si3 0.848841 0.635069 0.688153
Si Si4 0.985598 0.174502 0.961482
Si Si5 0.117737 0.885882 0.699957
Si Si6 0.018150 0.617044 0.918117
Si Si7 0.756493 0.531942 0.673503
Si Si8 0.112187 0.022048 0.394362
O O1 0.253643 0.389365 0.145491
O O2 0.092809 0.419933 0.319903
O O3 0.177641 0.482881 0.133218
O O4 0.061471 0.414796 0.023654
O O5 0.250000 0.750000 0.233414
O O6 0.272808 0.656828 0.216495
O O7 0.417514 0.706028 0.377276
O O8 0.418449 0.710886 0.074811
O O9 0.898284 0.649673 0.522350
O O10 0.841374 0.576197 0.703869
O O11 0.941114 0.652380 0.812943
O O12 0.899884 0.152905 0.836882
O O13 0.040582 0.129899 0.057420
O O14 0.083683 0.939569 0.760023
O O15 0.680400 0.547722 0.529478
O O16 0.681920 0.523132 0.823495
O O17 0.000000 0.000000 0.465397
#
# Coordination Sequence:
#
# PCOD8176692 Si02
#       8
#     8   8   8   8   8   8   8   8
#     4  10  21  37  54  88 124 167 217 259 298 355
#     4  11  25  46  71  98 128 157 204 266 323 397
#     4  11  23  40  60  88 123 162 212 264 316 374
#     4  10  23  43  71  96 126 173 203 249 332 389
#     4  10  22  39  63  92 131 169 211 253 308 385
#     4  10  22  37  61  85 120 170 214 260 311 358
#     4  11  23  37  53  82 127 170 216 270 307 364
#     4  11  24  33  54  87 127 171 218 257 305 358
#
# _framework density 22.290755999999998
#
# number of rings (size 3 to 8) (size 9 to 14) (size 15 to 20)
#    0.000    1.500    0.000    4.875    8.750    4.000 
#    0.000    2.500    0.000    0.000    0.000    0.000 
#    0.000    0.000    0.000    0.000    0.000    0.000 
#
# Total GULP energy -396787.079431 kJ/mol
# GULP energy per Si atom -12399.596232 kJ/mol
# Density = 2.224002 g / cm^3
# Si number density = 22.290756 Si / 1000 Ang^3
#
#
#
# Elastic Constant Matrix: (Units=GPa)
#
#
# Indices 1 2 3 4 5 6 
#
# 1 107.3188 35.0703 32.8984 0.0000 0.0000 0.0000
# 2 35.0703 61.6829 25.9337 0.0000 0.0000 0.0000
# 3 32.8984 25.9337 101.1239 0.0000 0.0000 0.0000
# 4 0.0000 0.0000 0.0000 16.7767 0.0000 0.0000
# 5 0.0000 0.0000 0.0000 0.0000 39.6817 0.0000
# 6 0.0000 0.0000 0.0000 0.0000 0.0000 26.2761
#
#
#
# Elastic Compliance Matrix: (Units=1/GPa)
#
#
# Indices 1 2 3 4 5 6 
#
# 1 0.011944 -0.005780 -0.002403 0.000000 0.000000 0.000000
# 2 -0.005780 0.020969 -0.003497 0.000000 0.000000 0.000000
# 3 -0.002403 -0.003497 0.011568 0.000000 0.000000 0.000000
# 4 0.000000 0.000000 0.000000 0.059606 0.000000 0.000000
# 5 0.000000 0.000000 0.000000 0.000000 0.025201 0.000000
# 6 0.000000 0.000000 0.000000 0.000000 0.000000 0.038057
#
#
# Mechanical properties :
#
#
# Convention : Reuss Voigt Hill
#
# Bulk Modulus (GPa) = 47.35121 50.88116 49.11618
# Shear Modulus (GPa) = 25.28514 28.29512 26.79013
#
# Velocity S-wave (km/s) = 3.37164 3.56668 3.47053
# Velocity P-wave (km/s) = 6.03705 6.31168 6.17589
#
# Compressibility (1/GPa) = 0.02111878
#
# Stress axis : x y z
#
# Youngs Moduli (GPa) = 83.72653 47.69029 86.44892
#
# Poissons Ratio (x) = 0.27566 0.20776
# Poissons Ratio (y) = 0.48396 0.30231
# Poissons Ratio (z) = 0.20121 0.16677
#
# Static dielectric constant tensor:
#      x y z
#    x 4.334150 0.000000 0.000000 
#    y 0.000000 3.426590 0.000000 
#    z 0.000000 0.000000 4.380120 
# 
# 
# High freq. dielectric constant tensor:
#      x y z
#    x 1.898200 0.000000 0.000000 
#    y 0.000000 1.825620 0.000000 
#    z 0.000000 0.000000 1.897910 
# 
# From -- ./inp_files/3126.got.cif
#   From: 2010.03.12/outbox.cif.g09.slc.cpg/sg37_2_cif.got.tgz:3126.got - 2010.04.14 02:25:27.
