data_PCOD8176623
_publ_section_title
;
Structure prediction by ZEFSAII (Michael W. Deem and Ramdas Pophale) SiO2 
 PCOD8176623
Probable space group: C C C 2
;
_chemical_formula_sum "Si O2"
_cell_formula_units_Z 60
_cell_length_a 23.597476
_cell_length_b 9.027629
_cell_length_c 12.928402
_cell_angle_alpha 90.000000
_cell_angle_beta 90.000000
_cell_angle_gamma 90.000000
_cell_volume 2754.127894
_symmetry_space_group_name_H-M "C C C 2"
_symmetry_group_IT_number 37
_symmetry_cell_setting 'orthorhombic'
loop_
_space_group_symop_operation_xyz
x,y,z
-x,-y,z
-x,y,1/2+z
x,-y,1/2+z
1/2+x,1/2+y,z
1/2-x,1/2-y,z
1/2-x,1/2+y,1/2+z
1/2+x,1/2-y,1/2+z
loop_
_atom_site_type_symbol
_atom_site_label
_atom_site_fract_x
_atom_site_fract_y
_atom_site_fract_z
Si Si1 0.146972 0.803343 0.000000
Si Si2 0.228322 0.995841 0.876713
Si Si3 0.642513 0.515149 0.693256
Si Si4 0.642245 0.995151 0.908975
Si Si5 0.363139 0.790314 0.583611
Si Si6 0.054145 0.598139 0.749028
Si Si7 0.250000 0.750000 0.524144
Si Si8 0.445443 0.588692 0.847843
O O1 0.203942 0.853201 0.938649
O O2 0.139961 0.627249 0.993016
O O3 0.093209 0.883148 0.947238
O O4 0.147696 0.839071 0.122449
O O5 0.198346 0.004159 0.764663
O O6 0.295849 0.993771 0.855875
O O7 0.215383 0.135981 0.950805
O O8 0.634477 0.382297 0.610895
O O9 0.587414 0.515575 0.765949
O O10 0.592911 0.008576 0.827104
O O11 0.627948 0.837916 0.963641
O O12 0.407699 0.883603 0.647963
O O13 0.295905 0.832768 0.598154
O O14 0.036313 0.756798 0.794817
O O15 0.000000 0.500000 0.719985
O O16 0.500000 0.500000 0.886686
#
# Coordination Sequence:
#
# PCOD8176623 Si02
#       8
#     8   8   8   8   8   8   4   8
#     4  10  20  39  61  91 123 161 208 262 312 380
#     4  10  21  39  61  91 131 160 208 256 327 385
#     4  10  21  39  65  88 122 162 207 265 319 380
#     4  10  23  40  61  90 128 166 208 255 321 377
#     4  10  22  40  64  92 124 167 213 256 324 380
#     4  10  23  42  62  91 126 170 217 260 313 377
#     4  10  20  40  62  96 128 166 208 260 324 396
#     4   9  21  40  61  87 121 165 211 262 318 367
#
# _framework density 21.785481000000001
#
# number of rings (size 3 to 8) (size 9 to 14) (size 15 to 20)
#    0.000    2.133    1.333    1.200    1.867    3.200 
#    9.600    5.333    0.000    0.000    0.000    0.000 
#    0.000    0.000    0.000    0.000    0.000    0.000 
#
# Total GULP energy -371677.748168 kJ/mol
# GULP energy per Si atom -12389.258272 kJ/mol
# Density = 2.173590 g / cm^3
# Si number density = 21.785481 Si / 1000 Ang^3
#
#
#
# Elastic Constant Matrix: (Units=GPa)
#
#
# Indices 1 2 3 4 5 6 
#
# 1 138.5632 45.1624 47.0859 0.0000 0.0000 0.0000
# 2 45.1624 43.3100 8.7323 0.0000 0.0000 0.0000
# 3 47.0859 8.7323 47.2467 0.0000 0.0000 0.0000
# 4 0.0000 0.0000 0.0000 26.6598 0.0000 0.0000
# 5 0.0000 0.0000 0.0000 0.0000 21.6506 0.0000
# 6 0.0000 0.0000 0.0000 0.0000 0.0000 38.9938
#
#
#
# Elastic Compliance Matrix: (Units=1/GPa)
#
#
# Indices 1 2 3 4 5 6 
#
# 1 0.016735 -0.014633 -0.013973 0.000000 0.000000 0.000000
# 2 -0.014633 0.036778 0.007786 0.000000 0.000000 0.000000
# 3 -0.013973 0.007786 0.033652 0.000000 0.000000 0.000000
# 4 0.000000 0.000000 0.000000 0.037510 0.000000 0.000000
# 5 0.000000 0.000000 0.000000 0.000000 0.046188 0.000000
# 6 0.000000 0.000000 0.000000 0.000000 0.000000 0.025645
#
#
# Mechanical properties :
#
#
# Convention : Reuss Voigt Hill
#
# Bulk Modulus (GPa) = 21.96630 47.89789 34.93209
# Shear Modulus (GPa) = 19.73760 26.00347 22.87053
#
# Velocity S-wave (km/s) = 3.01325 3.45862 3.24359
# Velocity P-wave (km/s) = 4.71286 6.16306 5.48609
#
# Compressibility (1/GPa) = 0.04552429
#
# Stress axis : x y z
#
# Youngs Moduli (GPa) = 59.75647 27.18984 29.71584
#
# Poissons Ratio (x) = 0.39787 0.41522
# Poissons Ratio (y) = 0.87442 -0.23136
# Poissons Ratio (z) = 0.83498 -0.21169
#
# Static dielectric constant tensor:
#      x y z
#    x 3.951100 0.000000 0.000000 
#    y 0.000000 3.882920 0.000000 
#    z 0.000000 0.000000 3.785620 
# 
# 
# High freq. dielectric constant tensor:
#      x y z
#    x 1.858430 0.000000 0.000000 
#    y 0.000000 1.851700 0.000000 
#    z 0.000000 0.000000 1.844210 
# 
# From -- ./inp_files/13152.got.cif
#   From: 2010.03.12/outbox.cif.g09.slc.cpg/sg37_7_cif.got.tgz:13152.got - 2010.04.14 02:25:27.
