data_PCOD8176192
_publ_section_title
;
Structure prediction by ZEFSAII (Michael W. Deem and Ramdas Pophale) SiO2 
 PCOD8176192
Probable space group: C M C 21
;
_chemical_formula_sum "Si O2"
_cell_formula_units_Z 64
_cell_length_a 8.882521
_cell_length_b 20.264922
_cell_length_c 19.139936
_cell_angle_alpha 90.000000
_cell_angle_beta 90.000000
_cell_angle_gamma 90.000000
_cell_volume 3445.257292
_symmetry_space_group_name_H-M "C M C 21"
_symmetry_group_IT_number 36
_symmetry_cell_setting 'orthorhombic'
loop_
_space_group_symop_operation_xyz
x,y,z
-x,-y,1/2+z
x,-y,1/2+z
-x,y,z
1/2+x,1/2+y,z
1/2-x,1/2-y,1/2+z
1/2+x,1/2-y,1/2+z
1/2-x,1/2+y,z
loop_
_atom_site_type_symbol
_atom_site_label
_atom_site_fract_x
_atom_site_fract_y
_atom_site_fract_z
Si Si1 0.322737 0.194292 0.271160
Si Si2 0.173646 0.453105 0.268773
Si Si3 0.674037 0.486551 0.402308
Si Si4 0.677118 0.492062 0.555470
Si Si5 0.176516 0.926311 0.695026
Si Si6 0.322661 0.638844 0.562997
Si Si7 0.674512 0.814662 0.196148
Si Si8 0.172177 0.141758 0.404261
O O1 0.500000 0.196380 0.267196
O O2 0.265219 0.136967 0.220439
O O3 0.258707 0.263136 0.244867
O O4 0.274840 0.182913 0.351277
O O5 0.221699 0.445266 0.349574
O O6 0.280377 0.509170 0.237948
O O7 0.205462 0.385762 0.229055
O O8 0.000000 0.474483 0.263030
O O9 0.500000 0.466778 0.391635
O O10 0.733639 0.467339 0.479855
O O11 0.697162 0.564463 0.390715
O O12 0.500000 0.503136 0.549051
O O13 0.720429 0.438603 0.613956
O O14 0.741980 0.564505 0.574324
O O15 0.000000 0.913631 0.704827
O O16 0.500000 0.642913 0.577549
O O17 0.238316 0.686849 0.617153
O O18 0.285251 0.661142 0.483737
O O19 0.500000 0.796139 0.193891
O O20 0.000000 0.160466 0.388822
#
# Coordination Sequence:
#
# PCOD8176192 Si02
#       8
#     8   8   8   8   8   8   8   8
#     4  12  25  39  57  83 116 152 197 241 281 338
#     4  11  22  35  54  85 116 144 184 234 279 330
#     4   9  17  32  56  84 113 148 186 228 280 338
#     4   8  16  31  55  86 113 143 186 229 277 338
#     4  11  20  35  60  84 112 148 184 229 285 340
#     4   9  17  34  59  86 113 144 188 233 280 339
#     4  11  24  40  57  81 117 155 194 237 288 340
#     4   9  18  34  58  85 114 148 185 231 284 339
#
# _framework density 18.576262
#
# number of rings (size 3 to 8) (size 9 to 14) (size 15 to 20)
#    0.000    2.000    2.500    3.750    0.000    2.000 
#    0.000    4.375    0.000    3.000    0.000    0.000 
#    0.000    0.000    0.000    0.000    0.000    0.000 
#
# Total GULP energy -396803.229617 kJ/mol
# GULP energy per Si atom -12400.100926 kJ/mol
# Density = 1.853398 g / cm^3
# Si number density = 18.576262 Si / 1000 Ang^3
#
#
#
# Elastic Constant Matrix: (Units=GPa)
#
#
# Indices 1 2 3 4 5 6 
#
# 1 85.3836 28.6786 53.0809 0.0000 0.0000 0.0000
# 2 28.6786 36.3061 32.2065 0.0000 0.0000 0.0000
# 3 53.0809 32.2065 136.3829 0.0000 0.0000 0.0000
# 4 0.0000 0.0000 0.0000 22.1691 0.0000 0.0000
# 5 0.0000 0.0000 0.0000 0.0000 29.3142 0.0000
# 6 0.0000 0.0000 0.0000 0.0000 0.0000 26.4991
#
#
#
# Elastic Compliance Matrix: (Units=1/GPa)
#
#
# Indices 1 2 3 4 5 6 
#
# 1 0.017972 -0.010109 -0.004607 0.000000 0.000000 0.000000
# 2 -0.010109 0.040528 -0.005636 0.000000 0.000000 0.000000
# 3 -0.004607 -0.005636 0.010457 0.000000 0.000000 0.000000
# 4 0.000000 0.000000 0.000000 0.045108 0.000000 0.000000
# 5 0.000000 0.000000 0.000000 0.000000 0.034113 0.000000
# 6 0.000000 0.000000 0.000000 0.000000 0.000000 0.037737
#
#
# Mechanical properties :
#
#
# Convention : Reuss Voigt Hill
#
# Bulk Modulus (GPa) = 35.39634 54.00050 44.69842
# Shear Modulus (GPa) = 21.18314 25.20358 23.19336
#
# Velocity S-wave (km/s) = 3.38055 3.68742 3.53731
# Velocity P-wave (km/s) = 5.85947 6.87475 6.38732
#
# Compressibility (1/GPa) = 0.02825151
#
# Stress axis : x y z
#
# Youngs Moduli (GPa) = 55.64365 24.67405 95.63383
#
# Poissons Ratio (x) = 0.24942 0.44063
# Poissons Ratio (y) = 0.56248 0.53902
# Poissons Ratio (z) = 0.25638 0.13907
#
# Static dielectric constant tensor:
#      x y z
#    x 3.270390 0.000000 0.000000 
#    y 0.000000 3.188400 0.000000 
#    z 0.000000 0.000000 3.877770 
# 
# 
# High freq. dielectric constant tensor:
#      x y z
#    x 1.711360 0.000000 0.000000 
#    y 0.000000 1.689490 0.000000 
#    z 0.000000 0.000000 1.741320 
# 
# From -- ./inp_files/14058.got.cif
#   From: 2010.03.12/outbox.cif.g09.slc.cpg/sg36_8_cif.got.tgz:14058.got - 2010.04.14 02:13:53.
