data_PCOD8176473
_publ_section_title
;
Structure prediction by ZEFSAII (Michael W. Deem and Ramdas Pophale) SiO2 
 PCOD8176473
Probable space group: C C C 2
;
_chemical_formula_sum "Si O2"
_cell_formula_units_Z 52
_cell_length_a 11.738706
_cell_length_b 15.252740
_cell_length_c 15.705982
_cell_angle_alpha 90.000000
_cell_angle_beta 90.000000
_cell_angle_gamma 90.000000
_cell_volume 2812.115721
_symmetry_space_group_name_H-M "C C C 2"
_symmetry_group_IT_number 37
_symmetry_cell_setting 'orthorhombic'
loop_
_space_group_symop_operation_xyz
x,y,z
-x,-y,z
-x,y,1/2+z
x,-y,1/2+z
1/2+x,1/2+y,z
1/2-x,1/2-y,z
1/2-x,1/2+y,1/2+z
1/2+x,1/2-y,1/2+z
loop_
_atom_site_type_symbol
_atom_site_label
_atom_site_fract_x
_atom_site_fract_y
_atom_site_fract_z
Si Si1 0.132899 0.607119 0.948030
Si Si2 0.131767 0.406143 0.968817
Si Si3 0.267446 0.125562 0.631965
Si Si4 0.878736 0.545657 0.151505
Si Si5 0.405398 0.731416 0.224808
Si Si6 0.359138 0.800414 0.774220
Si Si7 0.750000 0.250000 0.374416
O O1 0.160067 0.503655 0.931722
O O2 0.164112 0.674656 0.872616
O O3 0.998600 0.619145 0.955838
O O4 0.203130 0.637572 0.031896
O O5 0.212212 0.333351 0.928707
O O6 0.155074 0.398862 0.069062
O O7 0.361383 0.176754 0.687660
O O8 0.138827 0.158171 0.656003
O O9 0.279655 0.026148 0.662865
O O10 0.881296 0.605241 0.233635
O O11 0.000000 0.500000 0.133699
O O12 0.539081 0.735358 0.245362
O O13 0.351361 0.712835 0.316578
O O14 0.250000 0.750000 0.738512
#
# Coordination Sequence:
#
# PCOD8176473 Si02
#       7
#     8   8   8   8   8   8   4
#     4  10  20  36  59  92 119 157 206 256 300 358
#     4  10  19  35  62  93 120 155 206 256 311 350
#     4   9  19  37  65  85 113 159 210 244 296 380
#     4  11  20  38  61  89 116 160 207 257 304 367
#     4  10  21  37  61  89 118 163 204 238 318 364
#     4  12  26  37  57  94 129 155 203 265 317 353
#     4  10  20  32  60  96 122 152 200 258 300 366
#
# _framework density 18.491415
#
# number of rings (size 3 to 8) (size 9 to 14) (size 15 to 20)
#    0.000    1.846    6.154    0.000    9.692    0.000 
#    0.000    0.769    0.000    0.000    0.000    0.000 
#    0.000    0.000    0.000    0.000    0.000    0.000 
#
# Total GULP energy -322124.700374 kJ/mol
# GULP energy per Si atom -12389.411553 kJ/mol
# Density = 1.844933 g / cm^3
# Si number density = 18.491415 Si / 1000 Ang^3
#
#
#
# Elastic Constant Matrix: (Units=GPa)
#
#
# Indices 1 2 3 4 5 6 
#
# 1 114.5321 53.9799 50.5571 0.0000 0.0000 0.0000
# 2 53.9799 87.4588 50.9757 0.0000 0.0000 0.0000
# 3 50.5571 50.9757 103.0259 0.0000 0.0000 0.0000
# 4 0.0000 0.0000 0.0000 30.0654 0.0000 0.0000
# 5 0.0000 0.0000 0.0000 0.0000 19.7671 0.0000
# 6 0.0000 0.0000 0.0000 0.0000 0.0000 19.7371
#
#
#
# Elastic Compliance Matrix: (Units=1/GPa)
#
#
# Indices 1 2 3 4 5 6 
#
# 1 0.013116 -0.006104 -0.003416 0.000000 0.000000 0.000000
# 2 -0.006104 0.018909 -0.006360 0.000000 0.000000 0.000000
# 3 -0.003416 -0.006360 0.014530 0.000000 0.000000 0.000000
# 4 0.000000 0.000000 0.000000 0.033261 0.000000 0.000000
# 5 0.000000 0.000000 0.000000 0.000000 0.050589 0.000000
# 6 0.000000 0.000000 0.000000 0.000000 0.000000 0.050666
#
#
# Mechanical properties :
#
#
# Convention : Reuss Voigt Hill
#
# Bulk Modulus (GPa) = 67.59848 68.44912 68.02380
# Shear Modulus (GPa) = 22.96082 23.88086 23.42084
#
# Velocity S-wave (km/s) = 3.52760 3.59758 3.56276
# Velocity P-wave (km/s) = 7.29575 7.37251 7.33423
#
# Compressibility (1/GPa) = 0.01479323
#
# Stress axis : x y z
#
# Youngs Moduli (GPa) = 76.24230 52.88610 68.82512
#
# Poissons Ratio (x) = 0.32283 0.23511
# Poissons Ratio (y) = 0.46540 0.43774
# Poissons Ratio (z) = 0.26045 0.33637
#
# Static dielectric constant tensor:
#      x y z
#    x 3.238870 0.000000 0.000000 
#    y 0.000000 3.478030 0.000000 
#    z 0.000000 0.000000 3.554650 
# 
# 
# High freq. dielectric constant tensor:
#      x y z
#    x 1.690250 0.000000 0.000000 
#    y 0.000000 1.710750 0.000000 
#    z 0.000000 0.000000 1.729360 
# 
# From -- ./inp_files/11611.got.cif
#   From: 2010.03.12/outbox.cif.g09.slc.cpg/sg37_6_cif.got.tgz:11611.got - 2010.04.14 02:25:27.
