data_PCOD8176417
_publ_section_title
;
Structure prediction by ZEFSAII (Michael W. Deem and Ramdas Pophale) SiO2 
 PCOD8176417
Probable space group: C C C 2
;
_chemical_formula_sum "Si O2"
_cell_formula_units_Z 52
_cell_length_a 29.450542
_cell_length_b 11.027527
_cell_length_c 8.790066
_cell_angle_alpha 90.000000
_cell_angle_beta 90.000000
_cell_angle_gamma 90.000000
_cell_volume 2854.720262
_symmetry_space_group_name_H-M "C C C 2"
_symmetry_group_IT_number 37
_symmetry_cell_setting 'orthorhombic'
loop_
_space_group_symop_operation_xyz
x,y,z
-x,-y,z
-x,y,1/2+z
x,-y,1/2+z
1/2+x,1/2+y,z
1/2-x,1/2-y,z
1/2-x,1/2+y,1/2+z
1/2+x,1/2-y,1/2+z
loop_
_atom_site_type_symbol
_atom_site_label
_atom_site_fract_x
_atom_site_fract_y
_atom_site_fract_z
Si Si1 0.296776 0.601092 0.891740
Si Si2 0.305805 0.869051 0.818620
Si Si3 0.390955 0.835018 0.302477
Si Si4 0.842952 0.108288 0.209760
Si Si5 0.443467 0.618744 0.224621
Si Si6 0.500000 0.500000 0.979106
Si Si7 0.641153 0.986559 0.063475
O O1 0.311047 0.724060 0.805323
O O2 0.243224 0.584739 0.871488
O O3 0.322346 0.483739 0.830967
O O4 0.309302 0.613395 0.067927
O O5 0.317401 0.922592 0.652911
O O6 0.340826 0.916278 0.943481
O O7 0.347272 0.744733 0.279354
O O8 0.437418 0.760223 0.271731
O O9 0.388660 0.885997 0.474204
O O10 0.390898 0.944544 0.182367
O O11 0.894558 0.064029 0.171034
O O12 0.479184 0.605019 0.087245
O O13 0.459785 0.551367 0.376383
#
# Coordination Sequence:
#
# PCOD8176417 Si02
#       7
#     8   8   8   8   8   4   8
#     4  11  21  34  52  78 117 141 190 243 280 327
#     4  10  21  34  52  76 109 154 189 231 291 311
#     4   9  21  36  60  80 107 146 200 224 283 330
#     4  10  21  36  54  84 109 143 189 233 277 343
#     4   9  20  34  57  90 109 153 172 227 289 342
#     4  10  18  36  60  86 130 130 172 232 292 352
#     4  10  19  39  54  75 109 153 197 234 263 337
#
# _framework density 18.215444999999999
#
# number of rings (size 3 to 8) (size 9 to 14) (size 15 to 20)
#    0.923    1.231    1.538    1.846    2.154    0.000 
#    0.000    4.615    0.000    2.769    0.000    0.000 
#    0.000    0.000    0.000    0.000    0.000    0.000 
#
# Total GULP energy -322230.474431 kJ/mol
# GULP energy per Si atom -12393.479786 kJ/mol
# Density = 1.817399 g / cm^3
# Si number density = 18.215445 Si / 1000 Ang^3
#
#
#
# Elastic Constant Matrix: (Units=GPa)
#
#
# Indices 1 2 3 4 5 6 
#
# 1 67.0931 24.5542 33.0512 0.0000 0.0000 0.0000
# 2 24.5542 94.6055 44.2554 0.0000 0.0000 0.0000
# 3 33.0512 44.2554 100.8561 0.0000 0.0000 0.0000
# 4 0.0000 0.0000 0.0000 33.3659 0.0000 0.0000
# 5 0.0000 0.0000 0.0000 0.0000 22.2111 0.0000
# 6 0.0000 0.0000 0.0000 0.0000 0.0000 25.5057
#
#
#
# Elastic Compliance Matrix: (Units=1/GPa)
#
#
# Indices 1 2 3 4 5 6 
#
# 1 0.018209 -0.002434 -0.004899 0.000000 0.000000 0.000000
# 2 -0.002434 0.013626 -0.005181 0.000000 0.000000 0.000000
# 3 -0.004899 -0.005181 0.013794 0.000000 0.000000 0.000000
# 4 0.000000 0.000000 0.000000 0.029971 0.000000 0.000000
# 5 0.000000 0.000000 0.000000 0.000000 0.045022 0.000000
# 6 0.000000 0.000000 0.000000 0.000000 0.000000 0.039207
#
#
# Mechanical properties :
#
#
# Convention : Reuss Voigt Hill
#
# Bulk Modulus (GPa) = 48.54450 51.80849 50.17649
# Shear Modulus (GPa) = 26.07911 26.92947 26.50429
#
# Velocity S-wave (km/s) = 3.78789 3.84915 3.81864
# Velocity P-wave (km/s) = 6.77044 6.94683 6.85920
#
# Compressibility (1/GPa) = 0.02059966
#
# Stress axis : x y z
#
# Youngs Moduli (GPa) = 54.91823 73.39061 72.49506
#
# Poissons Ratio (x) = 0.17865 0.35515
# Poissons Ratio (y) = 0.13369 0.37561
# Poissons Ratio (z) = 0.26904 0.38025
#
# Static dielectric constant tensor:
#      x y z
#    x 3.138530 0.000000 0.000000 
#    y 0.000000 3.417720 0.000000 
#    z 0.000000 0.000000 3.352370 
# 
# 
# High freq. dielectric constant tensor:
#      x y z
#    x 1.680090 0.000000 0.000000 
#    y 0.000000 1.706200 0.000000 
#    z 0.000000 0.000000 1.712710 
# 
# From -- ./inp_files/4981.got.cif
#   From: 2010.03.12/outbox.cif.g09.slc.cpg/sg37_3_cif.got.tgz:4981.got - 2010.04.14 02:25:27.
