data_PCOD8176961
_publ_section_title
;
Structure prediction by ZEFSAII (Michael W. Deem and Ramdas Pophale) SiO2 
 PCOD8176961
Probable space group: C C C 2
;
_chemical_formula_sum "Si O2"
_cell_formula_units_Z 64
_cell_length_a 9.646036
_cell_length_b 24.647191
_cell_length_c 13.368210
_cell_angle_alpha 90.000000
_cell_angle_beta 90.000000
_cell_angle_gamma 90.000000
_cell_volume 3178.261069
_symmetry_space_group_name_H-M "C C C 2"
_symmetry_group_IT_number 37
_symmetry_cell_setting 'orthorhombic'
loop_
_space_group_symop_operation_xyz
x,y,z
-x,-y,z
-x,y,1/2+z
x,-y,1/2+z
1/2+x,1/2+y,z
1/2-x,1/2-y,z
1/2-x,1/2+y,1/2+z
1/2+x,1/2-y,1/2+z
loop_
_atom_site_type_symbol
_atom_site_label
_atom_site_fract_x
_atom_site_fract_y
_atom_site_fract_z
Si Si1 0.880736 0.541762 0.696040
Si Si2 0.934947 0.176078 0.392575
Si Si3 0.632464 0.707803 0.677565
Si Si4 0.848908 0.987049 0.546447
Si Si5 0.733317 0.076223 0.406689
Si Si6 0.507399 0.120082 0.028208
Si Si7 0.193432 0.133457 0.497870
Si Si8 0.896776 0.262842 0.553347
O O1 0.768031 0.508143 0.631659
O O2 0.800556 0.566999 0.790341
O O3 0.946899 0.590533 0.630885
O O4 0.000000 0.500000 0.730740
O O5 0.932802 0.180821 0.274368
O O6 0.826864 0.129535 0.424975
O O7 0.895149 0.232712 0.445512
O O8 0.094618 0.163632 0.420002
O O9 0.750000 0.750000 0.709211
O O10 0.689955 0.660235 0.607766
O O11 0.515155 0.740371 0.622241
O O12 0.815719 0.025842 0.452988
O O13 0.858698 0.927397 0.502216
O O14 0.000000 0.000000 0.592816
O O15 0.586004 0.079997 0.462820
O O16 0.415773 0.173092 0.045913
O O17 0.645308 0.135751 0.964239
O O18 0.750000 0.250000 0.605728
#
# Coordination Sequence:
#
# PCOD8176961 Si02
#       8
#     8   8   8   8   8   8   8   8
#     4  11  26  43  66 101 134 181 228 274 337 406
#     4  11  23  42  65 100 126 171 223 265 331 404
#     4  11  23  43  67  93 133 171 217 267 333 404
#     4  11  23  46  69  96 137 176 221 282 336 392
#     4  12  25  43  68  98 134 173 226 270 335 407
#     4  11  23  45  66  93 135 175 216 275 336 393
#     4  10  23  43  66  93 130 173 217 270 333 394
#     4  11  23  42  66  95 130 169 216 271 331 392
#
# _framework density 20.136799
#
# number of rings (size 3 to 8) (size 9 to 14) (size 15 to 20)
#    0.000    1.000    5.000    1.875    3.500    0.500 
#    6.750    0.000    0.000    0.000    0.000    0.000 
#    0.000    0.000    0.000    0.000    0.000    0.000 
#
# Total GULP energy -396836.002349 kJ/mol
# GULP energy per Si atom -12401.125073 kJ/mol
# Density = 2.009097 g / cm^3
# Si number density = 20.136799 Si / 1000 Ang^3
#
#
#
# Elastic Constant Matrix: (Units=GPa)
#
#
# Indices 1 2 3 4 5 6 
#
# 1 111.4511 25.8810 28.2144 0.0000 0.0000 0.0000
# 2 25.8810 103.0858 35.3034 0.0000 0.0000 0.0000
# 3 28.2144 35.3034 89.2219 0.0000 0.0000 0.0000
# 4 0.0000 0.0000 0.0000 29.6809 0.0000 0.0000
# 5 0.0000 0.0000 0.0000 0.0000 24.1668 0.0000
# 6 0.0000 0.0000 0.0000 0.0000 0.0000 39.8505
#
#
#
# Elastic Compliance Matrix: (Units=1/GPa)
#
#
# Indices 1 2 3 4 5 6 
#
# 1 0.009990 -0.001650 -0.002506 0.000000 0.000000 0.000000
# 2 -0.001650 0.011494 -0.004026 0.000000 0.000000 0.000000
# 3 -0.002506 -0.004026 0.013594 0.000000 0.000000 0.000000
# 4 0.000000 0.000000 0.000000 0.033692 0.000000 0.000000
# 5 0.000000 0.000000 0.000000 0.000000 0.041379 0.000000
# 6 0.000000 0.000000 0.000000 0.000000 0.000000 0.025094
#
#
# Mechanical properties :
#
#
# Convention : Reuss Voigt Hill
#
# Bulk Modulus (GPa) = 53.43906 53.61738 53.52822
# Shear Modulus (GPa) = 31.67679 33.03031 32.35355
#
# Velocity S-wave (km/s) = 3.97051 4.05445 4.01270
# Velocity P-wave (km/s) = 6.90040 6.97155 6.93607
#
# Compressibility (1/GPa) = 0.01871290
#
# Stress axis : x y z
#
# Youngs Moduli (GPa) = 100.09856 87.00444 73.56381
#
# Poissons Ratio (x) = 0.14354 0.18438
# Poissons Ratio (y) = 0.16514 0.29618
# Poissons Ratio (z) = 0.25088 0.35029
#
# Static dielectric constant tensor:
#      x y z
#    x 3.923110 0.000000 0.000000 
#    y 0.000000 3.758270 0.000000 
#    z 0.000000 0.000000 3.434710 
# 
# 
# High freq. dielectric constant tensor:
#      x y z
#    x 1.809400 0.000000 0.000000 
#    y 0.000000 1.799570 0.000000 
#    z 0.000000 0.000000 1.764000 
# 
# From -- ./inp_files/10973.got.cif
#   From: 2010.03.12/outbox.cif.g09.slc.cpg/sg37_6_cif.got.tgz:10973.got - 2010.04.14 02:25:27.
