data_PCOD8176236
_publ_section_title
;
Structure prediction by ZEFSAII (Michael W. Deem and Ramdas Pophale) SiO2 
 PCOD8176236
Probable space group: C M C 21
;
_chemical_formula_sum "Si O2"
_cell_formula_units_Z 64
_cell_length_a 8.319934
_cell_length_b 15.426394
_cell_length_c 23.669356
_cell_angle_alpha 90.000000
_cell_angle_beta 90.000000
_cell_angle_gamma 90.000000
_cell_volume 3037.880892
_symmetry_space_group_name_H-M "C M C 21"
_symmetry_group_IT_number 36
_symmetry_cell_setting 'orthorhombic'
loop_
_space_group_symop_operation_xyz
x,y,z
-x,-y,1/2+z
x,-y,1/2+z
-x,y,z
1/2+x,1/2+y,z
1/2-x,1/2-y,1/2+z
1/2+x,1/2-y,1/2+z
1/2-x,1/2+y,z
loop_
_atom_site_type_symbol
_atom_site_label
_atom_site_fract_x
_atom_site_fract_y
_atom_site_fract_z
Si Si1 0.186183 0.151106 0.442900
Si Si2 0.190706 0.751804 0.636666
Si Si3 0.186237 0.651061 0.953145
Si Si4 0.185994 0.406553 0.827931
Si Si5 0.812362 0.743087 0.764333
Si Si6 0.313376 0.410984 0.337201
Si Si7 0.686552 0.415048 0.567252
Si Si8 0.686814 0.096098 0.559536
O O1 0.244495 0.250063 0.447619
O O2 0.289815 0.104100 0.394987
O O3 0.214759 0.102561 0.501596
O O4 0.000000 0.145831 0.425861
O O5 0.254166 0.749693 0.700599
O O6 0.257825 0.837031 0.605158
O O7 0.253234 0.666948 0.603700
O O8 0.000000 0.753994 0.635986
O O9 0.213849 0.602802 0.894358
O O10 0.000000 0.645363 0.970033
O O11 0.290187 0.605611 0.001348
O O12 0.286324 0.334183 0.795005
O O13 0.251241 0.500359 0.808618
O O14 0.000000 0.397734 0.812142
O O15 0.713291 0.667644 0.794404
O O16 0.000000 0.719267 0.766425
O O17 0.500000 0.417948 0.352335
O O18 0.500000 0.430048 0.579640
O O19 0.782476 0.501217 0.585313
O O20 0.500000 0.111217 0.546823
#
# Coordination Sequence:
#
# PCOD8176236 Si02
#       8
#     8   8   8   8   8   8   8   8
#     4  11  22  38  63  94 127 163 203 252 310 371
#     4   9  22  42  65  88 121 164 206 255 308 363
#     4  11  22  38  63  94 127 163 203 252 310 371
#     4  12  25  42  65  94 127 166 208 255 312 372
#     4  11  23  44  67  92 125 162 210 263 312 367
#     4  12  25  42  65  94 127 166 208 255 312 372
#     4  11  22  40  63  92 126 163 205 251 307 368
#     4  11  22  40  63  92 126 163 205 251 307 368
#
# _framework density 21.067316999999999
#
# number of rings (size 3 to 8) (size 9 to 14) (size 15 to 20)
#    0.000    1.000    2.500    4.875    0.000    2.000 
#    0.000    7.500    0.000    0.000    0.000    0.000 
#    0.000    0.000    0.000    0.000    0.000    0.000 
#
# Total GULP energy -397052.235746 kJ/mol
# GULP energy per Si atom -12407.882367 kJ/mol
# Density = 2.101937 g / cm^3
# Si number density = 21.067317 Si / 1000 Ang^3
#
#
#
# Elastic Constant Matrix: (Units=GPa)
#
#
# Indices 1 2 3 4 5 6 
#
# 1 58.2498 11.7405 1.8170 0.0000 0.0000 0.0000
# 2 11.7405 154.2133 47.9110 0.0000 0.0000 0.0000
# 3 1.8170 47.9110 128.2473 0.0000 0.0000 0.0000
# 4 0.0000 0.0000 0.0000 7.4968 0.0000 0.0000
# 5 0.0000 0.0000 0.0000 0.0000 25.2964 0.0000
# 6 0.0000 0.0000 0.0000 0.0000 0.0000 21.3966
#
#
#
# Elastic Compliance Matrix: (Units=1/GPa)
#
#
# Indices 1 2 3 4 5 6 
#
# 1 0.017444 -0.001416 0.000282 0.000000 0.000000 0.000000
# 2 -0.001416 0.007451 -0.002763 0.000000 0.000000 0.000000
# 3 0.000282 -0.002763 0.008826 0.000000 0.000000 0.000000
# 4 0.000000 0.000000 0.000000 0.133391 0.000000 0.000000
# 5 0.000000 0.000000 0.000000 0.000000 0.039531 0.000000
# 6 0.000000 0.000000 0.000000 0.000000 0.000000 0.046736
#
#
# Mechanical properties :
#
#
# Convention : Reuss Voigt Hill
#
# Bulk Modulus (GPa) = 38.57135 51.51638 45.04387
# Shear Modulus (GPa) = 18.53117 29.45408 23.99262
#
# Velocity S-wave (km/s) = 2.96905 3.74317 3.37835
# Velocity P-wave (km/s) = 5.48653 6.57176 6.05351
#
# Compressibility (1/GPa) = 0.02592598
#
# Stress axis : x y z
#
# Youngs Moduli (GPa) = 57.32641 134.21303 113.30387
#
# Poissons Ratio (x) = 0.18999 -0.03192
# Poissons Ratio (y) = 0.08115 0.31311
# Poissons Ratio (z) = -0.01615 0.37089
#
# Static dielectric constant tensor:
#      x y z
#    x 3.588930 0.000000 0.000000 
#    y 0.000000 4.051270 0.000000 
#    z 0.000000 0.000000 3.775260 
# 
# 
# High freq. dielectric constant tensor:
#      x y z
#    x 1.819360 0.000000 0.000000 
#    y 0.000000 1.844230 0.000000 
#    z 0.000000 0.000000 1.815540 
# 
# From -- ./inp_files/16646.got.cif
#   From: 2010.03.12/outbox.cif.g09.slc.cpg/sg36_9_cif.got.tgz:16646.got - 2010.04.14 02:13:53.
