data_PCOD8176347
_publ_section_title
;
Structure prediction by ZEFSAII (Michael W. Deem and Ramdas Pophale) SiO2 
 PCOD8176347
Probable space group: C M C 21
;
_chemical_formula_sum "Si O2"
_cell_formula_units_Z 64
_cell_length_a 9.297911
_cell_length_b 19.413963
_cell_length_c 20.851748
_cell_angle_alpha 90.000000
_cell_angle_beta 90.000000
_cell_angle_gamma 90.000000
_cell_volume 3763.934438
_symmetry_space_group_name_H-M "C M C 21"
_symmetry_group_IT_number 36
_symmetry_cell_setting 'orthorhombic'
loop_
_space_group_symop_operation_xyz
x,y,z
-x,-y,1/2+z
x,-y,1/2+z
-x,y,z
1/2+x,1/2+y,z
1/2-x,1/2-y,1/2+z
1/2+x,1/2-y,1/2+z
1/2-x,1/2+y,z
loop_
_atom_site_type_symbol
_atom_site_label
_atom_site_fract_x
_atom_site_fract_y
_atom_site_fract_z
Si Si1 0.334539 0.318136 0.931110
Si Si2 0.158330 0.209636 0.156958
Si Si3 0.330811 0.214800 0.037367
Si Si4 0.668691 0.942223 0.532630
Si Si5 0.166920 0.453668 0.776759
Si Si6 0.836915 0.045246 0.156032
Si Si7 0.666417 0.041404 0.418545
Si Si8 0.663938 0.682039 0.290460
O O1 0.500000 0.332726 0.947583
O O2 0.255605 0.390780 0.935350
O O3 0.319487 0.283014 0.860382
O O4 0.268476 0.264128 0.981873
O O5 0.270027 0.240278 0.106077
O O6 0.170500 0.127272 0.161865
O O7 0.187883 0.235312 0.230605
O O8 0.000000 0.232125 0.133849
O O9 0.500000 0.220197 0.041150
O O10 0.281250 0.136808 0.023083
O O11 0.500000 0.946385 0.548059
O O12 0.753194 0.977407 0.591722
O O13 0.710388 0.981613 0.467764
O O14 0.259368 0.487798 0.718998
O O15 0.196137 0.488319 0.846583
O O16 0.213512 0.375094 0.786174
O O17 0.000000 0.457168 0.757301
O O18 0.000000 0.017773 0.152568
O O19 0.500000 0.061660 0.425461
O O20 0.500000 0.651108 0.284262
#
# Coordination Sequence:
#
# PCOD8176347 Si02
#       8
#     8   8   8   8   8   8   8   8
#     4   9  17  29  45  65  88 114 144 178 216 257
#     4   8  14  24  39  59  83 109 138 176 214 247
#     4   9  17  28  44  65  87 113 142 174 214 257
#     4   9  17  30  46  65  90 117 146 180 217 259
#     4   9  15  24  40  62  86 111 141 179 220 258
#     4   9  16  26  41  63  87 112 145 182 219 256
#     4   9  18  30  45  66  90 117 147 179 217 260
#     4   8  14  25  40  59  83 109 141 180 215 250
#
# _framework density 17.003484
#
# number of rings (size 3 to 8) (size 9 to 14) (size 15 to 20)
#    0.000    3.250    0.000    1.500    0.000    4.500 
#    0.000    0.000    0.000    1.500    0.000    5.250 
#    0.000    0.000    0.000    0.000    0.000    0.000 
#
# Total GULP energy -396458.309194 kJ/mol
# GULP energy per Si atom -12389.322162 kJ/mol
# Density = 1.696478 g / cm^3
# Si number density = 17.003484 Si / 1000 Ang^3
#
#
#
# Elastic Constant Matrix: (Units=GPa)
#
#
# Indices 1 2 3 4 5 6 
#
# 1 54.1103 13.4575 32.9947 0.0000 0.0000 0.0000
# 2 13.4575 26.1427 17.2584 0.0000 0.0000 0.0000
# 3 32.9947 17.2584 97.5073 0.0000 0.0000 0.0000
# 4 0.0000 0.0000 0.0000 23.7423 0.0000 0.0000
# 5 0.0000 0.0000 0.0000 0.0000 29.2731 0.0000
# 6 0.0000 0.0000 0.0000 0.0000 0.0000 13.2202
#
#
#
# Elastic Compliance Matrix: (Units=1/GPa)
#
#
# Indices 1 2 3 4 5 6 
#
# 1 0.024733 -0.008160 -0.006925 0.000000 0.000000 0.000000
# 2 -0.008160 0.046005 -0.005381 0.000000 0.000000 0.000000
# 3 -0.006925 -0.005381 0.013551 0.000000 0.000000 0.000000
# 4 0.000000 0.000000 0.000000 0.042119 0.000000 0.000000
# 5 0.000000 0.000000 0.000000 0.000000 0.034161 0.000000
# 6 0.000000 0.000000 0.000000 0.000000 0.000000 0.075642
#
#
# Mechanical properties :
#
#
# Convention : Reuss Voigt Hill
#
# Bulk Modulus (GPa) = 23.06480 33.90906 28.48693
# Shear Modulus (GPa) = 17.14703 20.85044 18.99873
#
# Velocity S-wave (km/s) = 3.17904 3.50558 3.34630
# Velocity P-wave (km/s) = 5.20281 6.03085 5.63207
#
# Compressibility (1/GPa) = 0.04335611
#
# Stress axis : x y z
#
# Youngs Moduli (GPa) = 40.43219 21.73687 73.79341
#
# Poissons Ratio (x) = 0.17738 0.51100
# Poissons Ratio (y) = 0.32994 0.39711
# Poissons Ratio (z) = 0.27998 0.11697
#
# Static dielectric constant tensor:
#      x y z
#    x 3.218190 0.000000 0.000000 
#    y 0.000000 2.641240 0.000000 
#    z 0.000000 0.000000 3.778870 
# 
# 
# High freq. dielectric constant tensor:
#      x y z
#    x 1.658220 0.000000 0.000000 
#    y 0.000000 1.579500 0.000000 
#    z 0.000000 0.000000 1.682920 
# 
# From -- ./inp_files/14106.got.cif
#   From: 2010.03.12/outbox.cif.g09.slc.cpg/sg36_8_cif.got.tgz:14106.got - 2010.04.14 02:13:53.
