data_PCOD8176007
_publ_section_title
;
Structure prediction by ZEFSAII (Michael W. Deem and Ramdas Pophale) SiO2 
 PCOD8176007
Probable space group: C M C 21
;
_chemical_formula_sum "Si O2"
_cell_formula_units_Z 48
_cell_length_a 7.395099
_cell_length_b 18.034160
_cell_length_c 18.194813
_cell_angle_alpha 90.000000
_cell_angle_beta 90.000000
_cell_angle_gamma 90.000000
_cell_volume 2426.540293
_symmetry_space_group_name_H-M "C M C 21"
_symmetry_group_IT_number 36
_symmetry_cell_setting 'orthorhombic'
loop_
_space_group_symop_operation_xyz
x,y,z
-x,-y,1/2+z
x,-y,1/2+z
-x,y,z
1/2+x,1/2+y,z
1/2-x,1/2-y,1/2+z
1/2+x,1/2-y,1/2+z
1/2-x,1/2+y,z
loop_
_atom_site_type_symbol
_atom_site_label
_atom_site_fract_x
_atom_site_fract_y
_atom_site_fract_z
Si Si1 0.213912 0.400953 0.302410
Si Si2 0.212644 0.686577 0.086170
Si Si3 0.500000 0.479333 0.787618
Si Si4 0.000000 0.069570 0.124156
Si Si5 0.707423 0.843173 0.142648
Si Si6 0.698773 0.209333 0.924247
Si Si7 0.500000 0.650767 0.394712
Si Si8 0.500000 0.578034 0.547792
O O1 0.320010 0.477754 0.314335
O O2 0.266202 0.368058 0.223537
O O3 0.290956 0.341350 0.361885
O O4 0.000000 0.415506 0.309278
O O5 0.317418 0.616885 0.119142
O O6 0.255878 0.755863 0.137967
O O7 0.000000 0.669490 0.087011
O O8 0.292428 0.703896 0.004203
O O9 0.500000 0.474672 0.700039
O O10 0.500000 0.396269 0.820130
O O11 0.000000 0.010065 0.058394
O O12 0.500000 0.862530 0.127319
O O13 0.821778 0.885907 0.081969
O O14 0.500000 0.174957 0.936024
O O15 0.678386 0.295681 0.898267
O O16 0.500000 0.593068 0.461374
#
# Coordination Sequence:
#
# PCOD8176007 Si02
#       8
#     8   8   4   4   8   8   4   4
#     4  10  22  40  64  87 126 166 210 251 318 385
#     4  11  22  40  65  92 128 162 218 270 305 369
#     4  12  26  42  62  96 131 166 203 258 328 379
#     4  12  28  38  64  98 132 165 217 260 324 377
#     4  11  20  38  69  90 118 172 215 260 309 375
#     4   8  18  39  63  88 118 164 208 254 307 369
#     4  10  22  40  68  90 129 165 203 273 310 369
#     4  12  22  46  60  94 134 162 207 269 320 373
#
# _framework density 19.781251000000001
#
# number of rings (size 3 to 8) (size 9 to 14) (size 15 to 20)
#    0.500    1.000    5.000    0.000    4.667    1.333 
#    0.000    0.833    3.667    0.000    0.000    0.000 
#    0.000    0.000    0.000    0.000    0.000    0.000 
#
# Total GULP energy -297522.165861 kJ/mol
# GULP energy per Si atom -12396.756911 kJ/mol
# Density = 1.973623 g / cm^3
# Si number density = 19.781251 Si / 1000 Ang^3
#
#
#
# Elastic Constant Matrix: (Units=GPa)
#
#
# Indices 1 2 3 4 5 6 
#
# 1 82.9236 30.1566 17.6760 0.0000 0.0000 0.0000
# 2 30.1566 120.9567 22.0759 0.0000 0.0000 0.0000
# 3 17.6760 22.0759 68.6167 0.0000 0.0000 0.0000
# 4 0.0000 0.0000 0.0000 44.8180 0.0000 0.0000
# 5 0.0000 0.0000 0.0000 0.0000 12.3120 0.0000
# 6 0.0000 0.0000 0.0000 0.0000 0.0000 85.6095
#
#
#
# Elastic Compliance Matrix: (Units=1/GPa)
#
#
# Indices 1 2 3 4 5 6 
#
# 1 0.013678 -0.002940 -0.002578 0.000000 0.000000 0.000000
# 2 -0.002940 0.009415 -0.002272 0.000000 0.000000 0.000000
# 3 -0.002578 -0.002272 0.015969 0.000000 0.000000 0.000000
# 4 0.000000 0.000000 0.000000 0.022312 0.000000 0.000000
# 5 0.000000 0.000000 0.000000 0.000000 0.081222 0.000000
# 6 0.000000 0.000000 0.000000 0.000000 0.000000 0.011681
#
#
# Mechanical properties :
#
#
# Convention : Reuss Voigt Hill
#
# Bulk Modulus (GPa) = 42.58377 45.81265 44.19821
# Shear Modulus (GPa) = 28.14006 42.05381 35.09694
#
# Velocity S-wave (km/s) = 3.77578 4.61580 4.21676
# Velocity P-wave (km/s) = 6.37046 7.18452 6.78970
#
# Compressibility (1/GPa) = 0.02348313
#
# Stress axis : x y z
#
# Youngs Moduli (GPa) = 73.11114 106.21409 62.62282
#
# Poissons Ratio (x) = 0.31223 0.16142
# Poissons Ratio (y) = 0.21492 0.14227
# Poissons Ratio (z) = 0.18846 0.24129
#
# Static dielectric constant tensor:
#      x y z
#    x 3.428110 0.000000 0.000000 
#    y 0.000000 3.508530 0.000000 
#    z 0.000000 0.000000 3.680530 
# 
# 
# High freq. dielectric constant tensor:
#      x y z
#    x 1.759980 0.000000 0.000000 
#    y 0.000000 1.767620 0.000000 
#    z 0.000000 0.000000 1.776070 
# 
# From -- ./inp_files/13602.got.cif
#   From: 2010.03.12/outbox.cif.g09.slc.cpg/sg36_7_cif.got.tgz:13602.got - 2010.04.14 02:13:53.
