data_PCOD8176037
_publ_section_title
;
Structure prediction by ZEFSAII (Michael W. Deem and Ramdas Pophale) SiO2 
 PCOD8176037
Probable space group: C M C 21
;
_chemical_formula_sum "Si O2"
_cell_formula_units_Z 48
_cell_length_a 7.248842
_cell_length_b 22.333068
_cell_length_c 14.494019
_cell_angle_alpha 90.000000
_cell_angle_beta 90.000000
_cell_angle_gamma 90.000000
_cell_volume 2346.420522
_symmetry_space_group_name_H-M "C M C 21"
_symmetry_group_IT_number 36
_symmetry_cell_setting 'orthorhombic'
loop_
_space_group_symop_operation_xyz
x,y,z
-x,-y,1/2+z
x,-y,1/2+z
-x,y,z
1/2+x,1/2+y,z
1/2-x,1/2-y,1/2+z
1/2+x,1/2-y,1/2+z
1/2-x,1/2+y,z
loop_
_atom_site_type_symbol
_atom_site_label
_atom_site_fract_x
_atom_site_fract_y
_atom_site_fract_z
Si Si1 0.000000 0.005387 0.421901
Si Si2 0.710034 0.951614 0.288669
Si Si3 0.204083 0.729050 0.139085
Si Si4 0.500000 0.639683 0.367836
Si Si5 0.214618 0.276058 0.949385
Si Si6 0.000000 0.001781 0.642521
Si Si7 0.000000 0.861311 0.658497
Si Si8 0.285384 0.316104 0.295184
O O1 0.000000 0.069072 0.374240
O O2 0.182088 0.971312 0.382489
O O3 0.000000 0.016551 0.532717
O O4 0.500000 0.977871 0.287932
O O5 0.687464 0.879978 0.289163
O O6 0.818822 0.973495 0.196115
O O7 0.319857 0.669651 0.114733
O O8 0.293737 0.770690 0.218141
O O9 0.000000 0.708622 0.169762
O O10 0.196263 0.769317 0.048769
O O11 0.687952 0.665754 0.408574
O O12 0.500000 0.657669 0.262992
O O13 0.254541 0.215125 0.893039
O O14 0.000000 0.290918 0.953173
O O15 0.000000 0.930741 0.640966
O O16 0.500000 0.327587 0.277544
#
# Coordination Sequence:
#
# PCOD8176037 Si02
#       8
#     4   8   8   4   8   4   4   8
#     4  11  27  50  69  95 138 187 230 281 340 398
#     4  11  25  44  70 100 132 179 232 281 332 407
#     4  11  24  39  64 100 133 171 213 270 334 396
#     4  12  24  45  67  94 135 174 222 279 332 397
#     4  11  24  39  64 100 133 171 213 270 334 396
#     4  11  27  50  69  95 138 187 230 281 340 398
#     4  12  24  45  67  94 135 174 222 279 332 397
#     4  10  22  41  64  93 135 171 213 266 332 394
#
# _framework density 20.456690999999999
#
# number of rings (size 3 to 8) (size 9 to 14) (size 15 to 20)
#    0.000    1.000    6.667    0.000    7.000    2.000 
#    0.000    0.000    0.000    0.000    0.000    0.000 
#    0.000    0.000    0.000    0.000    0.000    0.000 
#
# Total GULP energy -297526.685577 kJ/mol
# GULP energy per Si atom -12396.945232 kJ/mol
# Density = 2.041013 g / cm^3
# Si number density = 20.456691 Si / 1000 Ang^3
#
#
#
# Elastic Constant Matrix: (Units=GPa)
#
#
# Indices 1 2 3 4 5 6 
#
# 1 132.9684 32.5853 20.4026 0.0000 0.0000 0.0000
# 2 32.5853 100.4015 -12.2302 0.0000 0.0000 0.0000
# 3 20.4026 -12.2302 92.5013 0.0000 0.0000 0.0000
# 4 0.0000 0.0000 0.0000 22.5981 0.0000 0.0000
# 5 0.0000 0.0000 0.0000 0.0000 24.3817 0.0000
# 6 0.0000 0.0000 0.0000 0.0000 0.0000 -1.4428
#
#
#
# Elastic Compliance Matrix: (Units=1/GPa)
#
#
# Indices 1 2 3 4 5 6 
#
# 1 0.008631 -0.003083 -0.002311 0.000000 0.000000 0.000000
# 2 -0.003083 0.011224 0.002164 0.000000 0.000000 0.000000
# 3 -0.002311 0.002164 0.011607 0.000000 0.000000 0.000000
# 4 0.000000 0.000000 0.000000 0.044251 0.000000 0.000000
# 5 0.000000 0.000000 0.000000 0.000000 0.041014 0.000000
# 6 0.000000 0.000000 0.000000 0.000000 0.000000 -0.693103
#
#
# Mechanical properties :
#
#
# Convention : Reuss Voigt Hill
#
# Bulk Modulus (GPa) = 39.99763 45.26519 42.63141
# Shear Modulus (GPa) = -8.90341 28.11498 9.60579
#
# Velocity S-wave (km/s) = -2.08848 3.71127 2.16930
# Velocity P-wave (km/s) = 3.71202 6.36710 5.21148
#
# Compressibility (1/GPa) = 0.02500148
#
# Stress axis : x y z
#
# Youngs Moduli (GPa) = 115.86630 89.09430 86.15836
#
# Poissons Ratio (x) = 0.27464 0.19913
# Poissons Ratio (y) = 0.35717 -0.18644
# Poissons Ratio (z) = 0.26779 -0.19279
#
# Static dielectric constant tensor:
#      x y z
#    x 3.823010 0.000000 0.000000 
#    y 0.000000 3.597120 0.000000 
#    z 0.000000 0.000000 4.012260 
# 
# 
# High freq. dielectric constant tensor:
#      x y z
#    x 1.805970 0.000000 0.000000 
#    y 0.000000 1.795890 0.000000 
#    z 0.000000 0.000000 1.805940 
# 
# From -- ./inp_files/10492.got.cif
#   From: 2010.03.12/outbox.cif.g09.slc.cpg/sg36_6_cif.got.tgz:10492.got - 2010.04.14 02:13:53.
