data_PCOD8176062
_publ_section_title
;
Structure prediction by ZEFSAII (Michael W. Deem and Ramdas Pophale) SiO2 
 PCOD8176062
Probable space group: C M C 21
;
_chemical_formula_sum "Si O2"
_cell_formula_units_Z 48
_cell_length_a 8.539284
_cell_length_b 23.517788
_cell_length_c 11.840366
_cell_angle_alpha 90.000000
_cell_angle_beta 90.000000
_cell_angle_gamma 90.000000
_cell_volume 2377.842340
_symmetry_space_group_name_H-M "C M C 21"
_symmetry_group_IT_number 36
_symmetry_cell_setting 'orthorhombic'
loop_
_space_group_symop_operation_xyz
x,y,z
-x,-y,1/2+z
x,-y,1/2+z
-x,y,z
1/2+x,1/2+y,z
1/2-x,1/2-y,1/2+z
1/2+x,1/2-y,1/2+z
1/2-x,1/2+y,z
loop_
_atom_site_type_symbol
_atom_site_label
_atom_site_fract_x
_atom_site_fract_y
_atom_site_fract_z
Si Si1 0.180650 0.582505 0.627700
Si Si2 0.680474 0.613119 0.392551
Si Si3 0.181453 0.669198 0.821586
Si Si4 0.819602 0.713002 0.259911
Si Si5 0.819699 0.853822 0.560649
Si Si6 0.679564 0.534090 0.188726
O O1 0.285665 0.595067 0.519385
O O2 0.233894 0.625425 0.725173
O O3 0.206544 0.518579 0.669730
O O4 0.000000 0.591152 0.595740
O O5 0.500000 0.630727 0.378580
O O6 0.783728 0.667199 0.357389
O O7 0.718523 0.559964 0.311473
O O8 0.212404 0.732359 0.778338
O O9 0.284290 0.655450 0.930433
O O10 0.000000 0.661774 0.852303
O O11 0.000000 0.730947 0.267478
O O12 0.784813 0.688065 0.136206
O O13 0.784359 0.919067 0.592803
O O14 0.000000 0.839499 0.586583
O O15 0.500000 0.513501 0.181814
#
# Coordination Sequence:
#
# PCOD8176062 Si02
#       6
#     8   8   8   8   8   8
#     4  11  25  40  61  93 127 162 205 257 306 361
#     4  10  22  42  66  91 123 164 207 253 307 369
#     4  11  25  42  61  91 127 164 207 256 307 366
#     4  11  23  41  66  93 123 163 205 254 311 369
#     4  10  22  42  66  92 123 163 207 255 309 369
#     4   9  21  41  64  90 121 162 205 251 308 368
#
# _framework density 20.186368000000002
#
# number of rings (size 3 to 8) (size 9 to 14) (size 15 to 20)
#    0.000    1.667    0.000    4.500    4.667    6.667 
#    0.000    0.000    0.000    0.000    0.000    0.000 
#    0.000    0.000    0.000    0.000    0.000    0.000 
#
# Total GULP energy -297766.136903 kJ/mol
# GULP energy per Si atom -12406.922371 kJ/mol
# Density = 2.014042 g / cm^3
# Si number density = 20.186368 Si / 1000 Ang^3
#
#
#
# Elastic Constant Matrix: (Units=GPa)
#
#
# Indices 1 2 3 4 5 6 
#
# 1 53.7009 18.2642 23.1237 0.0000 0.0000 0.0000
# 2 18.2642 113.8112 56.3863 0.0000 0.0000 0.0000
# 3 23.1237 56.3863 121.2420 0.0000 0.0000 0.0000
# 4 0.0000 0.0000 0.0000 20.6364 0.0000 0.0000
# 5 0.0000 0.0000 0.0000 0.0000 32.3239 0.0000
# 6 0.0000 0.0000 0.0000 0.0000 0.0000 33.4884
#
#
#
# Elastic Compliance Matrix: (Units=1/GPa)
#
#
# Indices 1 2 3 4 5 6 
#
# 1 0.020556 -0.001763 -0.003101 0.000000 0.000000 0.000000
# 2 -0.001763 0.011568 -0.005044 0.000000 0.000000 0.000000
# 3 -0.003101 -0.005044 0.011185 0.000000 0.000000 0.000000
# 4 0.000000 0.000000 0.000000 0.048458 0.000000 0.000000
# 5 0.000000 0.000000 0.000000 0.000000 0.030937 0.000000
# 6 0.000000 0.000000 0.000000 0.000000 0.000000 0.029861
#
#
# Mechanical properties :
#
#
# Convention : Reuss Voigt Hill
#
# Bulk Modulus (GPa) = 42.56205 53.81138 48.18672
# Shear Modulus (GPa) = 27.74507 30.02173 28.88340
#
# Velocity S-wave (km/s) = 3.71137 3.86064 3.78674
# Velocity P-wave (km/s) = 6.28459 6.82553 6.56064
#
# Compressibility (1/GPa) = 0.02349511
#
# Stress axis : x y z
#
# Youngs Moduli (GPa) = 48.64678 86.44320 89.40404
#
# Poissons Ratio (x) = 0.15236 0.27723
# Poissons Ratio (y) = 0.08574 0.45095
# Poissons Ratio (z) = 0.15085 0.43601
#
# Static dielectric constant tensor:
#      x y z
#    x 3.554380 0.000000 0.000000 
#    y 0.000000 3.627750 0.000000 
#    z 0.000000 0.000000 3.668810 
# 
# 
# High freq. dielectric constant tensor:
#      x y z
#    x 1.793720 0.000000 0.000000 
#    y 0.000000 1.792260 0.000000 
#    z 0.000000 0.000000 1.794840 
# 
# From -- ./inp_files/6740.got.cif
#   From: 2010.03.12/outbox.cif.g09.slc.cpg/sg36_4_cif.got.tgz:6740.got - 2010.04.14 02:13:53.
