data_PCOD8176911
_publ_section_title
;
Structure prediction by ZEFSAII (Michael W. Deem and Ramdas Pophale) SiO2 
 PCOD8176911
Probable space group: C C C 2
;
_chemical_formula_sum "Si O2"
_cell_formula_units_Z 44
_cell_length_a 16.812244
_cell_length_b 8.056592
_cell_length_c 14.607978
_cell_angle_alpha 90.000000
_cell_angle_beta 90.000000
_cell_angle_gamma 90.000000
_cell_volume 1978.641717
_symmetry_space_group_name_H-M "C C C 2"
_symmetry_group_IT_number 37
_symmetry_cell_setting 'orthorhombic'
loop_
_space_group_symop_operation_xyz
x,y,z
-x,-y,z
-x,y,1/2+z
x,-y,1/2+z
1/2+x,1/2+y,z
1/2-x,1/2-y,z
1/2-x,1/2+y,1/2+z
1/2+x,1/2-y,1/2+z
loop_
_atom_site_type_symbol
_atom_site_label
_atom_site_fract_x
_atom_site_fract_y
_atom_site_fract_z
Si Si1 0.642788 0.362744 0.972290
Si Si2 0.500000 0.000000 0.239922
Si Si3 0.836155 0.553768 0.165615
Si Si4 0.337257 0.728171 0.482483
Si Si5 0.750000 0.750000 0.616785
Si Si6 0.491670 0.307431 0.868885
Si Si7 0.250000 0.750000 0.815862
O O1 0.646589 0.543335 0.018800
O O2 0.554217 0.299705 0.951955
O O3 0.698671 0.370450 0.881786
O O4 0.673007 0.241090 0.050821
O O5 0.577443 0.027786 0.177843
O O6 0.514769 0.829043 0.294545
O O7 0.765176 0.416292 0.173993
O O8 0.816313 0.666464 0.252554
O O9 0.837564 0.650471 0.069621
O O10 0.250000 0.750000 0.435858
O O11 0.405524 0.754361 0.405766
O O12 0.500000 0.500000 0.831254
#
# Coordination Sequence:
#
# PCOD8176911 Si02
#       7
#     8   4   8   8   4   8   4
#     4  10  22  44  68  96 131 185 234 285 342 431
#     4  12  28  46  70 106 148 184 232 306 360 414
#     4  12  26  44  67 107 143 182 231 299 362 416
#     4  11  23  43  71  98 137 186 237 288 349 427
#     4  11  24  40  66  99 134 186 232 273 358 424
#     4  10  25  45  69 102 137 187 242 283 355 433
#     4  11  22  44  70  95 140 170 234 293 344 420
#
# _framework density 22.237476000000001
#
# number of rings (size 3 to 8) (size 9 to 14) (size 15 to 20)
#    0.000    1.091    4.545    0.000    7.636    2.909 
#    3.273    0.000    0.000    0.000    0.000    0.000 
#    0.000    0.000    0.000    0.000    0.000    0.000 
#
# Total GULP energy -272567.057068 kJ/mol
# GULP energy per Si atom -12389.411685 kJ/mol
# Density = 2.218686 g / cm^3
# Si number density = 22.237476 Si / 1000 Ang^3
#
#
#
# Elastic Constant Matrix: (Units=GPa)
#
#
# Indices 1 2 3 4 5 6 
#
# 1 156.2286 29.3871 27.1017 0.0000 0.0000 0.0000
# 2 29.3871 118.7944 40.6963 0.0000 0.0000 0.0000
# 3 27.1017 40.6963 53.0186 0.0000 0.0000 0.0000
# 4 0.0000 0.0000 0.0000 16.5859 0.0000 0.0000
# 5 0.0000 0.0000 0.0000 0.0000 29.2379 0.0000
# 6 0.0000 0.0000 0.0000 0.0000 0.0000 38.0357
#
#
#
# Elastic Compliance Matrix: (Units=1/GPa)
#
#
# Indices 1 2 3 4 5 6 
#
# 1 0.007065 -0.000693 -0.003080 0.000000 0.000000 0.000000
# 2 -0.000693 0.011489 -0.008465 0.000000 0.000000 0.000000
# 3 -0.003080 -0.008465 0.026933 0.000000 0.000000 0.000000
# 4 0.000000 0.000000 0.000000 0.060292 0.000000 0.000000
# 5 0.000000 0.000000 0.000000 0.000000 0.034202 0.000000
# 6 0.000000 0.000000 0.000000 0.000000 0.000000 0.026291
#
#
# Mechanical properties :
#
#
# Convention : Reuss Voigt Hill
#
# Bulk Modulus (GPa) = 47.59001 58.04574 52.81787
# Shear Modulus (GPa) = 25.28416 32.16233 28.72325
#
# Velocity S-wave (km/s) = 3.37561 3.80717 3.59787
# Velocity P-wave (km/s) = 6.05312 6.74428 6.40803
#
# Compressibility (1/GPa) = 0.02101281
#
# Stress axis : x y z
#
# Youngs Moduli (GPa) = 141.53331 87.03896 37.12901
#
# Poissons Ratio (x) = 0.06029 0.11436
# Poissons Ratio (y) = 0.09804 0.31429
# Poissons Ratio (z) = 0.43592 0.73676
#
# Static dielectric constant tensor:
#      x y z
#    x 4.278510 0.000000 0.000000 
#    y 0.000000 4.010430 0.000000 
#    z 0.000000 0.000000 3.674890 
# 
# 
# High freq. dielectric constant tensor:
#      x y z
#    x 1.894870 0.000000 0.000000 
#    y 0.000000 1.881810 0.000000 
#    z 0.000000 0.000000 1.852750 
# 
# From -- ./inp_files/10560.got.cif
#   From: 2010.03.12/outbox.cif.g09.slc.cpg/sg37_6_cif.got.tgz:10560.got - 2010.04.14 02:25:27.
