data_PCOD8176484
_publ_section_title
;
Structure prediction by ZEFSAII (Michael W. Deem and Ramdas Pophale) SiO2 
 PCOD8176484
Probable space group: C C C 2
;
_chemical_formula_sum "Si O2"
_cell_formula_units_Z 64
_cell_length_a 8.785306
_cell_length_b 15.014626
_cell_length_c 21.976187
_cell_angle_alpha 90.000000
_cell_angle_beta 90.000000
_cell_angle_gamma 90.000000
_cell_volume 2898.836718
_symmetry_space_group_name_H-M "C C C 2"
_symmetry_group_IT_number 37
_symmetry_cell_setting 'orthorhombic'
loop_
_space_group_symop_operation_xyz
x,y,z
-x,-y,z
-x,y,1/2+z
x,-y,1/2+z
1/2+x,1/2+y,z
1/2-x,1/2-y,z
1/2-x,1/2+y,1/2+z
1/2+x,1/2-y,1/2+z
loop_
_atom_site_type_symbol
_atom_site_label
_atom_site_fract_x
_atom_site_fract_y
_atom_site_fract_z
Si Si1 0.087123 0.739672 0.167730
Si Si2 0.592987 0.861818 0.782254
Si Si3 0.777623 0.452838 0.781568
Si Si4 0.449386 0.099891 0.090088
Si Si5 0.657002 0.168036 0.413628
Si Si6 0.141276 0.666807 0.978383
Si Si7 0.322955 0.512779 0.917131
Si Si8 0.814035 0.152617 0.666095
O O1 0.250000 0.750000 0.135516
O O2 0.102483 0.725461 0.239923
O O3 0.017532 0.644222 0.150220
O O4 0.990215 0.827030 0.149156
O O5 0.421027 0.890978 0.796516
O O6 0.679877 0.830425 0.841938
O O7 0.679996 0.949159 0.756710
O O8 0.687677 0.459770 0.845883
O O9 0.683859 0.409487 0.725887
O O10 0.267742 0.110617 0.105380
O O11 0.500000 0.000000 0.084675
O O12 0.517869 0.152210 0.032776
O O13 0.750000 0.250000 0.443387
O O14 0.475997 0.181356 0.423388
O O15 0.725505 0.074220 0.436700
O O16 0.250000 0.750000 0.992178
O O17 0.252955 0.585845 0.962765
O O18 0.500000 0.500000 0.933219
O O19 0.750000 0.250000 0.683951
#
# Coordination Sequence:
#
# PCOD8176484 Si02
#       8
#     8   8   8   8   8   8   8   8
#     4  11  23  39  62  95 133 164 216 278 328 401
#     4  10  19  36  62  93 135 176 214 265 326 399
#     4  10  19  36  63  94 133 174 220 263 328 405
#     4  11  23  44  67  88 118 169 222 274 339 406
#     4  11  23  41  65  99 134 178 221 268 335 398
#     4  12  26  45  70  95 128 172 224 287 345 404
#     4  11  24  43  66 102 143 179 225 280 335 413
#     4  10  21  37  63  95 125 169 217 263 331 401
#
# _framework density 22.077822000000001
#
# number of rings (size 3 to 8) (size 9 to 14) (size 15 to 20)
#    0.000    1.250    3.750    3.375    0.000    6.000 
#    0.000    8.125    0.000    0.000    0.000    0.000 
#    0.000    0.000    0.000    0.000    0.000    0.000 
#
# Total GULP energy -396488.529097 kJ/mol
# GULP energy per Si atom -12390.266534 kJ/mol
# Density = 2.202757 g / cm^3
# Si number density = 22.077822 Si / 1000 Ang^3
#
#
#
# Elastic Constant Matrix: (Units=GPa)
#
#
# Indices 1 2 3 4 5 6 
#
# 1 147.1979 54.7836 25.2328 0.0000 0.0000 0.0000
# 2 54.7836 122.3326 36.8625 0.0000 0.0000 0.0000
# 3 25.2328 36.8625 69.2779 0.0000 0.0000 0.0000
# 4 0.0000 0.0000 0.0000 24.1109 0.0000 0.0000
# 5 0.0000 0.0000 0.0000 0.0000 23.1519 0.0000
# 6 0.0000 0.0000 0.0000 0.0000 0.0000 27.2372
#
#
#
# Elastic Compliance Matrix: (Units=1/GPa)
#
#
# Indices 1 2 3 4 5 6 
#
# 1 0.008240 -0.003318 -0.001236 0.000000 0.000000 0.000000
# 2 -0.003318 0.011071 -0.004683 0.000000 0.000000 0.000000
# 3 -0.001236 -0.004683 0.017376 0.000000 0.000000 0.000000
# 4 0.000000 0.000000 0.000000 0.041475 0.000000 0.000000
# 5 0.000000 0.000000 0.000000 0.000000 0.043193 0.000000
# 6 0.000000 0.000000 0.000000 0.000000 0.000000 0.036714
#
#
# Mechanical properties :
#
#
# Convention : Reuss Voigt Hill
#
# Bulk Modulus (GPa) = 54.89887 63.61846 59.25867
# Shear Modulus (GPa) = 27.38009 29.69531 28.53770
#
# Velocity S-wave (km/s) = 3.52541 3.67144 3.59917
# Velocity P-wave (km/s) = 6.44139 6.84476 6.64613
#
# Compressibility (1/GPa) = 0.01821531
#
# Stress axis : x y z
#
# Youngs Moduli (GPa) = 121.35584 90.32448 57.54956
#
# Poissons Ratio (x) = 0.29967 0.07113
# Poissons Ratio (y) = 0.40263 0.26948
# Poissons Ratio (z) = 0.14999 0.42295
#
# Static dielectric constant tensor:
#      x y z
#    x 4.243930 0.000000 0.000000 
#    y 0.000000 4.009830 0.000000 
#    z 0.000000 0.000000 3.874600 
# 
# 
# High freq. dielectric constant tensor:
#      x y z
#    x 1.870150 0.000000 0.000000 
#    y 0.000000 1.867040 0.000000 
#    z 0.000000 0.000000 1.857380 
# 
# From -- ./inp_files/18476.got.cif
#   From: 2010.03.12/outbox.cif.g09.slc.cpg/sg37_10_cif.got.tgz:18476.got - 2010.04.14 02:25:27.
