data_PCOD8176543
_publ_section_title
;
Structure prediction by ZEFSAII (Michael W. Deem and Ramdas Pophale) SiO2 
 PCOD8176543
Probable space group: C C C 2
;
_chemical_formula_sum "Si O2"
_cell_formula_units_Z 52
_cell_length_a 6.516821
_cell_length_b 18.419400
_cell_length_c 23.946900
_cell_angle_alpha 90.000000
_cell_angle_beta 90.000000
_cell_angle_gamma 90.000000
_cell_volume 2874.488477
_symmetry_space_group_name_H-M "C C C 2"
_symmetry_group_IT_number 37
_symmetry_cell_setting 'orthorhombic'
loop_
_space_group_symop_operation_xyz
x,y,z
-x,-y,z
-x,y,1/2+z
x,-y,1/2+z
1/2+x,1/2+y,z
1/2-x,1/2-y,z
1/2-x,1/2+y,1/2+z
1/2+x,1/2-y,1/2+z
loop_
_atom_site_type_symbol
_atom_site_label
_atom_site_fract_x
_atom_site_fract_y
_atom_site_fract_z
Si Si1 0.369767 0.929250 0.253290
Si Si2 0.668892 0.826412 0.450914
Si Si3 0.349298 0.827662 0.544946
Si Si4 0.000000 0.000000 0.196035
Si Si5 0.938875 0.921726 0.967509
Si Si6 0.109330 0.422105 0.876465
Si Si7 0.115393 0.574620 0.649939
O O1 0.139513 0.947598 0.233936
O O2 0.354475 0.890968 0.313627
O O3 0.501200 0.889212 0.204359
O O4 0.500000 0.000000 0.266100
O O5 0.750000 0.750000 0.428062
O O6 0.554967 0.814963 0.509784
O O7 0.518768 0.858653 0.404968
O O8 0.853838 0.879849 0.459058
O O9 0.250000 0.750000 0.557314
O O10 0.199137 0.881381 0.512574
O O11 0.407614 0.865159 0.602897
O O12 0.854125 0.946515 0.159834
O O13 0.825842 0.929771 0.908013
O O14 0.000000 0.000000 0.991971
O O15 0.000000 0.500000 0.880093
O O16 0.000000 0.500000 0.633149
#
# Coordination Sequence:
#
# PCOD8176543 Si02
#       7
#     8   8   8   4   8   8   8
#     4   8  17  33  54  85 116 143 184 237 281 330
#     4  11  23  41  55  81 121 154 185 231 295 339
#     4  11  24  39  56  83 117 154 192 236 286 349
#     4   8  16  32  54  82 112 144 184 232 286 332
#     4  11  23  35  59  89 113 153 195 232 283 338
#     4  10  20  34  59  89 117 145 194 236 274 346
#     4   9  20  35  57  83 114 145 193 236 280 333
#
# _framework density 18.090174999999999
#
# number of rings (size 3 to 8) (size 9 to 14) (size 15 to 20)
#    0.000    2.462    3.077    0.000    4.308    2.462 
#    0.000    0.769    0.000    1.846    0.000    0.000 
#    0.000    0.000    0.000    0.000    0.000    0.000 
#
# Total GULP energy -322247.296076 kJ/mol
# GULP energy per Si atom -12394.126772 kJ/mol
# Density = 1.804900 g / cm^3
# Si number density = 18.090175 Si / 1000 Ang^3
#
#
#
# Elastic Constant Matrix: (Units=GPa)
#
#
# Indices 1 2 3 4 5 6 
#
# 1 110.4966 36.2551 37.9824 0.0000 0.0000 0.0000
# 2 36.2551 108.5115 46.8283 0.0000 0.0000 0.0000
# 3 37.9824 46.8283 140.2601 0.0000 0.0000 0.0000
# 4 0.0000 0.0000 0.0000 36.3355 0.0000 0.0000
# 5 0.0000 0.0000 0.0000 0.0000 -19.4816 0.0000
# 6 0.0000 0.0000 0.0000 0.0000 0.0000 30.2990
#
#
#
# Elastic Compliance Matrix: (Units=1/GPa)
#
#
# Indices 1 2 3 4 5 6 
#
# 1 0.010613 -0.002694 -0.001975 0.000000 0.000000 0.000000
# 2 -0.002694 0.011451 -0.003094 0.000000 0.000000 0.000000
# 3 -0.001975 -0.003094 0.008697 0.000000 0.000000 0.000000
# 4 0.000000 0.000000 0.000000 0.027521 0.000000 0.000000
# 5 0.000000 0.000000 0.000000 0.000000 -0.051331 0.000000
# 6 0.000000 0.000000 0.000000 0.000000 0.000000 0.033004
#
#
# Mechanical properties :
#
#
# Convention : Reuss Voigt Hill
#
# Bulk Modulus (GPa) = 65.63049 66.82221 66.22635
# Shear Modulus (GPa) = 82.56538 25.31074 53.93806
#
# Velocity S-wave (km/s) = 6.76314 3.74457 5.46635
# Velocity P-wave (km/s) = 9.86637 7.46420 8.74813
#
# Compressibility (1/GPa) = 0.01523682
#
# Stress axis : x y z
#
# Youngs Moduli (GPa) = 94.22749 87.33137 114.98014
#
# Poissons Ratio (x) = 0.23524 0.22703
# Poissons Ratio (y) = 0.25382 0.35570
# Poissons Ratio (z) = 0.18606 0.27016
#
# Static dielectric constant tensor:
#      x y z
#    x 3.206810 0.000000 0.000000 
#    y 0.000000 3.073210 0.000000 
#    z 0.000000 0.000000 3.661890 
# 
# 
# High freq. dielectric constant tensor:
#      x y z
#    x 1.718350 0.000000 0.000000 
#    y 0.000000 1.674570 0.000000 
#    z 0.000000 0.000000 1.702280 
# 
# From -- ./inp_files/19489.got.cif
#   From: 2010.03.12/outbox.cif.g09.slc.cpg/sg37_10_cif.got.tgz:19489.got - 2010.04.14 02:25:27.
