data_PCOD8176652
_publ_section_title
;
Structure prediction by ZEFSAII (Michael W. Deem and Ramdas Pophale) SiO2 
 PCOD8176652
Probable space group: C C C 2
;
_chemical_formula_sum "Si O2"
_cell_formula_units_Z 48
_cell_length_a 7.752638
_cell_length_b 14.581816
_cell_length_c 21.190269
_cell_angle_alpha 90.000000
_cell_angle_beta 90.000000
_cell_angle_gamma 90.000000
_cell_volume 2395.507800
_symmetry_space_group_name_H-M "C C C 2"
_symmetry_group_IT_number 37
_symmetry_cell_setting 'orthorhombic'
loop_
_space_group_symop_operation_xyz
x,y,z
-x,-y,z
-x,y,1/2+z
x,-y,1/2+z
1/2+x,1/2+y,z
1/2-x,1/2-y,z
1/2-x,1/2+y,1/2+z
1/2+x,1/2-y,1/2+z
loop_
_atom_site_type_symbol
_atom_site_label
_atom_site_fract_x
_atom_site_fract_y
_atom_site_fract_z
Si Si1 0.415101 0.684745 0.180580
Si Si2 0.624524 0.667799 0.924598
Si Si3 0.250000 0.750000 0.745732
Si Si4 0.120765 0.168528 0.534160
Si Si5 0.697737 0.608693 0.343785
Si Si6 0.310491 0.981871 0.961628
Si Si7 0.000000 0.000000 0.752835
O O1 0.250000 0.750000 0.196951
O O2 0.585559 0.738082 0.201296
O O3 0.428988 0.665306 0.106780
O O4 0.421272 0.584717 0.213009
O O5 0.750000 0.750000 0.902902
O O6 0.477480 0.655518 0.871416
O O7 0.722606 0.572793 0.935590
O O8 0.545804 0.692554 0.992731
O O9 0.201115 0.670110 0.794040
O O10 0.250000 0.250000 0.519091
O O11 0.199010 0.068771 0.515444
O O12 0.825280 0.585325 0.401117
O O13 0.654992 0.522296 0.300197
O O14 0.500000 0.000000 0.989466
#
# Coordination Sequence:
#
# PCOD8176652 Si02
#       7
#     8   8   4   8   8   8   4
#     4  10  24  44  68  93 131 174 225 275 335 401
#     4  11  23  37  65  93 127 175 209 269 341 389
#     4  10  24  40  68  92 130 174 218 276 332 402
#     4  10  22  42  63  91 131 164 219 273 324 399
#     4  10  21  40  59  89 129 159 216 260 324 398
#     4  11  23  38  61  98 129 164 217 266 333 404
#     4  10  20  42  64  90 124 174 216 270 328 390
#
# _framework density 20.037503999999998
#
# number of rings (size 3 to 8) (size 9 to 14) (size 15 to 20)
#    0.000    1.667    1.667    2.500   10.500    4.000 
#    0.000    2.500    0.000    0.000    0.000    0.000 
#    0.000    0.000    0.000    0.000    0.000    0.000 
#
# Total GULP energy -297388.881483 kJ/mol
# GULP energy per Si atom -12391.203395 kJ/mol
# Density = 1.999190 g / cm^3
# Si number density = 20.037504 Si / 1000 Ang^3
#
#
#
# Elastic Constant Matrix: (Units=GPa)
#
#
# Indices 1 2 3 4 5 6 
#
# 1 96.9065 41.5727 48.5276 0.0000 0.0000 0.0000
# 2 41.5727 110.4172 45.7058 0.0000 0.0000 0.0000
# 3 48.5276 45.7058 126.2647 0.0000 0.0000 0.0000
# 4 0.0000 0.0000 0.0000 29.9295 0.0000 0.0000
# 5 0.0000 0.0000 0.0000 0.0000 23.5473 0.0000
# 6 0.0000 0.0000 0.0000 0.0000 0.0000 39.8326
#
#
#
# Elastic Compliance Matrix: (Units=1/GPa)
#
#
# Indices 1 2 3 4 5 6 
#
# 1 0.013866 -0.003546 -0.004046 0.000000 0.000000 0.000000
# 2 -0.003546 0.011560 -0.002822 0.000000 0.000000 0.000000
# 3 -0.004046 -0.002822 0.010496 0.000000 0.000000 0.000000
# 4 0.000000 0.000000 0.000000 0.033412 0.000000 0.000000
# 5 0.000000 0.000000 0.000000 0.000000 0.042468 0.000000
# 6 0.000000 0.000000 0.000000 0.000000 0.000000 0.025105
#
#
# Mechanical properties :
#
#
# Convention : Reuss Voigt Hill
#
# Bulk Modulus (GPa) = 66.24479 67.24452 66.74465
# Shear Modulus (GPa) = 30.71908 31.84737 31.28323
#
# Velocity S-wave (km/s) = 3.91970 3.99104 3.95553
# Velocity P-wave (km/s) = 7.32240 7.40743 7.36504
#
# Compressibility (1/GPa) = 0.01509553
#
# Stress axis : x y z
#
# Youngs Moduli (GPa) = 72.11651 86.50800 95.27357
#
# Poissons Ratio (x) = 0.30677 0.38545
# Poissons Ratio (y) = 0.25574 0.26881
# Poissons Ratio (z) = 0.29176 0.24408
#
# Static dielectric constant tensor:
#      x y z
#    x 3.555610 0.000000 0.000000 
#    y 0.000000 3.701170 0.000000 
#    z 0.000000 0.000000 3.732090 
# 
# 
# High freq. dielectric constant tensor:
#      x y z
#    x 1.770250 0.000000 0.000000 
#    y 0.000000 1.796270 0.000000 
#    z 0.000000 0.000000 1.790300 
# 
# From -- ./inp_files/16319.got.cif
#   From: 2010.03.12/outbox.cif.g09.slc.cpg/sg37_9_cif.got.tgz:16319.got - 2010.04.14 02:25:27.
