data_PCOD8176384
_publ_section_title
;
Structure prediction by ZEFSAII (Michael W. Deem and Ramdas Pophale) SiO2 
 PCOD8176384
Probable space group: C C C 2
;
_chemical_formula_sum "Si O2"
_cell_formula_units_Z 64
_cell_length_a 15.247650
_cell_length_b 9.007881
_cell_length_c 23.723935
_cell_angle_alpha 90.000000
_cell_angle_beta 90.000000
_cell_angle_gamma 90.000000
_cell_volume 3258.459145
_symmetry_space_group_name_H-M "C C C 2"
_symmetry_group_IT_number 37
_symmetry_cell_setting 'orthorhombic'
loop_
_space_group_symop_operation_xyz
x,y,z
-x,-y,z
-x,y,1/2+z
x,-y,1/2+z
1/2+x,1/2+y,z
1/2-x,1/2-y,z
1/2-x,1/2+y,1/2+z
1/2+x,1/2-y,1/2+z
loop_
_atom_site_type_symbol
_atom_site_label
_atom_site_fract_x
_atom_site_fract_y
_atom_site_fract_z
Si Si1 0.410121 0.589926 0.584080
Si Si2 0.563029 0.111618 0.650341
Si Si3 0.483019 0.746058 0.258396
Si Si4 0.505281 0.831085 0.881968
Si Si5 0.255641 0.578374 0.658948
Si Si6 0.639208 0.484408 0.765901
Si Si7 0.169715 0.859005 0.884210
Si Si8 0.911247 0.908180 0.955715
O O1 0.500000 0.500000 0.589797
O O2 0.426606 0.739776 0.616656
O O3 0.326614 0.507448 0.614504
O O4 0.386592 0.628732 0.519945
O O5 0.508835 0.142429 0.708402
O O6 0.655316 0.022052 0.656468
O O7 0.500000 0.000000 0.615886
O O8 0.469233 0.836327 0.316199
O O9 0.392785 0.651880 0.252027
O O10 0.560140 0.628216 0.260577
O O11 0.413808 0.746995 0.887055
O O12 0.578026 0.742558 0.919110
O O13 0.500000 0.000000 0.904719
O O14 0.250000 0.750000 0.643947
O O15 0.284605 0.554118 0.722659
O O16 0.679025 0.457455 0.827677
O O17 0.250000 0.750000 0.894140
O O18 0.165694 0.985254 0.932441
O O19 0.000000 0.000000 0.951709
#
# Coordination Sequence:
#
# PCOD8176384 Si02
#       8
#     8   8   8   8   8   8   8   8
#     4  10  20  39  63  81 115 155 206 248 295 361
#     4  11  23  37  56  88 121 152 196 251 313 360
#     4  10  18  32  56  84 118 154 193 247 300 364
#     4  10  20  36  57  83 119 159 200 246 308 359
#     4  10  19  34  56  87 112 151 196 240 294 366
#     4  10  17  31  59  85 112 151 204 237 291 364
#     4  10  20  35  59  87 117 155 204 257 297 363
#     4   9  19  39  60  86 113 159 210 251 290 374
#
# _framework density 19.641185
#
# number of rings (size 3 to 8) (size 9 to 14) (size 15 to 20)
#    0.000    2.000    3.750    1.500    1.750    0.500 
#    0.000   10.625    0.000    0.000    0.000    0.000 
#    0.000    0.000    0.000    0.000    0.000    0.000 
#
# Total GULP energy -396471.846537 kJ/mol
# GULP energy per Si atom -12389.745204 kJ/mol
# Density = 1.959648 g / cm^3
# Si number density = 19.641185 Si / 1000 Ang^3
#
#
#
# Elastic Constant Matrix: (Units=GPa)
#
#
# Indices 1 2 3 4 5 6 
#
# 1 98.4379 28.4603 54.5688 0.0000 0.0000 0.0000
# 2 28.4603 69.6426 41.6599 0.0000 0.0000 0.0000
# 3 54.5688 41.6599 132.6814 0.0000 0.0000 0.0000
# 4 0.0000 0.0000 0.0000 -0.7354 0.0000 0.0000
# 5 0.0000 0.0000 0.0000 0.0000 12.9022 0.0000
# 6 0.0000 0.0000 0.0000 0.0000 0.0000 30.6993
#
#
#
# Elastic Compliance Matrix: (Units=1/GPa)
#
#
# Indices 1 2 3 4 5 6 
#
# 1 0.013564 -0.002716 -0.004726 0.000000 0.000000 0.000000
# 2 -0.002716 0.018224 -0.004605 0.000000 0.000000 0.000000
# 3 -0.004726 -0.004605 0.010926 0.000000 0.000000 0.000000
# 4 0.000000 0.000000 0.000000 -1.359820 0.000000 0.000000
# 5 0.000000 0.000000 0.000000 0.000000 0.077506 0.000000
# 6 0.000000 0.000000 0.000000 0.000000 0.000000 0.032574
#
#
# Mechanical properties :
#
#
# Convention : Reuss Voigt Hill
#
# Bulk Modulus (GPa) = 53.70472 61.12666 57.41569
# Shear Modulus (GPa) = -4.24908 20.31140 8.03116
#
# Velocity S-wave (km/s) = -1.47243 3.21927 2.02431
# Velocity P-wave (km/s) = 4.95091 6.70876 5.89572
#
# Compressibility (1/GPa) = 0.01862034
#
# Stress axis : x y z
#
# Youngs Moduli (GPa) = 73.72691 54.87390 91.52290
#
# Poissons Ratio (x) = 0.14904 0.43250
# Poissons Ratio (y) = 0.20025 0.42145
# Poissons Ratio (z) = 0.34840 0.25269
#
# Static dielectric constant tensor:
#      x y z
#    x 3.862880 0.000000 0.000000 
#    y 0.000000 3.372080 0.000000 
#    z 0.000000 0.000000 3.816320 
# 
# 
# High freq. dielectric constant tensor:
#      x y z
#    x 1.757490 0.000000 0.000000 
#    y 0.000000 1.754560 0.000000 
#    z 0.000000 0.000000 1.759940 
# 
# From -- ./inp_files/18933.got.cif
#   From: 2010.03.12/outbox.cif.g09.slc.cpg/sg37_10_cif.got.tgz:18933.got - 2010.04.14 02:25:27.
