data_PCOD8176256
_publ_section_title
;
Structure prediction by ZEFSAII (Michael W. Deem and Ramdas Pophale) SiO2 
 PCOD8176256
Probable space group: C M C 21
;
_chemical_formula_sum "Si O2"
_cell_formula_units_Z 48
_cell_length_a 8.899457
_cell_length_b 23.687785
_cell_length_c 11.778745
_cell_angle_alpha 90.000000
_cell_angle_beta 90.000000
_cell_angle_gamma 90.000000
_cell_volume 2483.058671
_symmetry_space_group_name_H-M "C M C 21"
_symmetry_group_IT_number 36
_symmetry_cell_setting 'orthorhombic'
loop_
_space_group_symop_operation_xyz
x,y,z
-x,-y,1/2+z
x,-y,1/2+z
-x,y,z
1/2+x,1/2+y,z
1/2-x,1/2-y,1/2+z
1/2+x,1/2-y,1/2+z
1/2-x,1/2+y,z
loop_
_atom_site_type_symbol
_atom_site_label
_atom_site_fract_x
_atom_site_fract_y
_atom_site_fract_z
Si Si1 0.324576 0.085008 0.521880
Si Si2 0.821490 0.862822 0.607060
Si Si3 0.326732 0.469321 0.471884
Si Si4 0.822232 0.828534 0.853652
Si Si5 0.830921 0.103935 0.752196
Si Si6 0.673969 0.711610 0.901308
O O1 0.500000 0.091617 0.503077
O O2 0.243289 0.134122 0.453471
O O3 0.287382 0.092026 0.653934
O O4 0.273976 0.024475 0.476852
O O5 0.766681 0.924527 0.565645
O O6 0.758928 0.850360 0.732402
O O7 0.766471 0.814222 0.520351
O O8 0.000000 0.863018 0.601382
O O9 0.500000 0.485393 0.495416
O O10 0.307703 0.443206 0.347687
O O11 0.776309 0.764242 0.870879
O O12 0.000000 0.833448 0.855501
O O13 0.803531 0.165861 0.802534
O O14 0.000000 0.099594 0.703279
O O15 0.500000 0.730038 0.910386
#
# Coordination Sequence:
#
# PCOD8176256 Si02
#       6
#     8   8   8   8   8   8
#     4  12  26  39  56  87 125 157 194 246 294 341
#     4   8  18  38  63  86 113 150 193 238 291 352
#     4   9  19  40  66  87 111 153 200 243 293 352
#     4  11  23  38  59  89 119 156 199 235 288 356
#     4   9  20  40  65  88 116 155 197 239 293 359
#     4   9  19  39  63  89 118 149 189 245 299 344
#
# _framework density 19.330998000000001
#
# number of rings (size 3 to 8) (size 9 to 14) (size 15 to 20)
#    0.000    2.333    0.000    4.000    4.667    1.333 
#    0.000    4.167    0.000    0.000    0.000    0.000 
#    0.000    0.000    0.000    0.000    0.000    0.000 
#
# Total GULP energy -297640.550452 kJ/mol
# GULP energy per Si atom -12401.689602 kJ/mol
# Density = 1.928700 g / cm^3
# Si number density = 19.330998 Si / 1000 Ang^3
#
#
#
# Elastic Constant Matrix: (Units=GPa)
#
#
# Indices 1 2 3 4 5 6 
#
# 1 73.9812 43.3096 33.7070 0.0000 0.0000 0.0000
# 2 43.3096 119.2394 42.5615 0.0000 0.0000 0.0000
# 3 33.7070 42.5615 91.7090 0.0000 0.0000 0.0000
# 4 0.0000 0.0000 0.0000 21.6892 0.0000 0.0000
# 5 0.0000 0.0000 0.0000 0.0000 20.3569 0.0000
# 6 0.0000 0.0000 0.0000 0.0000 0.0000 35.3425
#
#
#
# Elastic Compliance Matrix: (Units=1/GPa)
#
#
# Indices 1 2 3 4 5 6 
#
# 1 0.018553 -0.005160 -0.004425 0.000000 0.000000 0.000000
# 2 -0.005160 0.011486 -0.003434 0.000000 0.000000 0.000000
# 3 -0.004425 -0.003434 0.014124 0.000000 0.000000 0.000000
# 4 0.000000 0.000000 0.000000 0.046106 0.000000 0.000000
# 5 0.000000 0.000000 0.000000 0.000000 0.049123 0.000000
# 6 0.000000 0.000000 0.000000 0.000000 0.000000 0.028295
#
#
# Mechanical properties :
#
#
# Convention : Reuss Voigt Hill
#
# Bulk Modulus (GPa) = 55.16706 58.23175 56.69940
# Shear Modulus (GPa) = 25.02914 26.50115 25.76514
#
# Velocity S-wave (km/s) = 3.60219 3.70660 3.65477
# Velocity P-wave (km/s) = 6.77504 6.96473 6.87054
#
# Compressibility (1/GPa) = 0.01812676
#
# Stress axis : x y z
#
# Youngs Moduli (GPa) = 53.89869 87.05951 70.80052
#
# Poissons Ratio (x) = 0.44919 0.31327
# Poissons Ratio (y) = 0.27809 0.24316
# Poissons Ratio (z) = 0.23848 0.29900
#
# Static dielectric constant tensor:
#      x y z
#    x 3.272070 0.000000 0.000000 
#    y 0.000000 3.561830 0.000000 
#    z 0.000000 0.000000 3.720570 
# 
# 
# High freq. dielectric constant tensor:
#      x y z
#    x 1.728140 0.000000 0.000000 
#    y 0.000000 1.763530 0.000000 
#    z 0.000000 0.000000 1.761840 
# 
# From -- ./inp_files/6699.got.cif
#   From: 2010.03.12/outbox.cif.g09.slc.cpg/sg36_4_cif.got.tgz:6699.got - 2010.04.14 02:13:53.
