data_PCOD8176575
_publ_section_title
;
Structure prediction by ZEFSAII (Michael W. Deem and Ramdas Pophale) SiO2 
 PCOD8176575
Probable space group: C C C 2
;
_chemical_formula_sum "Si O2"
_cell_formula_units_Z 60
_cell_length_a 23.456105
_cell_length_b 8.619478
_cell_length_c 15.972409
_cell_angle_alpha 90.000000
_cell_angle_beta 90.000000
_cell_angle_gamma 90.000000
_cell_volume 3229.291765
_symmetry_space_group_name_H-M "C C C 2"
_symmetry_group_IT_number 37
_symmetry_cell_setting 'orthorhombic'
loop_
_space_group_symop_operation_xyz
x,y,z
-x,-y,z
-x,y,1/2+z
x,-y,1/2+z
1/2+x,1/2+y,z
1/2-x,1/2-y,z
1/2-x,1/2+y,1/2+z
1/2+x,1/2-y,1/2+z
loop_
_atom_site_type_symbol
_atom_site_label
_atom_site_fract_x
_atom_site_fract_y
_atom_site_fract_z
Si Si1 0.582073 0.352069 0.764830
Si Si2 0.979235 0.329825 0.901454
Si Si3 0.292029 0.395166 0.228117
Si Si4 0.287934 0.401393 0.896362
Si Si5 0.081606 0.846429 0.027527
Si Si6 0.500000 0.500000 0.651595
Si Si7 0.210839 0.899592 0.060846
Si Si8 0.415838 0.395124 0.892373
O O1 0.566008 0.217802 0.830067
O O2 0.644659 0.320847 0.727366
O O3 0.532462 0.359099 0.697012
O O4 0.581192 0.526775 0.801674
O O5 0.000000 0.500000 0.884825
O O6 0.038100 0.236926 0.900676
O O7 0.945484 0.312711 0.990015
O O8 0.250000 0.250000 0.225069
O O9 0.281356 0.492730 0.313329
O O10 0.283364 0.499451 0.145325
O O11 0.250000 0.250000 0.887477
O O12 0.351829 0.334621 0.907863
O O13 0.271290 0.500326 0.979094
O O14 0.147637 0.830661 0.049603
O O15 0.047961 0.900381 0.107334
O O16 0.068440 0.972117 0.957151
O O17 0.250000 0.750000 0.069383
#
# Coordination Sequence:
#
# PCOD8176575 Si02
#       8
#     8   8   8   8   8   4   8   8
#     4  10  20  36  61  83 108 158 198 238 285 372
#     4  11  21  36  56  89 122 149 191 258 319 343
#     4  11  23  40  61  90 121 160 207 255 311 367
#     4  10  22  38  61  86 117 161 205 250 302 367
#     4  10  20  36  61  83 108 158 198 238 285 372
#     4  12  16  34  66  80 108 142 214 234 268 358
#     4  11  23  40  61  90 121 160 207 255 311 367
#     4   9  18  36  57  79 109 151 205 224 280 365
#
# _framework density 18.579926
#
# number of rings (size 3 to 8) (size 9 to 14) (size 15 to 20)
#    0.000    1.600    4.000    2.800    0.000    2.133 
#    0.000    3.333    0.000    0.000    0.000    0.000 
#    0.000    0.000    0.000    0.000    0.000    0.000 
#
# Total GULP energy -371824.245460 kJ/mol
# GULP energy per Si atom -12394.141515 kJ/mol
# Density = 1.853764 g / cm^3
# Si number density = 18.579926 Si / 1000 Ang^3
#
#
#
# Elastic Constant Matrix: (Units=GPa)
#
#
# Indices 1 2 3 4 5 6 
#
# 1 107.6240 68.5615 16.6021 0.0000 0.0000 0.0000
# 2 68.5615 95.2774 38.3088 0.0000 0.0000 0.0000
# 3 16.6021 38.3088 90.9686 0.0000 0.0000 0.0000
# 4 0.0000 0.0000 0.0000 19.1259 0.0000 0.0000
# 5 0.0000 0.0000 0.0000 0.0000 27.9538 0.0000
# 6 0.0000 0.0000 0.0000 0.0000 0.0000 33.0361
#
#
#
# Elastic Compliance Matrix: (Units=1/GPa)
#
#
# Indices 1 2 3 4 5 6 
#
# 1 0.017638 -0.013721 0.002559 0.000000 0.000000 0.000000
# 2 -0.013721 0.023309 -0.007312 0.000000 0.000000 0.000000
# 3 0.002559 -0.007312 0.013605 0.000000 0.000000 0.000000
# 4 0.000000 0.000000 0.000000 0.052285 0.000000 0.000000
# 5 0.000000 0.000000 0.000000 0.000000 0.035773 0.000000
# 6 0.000000 0.000000 0.000000 0.000000 0.000000 0.030270
#
#
# Mechanical properties :
#
#
# Convention : Reuss Voigt Hill
#
# Bulk Modulus (GPa) = 56.80349 60.09054 58.44702
# Shear Modulus (GPa) = 23.18074 27.38300 25.28187
#
# Velocity S-wave (km/s) = 3.53600 3.84317 3.69278
# Velocity P-wave (km/s) = 6.87822 7.21839 7.05036
#
# Compressibility (1/GPa) = 0.01760455
#
# Stress axis : x y z
#
# Youngs Moduli (GPa) = 56.69619 42.90116 73.50290
#
# Poissons Ratio (x) = 0.58866 -0.18812
# Poissons Ratio (y) = 0.77794 0.53745
# Poissons Ratio (z) = -0.14510 0.31369
#
# Static dielectric constant tensor:
#      x y z
#    x 3.589020 0.000000 0.000000 
#    y 0.000000 3.407650 0.000000 
#    z 0.000000 0.000000 3.689610 
# 
# 
# High freq. dielectric constant tensor:
#      x y z
#    x 1.742810 0.000000 0.000000 
#    y 0.000000 1.691870 0.000000 
#    z 0.000000 0.000000 1.731900 
# 
# From -- ./inp_files/13141.got.cif
#   From: 2010.03.12/outbox.cif.g09.slc.cpg/sg37_7_cif.got.tgz:13141.got - 2010.04.14 02:25:27.
