data_PCOD8176108
_publ_section_title
;
Structure prediction by ZEFSAII (Michael W. Deem and Ramdas Pophale) SiO2 
 PCOD8176108
Probable space group: C M C 21
;
_chemical_formula_sum "Si O2"
_cell_formula_units_Z 36
_cell_length_a 22.092907
_cell_length_b 12.888080
_cell_length_c 5.111636
_cell_angle_alpha 90.000000
_cell_angle_beta 90.000000
_cell_angle_gamma 90.000000
_cell_volume 1455.462458
_symmetry_space_group_name_H-M "C M C 21"
_symmetry_group_IT_number 36
_symmetry_cell_setting 'orthorhombic'
loop_
_space_group_symop_operation_xyz
x,y,z
-x,-y,1/2+z
x,-y,1/2+z
-x,y,z
1/2+x,1/2+y,z
1/2-x,1/2-y,1/2+z
1/2+x,1/2-y,1/2+z
1/2-x,1/2+y,z
loop_
_atom_site_type_symbol
_atom_site_label
_atom_site_fract_x
_atom_site_fract_y
_atom_site_fract_z
Si Si1 0.778651 0.205200 0.566710
Si Si2 0.316571 0.061120 0.642306
Si Si3 0.500000 0.074094 0.240843
Si Si4 0.929778 0.944978 0.508817
Si Si5 0.392346 0.224202 0.351212
O O1 0.763697 0.228018 0.265275
O O2 0.755380 0.087130 0.618831
O O3 0.848642 0.228574 0.625823
O O4 0.355388 0.161974 0.570326
O O5 0.333047 0.968960 0.439735
O O6 0.441663 0.148454 0.220516
O O7 0.500000 0.009015 0.508532
O O8 0.922723 0.821101 0.496840
O O9 0.000000 0.973183 0.515739
O O10 0.898919 0.993410 0.767280
#
# Coordination Sequence:
#
# PCOD8176108 Si02
#       5
#     8   8   4   8   8
#     4  10  23  41  65  94 131 182 236 283 344 402
#     4  11  23  41  66 101 141 180 228 285 347 422
#     4  12  28  46  70 108 146 192 236 284 362 446
#     4  10  23  42  65  96 131 177 234 289 340 402
#     4  11  24  46  71 103 144 191 233 296 357 431
#
# _framework density 24.734408999999999
#
# number of rings (size 3 to 8) (size 9 to 14) (size 15 to 20)
#    0.000    1.333    1.111    4.000    0.000   12.444 
#    0.000    0.000    0.000    0.000    0.000    0.000 
#    0.000    0.000    0.000    0.000    0.000    0.000 
#
# Total GULP energy -223087.678775 kJ/mol
# GULP energy per Si atom -12393.759932 kJ/mol
# Density = 2.467811 g / cm^3
# Si number density = 24.734409 Si / 1000 Ang^3
#
#
#
# Elastic Constant Matrix: (Units=GPa)
#
#
# Indices 1 2 3 4 5 6 
#
# 1 100.1716 20.5134 21.9592 0.0000 0.0000 0.0000
# 2 20.5134 108.7421 31.5556 0.0000 0.0000 0.0000
# 3 21.9592 31.5556 111.1252 0.0000 0.0000 0.0000
# 4 0.0000 0.0000 0.0000 35.7620 0.0000 0.0000
# 5 0.0000 0.0000 0.0000 0.0000 22.3019 0.0000
# 6 0.0000 0.0000 0.0000 0.0000 0.0000 46.5036
#
#
#
# Elastic Compliance Matrix: (Units=1/GPa)
#
#
# Indices 1 2 3 4 5 6 
#
# 1 0.010662 -0.001526 -0.001674 0.000000 0.000000 0.000000
# 2 -0.001526 0.010240 -0.002606 0.000000 0.000000 0.000000
# 3 -0.001674 -0.002606 0.010070 0.000000 0.000000 0.000000
# 4 0.000000 0.000000 0.000000 0.027963 0.000000 0.000000
# 5 0.000000 0.000000 0.000000 0.000000 0.044839 0.000000
# 6 0.000000 0.000000 0.000000 0.000000 0.000000 0.021504
#
#
# Mechanical properties :
#
#
# Convention : Reuss Voigt Hill
#
# Bulk Modulus (GPa) = 51.65112 52.01058 51.83085
# Shear Modulus (GPa) = 34.88145 37.31422 36.09784
#
# Velocity S-wave (km/s) = 3.75939 3.88828 3.82438
# Velocity P-wave (km/s) = 6.30648 6.42118 6.36409
#
# Compressibility (1/GPa) = 0.01936066
#
# Stress axis : x y z
#
# Youngs Moduli (GPa) = 93.78926 97.65427 99.30773
#
# Poissons Ratio (x) = 0.14899 0.16621
# Poissons Ratio (y) = 0.14309 0.25883
# Poissons Ratio (z) = 0.15697 0.25452
#
# Static dielectric constant tensor:
#      x y z
#    x 4.689300 0.000000 0.000000 
#    y 0.000000 4.588790 0.000000 
#    z 0.000000 0.000000 4.516800 
# 
# 
# High freq. dielectric constant tensor:
#      x y z
#    x 1.975730 0.000000 0.000000 
#    y 0.000000 1.990490 0.000000 
#    z 0.000000 0.000000 1.988120 
# 
# From -- ./inp_files/1526.got.cif
#   From: 2010.03.12/outbox.cif.g09.slc.cpg/sg36_1_cif.got.tgz:1526.got - 2010.04.14 02:13:53.
