data_PCOD8176135
_publ_section_title
;
Structure prediction by ZEFSAII (Michael W. Deem and Ramdas Pophale) SiO2 
 PCOD8176135
Probable space group: C M C 21
;
_chemical_formula_sum "Si O2"
_cell_formula_units_Z 64
_cell_length_a 30.015435
_cell_length_b 8.999592
_cell_length_c 10.674440
_cell_angle_alpha 90.000000
_cell_angle_beta 90.000000
_cell_angle_gamma 90.000000
_cell_volume 2883.450917
_symmetry_space_group_name_H-M "C M C 21"
_symmetry_group_IT_number 36
_symmetry_cell_setting 'orthorhombic'
loop_
_space_group_symop_operation_xyz
x,y,z
-x,-y,1/2+z
x,-y,1/2+z
-x,y,z
1/2+x,1/2+y,z
1/2-x,1/2-y,1/2+z
1/2+x,1/2-y,1/2+z
1/2-x,1/2+y,z
loop_
_atom_site_type_symbol
_atom_site_label
_atom_site_fract_x
_atom_site_fract_y
_atom_site_fract_z
Si Si1 0.325852 0.010074 0.743830
Si Si2 0.948827 0.431563 0.919521
Si Si3 0.887023 0.043649 0.551847
Si Si4 0.450253 0.302947 0.612331
Si Si5 0.102733 0.281673 0.342102
Si Si6 0.120313 0.235158 0.777552
Si Si7 0.723767 0.924995 0.992732
Si Si8 0.191640 0.104967 0.968226
O O1 0.356821 0.155937 0.755856
O O2 0.289065 0.022359 0.633837
O O3 0.354225 0.866765 0.704798
O O4 0.308770 0.985504 0.885614
O O5 0.923123 0.587424 0.916068
O O6 0.921982 0.304943 0.846234
O O7 0.000000 0.448011 0.870353
O O8 0.948692 0.367071 0.060896
O O9 0.880149 0.159032 0.438735
O O10 0.901313 0.125957 0.677422
O O11 0.924006 0.918661 0.522499
O O12 0.840064 0.958299 0.577915
O O13 0.500000 0.363704 0.617722
O O14 0.430976 0.302568 0.751372
O O15 0.156625 0.142040 0.857650
O O16 0.721228 0.747160 0.002608
O O17 0.772672 0.973340 0.946607
#
# Coordination Sequence:
#
# PCOD8176135 Si02
#       8
#     8   8   8   8   8   8   8   8
#     4  10  24  43  71  99 138 179 235 293 364 427
#     4  10  23  45  71 102 141 185 236 292 352 426
#     4  12  25  45  70 102 140 187 230 295 362 431
#     4  11  25  44  66 100 145 183 234 296 353 433
#     4  11  25  43  76 101 139 187 243 291 364 433
#     4  10  23  44  69 100 136 181 231 289 358 424
#     4  11  26  44  66 101 135 186 234 299 352 429
#     4  11  26  44  67  99 142 178 235 291 358 423
#
# _framework density 22.195625
#
# number of rings (size 3 to 8) (size 9 to 14) (size 15 to 20)
#    0.000    1.250    1.250    2.625   12.250    2.500 
#    0.000    0.000    0.000    0.000    0.000    0.000 
#    0.000    0.000    0.000    0.000    0.000    0.000 
#
# Total GULP energy -396572.009831 kJ/mol
# GULP energy per Si atom -12392.875307 kJ/mol
# Density = 2.214511 g / cm^3
# Si number density = 22.195625 Si / 1000 Ang^3
#
#
#
# Elastic Constant Matrix: (Units=GPa)
#
#
# Indices 1 2 3 4 5 6 
#
# 1 131.7203 54.8412 16.3179 0.0000 0.0000 0.0000
# 2 54.8412 118.9853 31.4921 0.0000 0.0000 0.0000
# 3 16.3179 31.4921 73.1847 0.0000 0.0000 0.0000
# 4 0.0000 0.0000 0.0000 32.4729 0.0000 0.0000
# 5 0.0000 0.0000 0.0000 0.0000 28.2932 0.0000
# 6 0.0000 0.0000 0.0000 0.0000 0.0000 34.6083
#
#
#
# Elastic Compliance Matrix: (Units=1/GPa)
#
#
# Indices 1 2 3 4 5 6 
#
# 1 0.009399 -0.004263 -0.000261 0.000000 0.000000 0.000000
# 2 -0.004263 0.011418 -0.003963 0.000000 0.000000 0.000000
# 3 -0.000261 -0.003963 0.015428 0.000000 0.000000 0.000000
# 4 0.000000 0.000000 0.000000 0.030795 0.000000 0.000000
# 5 0.000000 0.000000 0.000000 0.000000 0.035344 0.000000
# 6 0.000000 0.000000 0.000000 0.000000 0.000000 0.028895
#
#
# Mechanical properties :
#
#
# Convention : Reuss Voigt Hill
#
# Bulk Modulus (GPa) = 51.89258 58.79918 55.34588
# Shear Modulus (GPa) = 32.32560 33.82416 33.07488
#
# Velocity S-wave (km/s) = 3.82041 3.90797 3.86444
# Velocity P-wave (km/s) = 6.54913 6.84922 6.70086
#
# Compressibility (1/GPa) = 0.01927058
#
# Stress axis : x y z
#
# Youngs Moduli (GPa) = 106.39345 87.58060 64.81912
#
# Poissons Ratio (x) = 0.37335 0.01694
# Poissons Ratio (y) = 0.45355 0.25686
# Poissons Ratio (z) = 0.02780 0.34706
#
# Static dielectric constant tensor:
#      x y z
#    x 4.022020 0.000000 0.000000 
#    y 0.000000 4.264900 0.000000 
#    z 0.000000 0.000000 3.741420 
# 
# 
# High freq. dielectric constant tensor:
#      x y z
#    x 1.876240 0.000000 0.000000 
#    y 0.000000 1.889480 0.000000 
#    z 0.000000 0.000000 1.861090 
# 
# From -- ./inp_files/9741.got.cif
#   From: 2010.03.12/outbox.cif.g09.slc.cpg/sg36_5_cif.got.tgz:9741.got - 2010.04.14 02:13:53.
