data_PCOD8176224
_publ_section_title
;
Structure prediction by ZEFSAII (Michael W. Deem and Ramdas Pophale) SiO2 
 PCOD8176224
Probable space group: C M C 21
;
_chemical_formula_sum "Si O2"
_cell_formula_units_Z 40
_cell_length_a 15.739522
_cell_length_b 14.150295
_cell_length_c 7.071392
_cell_angle_alpha 90.000000
_cell_angle_beta 90.000000
_cell_angle_gamma 90.000000
_cell_volume 1574.932502
_symmetry_space_group_name_H-M "C M C 21"
_symmetry_group_IT_number 36
_symmetry_cell_setting 'orthorhombic'
loop_
_space_group_symop_operation_xyz
x,y,z
-x,-y,1/2+z
x,-y,1/2+z
-x,y,z
1/2+x,1/2+y,z
1/2-x,1/2-y,1/2+z
1/2+x,1/2-y,1/2+z
1/2-x,1/2+y,z
loop_
_atom_site_type_symbol
_atom_site_label
_atom_site_fract_x
_atom_site_fract_y
_atom_site_fract_z
Si Si1 0.721825 0.912667 0.018740
Si Si2 0.594427 0.574482 0.653840
Si Si3 0.408831 0.815520 0.281488
Si Si4 0.621481 0.364256 0.570086
Si Si5 0.694673 0.872199 0.602777
O O1 0.823052 0.885731 0.038552
O O2 0.667630 0.872401 0.189406
O O3 0.707405 0.024098 0.014291
O O4 0.681282 0.871251 0.827543
O O5 0.500000 0.589192 0.557364
O O6 0.613175 0.462776 0.685576
O O7 0.586717 0.622579 0.859032
O O8 0.500000 0.869204 0.268355
O O9 0.427819 0.713215 0.192622
O O10 0.381827 0.813663 0.504333
O O11 0.716345 0.321377 0.558678
#
# Coordination Sequence:
#
# PCOD8176224 Si02
#       5
#     8   8   8   8   8
#     4  11  23  46  76 108 147 198 248 302 374 436
#     4  11  21  43  77 111 152 194 242 309 381 451
#     4  12  27  47  73 111 150 195 257 308 360 445
#     4  11  24  45  73 109 148 197 246 309 377 443
#     4  11  23  47  75 101 147 198 247 302 374 437
#
# _framework density 25.397915000000001
#
# number of rings (size 3 to 8) (size 9 to 14) (size 15 to 20)
#    0.000    0.800    4.000    5.400    2.800    1.600 
#    3.600    2.000    0.000    0.000    0.000    0.000 
#    0.000    0.000    0.000    0.000    0.000    0.000 
#
# Total GULP energy -247841.355088 kJ/mol
# GULP energy per Si atom -12392.067754 kJ/mol
# Density = 2.534011 g / cm^3
# Si number density = 25.397915 Si / 1000 Ang^3
#
#
#
# Elastic Constant Matrix: (Units=GPa)
#
#
# Indices 1 2 3 4 5 6 
#
# 1 199.2177 30.7405 50.4879 0.0000 0.0000 0.0000
# 2 30.7405 38.1821 34.4378 0.0000 0.0000 0.0000
# 3 50.4879 34.4378 145.8884 0.0000 0.0000 0.0000
# 4 0.0000 0.0000 0.0000 40.7331 0.0000 0.0000
# 5 0.0000 0.0000 0.0000 0.0000 5.1641 0.0000
# 6 0.0000 0.0000 0.0000 0.0000 0.0000 7.2963
#
#
#
# Elastic Compliance Matrix: (Units=1/GPa)
#
#
# Indices 1 2 3 4 5 6 
#
# 1 0.005884 -0.003685 -0.001166 0.000000 0.000000 0.000000
# 2 -0.003685 0.035583 -0.007124 0.000000 0.000000 0.000000
# 3 -0.001166 -0.007124 0.008940 0.000000 0.000000 0.000000
# 4 0.000000 0.000000 0.000000 0.024550 0.000000 0.000000
# 5 0.000000 0.000000 0.000000 0.000000 0.193645 0.000000
# 6 0.000000 0.000000 0.000000 0.000000 0.000000 0.137057
#
#
# Mechanical properties :
#
#
# Convention : Reuss Voigt Hill
#
# Bulk Modulus (GPa) = 37.79976 68.29120 53.04548
# Shear Modulus (GPa) = 11.40438 28.48015 19.94227
#
# Velocity S-wave (km/s) = 2.12133 3.35230 2.80517
# Velocity P-wave (km/s) = 4.57333 6.47540 5.60563
#
# Compressibility (1/GPa) = 0.02645519
#
# Stress axis : x y z
#
# Youngs Moduli (GPa) = 169.95642 28.10343 111.85798
#
# Poissons Ratio (x) = 0.10357 0.13046
# Poissons Ratio (y) = 0.62632 0.79690
# Poissons Ratio (z) = 0.19823 0.20021
#
# Static dielectric constant tensor:
#      x y z
#    x 4.610670 0.000000 0.000000 
#    y 0.000000 4.319180 0.000000 
#    z 0.000000 0.000000 4.476960 
# 
# 
# High freq. dielectric constant tensor:
#      x y z
#    x 2.019430 0.000000 0.000000 
#    y 0.000000 1.994140 0.000000 
#    z 0.000000 0.000000 2.019920 
# 
# From -- ./inp_files/3813.got.cif
#   From: 2010.03.12/outbox.cif.g09.slc.cpg/sg36_2_cif.got.tgz:3813.got - 2010.04.14 02:13:53.
