data_PCOD8176904
_publ_section_title
;
Structure prediction by ZEFSAII (Michael W. Deem and Ramdas Pophale) SiO2 
 PCOD8176904
Probable space group: C C C 2
;
_chemical_formula_sum "Si O2"
_cell_formula_units_Z 52
_cell_length_a 17.585672
_cell_length_b 15.125867
_cell_length_c 8.704727
_cell_angle_alpha 90.000000
_cell_angle_beta 90.000000
_cell_angle_gamma 90.000000
_cell_volume 2315.444636
_symmetry_space_group_name_H-M "C C C 2"
_symmetry_group_IT_number 37
_symmetry_cell_setting 'orthorhombic'
loop_
_space_group_symop_operation_xyz
x,y,z
-x,-y,z
-x,y,1/2+z
x,-y,1/2+z
1/2+x,1/2+y,z
1/2-x,1/2-y,z
1/2-x,1/2+y,1/2+z
1/2+x,1/2-y,1/2+z
loop_
_atom_site_type_symbol
_atom_site_label
_atom_site_fract_x
_atom_site_fract_y
_atom_site_fract_z
Si Si1 0.356881 0.750744 0.588750
Si Si2 0.597571 0.052904 0.162702
Si Si3 0.750000 0.750000 0.353881
Si Si4 0.389933 0.555148 0.580125
Si Si5 0.040374 0.389278 0.000792
Si Si6 0.500000 0.500000 0.827194
Si Si7 0.750000 0.750000 0.836641
Si Si8 0.270143 0.605930 0.103066
O O1 0.322158 0.779102 0.751620
O O2 0.344576 0.645804 0.575292
O O3 0.440668 0.789085 0.556715
O O4 0.311215 0.796306 0.447717
O O5 0.550429 0.102881 0.026189
O O6 0.566255 0.083620 0.329275
O O7 0.686553 0.070201 0.141846
O O8 0.582411 0.949745 0.130197
O O9 0.728480 0.662025 0.447282
O O10 0.448350 0.562999 0.721835
O O11 0.440995 0.554991 0.428065
O O12 0.331841 0.472573 0.592670
O O13 0.707641 0.674865 0.736555
#
# Coordination Sequence:
#
# PCOD8176904 Si02
#       8
#     8   8   4   8   8   4   4   8
#     4  11  24  43  66 104 140 182 240 298 357 423
#     4  11  25  44  70  98 134 193 233 293 369 421
#     4  10  26  40  66 106 138 180 250 286 352 422
#     4  11  24  44  72  99 143 184 234 295 360 427
#     4  11  25  44  67  99 142 179 246 294 355 441
#     4  10  24  46  64 106 132 186 240 272 366 438
#     4  10  22  44  62 102 134 176 244 288 354 420
#     4  11  24  45  73  98 143 185 236 294 356 432
#
# _framework density 22.457891
#
# number of rings (size 3 to 8) (size 9 to 14) (size 15 to 20)
#    0.000    1.231    1.538    3.692    8.615    2.462 
#   11.077    0.000    0.000    0.000    0.000    0.000 
#    0.000    0.000    0.000    0.000    0.000    0.000 
#
# Total GULP energy -322118.851087 kJ/mol
# GULP energy per Si atom -12389.186580 kJ/mol
# Density = 2.240678 g / cm^3
# Si number density = 22.457891 Si / 1000 Ang^3
#
#
#
# Elastic Constant Matrix: (Units=GPa)
#
#
# Indices 1 2 3 4 5 6 
#
# 1 120.6305 35.2641 48.7064 0.0000 0.0000 0.0000
# 2 35.2641 117.6709 42.2133 0.0000 0.0000 0.0000
# 3 48.7064 42.2133 152.3042 0.0000 0.0000 0.0000
# 4 0.0000 0.0000 0.0000 -0.5081 0.0000 0.0000
# 5 0.0000 0.0000 0.0000 0.0000 63.2801 0.0000
# 6 0.0000 0.0000 0.0000 0.0000 0.0000 37.9839
#
#
#
# Elastic Compliance Matrix: (Units=1/GPa)
#
#
# Indices 1 2 3 4 5 6 
#
# 1 0.009942 -0.002042 -0.002613 0.000000 0.000000 0.000000
# 2 -0.002042 0.009856 -0.002079 0.000000 0.000000 0.000000
# 3 -0.002613 -0.002079 0.007978 0.000000 0.000000 0.000000
# 4 0.000000 0.000000 0.000000 -1.968142 0.000000 0.000000
# 5 0.000000 0.000000 0.000000 0.000000 0.015803 0.000000
# 6 0.000000 0.000000 0.000000 0.000000 0.000000 0.026327
#
#
# Mechanical properties :
#
#
# Convention : Reuss Voigt Hill
#
# Bulk Modulus (GPa) = 69.89368 71.44144 70.66756
# Shear Modulus (GPa) = -2.65958 37.77932 17.55987
#
# Velocity S-wave (km/s) = -1.08941 4.10595 2.79928
# Velocity P-wave (km/s) = 5.44125 7.37284 6.47943
#
# Compressibility (1/GPa) = 0.01430745
#
# Stress axis : x y z
#
# Youngs Moduli (GPa) = 100.58436 101.46184 125.34897
#
# Poissons Ratio (x) = 0.20717 0.32759
# Poissons Ratio (y) = 0.20538 0.26057
# Poissons Ratio (z) = 0.26287 0.21091
#
# Static dielectric constant tensor:
#      x y z
#    x 4.089800 0.000000 0.000000 
#    y 0.000000 3.910040 0.000000 
#    z 0.000000 0.000000 4.405140 
# 
# 
# High freq. dielectric constant tensor:
#      x y z
#    x 1.885110 0.000000 0.000000 
#    y 0.000000 1.871990 0.000000 
#    z 0.000000 0.000000 1.908690 
# 
# From -- ./inp_files/4075.got.cif
#   From: 2010.03.12/outbox.cif.g09.slc.cpg/sg37_3_cif.got.tgz:4075.got - 2010.04.14 02:25:27.
