data_PCOD8176275
_publ_section_title
;
Structure prediction by ZEFSAII (Michael W. Deem and Ramdas Pophale) SiO2 
 PCOD8176275
Probable space group: C M C 21
;
_chemical_formula_sum "Si O2"
_cell_formula_units_Z 48
_cell_length_a 27.246130
_cell_length_b 8.658827
_cell_length_c 9.296368
_cell_angle_alpha 90.000000
_cell_angle_beta 90.000000
_cell_angle_gamma 90.000000
_cell_volume 2193.194733
_symmetry_space_group_name_H-M "C M C 21"
_symmetry_group_IT_number 36
_symmetry_cell_setting 'orthorhombic'
loop_
_space_group_symop_operation_xyz
x,y,z
-x,-y,1/2+z
x,-y,1/2+z
-x,y,z
1/2+x,1/2+y,z
1/2-x,1/2-y,1/2+z
1/2+x,1/2-y,1/2+z
1/2-x,1/2+y,z
loop_
_atom_site_type_symbol
_atom_site_label
_atom_site_fract_x
_atom_site_fract_y
_atom_site_fract_z
Si Si1 0.944942 0.369104 0.884010
Si Si2 0.556794 0.340277 0.648166
Si Si3 0.205845 0.109600 0.705855
Si Si4 0.886146 0.668708 0.878937
Si Si5 0.281773 0.302738 0.874809
Si Si6 0.595592 0.335004 0.156821
O O1 0.904769 0.497201 0.840296
O O2 0.941840 0.223508 0.777575
O O3 0.000000 0.439525 0.876666
O O4 0.933786 0.300385 0.039967
O O5 0.500000 0.355526 0.687813
O O6 0.588058 0.301566 0.787610
O O7 0.576600 0.504099 0.589062
O O8 0.233765 0.212183 0.824280
O O9 0.223644 0.133169 0.539184
O O10 0.149217 0.149246 0.724673
O O11 0.212218 0.933859 0.754563
O O12 0.827473 0.683567 0.863979
O O13 0.903213 0.700654 0.039893
#
# Coordination Sequence:
#
# PCOD8176275 Si02
#       6
#     8   8   8   8   8   8
#     4  11  25  42  66  99 137 182 228 281 342 410
#     4  11  23  41  68  97 134 181 226 279 337 406
#     4  11  25  45  70 102 135 180 231 289 355 420
#     4  11  24  43  66  98 135 176 224 282 344 404
#     4  11  25  46  71 101 137 181 228 292 353 421
#     4  11  24  43  67  97 134 178 225 285 343 413
#
# _framework density 21.885881000000001
#
# number of rings (size 3 to 8) (size 9 to 14) (size 15 to 20)
#    0.000    1.000    1.667    4.000    4.667    6.667 
#    0.000    0.000    0.000    0.000    0.000    0.000 
#    0.000    0.000    0.000    0.000    0.000    0.000 
#
# Total GULP energy -297615.615608 kJ/mol
# GULP energy per Si atom -12400.650650 kJ/mol
# Density = 2.183607 g / cm^3
# Si number density = 21.885881 Si / 1000 Ang^3
#
#
#
# Elastic Constant Matrix: (Units=GPa)
#
#
# Indices 1 2 3 4 5 6 
#
# 1 58.9451 24.1596 34.8286 0.0000 0.0000 0.0000
# 2 24.1596 102.6496 22.7096 0.0000 0.0000 0.0000
# 3 34.8286 22.7096 73.5554 0.0000 0.0000 0.0000
# 4 0.0000 0.0000 0.0000 34.0592 0.0000 0.0000
# 5 0.0000 0.0000 0.0000 0.0000 13.3335 0.0000
# 6 0.0000 0.0000 0.0000 0.0000 0.0000 37.7953
#
#
#
# Elastic Compliance Matrix: (Units=1/GPa)
#
#
# Indices 1 2 3 4 5 6 
#
# 1 0.024646 -0.003455 -0.010603 0.000000 0.000000 0.000000
# 2 -0.003455 0.010940 -0.001742 0.000000 0.000000 0.000000
# 3 -0.010603 -0.001742 0.019154 0.000000 0.000000 0.000000
# 4 0.000000 0.000000 0.000000 0.029361 0.000000 0.000000
# 5 0.000000 0.000000 0.000000 0.000000 0.074999 0.000000
# 6 0.000000 0.000000 0.000000 0.000000 0.000000 0.026458
#
#
# Mechanical properties :
#
#
# Convention : Reuss Voigt Hill
#
# Bulk Modulus (GPa) = 43.21513 44.28287 43.74900
# Shear Modulus (GPa) = 22.23492 27.26775 24.75133
#
# Velocity S-wave (km/s) = 3.19085 3.53357 3.36657
# Velocity P-wave (km/s) = 5.77615 6.07664 5.92830
#
# Compressibility (1/GPa) = 0.02314004
#
# Stress axis : x y z
#
# Youngs Moduli (GPa) = 40.57438 91.40454 52.20936
#
# Poissons Ratio (x) = 0.31579 0.55359
# Poissons Ratio (y) = 0.14018 0.09094
# Poissons Ratio (z) = 0.43022 0.15921
#
# Static dielectric constant tensor:
#      x y z
#    x 4.033360 0.000000 0.000000 
#    y 0.000000 3.820410 0.000000 
#    z 0.000000 0.000000 3.911400 
# 
# 
# High freq. dielectric constant tensor:
#      x y z
#    x 1.866020 0.000000 0.000000 
#    y 0.000000 1.866260 0.000000 
#    z 0.000000 0.000000 1.866760 
# 
# From -- ./inp_files/5967.got.cif
#   From: 2010.03.12/outbox.cif.g09.slc.cpg/sg36_3_cif.got.tgz:5967.got - 2010.04.14 02:13:53.
