data_PCOD8176122
_publ_section_title
;
Structure prediction by ZEFSAII (Michael W. Deem and Ramdas Pophale) SiO2 
 PCOD8176122
Probable space group: C M C 21
;
_chemical_formula_sum "Si O2"
_cell_formula_units_Z 64
_cell_length_a 8.702460
_cell_length_b 23.938543
_cell_length_c 15.226001
_cell_angle_alpha 90.000000
_cell_angle_beta 90.000000
_cell_angle_gamma 90.000000
_cell_volume 3171.944674
_symmetry_space_group_name_H-M "C M C 21"
_symmetry_group_IT_number 36
_symmetry_cell_setting 'orthorhombic'
loop_
_space_group_symop_operation_xyz
x,y,z
-x,-y,1/2+z
x,-y,1/2+z
-x,y,z
1/2+x,1/2+y,z
1/2-x,1/2-y,1/2+z
1/2+x,1/2-y,1/2+z
1/2-x,1/2+y,z
loop_
_atom_site_type_symbol
_atom_site_label
_atom_site_fract_x
_atom_site_fract_y
_atom_site_fract_z
Si Si1 0.819388 0.002890 0.391150
Si Si2 0.321530 0.375615 0.823323
Si Si3 0.675852 0.226837 0.399635
Si Si4 0.680413 0.495626 0.590315
Si Si5 0.681095 0.070850 0.739570
Si Si6 0.181363 0.300920 0.253174
Si Si7 0.324817 0.274748 0.590071
Si Si8 0.177170 0.618418 0.143687
O O1 0.774990 0.064362 0.359707
O O2 0.000000 0.991845 0.387167
O O3 0.757008 0.998140 0.490615
O O4 0.740173 0.957898 0.328560
O O5 0.500000 0.372889 0.797601
O O6 0.281536 0.328071 0.893251
O O7 0.215213 0.360498 0.740998
O O8 0.500000 0.213283 0.375576
O O9 0.734348 0.277010 0.338505
O O10 0.692905 0.242558 0.500206
O O11 0.500000 0.506119 0.593304
O O12 0.755790 0.542586 0.651210
O O13 0.717344 0.434869 0.627035
O O14 0.500000 0.064840 0.737677
O O15 0.734038 0.135153 0.739955
O O16 0.232494 0.265683 0.167985
O O17 0.000000 0.297081 0.268386
O O18 0.500000 0.293344 0.607427
O O19 0.220864 0.330199 0.580837
O O20 0.000000 0.602088 0.131842
#
# Coordination Sequence:
#
# PCOD8176122 Si02
#       8
#     8   8   8   8   8   8   8   8
#     4  10  24  43  65  91 123 168 211 253 311 378
#     4  11  22  41  66  91 125 165 205 260 319 369
#     4  11  24  40  64  96 124 163 213 257 307 371
#     4  11  24  43  65  92 126 168 210 255 316 378
#     4  11  24  41  64  94 126 165 208 259 315 370
#     4  10  23  43  63  87 126 169 205 253 316 368
#     4  10  23  43  64  89 127 170 205 254 316 373
#     4  12  24  40  65  96 123 160 213 265 312 369
#
# _framework density 20.176898000000001
#
# number of rings (size 3 to 8) (size 9 to 14) (size 15 to 20)
#    0.000    1.250    2.500    2.625    3.500    3.500 
#    0.000    0.000    0.000    0.000    0.000    0.000 
#    0.000    0.000    0.000    0.000    0.000    0.000 
#
# Total GULP energy -396939.402063 kJ/mol
# GULP energy per Si atom -12404.356314 kJ/mol
# Density = 2.013097 g / cm^3
# Si number density = 20.176898 Si / 1000 Ang^3
#
#
#
# Elastic Constant Matrix: (Units=GPa)
#
#
# Indices 1 2 3 4 5 6 
#
# 1 55.2993 31.9680 27.9751 0.0000 0.0000 0.0000
# 2 31.9680 128.5584 30.2116 0.0000 0.0000 0.0000
# 3 27.9751 30.2116 99.7451 0.0000 0.0000 0.0000
# 4 0.0000 0.0000 0.0000 24.6251 0.0000 0.0000
# 5 0.0000 0.0000 0.0000 0.0000 29.6836 0.0000
# 6 0.0000 0.0000 0.0000 0.0000 0.0000 31.7554
#
#
#
# Elastic Compliance Matrix: (Units=1/GPa)
#
#
# Indices 1 2 3 4 5 6 
#
# 1 0.023348 -0.004594 -0.005157 0.000000 0.000000 0.000000
# 2 -0.004594 0.009279 -0.001522 0.000000 0.000000 0.000000
# 3 -0.005157 -0.001522 0.011933 0.000000 0.000000 0.000000
# 4 0.000000 0.000000 0.000000 0.040609 0.000000 0.000000
# 5 0.000000 0.000000 0.000000 0.000000 0.033689 0.000000
# 6 0.000000 0.000000 0.000000 0.000000 0.000000 0.031491
#
#
# Mechanical properties :
#
#
# Convention : Reuss Voigt Hill
#
# Bulk Modulus (GPa) = 45.42583 51.54580 48.48582
# Shear Modulus (GPa) = 27.74218 30.10936 28.92577
#
# Velocity S-wave (km/s) = 3.71205 3.86718 3.79041
# Velocity P-wave (km/s) = 6.39805 6.74852 6.57562
#
# Compressibility (1/GPa) = 0.02201391
#
# Stress axis : x y z
#
# Youngs Moduli (GPa) = 42.83045 107.77518 83.80232
#
# Poissons Ratio (x) = 0.49511 0.43215
# Poissons Ratio (y) = 0.19676 0.12754
# Poissons Ratio (z) = 0.22087 0.16403
#
# Static dielectric constant tensor:
#      x y z
#    x 3.653020 0.000000 0.000000 
#    y 0.000000 3.749530 0.000000 
#    z 0.000000 0.000000 3.785760 
# 
# 
# High freq. dielectric constant tensor:
#      x y z
#    x 1.786720 0.000000 0.000000 
#    y 0.000000 1.801790 0.000000 
#    z 0.000000 0.000000 1.796370 
# 
# From -- ./inp_files/10958.got.cif
#   From: 2010.03.12/outbox.cif.g09.slc.cpg/sg36_6_cif.got.tgz:10958.got - 2010.04.14 02:13:53.
