data_PCOD8176133
_publ_section_title
;
Structure prediction by ZEFSAII (Michael W. Deem and Ramdas Pophale) SiO2 
 PCOD8176133
Probable space group: C M C 21
;
_chemical_formula_sum "Si O2"
_cell_formula_units_Z 64
_cell_length_a 30.998360
_cell_length_b 8.717131
_cell_length_c 10.483677
_cell_angle_alpha 90.000000
_cell_angle_beta 90.000000
_cell_angle_gamma 90.000000
_cell_volume 2832.865283
_symmetry_space_group_name_H-M "C M C 21"
_symmetry_group_IT_number 36
_symmetry_cell_setting 'orthorhombic'
loop_
_space_group_symop_operation_xyz
x,y,z
-x,-y,1/2+z
x,-y,1/2+z
-x,y,z
1/2+x,1/2+y,z
1/2-x,1/2-y,1/2+z
1/2+x,1/2-y,1/2+z
1/2-x,1/2+y,z
loop_
_atom_site_type_symbol
_atom_site_label
_atom_site_fract_x
_atom_site_fract_y
_atom_site_fract_z
Si Si1 0.119974 0.140422 0.259100
Si Si2 0.952102 0.191104 0.936362
Si Si3 0.692466 0.240892 0.608965
Si Si4 0.309371 0.215631 0.324159
Si Si5 0.756927 0.991033 0.216515
Si Si6 0.899342 0.928715 0.031989
Si Si7 0.549626 0.860780 0.189237
Si Si8 0.400166 0.824965 0.714316
O O1 0.154884 0.268385 0.216502
O O2 0.129497 0.078618 0.402068
O O3 0.072587 0.219064 0.262224
O O4 0.125500 0.008091 0.151141
O O5 0.918476 0.213693 0.823508
O O6 0.000000 0.183933 0.879175
O O7 0.948240 0.328919 0.038077
O O8 0.942068 0.027931 0.003162
O O9 0.672410 0.224618 0.468056
O O10 0.724688 0.101928 0.628231
O O11 0.717505 0.400724 0.619860
O O12 0.291232 0.383051 0.287781
O O13 0.348647 0.160169 0.233542
O O14 0.270295 0.093504 0.316714
O O15 0.910070 0.755762 0.077900
O O16 0.500000 0.873349 0.236240
O O17 0.575181 0.015133 0.219977
#
# Coordination Sequence:
#
# PCOD8176133 Si02
#       8
#     8   8   8   8   8   8   8   8
#     4  11  24  45  71  97 134 179 224 281 340 407
#     4  10  23  44  67  97 139 180 228 285 338 403
#     4  11  23  43  69  96 138 173 227 282 337 405
#     4  11  23  43  68  97 136 173 229 281 340 405
#     4  10  24  43  64 103 128 182 219 278 347 407
#     4  11  24  44  67 100 129 180 231 278 335 402
#     4  10  24  44  66  98 137 177 223 279 343 408
#     4  12  24  42  70 100 133 180 231 280 346 407
#
# _framework density 22.591968000000001
#
# number of rings (size 3 to 8) (size 9 to 14) (size 15 to 20)
#    0.000    1.250    1.250    4.125    3.500    1.500 
#   13.500    0.000    0.000    0.000    0.000    0.000 
#    0.000    0.000    0.000    0.000    0.000    0.000 
#
# Total GULP energy -396798.325890 kJ/mol
# GULP energy per Si atom -12399.947684 kJ/mol
# Density = 2.254055 g / cm^3
# Si number density = 22.591968 Si / 1000 Ang^3
#
#
#
# Elastic Constant Matrix: (Units=GPa)
#
#
# Indices 1 2 3 4 5 6 
#
# 1 125.7827 40.0551 32.6230 0.0000 0.0000 0.0000
# 2 40.0551 98.3145 37.3655 0.0000 0.0000 0.0000
# 3 32.6230 37.3655 132.3931 0.0000 0.0000 0.0000
# 4 0.0000 0.0000 0.0000 26.2394 0.0000 0.0000
# 5 0.0000 0.0000 0.0000 0.0000 31.8699 0.0000
# 6 0.0000 0.0000 0.0000 0.0000 0.0000 20.6942
#
#
#
# Elastic Compliance Matrix: (Units=1/GPa)
#
#
# Indices 1 2 3 4 5 6 
#
# 1 0.009354 -0.003288 -0.001377 0.000000 0.000000 0.000000
# 2 -0.003288 0.012549 -0.002732 0.000000 0.000000 0.000000
# 3 -0.001377 -0.002732 0.008664 0.000000 0.000000 0.000000
# 4 0.000000 0.000000 0.000000 0.038111 0.000000 0.000000
# 5 0.000000 0.000000 0.000000 0.000000 0.031378 0.000000
# 6 0.000000 0.000000 0.000000 0.000000 0.000000 0.048323
#
#
# Mechanical properties :
#
#
# Convention : Reuss Voigt Hill
#
# Bulk Modulus (GPa) = 63.39519 64.06417 63.72968
# Shear Modulus (GPa) = 29.68611 32.19047 30.93829
#
# Velocity S-wave (km/s) = 3.62886 3.77883 3.70461
# Velocity P-wave (km/s) = 6.75870 6.88898 6.82415
#
# Compressibility (1/GPa) = 0.01577407
#
# Stress axis : x y z
#
# Youngs Moduli (GPa) = 106.90202 79.68690 115.42621
#
# Poissons Ratio (x) = 0.26199 0.15895
# Poissons Ratio (y) = 0.35147 0.31530
# Poissons Ratio (z) = 0.14721 0.21767
#
# Static dielectric constant tensor:
#      x y z
#    x 4.048300 0.000000 0.000000 
#    y 0.000000 4.125010 0.000000 
#    z 0.000000 0.000000 3.934650 
# 
# 
# High freq. dielectric constant tensor:
#      x y z
#    x 1.892550 0.000000 0.000000 
#    y 0.000000 1.896820 0.000000 
#    z 0.000000 0.000000 1.882100 
# 
# From -- ./inp_files/9748.got.cif
#   From: 2010.03.12/outbox.cif.g09.slc.cpg/sg36_5_cif.got.tgz:9748.got - 2010.04.14 02:13:53.
