data_PCOD8176348
_publ_section_title
;
Structure prediction by ZEFSAII (Michael W. Deem and Ramdas Pophale) SiO2 
 PCOD8176348
Probable space group: C M C 21
;
_chemical_formula_sum "Si O2"
_cell_formula_units_Z 64
_cell_length_a 18.461377
_cell_length_b 26.439784
_cell_length_c 9.193432
_cell_angle_alpha 90.000000
_cell_angle_beta 90.000000
_cell_angle_gamma 90.000000
_cell_volume 4487.450408
_symmetry_space_group_name_H-M "C M C 21"
_symmetry_group_IT_number 36
_symmetry_cell_setting 'orthorhombic'
loop_
_space_group_symop_operation_xyz
x,y,z
-x,-y,1/2+z
x,-y,1/2+z
-x,y,z
1/2+x,1/2+y,z
1/2-x,1/2-y,1/2+z
1/2+x,1/2-y,1/2+z
1/2-x,1/2+y,z
loop_
_atom_site_type_symbol
_atom_site_label
_atom_site_fract_x
_atom_site_fract_y
_atom_site_fract_z
Si Si1 0.345428 0.650570 0.129010
Si Si2 0.154571 0.150569 0.792523
Si Si3 0.584349 0.450015 0.291406
Si Si4 0.083460 0.746361 0.631998
Si Si5 0.916540 0.746363 0.289530
Si Si6 0.707661 0.793945 0.291240
Si Si7 0.207661 0.706056 0.130287
Si Si8 0.415651 0.549987 0.130134
O O1 0.389251 0.699049 0.191695
O O2 0.258238 0.656233 0.151073
O O3 0.372664 0.598005 0.198820
O O4 0.366517 0.648052 0.960766
O O5 0.127336 0.098003 0.722716
O O6 0.110748 0.199047 0.729836
O O7 0.241762 0.156232 0.770459
O O8 0.500000 0.440591 0.261396
O O9 0.600936 0.457424 0.460770
O O10 0.612423 0.500001 0.210772
O O11 0.097886 0.741121 0.460764
O O12 0.128823 0.702066 0.714960
O O13 0.000000 0.738958 0.672075
O O14 0.871177 0.702068 0.206567
O O15 0.000000 0.738959 0.249453
O O16 0.750000 0.750001 0.210761
O O17 0.698321 0.781191 0.460763
O O18 0.500000 0.559410 0.160143
#
# Coordination Sequence:
#
# PCOD8176348 Si02
#       8
#     8   8   8   8   8   8   8   8
#     4   8  14  25  40  54  71 101 133 154 179 221
#     4   8  14  25  40  54  71 101 133 154 179 221
#     4   9  16  26  39  54  73  97 126 158 187 215
#     4   9  16  26  40  57  77 102 130 156 185 224
#     4   9  16  26  40  57  77 102 130 156 185 224
#     4   9  16  26  39  55  75  99 128 159 189 222
#     4   9  16  26  39  55  75  99 128 159 189 222
#     4   9  16  26  39  54  73  97 126 158 187 215
#
# _framework density 14.261996999999999
#
# number of rings (size 3 to 8) (size 9 to 14) (size 15 to 20)
#    0.000    3.250    0.000    3.000    0.000    3.500 
#    0.000    6.250    0.000    6.000    0.000    0.000 
#    0.000    1.000    0.000    2.250    0.000    4.000 
#
# Total GULP energy -396467.496636 kJ/mol
# GULP energy per Si atom -12389.609270 kJ/mol
# Density = 1.422954 g / cm^3
# Si number density = 14.261997 Si / 1000 Ang^3
#
#
#
# Elastic Constant Matrix: (Units=GPa)
#
#
# Indices 1 2 3 4 5 6 
#
# 1 108.7554 48.5557 41.2806 0.0000 0.0000 0.0000
# 2 48.5557 72.9707 27.4915 0.0000 0.0000 0.0000
# 3 41.2806 27.4915 45.7695 0.0000 0.0000 0.0000
# 4 0.0000 0.0000 0.0000 16.8988 0.0000 0.0000
# 5 0.0000 0.0000 0.0000 0.0000 24.4401 0.0000
# 6 0.0000 0.0000 0.0000 0.0000 0.0000 24.3202
#
#
#
# Elastic Compliance Matrix: (Units=1/GPa)
#
#
# Indices 1 2 3 4 5 6 
#
# 1 0.016254 -0.006840 -0.010551 0.000000 0.000000 0.000000
# 2 -0.006840 0.020591 -0.006199 0.000000 0.000000 0.000000
# 3 -0.010551 -0.006199 0.035088 0.000000 0.000000 0.000000
# 4 0.000000 0.000000 0.000000 0.059176 0.000000 0.000000
# 5 0.000000 0.000000 0.000000 0.000000 0.040916 0.000000
# 6 0.000000 0.000000 0.000000 0.000000 0.000000 0.041118
#
#
# Mechanical properties :
#
#
# Convention : Reuss Voigt Hill
#
# Bulk Modulus (GPa) = 40.39918 51.35013 45.87465
# Shear Modulus (GPa) = 18.61682 20.47633 19.54657
#
# Velocity S-wave (km/s) = 3.61687 3.79321 3.70609
# Velocity P-wave (km/s) = 6.76981 7.43422 7.10978
#
# Compressibility (1/GPa) = 0.02475298
#
# Stress axis : x y z
#
# Youngs Moduli (GPa) = 61.52385 48.56457 28.49981
#
# Poissons Ratio (x) = 0.33220 0.30070
# Poissons Ratio (y) = 0.42085 0.17666
# Poissons Ratio (z) = 0.64914 0.30103
#
# Static dielectric constant tensor:
#      x y z
#    x 3.177170 0.000000 0.000000 
#    y 0.000000 2.814800 0.000000 
#    z 0.000000 0.000000 2.757610 
# 
# 
# High freq. dielectric constant tensor:
#      x y z
#    x 1.539480 0.000000 0.000000 
#    y 0.000000 1.509910 0.000000 
#    z 0.000000 0.000000 1.531820 
# 
# From -- ./inp_files/5000.got.cif
#   From: 2010.03.12/outbox.cif.g09.slc.cpg/sg36_3_cif.got.tgz:5000.got - 2010.04.14 02:13:53.
