data_PCOD8176593
_publ_section_title
;
Structure prediction by ZEFSAII (Michael W. Deem and Ramdas Pophale) SiO2 
 PCOD8176593
Probable space group: C C C 2
;
_chemical_formula_sum "Si O2"
_cell_formula_units_Z 48
_cell_length_a 8.541822
_cell_length_b 15.353624
_cell_length_c 18.754229
_cell_angle_alpha 90.000000
_cell_angle_beta 90.000000
_cell_angle_gamma 90.000000
_cell_volume 2459.578186
_symmetry_space_group_name_H-M "C C C 2"
_symmetry_group_IT_number 37
_symmetry_cell_setting 'orthorhombic'
loop_
_space_group_symop_operation_xyz
x,y,z
-x,-y,z
-x,y,1/2+z
x,-y,1/2+z
1/2+x,1/2+y,z
1/2-x,1/2-y,z
1/2-x,1/2+y,1/2+z
1/2+x,1/2-y,1/2+z
loop_
_atom_site_type_symbol
_atom_site_label
_atom_site_fract_x
_atom_site_fract_y
_atom_site_fract_z
Si Si1 0.865206 0.167791 0.325380
Si Si2 0.931613 0.743309 0.214136
Si Si3 0.430981 0.250526 0.561853
Si Si4 0.428684 0.094398 0.454819
Si Si5 0.559230 0.906308 0.803931
Si Si6 0.938857 0.095889 0.956391
O O1 0.750000 0.250000 0.342479
O O2 0.748296 0.089355 0.305127
O O3 0.975980 0.182590 0.257445
O O4 0.973563 0.139334 0.390171
O O5 0.750000 0.750000 0.231526
O O6 0.995687 0.651211 0.239929
O O7 0.959452 0.750584 0.130353
O O8 0.250000 0.250000 0.585053
O O9 0.470821 0.165440 0.514581
O O10 0.471116 0.340060 0.522000
O O11 0.500900 0.128535 0.380737
O O12 0.244503 0.087886 0.441070
O O13 0.500000 0.000000 0.476191
O O14 0.500000 0.000000 0.785647
O O15 0.000000 0.000000 0.975317
#
# Coordination Sequence:
#
# PCOD8176593 Si02
#       6
#     8   8   8   8   8   8
#     4  10  21  38  61  84 116 153 192 239 289 344
#     4  11  23  38  58  83 114 153 193 235 289 345
#     4  10  22  40  58  80 117 157 192 235 287 345
#     4  10  21  38  62  88 117 152 192 236 288 344
#     4  10  20  37  60  86 115 148 189 236 286 342
#     4  11  22  37  60  89 117 149 193 241 287 342
#
# _framework density 19.515542
#
# number of rings (size 3 to 8) (size 9 to 14) (size 15 to 20)
#    0.000    1.667    0.000    6.500    0.000    5.333 
#    0.000    4.167    0.000    0.000    0.000    0.000 
#    0.000    0.000    0.000    0.000    0.000    0.000 
#
# Total GULP energy -297577.612599 kJ/mol
# GULP energy per Si atom -12399.067192 kJ/mol
# Density = 1.947112 g / cm^3
# Si number density = 19.515542 Si / 1000 Ang^3
#
#
#
# Elastic Constant Matrix: (Units=GPa)
#
#
# Indices 1 2 3 4 5 6 
#
# 1 151.9595 52.5534 66.0852 0.0000 0.0000 0.0000
# 2 52.5534 106.2751 58.2495 0.0000 0.0000 0.0000
# 3 66.0852 58.2495 121.9003 0.0000 0.0000 0.0000
# 4 0.0000 0.0000 0.0000 12.7886 0.0000 0.0000
# 5 0.0000 0.0000 0.0000 0.0000 35.6990 0.0000
# 6 0.0000 0.0000 0.0000 0.0000 0.0000 33.7549
#
#
#
# Elastic Compliance Matrix: (Units=1/GPa)
#
#
# Indices 1 2 3 4 5 6 
#
# 1 0.009048 -0.002419 -0.003749 0.000000 0.000000 0.000000
# 2 -0.002419 0.013395 -0.005089 0.000000 0.000000 0.000000
# 3 -0.003749 -0.005089 0.012668 0.000000 0.000000 0.000000
# 4 0.000000 0.000000 0.000000 0.078195 0.000000 0.000000
# 5 0.000000 0.000000 0.000000 0.000000 0.028012 0.000000
# 6 0.000000 0.000000 0.000000 0.000000 0.000000 0.029625
#
#
# Mechanical properties :
#
#
# Convention : Reuss Voigt Hill
#
# Bulk Modulus (GPa) = 79.39260 81.54569 80.46915
# Shear Modulus (GPa) = 25.29638 29.99829 27.64734
#
# Velocity S-wave (km/s) = 3.60421 3.92490 3.76797
# Velocity P-wave (km/s) = 7.62171 7.90035 7.76228
#
# Compressibility (1/GPa) = 0.01259563
#
# Stress axis : x y z
#
# Youngs Moduli (GPa) = 110.52444 74.65260 78.94072
#
# Poissons Ratio (x) = 0.18061 0.29594
# Poissons Ratio (y) = 0.26740 0.40176
# Poissons Ratio (z) = 0.41435 0.37993
#
# Static dielectric constant tensor:
#      x y z
#    x 3.881880 0.000000 0.000000 
#    y 0.000000 3.714110 0.000000 
#    z 0.000000 0.000000 3.397890 
# 
# 
# High freq. dielectric constant tensor:
#      x y z
#    x 1.779710 0.000000 0.000000 
#    y 0.000000 1.764580 0.000000 
#    z 0.000000 0.000000 1.752050 
# 
# From -- ./inp_files/10619.got.cif
#   From: 2010.03.12/outbox.cif.g09.slc.cpg/sg37_6_cif.got.tgz:10619.got - 2010.04.14 02:25:27.
