data_PCOD8176433
_publ_section_title
;
Structure prediction by ZEFSAII (Michael W. Deem and Ramdas Pophale) SiO2 
 PCOD8176433
Probable space group: C C C 2
;
_chemical_formula_sum "Si O2"
_cell_formula_units_Z 60
_cell_length_a 28.672174
_cell_length_b 20.989049
_cell_length_c 5.144778
_cell_angle_alpha 90.000000
_cell_angle_beta 90.000000
_cell_angle_gamma 90.000000
_cell_volume 3096.135967
_symmetry_space_group_name_H-M "C C C 2"
_symmetry_group_IT_number 37
_symmetry_cell_setting 'orthorhombic'
loop_
_space_group_symop_operation_xyz
x,y,z
-x,-y,z
-x,y,1/2+z
x,-y,1/2+z
1/2+x,1/2+y,z
1/2-x,1/2-y,z
1/2-x,1/2+y,1/2+z
1/2+x,1/2-y,1/2+z
loop_
_atom_site_type_symbol
_atom_site_label
_atom_site_fract_x
_atom_site_fract_y
_atom_site_fract_z
Si Si1 0.749562 0.041540 0.829710
Si Si2 0.319182 0.352860 0.173970
Si Si3 0.481536 0.822740 0.490591
Si Si4 0.750000 0.250000 0.791197
Si Si5 0.178957 0.351079 0.408724
Si Si6 0.373259 0.182538 0.890046
Si Si7 0.520942 0.680572 0.587227
Si Si8 0.628409 0.320833 0.192925
O O1 0.795549 0.082523 0.771900
O O2 0.703270 0.084367 0.811745
O O3 0.749473 0.984935 0.622057
O O4 0.281055 0.297487 0.113516
O O5 0.352727 0.329696 0.404134
O O6 0.348248 0.367537 0.909263
O O7 0.511568 0.858881 0.265923
O O8 0.428659 0.821749 0.399142
O O9 0.505086 0.754264 0.562066
O O10 0.782656 0.295782 0.968073
O O11 0.149107 0.364356 0.671714
O O12 0.145333 0.329362 0.177258
O O13 0.358116 0.251731 0.796090
O O14 0.511123 0.647419 0.310340
O O15 0.573273 0.670698 0.680967
#
# Coordination Sequence:
#
# PCOD8176433 Si02
#       8
#     8   8   8   4   8   8   8   8
#     4  11  24  47  64  77 108 147 202 254 290 337
#     4  11  24  35  56  85 109 153 184 234 293 336
#     4  10  19  29  46  71 112 172 186 201 256 326
#     4  10  20  34  48  78 116 136 172 208 284 368
#     4  11  24  35  56  85 109 153 184 234 293 336
#     4  12  20  33  51  81 125 153 182 224 266 345
#     4  10  19  29  46  71 112 172 186 201 256 326
#     4  12  20  33  51  81 125 153 182 224 266 345
#
# _framework density 19.378996000000001
#
# number of rings (size 3 to 8) (size 9 to 14) (size 15 to 20)
#    0.000    1.067    5.333    3.200    3.733    4.267 
#    0.000    0.000    0.000    0.000    0.000    0.000 
#    0.000   74.667    0.000    0.000    0.000    0.000 
#
# Total GULP energy -371739.027156 kJ/mol
# GULP energy per Si atom -12391.300905 kJ/mol
# Density = 1.933489 g / cm^3
# Si number density = 19.378996 Si / 1000 Ang^3
#
#
#
# Elastic Constant Matrix: (Units=GPa)
#
#
# Indices 1 2 3 4 5 6 
#
# 1 130.6910 23.8884 51.0330 0.0000 0.0000 0.0000
# 2 23.8884 44.7848 4.4072 0.0000 0.0000 0.0000
# 3 51.0330 4.4072 144.5845 0.0000 0.0000 0.0000
# 4 0.0000 0.0000 0.0000 25.4462 0.0000 0.0000
# 5 0.0000 0.0000 0.0000 0.0000 36.7530 0.0000
# 6 0.0000 0.0000 0.0000 0.0000 0.0000 13.6660
#
#
#
# Elastic Compliance Matrix: (Units=1/GPa)
#
#
# Indices 1 2 3 4 5 6 
#
# 1 0.009851 -0.004927 -0.003327 0.000000 0.000000 0.000000
# 2 -0.004927 0.024861 0.000981 0.000000 0.000000 0.000000
# 3 -0.003327 0.000981 0.008061 0.000000 0.000000 0.000000
# 4 0.000000 0.000000 0.000000 0.039299 0.000000 0.000000
# 5 0.000000 0.000000 0.000000 0.000000 0.027209 0.000000
# 6 0.000000 0.000000 0.000000 0.000000 0.000000 0.073174
#
#
# Mechanical properties :
#
#
# Convention : Reuss Voigt Hill
#
# Bulk Modulus (GPa) = 35.42717 53.19086 44.30901
# Shear Modulus (GPa) = 24.22367 31.22181 27.72274
#
# Velocity S-wave (km/s) = 3.53936 4.01823 3.78637
# Velocity P-wave (km/s) = 5.91808 7.00253 6.48302
#
# Compressibility (1/GPa) = 0.02822692
#
# Stress axis : x y z
#
# Youngs Moduli (GPa) = 101.50801 40.22404 124.05771
#
# Poissons Ratio (x) = 0.19820 0.41274
# Poissons Ratio (y) = 0.50017 -0.12175
# Poissons Ratio (z) = 0.33772 -0.03948
#
# Static dielectric constant tensor:
#      x y z
#    x 3.671370 0.000000 0.000000 
#    y 0.000000 3.112130 0.000000 
#    z 0.000000 0.000000 5.370710 
# 
# 
# High freq. dielectric constant tensor:
#      x y z
#    x 1.767680 0.000000 0.000000 
#    y 0.000000 1.681120 0.000000 
#    z 0.000000 0.000000 1.782960 
# 
# From -- ./inp_files/1377.got.cif
#   From: 2010.03.12/outbox.cif.g09.slc.cpg/sg37_1_cif.got.tgz:1377.got - 2010.04.14 02:25:27.
