data_PCOD8176033
_publ_section_title
;
Structure prediction by ZEFSAII (Michael W. Deem and Ramdas Pophale) SiO2 
 PCOD8176033
Probable space group: C M C 21
;
_chemical_formula_sum "Si O2"
_cell_formula_units_Z 48
_cell_length_a 8.543047
_cell_length_b 17.529687
_cell_length_c 14.969671
_cell_angle_alpha 90.000000
_cell_angle_beta 90.000000
_cell_angle_gamma 90.000000
_cell_volume 2241.812121
_symmetry_space_group_name_H-M "C M C 21"
_symmetry_group_IT_number 36
_symmetry_cell_setting 'orthorhombic'
loop_
_space_group_symop_operation_xyz
x,y,z
-x,-y,1/2+z
x,-y,1/2+z
-x,y,z
1/2+x,1/2+y,z
1/2-x,1/2-y,1/2+z
1/2+x,1/2-y,1/2+z
1/2-x,1/2+y,z
loop_
_atom_site_type_symbol
_atom_site_label
_atom_site_fract_x
_atom_site_fract_y
_atom_site_fract_z
Si Si1 0.819956 0.048749 0.450240
Si Si2 0.818031 0.287135 0.646897
Si Si3 0.680409 0.789554 0.980519
Si Si4 0.181636 0.461881 0.290454
Si Si5 0.819098 0.459326 0.606803
Si Si6 0.318008 0.211741 0.814507
O O1 0.712540 0.121320 0.469150
O O2 0.000000 0.073573 0.454962
O O3 0.784168 0.016450 0.352476
O O4 0.784908 0.983752 0.522977
O O5 0.718704 0.233387 0.581769
O O6 0.768441 0.374602 0.634283
O O7 0.780789 0.264869 0.748430
O O8 0.000000 0.274764 0.627254
O O9 0.500000 0.773620 0.959585
O O10 0.785847 0.738492 0.915128
O O11 0.214306 0.483719 0.188337
O O12 0.236529 0.375316 0.304270
O O13 0.000000 0.472859 0.315721
O O14 0.000000 0.462003 0.578073
O O15 0.500000 0.220498 0.791933
#
# Coordination Sequence:
#
# PCOD8176033 Si02
#       6
#     8   8   8   8   8   8
#     4  12  25  40  63  93 123 157 203 258 309 364
#     4  11  23  40  64  94 127 163 206 254 305 366
#     4  12  25  42  63  87 123 167 209 256 309 364
#     4  10  22  41  64  90 123 163 202 244 302 367
#     4  10  22  41  64  90 123 163 202 244 302 367
#     4  11  23  40  64  94 127 163 206 254 305 366
#
# _framework density 21.411251
#
# number of rings (size 3 to 8) (size 9 to 14) (size 15 to 20)
#    0.000    1.000    0.000    7.000    0.000   10.000 
#    0.000    0.000    0.000    0.000    0.000    0.000 
#    0.000    0.000    0.000    0.000    0.000    0.000 
#
# Total GULP energy -297853.475096 kJ/mol
# GULP energy per Si atom -12410.561462 kJ/mol
# Density = 2.136252 g / cm^3
# Si number density = 21.411251 Si / 1000 Ang^3
#
#
#
# Elastic Constant Matrix: (Units=GPa)
#
#
# Indices 1 2 3 4 5 6 
#
# 1 69.0117 27.1797 17.5594 0.0000 0.0000 0.0000
# 2 27.1797 89.6890 -0.0588 0.0000 0.0000 0.0000
# 3 17.5594 -0.0588 68.3744 0.0000 0.0000 0.0000
# 4 0.0000 0.0000 0.0000 43.9999 0.0000 0.0000
# 5 0.0000 0.0000 0.0000 0.0000 38.1345 0.0000
# 6 0.0000 0.0000 0.0000 0.0000 0.0000 30.2126
#
#
#
# Elastic Compliance Matrix: (Units=1/GPa)
#
#
# Indices 1 2 3 4 5 6 
#
# 1 0.017776 -0.005390 -0.004570 0.000000 0.000000 0.000000
# 2 -0.005390 0.012784 0.001395 0.000000 0.000000 0.000000
# 3 -0.004570 0.001395 0.015800 0.000000 0.000000 0.000000
# 4 0.000000 0.000000 0.000000 0.022727 0.000000 0.000000
# 5 0.000000 0.000000 0.000000 0.000000 0.026223 0.000000
# 6 0.000000 0.000000 0.000000 0.000000 0.000000 0.033099
#
#
# Mechanical properties :
#
#
# Convention : Reuss Voigt Hill
#
# Bulk Modulus (GPa) = 34.21013 35.15952 34.68482
# Shear Modulus (GPa) = 32.19965 34.62906 33.41436
#
# Velocity S-wave (km/s) = 3.88218 4.02597 3.95473
# Velocity P-wave (km/s) = 6.00894 6.16992 6.08996
#
# Compressibility (1/GPa) = 0.02923111
#
# Stress axis : x y z
#
# Youngs Moduli (GPa) = 56.25641 78.22331 63.29066
#
# Poissons Ratio (x) = 0.42161 0.28922
# Poissons Ratio (y) = 0.30321 -0.08830
# Poissons Ratio (z) = 0.25707 -0.10914
#
# Static dielectric constant tensor:
#      x y z
#    x 3.727960 0.000000 0.000000 
#    y 0.000000 3.925540 0.000000 
#    z 0.000000 0.000000 3.837460 
# 
# 
# High freq. dielectric constant tensor:
#      x y z
#    x 1.835980 0.000000 0.000000 
#    y 0.000000 1.853590 0.000000 
#    z 0.000000 0.000000 1.851340 
# 
# From -- ./inp_files/10378.got.cif
#   From: 2010.03.12/outbox.cif.g09.slc.cpg/sg36_6_cif.got.tgz:10378.got - 2010.04.14 02:13:53.
