data_PCOD8176977
_publ_section_title
;
Structure prediction by ZEFSAII (Michael W. Deem and Ramdas Pophale) SiO2 
 PCOD8176977
Probable space group: C C C 2
;
_chemical_formula_sum "Si O2"
_cell_formula_units_Z 36
_cell_length_a 7.379602
_cell_length_b 19.285986
_cell_length_c 9.542639
_cell_angle_alpha 90.000000
_cell_angle_beta 90.000000
_cell_angle_gamma 90.000000
_cell_volume 1358.136064
_symmetry_space_group_name_H-M "C C C 2"
_symmetry_group_IT_number 37
_symmetry_cell_setting 'orthorhombic'
loop_
_space_group_symop_operation_xyz
x,y,z
-x,-y,z
-x,y,1/2+z
x,-y,1/2+z
1/2+x,1/2+y,z
1/2-x,1/2-y,z
1/2-x,1/2+y,1/2+z
1/2+x,1/2-y,1/2+z
loop_
_atom_site_type_symbol
_atom_site_label
_atom_site_fract_x
_atom_site_fract_y
_atom_site_fract_z
Si Si1 0.043299 0.272728 0.341510
Si Si2 0.382396 0.143453 0.593641
Si Si3 0.500000 0.000000 0.707825
Si Si4 0.368923 0.441934 0.245646
Si Si5 0.491350 0.358970 0.002155
O O1 0.250000 0.250000 0.312409
O O2 0.041317 0.340198 0.439712
O O3 0.931604 0.210688 0.419041
O O4 0.955070 0.297866 0.198729
O O5 0.166896 0.154777 0.597777
O O6 0.431772 0.063905 0.615510
O O7 0.326475 0.972040 0.794599
O O8 0.500000 0.500000 0.179398
O O9 0.467688 0.415526 0.383975
O O10 0.342476 0.385431 0.117653
#
# Coordination Sequence:
#
# PCOD8176977 Si02
#       5
#     8   8   4   8   8
#     4  10  23  45  73 109 156 197 269 322 398 465
#     4  11  24  45  74 112 151 209 253 329 389 475
#     4  12  26  46  78 110 160 198 264 314 406 470
#     4  12  26  50  77 115 157 204 258 329 398 475
#     4  11  25  49  77 114 156 201 269 329 395 469
#
# _framework density 26.506916
#
# number of rings (size 3 to 8) (size 9 to 14) (size 15 to 20)
#    0.000    0.889    2.222    4.667    0.000    5.333 
#    0.000    5.556    0.000    0.000    0.000    0.000 
#    0.000    0.000    0.000    0.000    0.000    0.000 
#
# Total GULP energy -223136.820743 kJ/mol
# GULP energy per Si atom -12396.490041 kJ/mol
# Density = 2.644659 g / cm^3
# Si number density = 26.506916 Si / 1000 Ang^3
#
#
#
# Elastic Constant Matrix: (Units=GPa)
#
#
# Indices 1 2 3 4 5 6 
#
# 1 60.5078 29.8828 34.1325 0.0000 0.0000 0.0000
# 2 29.8828 133.7796 35.0688 0.0000 0.0000 0.0000
# 3 34.1325 35.0688 118.4023 0.0000 0.0000 0.0000
# 4 0.0000 0.0000 0.0000 29.5180 0.0000 0.0000
# 5 0.0000 0.0000 0.0000 0.0000 30.0651 0.0000
# 6 0.0000 0.0000 0.0000 0.0000 0.0000 39.1638
#
#
#
# Elastic Compliance Matrix: (Units=1/GPa)
#
#
# Indices 1 2 3 4 5 6 
#
# 1 0.021053 -0.003374 -0.005070 0.000000 0.000000 0.000000
# 2 -0.003374 0.008645 -0.001588 0.000000 0.000000 0.000000
# 3 -0.005070 -0.001588 0.010378 0.000000 0.000000 0.000000
# 4 0.000000 0.000000 0.000000 0.033878 0.000000 0.000000
# 5 0.000000 0.000000 0.000000 0.000000 0.033261 0.000000
# 6 0.000000 0.000000 0.000000 0.000000 0.000000 0.025534
#
#
# Mechanical properties :
#
#
# Convention : Reuss Voigt Hill
#
# Bulk Modulus (GPa) = 49.96876 56.76199 53.36538
# Shear Modulus (GPa) = 31.35163 33.98975 32.67069
#
# Velocity S-wave (km/s) = 3.44288 3.58480 3.51456
# Velocity P-wave (km/s) = 5.89039 6.21248 6.05358
#
# Compressibility (1/GPa) = 0.02001250
#
# Stress axis : x y z
#
# Youngs Moduli (GPa) = 47.49966 115.67624 96.36145
#
# Poissons Ratio (x) = 0.39025 0.48853
# Poissons Ratio (y) = 0.16025 0.15301
# Poissons Ratio (z) = 0.24081 0.18368
#
# Static dielectric constant tensor:
#      x y z
#    x 4.792090 0.000000 0.000000 
#    y 0.000000 5.204390 0.000000 
#    z 0.000000 0.000000 4.559050 
# 
# 
# High freq. dielectric constant tensor:
#      x y z
#    x 2.049950 0.000000 0.000000 
#    y 0.000000 2.086540 0.000000 
#    z 0.000000 0.000000 2.060930 
# 
# From -- ./inp_files/2116.got.cif
#   From: 2010.03.12/outbox.cif.g09.slc.cpg/sg37_2_cif.got.tgz:2116.got - 2010.04.14 02:25:27.
