data_PCOD8176771
_publ_section_title
;
Structure prediction by ZEFSAII (Michael W. Deem and Ramdas Pophale) SiO2 
 PCOD8176771
Probable space group: C C C 2
;
_chemical_formula_sum "Si O2"
_cell_formula_units_Z 64
_cell_length_a 10.717940
_cell_length_b 8.788601
_cell_length_c 30.885054
_cell_angle_alpha 90.000000
_cell_angle_beta 90.000000
_cell_angle_gamma 90.000000
_cell_volume 2909.239226
_symmetry_space_group_name_H-M "C C C 2"
_symmetry_group_IT_number 37
_symmetry_cell_setting 'orthorhombic'
loop_
_space_group_symop_operation_xyz
x,y,z
-x,-y,z
-x,y,1/2+z
x,-y,1/2+z
1/2+x,1/2+y,z
1/2-x,1/2-y,z
1/2-x,1/2+y,1/2+z
1/2+x,1/2-y,1/2+z
loop_
_atom_site_type_symbol
_atom_site_label
_atom_site_fract_x
_atom_site_fract_y
_atom_site_fract_z
Si Si1 0.192531 0.095989 0.452860
Si Si2 0.882385 0.170771 0.302448
Si Si3 0.132046 0.851087 0.662680
Si Si4 0.906685 0.368665 0.476636
Si Si5 0.622353 0.679011 0.627146
Si Si6 0.117005 0.831086 0.400487
Si Si7 0.369309 0.651769 0.762834
Si Si8 0.034762 0.834074 0.035888
O O1 0.250000 0.250000 0.431901
O O2 0.123879 0.158753 0.494702
O O3 0.275049 0.949990 0.468563
O O4 0.113482 0.011728 0.414933
O O5 0.750000 0.250000 0.292733
O O6 0.930792 0.186423 0.351745
O O7 0.997579 0.235936 0.273203
O O8 0.861037 0.994950 0.292689
O O9 0.250000 0.750000 0.649662
O O10 0.136389 0.897402 0.712880
O O11 0.000461 0.764352 0.653614
O O12 0.136582 0.997846 0.632130
O O13 0.960203 0.269168 0.435630
O O14 0.000000 0.500000 0.487290
O O15 0.912326 0.261181 0.519753
O O16 0.750000 0.750000 0.645989
O O17 0.604372 0.736736 0.577489
O O18 0.250000 0.750000 0.402224
O O19 0.250000 0.750000 0.775695
O O20 0.000000 0.000000 0.052034
#
# Coordination Sequence:
#
# PCOD8176771 Si02
#       8
#     8   8   8   8   8   8   8   8
#     4  11  22  39  59  86 120 167 222 268 318 382
#     4  10  21  41  64  94 132 167 210 268 322 377
#     4  10  23  45  67  94 130 167 207 262 325 391
#     4  11  23  40  59  85 122 168 214 265 313 372
#     4  11  24  43  64  97 129 163 213 265 323 387
#     4   9  21  39  58  87 122 164 215 266 321 367
#     4  10  23  42  66  97 129 165 212 259 323 397
#     4  12  23  40  62  88 124 168 217 267 324 376
#
# _framework density 21.99888
#
# number of rings (size 3 to 8) (size 9 to 14) (size 15 to 20)
#    0.000    1.500    3.750    1.875    0.000    6.500 
#    6.750    2.500    0.000    0.000    0.000    0.000 
#    0.000    0.000    0.000    0.000    0.000    0.000 
#
# Total GULP energy -396444.670508 kJ/mol
# GULP energy per Si atom -12388.895953 kJ/mol
# Density = 2.194881 g / cm^3
# Si number density = 21.998880 Si / 1000 Ang^3
#
#
#
# Elastic Constant Matrix: (Units=GPa)
#
#
# Indices 1 2 3 4 5 6 
#
# 1 143.8061 41.9888 33.4986 0.0000 0.0000 0.0000
# 2 41.9888 90.7030 32.7103 0.0000 0.0000 0.0000
# 3 33.4986 32.7103 101.0332 0.0000 0.0000 0.0000
# 4 0.0000 0.0000 0.0000 17.7897 0.0000 0.0000
# 5 0.0000 0.0000 0.0000 0.0000 28.1895 0.0000
# 6 0.0000 0.0000 0.0000 0.0000 0.0000 33.8383
#
#
#
# Elastic Compliance Matrix: (Units=1/GPa)
#
#
# Indices 1 2 3 4 5 6 
#
# 1 0.008292 -0.003224 -0.001706 0.000000 0.000000 0.000000
# 2 -0.003224 0.013736 -0.003378 0.000000 0.000000 0.000000
# 3 -0.001706 -0.003378 0.011557 0.000000 0.000000 0.000000
# 4 0.000000 0.000000 0.000000 0.056212 0.000000 0.000000
# 5 0.000000 0.000000 0.000000 0.000000 0.035474 0.000000
# 6 0.000000 0.000000 0.000000 0.000000 0.000000 0.029552
#
#
# Mechanical properties :
#
#
# Convention : Reuss Voigt Hill
#
# Bulk Modulus (GPa) = 58.92798 61.32641 60.12720
# Shear Modulus (GPa) = 28.23337 31.11980 29.67659
#
# Velocity S-wave (km/s) = 3.58634 3.76521 3.67686
# Velocity P-wave (km/s) = 6.63281 6.84397 6.73922
#
# Compressibility (1/GPa) = 0.01696987
#
# Stress axis : x y z
#
# Youngs Moduli (GPa) = 120.59244 72.80374 86.52753
#
# Poissons Ratio (x) = 0.23469 0.14760
# Poissons Ratio (y) = 0.38874 0.29231
# Poissons Ratio (z) = 0.20570 0.24594
#
# Static dielectric constant tensor:
#      x y z
#    x 5.186220 0.000000 0.000000 
#    y 0.000000 5.064170 0.000000 
#    z 0.000000 0.000000 4.032090 
# 
# 
# High freq. dielectric constant tensor:
#      x y z
#    x 1.878660 0.000000 0.000000 
#    y 0.000000 1.855810 0.000000 
#    z 0.000000 0.000000 1.861680 
# 
# From -- ./inp_files/20412.got.cif
#   From: 2010.03.12/outbox.cif.g09.slc.cpg/sg37_11_cif.got.tgz:20412.got - 2010.04.14 02:25:27.
