data_PCOD8176216
_publ_section_title
;
Structure prediction by ZEFSAII (Michael W. Deem and Ramdas Pophale) SiO2 
 PCOD8176216
Probable space group: C M C 21
;
_chemical_formula_sum "Si O2"
_cell_formula_units_Z 64
_cell_length_a 23.875590
_cell_length_b 9.334890
_cell_length_c 13.830719
_cell_angle_alpha 90.000000
_cell_angle_beta 90.000000
_cell_angle_gamma 90.000000
_cell_volume 3082.535415
_symmetry_space_group_name_H-M "C M C 21"
_symmetry_group_IT_number 36
_symmetry_cell_setting 'orthorhombic'
loop_
_space_group_symop_operation_xyz
x,y,z
-x,-y,1/2+z
x,-y,1/2+z
-x,y,z
1/2+x,1/2+y,z
1/2-x,1/2-y,1/2+z
1/2+x,1/2-y,1/2+z
1/2-x,1/2+y,z
loop_
_atom_site_type_symbol
_atom_site_label
_atom_site_fract_x
_atom_site_fract_y
_atom_site_fract_z
Si Si1 0.755746 0.373386 0.603320
Si Si2 0.737705 0.363073 0.969681
Si Si3 0.638107 0.788373 0.122658
Si Si4 0.623512 0.537580 0.415673
Si Si5 0.855963 0.704730 0.410651
Si Si6 0.564674 0.308557 0.096455
Si Si7 0.364095 0.912849 0.708665
Si Si8 0.436946 0.423885 0.722029
O O1 0.750680 0.534199 0.562167
O O2 0.783975 0.284070 0.516654
O O3 0.696183 0.301573 0.630434
O O4 0.799042 0.368434 0.692625
O O5 0.688887 0.425766 0.903921
O O6 0.789388 0.321791 0.900442
O O7 0.588798 0.676781 0.140171
O O8 0.632658 0.915859 0.199712
O O9 0.628949 0.859547 0.016315
O O10 0.621639 0.366503 0.417514
O O11 0.595616 0.611183 0.508561
O O12 0.594155 0.600378 0.322235
O O13 0.883527 0.627671 0.317891
O O14 0.500000 0.275824 0.068008
O O15 0.595655 0.163413 0.129810
O O16 0.567275 0.412047 0.189089
O O17 0.500000 0.374650 0.737573
#
# Coordination Sequence:
#
# PCOD8176216 Si02
#       8
#     8   8   8   8   8   8   8   8
#     4  11  21  39  63  98 135 179 221 269 341 409
#     4  11  21  38  64  96 140 173 221 269 338 413
#     4  11  25  45  64  98 142 178 223 284 351 408
#     4  12  22  42  69  98 138 173 232 288 336 409
#     4  11  24  40  63 102 134 181 220 277 343 413
#     4  11  24  43  69  97 129 177 233 293 337 393
#     4  12  25  41  68  97 142 178 229 279 346 416
#     4  11  25  44  70  98 126 177 238 287 342 409
#
# _framework density 20.762128000000001
#
# number of rings (size 3 to 8) (size 9 to 14) (size 15 to 20)
#    0.000    0.750    8.750    0.375    1.750    3.500 
#    0.000    0.625    0.000    0.000    0.000    0.000 
#    0.000    0.000    0.000    0.000    0.000    0.000 
#
# Total GULP energy -396612.280850 kJ/mol
# GULP energy per Si atom -12394.133777 kJ/mol
# Density = 2.071487 g / cm^3
# Si number density = 20.762128 Si / 1000 Ang^3
#
#
#
# Elastic Constant Matrix: (Units=GPa)
#
#
# Indices 1 2 3 4 5 6 
#
# 1 81.0173 32.0513 43.3022 0.0000 0.0000 0.0000
# 2 32.0513 72.3338 9.7646 0.0000 0.0000 0.0000
# 3 43.3022 9.7646 82.0932 0.0000 0.0000 0.0000
# 4 0.0000 0.0000 0.0000 32.3121 0.0000 0.0000
# 5 0.0000 0.0000 0.0000 0.0000 24.8276 0.0000
# 6 0.0000 0.0000 0.0000 0.0000 0.0000 25.7178
#
#
#
# Elastic Compliance Matrix: (Units=1/GPa)
#
#
# Indices 1 2 3 4 5 6 
#
# 1 0.020829 -0.007873 -0.010051 0.000000 0.000000 0.000000
# 2 -0.007873 0.017026 0.002128 0.000000 0.000000 0.000000
# 3 -0.010051 0.002128 0.017230 0.000000 0.000000 0.000000
# 4 0.000000 0.000000 0.000000 0.030948 0.000000 0.000000
# 5 0.000000 0.000000 0.000000 0.000000 0.040278 0.000000
# 6 0.000000 0.000000 0.000000 0.000000 0.000000 0.038884
#
#
# Mechanical properties :
#
#
# Convention : Reuss Voigt Hill
#
# Bulk Modulus (GPa) = 42.56508 45.07561 43.82034
# Shear Modulus (GPa) = 24.43582 26.59324 25.51453
#
# Velocity S-wave (km/s) = 3.43438 3.58278 3.50937
# Velocity P-wave (km/s) = 6.02266 6.23480 6.12965
#
# Compressibility (1/GPa) = 0.02349344
#
# Stress axis : x y z
#
# Youngs Moduli (GPa) = 48.00887 58.73348 58.03939
#
# Poissons Ratio (x) = 0.46240 0.58333
# Poissons Ratio (y) = 0.37797 -0.12348
# Poissons Ratio (z) = 0.48252 -0.12496
#
# Static dielectric constant tensor:
#      x y z
#    x 3.785830 0.000000 0.000000 
#    y 0.000000 3.731810 0.000000 
#    z 0.000000 0.000000 3.690690 
# 
# 
# High freq. dielectric constant tensor:
#      x y z
#    x 1.802490 0.000000 0.000000 
#    y 0.000000 1.814680 0.000000 
#    z 0.000000 0.000000 1.808320 
# 
# From -- ./inp_files/12966.got.cif
#   From: 2010.03.12/outbox.cif.g09.slc.cpg/sg36_7_cif.got.tgz:12966.got - 2010.04.14 02:13:53.
