data_PCOD8176511
_publ_section_title
;
Structure prediction by ZEFSAII (Michael W. Deem and Ramdas Pophale) SiO2 
 PCOD8176511
Probable space group: C C C 2
;
_chemical_formula_sum "Si O2"
_cell_formula_units_Z 48
_cell_length_a 10.325828
_cell_length_b 11.567003
_cell_length_c 17.993273
_cell_angle_alpha 90.000000
_cell_angle_beta 90.000000
_cell_angle_gamma 90.000000
_cell_volume 2149.096437
_symmetry_space_group_name_H-M "C C C 2"
_symmetry_group_IT_number 37
_symmetry_cell_setting 'orthorhombic'
loop_
_space_group_symop_operation_xyz
x,y,z
-x,-y,z
-x,y,1/2+z
x,-y,1/2+z
1/2+x,1/2+y,z
1/2-x,1/2-y,z
1/2-x,1/2+y,1/2+z
1/2+x,1/2-y,1/2+z
loop_
_atom_site_type_symbol
_atom_site_label
_atom_site_fract_x
_atom_site_fract_y
_atom_site_fract_z
Si Si1 0.691926 0.464919 0.745710
Si Si2 0.360284 0.041793 0.121728
Si Si3 0.450412 0.283312 0.146736
Si Si4 0.581605 0.613599 0.388865
Si Si5 0.326210 0.361747 0.549663
Si Si6 0.105672 0.210878 0.781066
O O1 0.832177 0.492765 0.709224
O O2 0.643727 0.374883 0.684117
O O3 0.694975 0.409399 0.827639
O O4 0.603280 0.578794 0.750445
O O5 0.365739 0.180949 0.109314
O O6 0.500000 0.000000 0.096348
O O7 0.251359 0.979396 0.069853
O O8 0.532728 0.355557 0.086739
O O9 0.541174 0.222376 0.211412
O O10 0.500000 0.500000 0.408760
O O11 0.655848 0.653923 0.461574
O O12 0.483696 0.711814 0.355254
O O13 0.250000 0.250000 0.580126
O O14 0.250000 0.250000 0.801929
#
# Coordination Sequence:
#
# PCOD8176511 Si02
#       6
#     8   8   8   8   8   8
#     4  10  22  43  68  98 133 171 229 282 330 404
#     4  12  24  40  66 102 131 172 232 278 339 401
#     4  11  22  40  68  99 127 178 229 278 337 409
#     4   9  23  42  65  95 133 182 224 264 349 411
#     4  12  25  44  65  92 145 180 217 294 349 394
#     4  10  19  40  69 100 134 175 221 282 343 403
#
# _framework density 22.334966999999999
#
# number of rings (size 3 to 8) (size 9 to 14) (size 15 to 20)
#    0.000    1.333    3.333    3.500    2.333    2.667 
#    6.000    0.833    0.000    0.000    0.000    0.000 
#    0.000    0.000    0.000    0.000    0.000    0.000 
#
# Total GULP energy -297377.073699 kJ/mol
# GULP energy per Si atom -12390.711404 kJ/mol
# Density = 2.228413 g / cm^3
# Si number density = 22.334967 Si / 1000 Ang^3
#
#
#
# Elastic Constant Matrix: (Units=GPa)
#
#
# Indices 1 2 3 4 5 6 
#
# 1 78.5787 36.4609 46.5815 0.0000 0.0000 0.0000
# 2 36.4609 109.7033 31.4661 0.0000 0.0000 0.0000
# 3 46.5815 31.4661 134.3206 0.0000 0.0000 0.0000
# 4 0.0000 0.0000 0.0000 18.9821 0.0000 0.0000
# 5 0.0000 0.0000 0.0000 0.0000 27.4926 0.0000
# 6 0.0000 0.0000 0.0000 0.0000 0.0000 39.9346
#
#
#
# Elastic Compliance Matrix: (Units=1/GPa)
#
#
# Indices 1 2 3 4 5 6 
#
# 1 0.017843 -0.004455 -0.005144 0.000000 0.000000 0.000000
# 2 -0.004455 0.010884 -0.001005 0.000000 0.000000 0.000000
# 3 -0.005144 -0.001005 0.009464 0.000000 0.000000 0.000000
# 4 0.000000 0.000000 0.000000 0.052681 0.000000 0.000000
# 5 0.000000 0.000000 0.000000 0.000000 0.036373 0.000000
# 6 0.000000 0.000000 0.000000 0.000000 0.000000 0.025041
#
#
# Mechanical properties :
#
#
# Convention : Reuss Voigt Hill
#
# Bulk Modulus (GPa) = 58.88012 61.29108 60.08560
# Shear Modulus (GPa) = 27.90876 31.15479 29.53177
#
# Velocity S-wave (km/s) = 3.53874 3.73887 3.64018
# Velocity P-wave (km/s) = 6.56631 6.79266 6.68044
#
# Compressibility (1/GPa) = 0.01698366
#
# Stress axis : x y z
#
# Youngs Moduli (GPa) = 56.04595 91.87568 105.66093
#
# Poissons Ratio (x) = 0.40927 0.54353
# Poissons Ratio (y) = 0.24966 0.10618
# Poissons Ratio (z) = 0.28831 0.09233
#
# Static dielectric constant tensor:
#      x y z
#    x 4.202750 0.000000 0.000000 
#    y 0.000000 4.033420 0.000000 
#    z 0.000000 0.000000 3.856170 
# 
# 
# High freq. dielectric constant tensor:
#      x y z
#    x 1.884970 0.000000 0.000000 
#    y 0.000000 1.875830 0.000000 
#    z 0.000000 0.000000 1.856390 
# 
# From -- ./inp_files/15004.got.cif
#   From: 2010.03.12/outbox.cif.g09.slc.cpg/sg37_8_cif.got.tgz:15004.got - 2010.04.14 02:25:27.
