data_PCOD8176573
_publ_section_title
;
Structure prediction by ZEFSAII (Michael W. Deem and Ramdas Pophale) SiO2 
 PCOD8176573
Probable space group: C C C 2
;
_chemical_formula_sum "Si O2"
_cell_formula_units_Z 64
_cell_length_a 15.862710
_cell_length_b 8.562309
_cell_length_c 23.715266
_cell_angle_alpha 90.000000
_cell_angle_beta 90.000000
_cell_angle_gamma 90.000000
_cell_volume 3221.041213
_symmetry_space_group_name_H-M "C C C 2"
_symmetry_group_IT_number 37
_symmetry_cell_setting 'orthorhombic'
loop_
_space_group_symop_operation_xyz
x,y,z
-x,-y,z
-x,y,1/2+z
x,-y,1/2+z
1/2+x,1/2+y,z
1/2-x,1/2-y,z
1/2-x,1/2+y,1/2+z
1/2+x,1/2-y,1/2+z
loop_
_atom_site_type_symbol
_atom_site_label
_atom_site_fract_x
_atom_site_fract_y
_atom_site_fract_z
Si Si1 0.828932 0.360071 0.658210
Si Si2 0.587967 0.934377 0.939220
Si Si3 0.905650 0.053832 0.671447
Si Si4 0.248703 0.935134 0.373386
Si Si5 0.263256 0.433372 0.744991
Si Si6 0.155046 0.434896 0.551605
Si Si7 0.849151 0.922801 0.553703
Si Si8 0.912416 0.063990 0.442257
O O1 0.750000 0.250000 0.641199
O O2 0.903252 0.242314 0.677171
O O3 0.806940 0.474721 0.709528
O O4 0.862274 0.463402 0.606882
O O5 0.664919 0.999309 0.901041
O O6 0.586078 0.749123 0.940709
O O7 0.500000 0.000000 0.914399
O O8 0.598494 0.995742 0.002347
O O9 0.856219 0.973554 0.722786
O O10 0.862010 0.007787 0.612782
O O11 0.000000 0.000000 0.674615
O O12 0.250000 0.750000 0.377243
O O13 0.244419 0.991395 0.309074
O O14 0.166569 0.001058 0.406043
O O15 0.250000 0.250000 0.738299
O O16 0.126150 0.257596 0.562134
O O17 0.252818 0.443198 0.534617
O O18 0.906480 0.002127 0.506217
O O19 0.000000 0.000000 0.416182
#
# Coordination Sequence:
#
# PCOD8176573 Si02
#       8
#     8   8   8   8   8   8   8   8
#     4  10  20  36  60  86 117 159 196 239 304 360
#     4  11  23  40  61  91 124 158 204 250 301 365
#     4  11  23  38  59  90 123 155 198 249 304 357
#     4   9  21  40  64  85 115 164 203 247 310 356
#     4  10  20  41  64  85 113 158 207 247 297 367
#     4  11  21  35  61  90 120 158 203 245 300 364
#     4  11  21  36  59  91 122 160 201 246 300 361
#     4  11  22  39  61  89 125 161 200 248 304 363
#
# _framework density 19.869351000000002
#
# number of rings (size 3 to 8) (size 9 to 14) (size 15 to 20)
#    0.000    1.500    3.750    2.625    0.000    1.500 
#    0.000   13.125    0.000    0.000    0.000    0.000 
#    0.000    0.000    0.000    0.000    0.000    0.000 
#
# Total GULP energy -396869.297465 kJ/mol
# GULP energy per Si atom -12402.165546 kJ/mol
# Density = 1.982413 g / cm^3
# Si number density = 19.869351 Si / 1000 Ang^3
#
#
#
# Elastic Constant Matrix: (Units=GPa)
#
#
# Indices 1 2 3 4 5 6 
#
# 1 126.9028 38.2754 44.6051 0.0000 0.0000 0.0000
# 2 38.2754 112.6432 36.9713 0.0000 0.0000 0.0000
# 3 44.6051 36.9713 122.9494 0.0000 0.0000 0.0000
# 4 0.0000 0.0000 0.0000 29.6999 0.0000 0.0000
# 5 0.0000 0.0000 0.0000 0.0000 16.8471 0.0000
# 6 0.0000 0.0000 0.0000 0.0000 0.0000 31.2955
#
#
#
# Elastic Compliance Matrix: (Units=1/GPa)
#
#
# Indices 1 2 3 4 5 6 
#
# 1 0.009557 -0.002340 -0.002764 0.000000 0.000000 0.000000
# 2 -0.002340 0.010423 -0.002285 0.000000 0.000000 0.000000
# 3 -0.002764 -0.002285 0.009823 0.000000 0.000000 0.000000
# 4 0.000000 0.000000 0.000000 0.033670 0.000000 0.000000
# 5 0.000000 0.000000 0.000000 0.000000 0.059358 0.000000
# 6 0.000000 0.000000 0.000000 0.000000 0.000000 0.031953
#
#
# Mechanical properties :
#
#
# Convention : Reuss Voigt Hill
#
# Bulk Modulus (GPa) = 66.55510 66.91100 66.73305
# Shear Modulus (GPa) = 28.64164 31.74474 30.19319
#
# Velocity S-wave (km/s) = 3.80083 4.00143 3.90242
# Velocity P-wave (km/s) = 7.26848 7.42275 7.34602
#
# Compressibility (1/GPa) = 0.01502515
#
# Stress axis : x y z
#
# Youngs Moduli (GPa) = 104.63187 95.94286 101.80036
#
# Poissons Ratio (x) = 0.22455 0.28133
# Poissons Ratio (y) = 0.24489 0.23262
# Poissons Ratio (z) = 0.28915 0.21924
#
# Static dielectric constant tensor:
#      x y z
#    x 3.604470 0.000000 0.000000 
#    y 0.000000 3.432930 0.000000 
#    z 0.000000 0.000000 3.577810 
# 
# 
# High freq. dielectric constant tensor:
#      x y z
#    x 1.771710 0.000000 0.000000 
#    y 0.000000 1.781750 0.000000 
#    z 0.000000 0.000000 1.765940 
# 
# From -- ./inp_files/18529.got.cif
#   From: 2010.03.12/outbox.cif.g09.slc.cpg/sg37_10_cif.got.tgz:18529.got - 2010.04.14 02:25:27.
