data_PCOD8176134
_publ_section_title
;
Structure prediction by ZEFSAII (Michael W. Deem and Ramdas Pophale) SiO2 
 PCOD8176134
Probable space group: C M C 21
;
_chemical_formula_sum "Si O2"
_cell_formula_units_Z 64
_cell_length_a 23.636034
_cell_length_b 8.813564
_cell_length_c 14.717129
_cell_angle_alpha 90.000000
_cell_angle_beta 90.000000
_cell_angle_gamma 90.000000
_cell_volume 3065.838440
_symmetry_space_group_name_H-M "C M C 21"
_symmetry_group_IT_number 36
_symmetry_cell_setting 'orthorhombic'
loop_
_space_group_symop_operation_xyz
x,y,z
-x,-y,1/2+z
x,-y,1/2+z
-x,y,z
1/2+x,1/2+y,z
1/2-x,1/2-y,1/2+z
1/2+x,1/2-y,1/2+z
1/2-x,1/2+y,z
loop_
_atom_site_type_symbol
_atom_site_label
_atom_site_fract_x
_atom_site_fract_y
_atom_site_fract_z
Si Si1 0.062877 0.540318 0.131810
Si Si2 0.274013 0.581662 0.638268
Si Si3 0.153669 0.040338 0.980249
Si Si4 0.208119 0.784897 0.320057
Si Si5 0.936000 0.712873 0.491067
Si Si6 0.681770 0.113605 0.073071
Si Si7 0.173007 0.732017 0.886612
Si Si8 0.886417 0.542106 0.319454
O O1 0.115235 0.640713 0.094991
O O2 0.066462 0.540816 0.240845
O O3 0.000000 0.604957 0.105797
O O4 0.069738 0.373328 0.087425
O O5 0.315688 0.479310 0.577139
O O6 0.291252 0.579353 0.744818
O O7 0.278395 0.755650 0.611247
O O8 0.208329 0.537487 0.618789
O O9 0.190860 0.146618 0.916185
O O10 0.094640 0.124917 0.997231
O O11 0.142870 0.878055 0.931763
O O12 0.271269 0.717056 0.331264
O O13 0.166869 0.647649 0.289677
O O14 0.912034 0.602410 0.413193
O O15 0.000000 0.752333 0.466906
O O16 0.689640 0.109428 0.964755
O O17 0.130921 0.635419 0.823834
#
# Coordination Sequence:
#
# PCOD8176134 Si02
#       8
#     8   8   8   8   8   8   8   8
#     4  11  23  42  67  95 127 172 227 270 321 391
#     4  11  24  38  62  93 134 169 211 268 337 394
#     4  10  24  40  63  91 131 171 216 267 328 403
#     4  11  22  38  61  95 135 172 210 264 336 399
#     4  10  23  44  68  91 127 177 223 281 336 388
#     4  11  23  40  62  95 127 172 211 270 330 393
#     4  11  22  38  62  97 129 165 213 268 327 398
#     4  11  22  40  67  95 130 168 224 274 329 392
#
# _framework density 20.875202999999999
#
# number of rings (size 3 to 8) (size 9 to 14) (size 15 to 20)
#    0.000    1.250    3.750    1.875    5.250    1.000 
#    0.000    3.750    0.000    1.500    0.000    0.000 
#    0.000    0.000    0.000    0.000    0.000    0.000 
#
# Total GULP energy -396652.934116 kJ/mol
# GULP energy per Si atom -12395.404191 kJ/mol
# Density = 2.082769 g / cm^3
# Si number density = 20.875203 Si / 1000 Ang^3
#
#
#
# Elastic Constant Matrix: (Units=GPa)
#
#
# Indices 1 2 3 4 5 6 
#
# 1 135.7763 48.3323 34.1890 0.0000 0.0000 0.0000
# 2 48.3323 88.8201 21.4164 0.0000 0.0000 0.0000
# 3 34.1890 21.4164 88.3129 0.0000 0.0000 0.0000
# 4 0.0000 0.0000 0.0000 30.8295 0.0000 0.0000
# 5 0.0000 0.0000 0.0000 0.0000 29.9465 0.0000
# 6 0.0000 0.0000 0.0000 0.0000 0.0000 31.1370
#
#
#
# Elastic Compliance Matrix: (Units=1/GPa)
#
#
# Indices 1 2 3 4 5 6 
#
# 1 0.009674 -0.004632 -0.002622 0.000000 0.000000 0.000000
# 2 -0.004632 0.014176 -0.001644 0.000000 0.000000 0.000000
# 3 -0.002622 -0.001644 0.012737 0.000000 0.000000 0.000000
# 4 0.000000 0.000000 0.000000 0.032436 0.000000 0.000000
# 5 0.000000 0.000000 0.000000 0.000000 0.033393 0.000000
# 6 0.000000 0.000000 0.000000 0.000000 0.000000 0.032116
#
#
# Mechanical properties :
#
#
# Convention : Reuss Voigt Hill
#
# Bulk Modulus (GPa) = 53.21908 57.86498 55.54203
# Shear Modulus (GPa) = 31.52724 32.31403 31.92064
#
# Velocity S-wave (km/s) = 3.89044 3.93868 3.91464
# Velocity P-wave (km/s) = 6.76239 6.96161 6.86272
#
# Compressibility (1/GPa) = 0.01879025
#
# Stress axis : x y z
#
# Youngs Moduli (GPa) = 103.36829 70.54262 78.51025
#
# Poissons Ratio (x) = 0.32676 0.20585
# Poissons Ratio (y) = 0.47881 0.12911
# Poissons Ratio (z) = 0.27102 0.11601
#
# Static dielectric constant tensor:
#      x y z
#    x 3.751460 0.000000 0.000000 
#    y 0.000000 3.616880 0.000000 
#    z 0.000000 0.000000 4.060560 
# 
# 
# High freq. dielectric constant tensor:
#      x y z
#    x 1.804390 0.000000 0.000000 
#    y 0.000000 1.801480 0.000000 
#    z 0.000000 0.000000 1.833430 
# 
# From -- ./inp_files/12970.got.cif
#   From: 2010.03.12/outbox.cif.g09.slc.cpg/sg36_7_cif.got.tgz:12970.got - 2010.04.14 02:13:53.
