data_PCOD8176493
_publ_section_title
;
Structure prediction by ZEFSAII (Michael W. Deem and Ramdas Pophale) SiO2 
 PCOD8176493
Probable space group: C C C 2
;
_chemical_formula_sum "Si O2"
_cell_formula_units_Z 56
_cell_length_a 11.196624
_cell_length_b 14.807295
_cell_length_c 17.328080
_cell_angle_alpha 90.000000
_cell_angle_beta 90.000000
_cell_angle_gamma 90.000000
_cell_volume 2872.852093
_symmetry_space_group_name_H-M "C C C 2"
_symmetry_group_IT_number 37
_symmetry_cell_setting 'orthorhombic'
loop_
_space_group_symop_operation_xyz
x,y,z
-x,-y,z
-x,y,1/2+z
x,-y,1/2+z
1/2+x,1/2+y,z
1/2-x,1/2-y,z
1/2-x,1/2+y,1/2+z
1/2+x,1/2-y,1/2+z
loop_
_atom_site_type_symbol
_atom_site_label
_atom_site_fract_x
_atom_site_fract_y
_atom_site_fract_z
Si Si1 0.839474 0.568893 0.297830
Si Si2 0.000000 0.500000 0.040151
Si Si3 0.291550 0.057786 0.944814
Si Si4 0.138083 0.014889 0.086716
Si Si5 0.162127 0.827281 0.703019
Si Si6 0.459675 0.210369 0.769624
Si Si7 0.341031 0.927865 0.167058
Si Si8 0.250000 0.250000 0.877751
O O1 0.809720 0.505713 0.370258
O O2 0.719245 0.624333 0.278300
O O3 0.875292 0.509623 0.224051
O O4 0.951860 0.636899 0.310561
O O5 0.922498 0.432314 0.091438
O O6 0.917808 0.564059 0.988061
O O7 0.250906 0.158736 0.926665
O O8 0.193054 0.014741 0.001120
O O9 0.153902 0.109933 0.128868
O O10 0.202768 0.937592 0.139259
O O11 0.000000 0.000000 0.077983
O O12 0.250000 0.750000 0.673796
O O13 0.033744 0.788514 0.727231
O O14 0.367535 0.166085 0.708647
O O15 0.373912 0.256687 0.831345
#
# Coordination Sequence:
#
# PCOD8176493 Si02
#       8
#     8   4   8   8   8   8   8   4
#     4  10  19  41  63  86 120 162 202 253 304 370
#     4  10  20  36  62  92 110 166 206 258 298 362
#     4  11  24  38  60  88 129 162 206 247 316 373
#     4  10  24  41  60  87 125 171 200 243 316 379
#     4   9  22  38  64  91 121 158 204 259 307 354
#     4  11  21  36  63  95 118 153 210 265 298 346
#     4  10  19  37  66  88 113 153 219 251 293 356
#     4  12  26  34  56  98 124 156 202 268 308 348
#
# _framework density 19.492823000000001
#
# number of rings (size 3 to 8) (size 9 to 14) (size 15 to 20)
#    0.000    1.714    2.857    0.857    5.000    1.143 
#    0.000    0.714    0.000    0.000    0.000    0.000 
#    0.000    0.000    0.000    0.000    0.000    0.000 
#
# Total GULP energy -347103.986131 kJ/mol
# GULP energy per Si atom -12396.570933 kJ/mol
# Density = 1.944846 g / cm^3
# Si number density = 19.492823 Si / 1000 Ang^3
#
#
#
# Elastic Constant Matrix: (Units=GPa)
#
#
# Indices 1 2 3 4 5 6 
#
# 1 145.4910 48.5750 58.1324 0.0000 0.0000 0.0000
# 2 48.5750 90.9002 54.9031 0.0000 0.0000 0.0000
# 3 58.1324 54.9031 110.6301 0.0000 0.0000 0.0000
# 4 0.0000 0.0000 0.0000 12.4004 0.0000 0.0000
# 5 0.0000 0.0000 0.0000 0.0000 22.4785 0.0000
# 6 0.0000 0.0000 0.0000 0.0000 0.0000 33.7368
#
#
#
# Elastic Compliance Matrix: (Units=1/GPa)
#
#
# Indices 1 2 3 4 5 6 
#
# 1 0.009188 -0.002847 -0.003415 0.000000 0.000000 0.000000
# 2 -0.002847 0.016593 -0.006738 0.000000 0.000000 0.000000
# 3 -0.003415 -0.006738 0.014178 0.000000 0.000000 0.000000
# 4 0.000000 0.000000 0.000000 0.080643 0.000000 0.000000
# 5 0.000000 0.000000 0.000000 0.000000 0.044487 0.000000
# 6 0.000000 0.000000 0.000000 0.000000 0.000000 0.029641
#
#
# Mechanical properties :
#
#
# Convention : Reuss Voigt Hill
#
# Bulk Modulus (GPa) = 71.64804 74.47137 73.05971
# Shear Modulus (GPa) = 22.18441 26.08385 24.13413
#
# Velocity S-wave (km/s) = 3.37721 3.66201 3.52249
# Velocity P-wave (km/s) = 7.21410 7.49452 7.35565
#
# Compressibility (1/GPa) = 0.01395712
#
# Stress axis : x y z
#
# Youngs Moduli (GPa) = 108.83175 60.26803 70.53313
#
# Poissons Ratio (x) = 0.17161 0.24088
# Poissons Ratio (y) = 0.30989 0.47527
# Poissons Ratio (z) = 0.37168 0.40610
#
# Static dielectric constant tensor:
#      x y z
#    x 3.885170 0.000000 0.000000 
#    y 0.000000 3.532320 0.000000 
#    z 0.000000 0.000000 3.597560 
# 
# 
# High freq. dielectric constant tensor:
#      x y z
#    x 1.772470 0.000000 0.000000 
#    y 0.000000 1.746610 0.000000 
#    z 0.000000 0.000000 1.756770 
# 
# From -- ./inp_files/11637.got.cif
#   From: 2010.03.12/outbox.cif.g09.slc.cpg/sg37_6_cif.got.tgz:11637.got - 2010.04.14 02:25:27.
