data_PCOD8176669
_publ_section_title
;
Structure prediction by ZEFSAII (Michael W. Deem and Ramdas Pophale) SiO2 
 PCOD8176669
Probable space group: C C C 2
;
_chemical_formula_sum "Si O2"
_cell_formula_units_Z 48
_cell_length_a 13.711392
_cell_length_b 5.789321
_cell_length_c 26.601498
_cell_angle_alpha 90.000000
_cell_angle_beta 90.000000
_cell_angle_gamma 90.000000
_cell_volume 2111.617591
_symmetry_space_group_name_H-M "C C C 2"
_symmetry_group_IT_number 37
_symmetry_cell_setting 'orthorhombic'
loop_
_space_group_symop_operation_xyz
x,y,z
-x,-y,z
-x,y,1/2+z
x,-y,1/2+z
1/2+x,1/2+y,z
1/2-x,1/2-y,z
1/2-x,1/2+y,1/2+z
1/2+x,1/2-y,1/2+z
loop_
_atom_site_type_symbol
_atom_site_label
_atom_site_fract_x
_atom_site_fract_y
_atom_site_fract_z
Si Si1 0.101554 0.904192 0.023030
Si Si2 0.750000 0.750000 0.241839
Si Si3 0.396845 0.103368 0.317262
Si Si4 0.393017 0.924856 0.110829
Si Si5 0.750000 0.250000 0.185496
Si Si6 0.250000 0.750000 0.359843
Si Si7 0.750000 0.750000 0.067151
Si Si8 0.852742 0.868376 0.412279
O O1 0.114727 0.670420 0.053978
O O2 0.193827 0.071239 0.030978
O O3 0.087852 0.853838 0.963919
O O4 0.000000 0.000000 0.044286
O O5 0.649622 0.732362 0.274524
O O6 0.751568 0.499251 0.213708
O O7 0.415626 0.241468 0.369118
O O8 0.500000 0.000000 0.299000
O O9 0.310993 0.916741 0.323922
O O10 0.347537 0.744315 0.150667
O O11 0.500000 0.000000 0.128276
O O12 0.326213 0.149566 0.107227
O O13 0.330783 0.628583 0.395034
O O14 0.750000 0.750000 0.420910
#
# Coordination Sequence:
#
# PCOD8176669 Si02
#       8
#     8   4   8   8   4   4   4   8
#     4  12  25  40  70 110 151 202 247 297 362 452
#     4  12  27  56  78 116 143 193 256 323 390 462
#     4  11  25  46  74 104 148 192 242 310 375 445
#     4  12  26  48  74 107 146 194 247 307 377 451
#     4  12  29  52  86 104 153 189 252 331 390 448
#     4  10  20  44  67 102 148 197 240 303 357 438
#     4  12  22  46  69 100 152 199 238 307 365 424
#     4  10  22  41  66 104 150 195 247 294 361 439
#
# _framework density 22.731389
#
# number of rings (size 3 to 8) (size 9 to 14) (size 15 to 20)
#    0.000    0.667    5.833    2.500    2.333    2.667 
#    0.000    5.000    0.000    0.000    0.000    0.000 
#    0.000    0.000    0.000    0.000    0.000    0.000 
#
# Total GULP energy -297484.312806 kJ/mol
# GULP energy per Si atom -12395.179700 kJ/mol
# Density = 2.267965 g / cm^3
# Si number density = 22.731389 Si / 1000 Ang^3
#
#
#
# Elastic Constant Matrix: (Units=GPa)
#
#
# Indices 1 2 3 4 5 6 
#
# 1 152.2956 37.2402 46.0694 0.0000 0.0000 0.0000
# 2 37.2402 108.4361 44.1052 0.0000 0.0000 0.0000
# 3 46.0694 44.1052 113.3902 0.0000 0.0000 0.0000
# 4 0.0000 0.0000 0.0000 25.9992 0.0000 0.0000
# 5 0.0000 0.0000 0.0000 0.0000 8.1243 0.0000
# 6 0.0000 0.0000 0.0000 0.0000 0.0000 40.5876
#
#
#
# Elastic Compliance Matrix: (Units=1/GPa)
#
#
# Indices 1 2 3 4 5 6 
#
# 1 0.007723 -0.001635 -0.002502 0.000000 0.000000 0.000000
# 2 -0.001635 0.011301 -0.003732 0.000000 0.000000 0.000000
# 3 -0.002502 -0.003732 0.011287 0.000000 0.000000 0.000000
# 4 0.000000 0.000000 0.000000 0.038463 0.000000 0.000000
# 5 0.000000 0.000000 0.000000 0.000000 0.123088 0.000000
# 6 0.000000 0.000000 0.000000 0.000000 0.000000 0.024638
#
#
# Mechanical properties :
#
#
# Convention : Reuss Voigt Hill
#
# Bulk Modulus (GPa) = 68.61198 69.88348 69.24773
# Shear Modulus (GPa) = 21.08865 31.38936 26.23900
#
# Velocity S-wave (km/s) = 3.04917 3.72005 3.40120
# Velocity P-wave (km/s) = 6.53039 7.01866 6.77892
#
# Compressibility (1/GPa) = 0.01457471
#
# Stress axis : x y z
#
# Youngs Moduli (GPa) = 129.48860 88.48607 88.59679
#
# Poissons Ratio (x) = 0.14464 0.22166
# Poissons Ratio (y) = 0.21166 0.33062
# Poissons Ratio (z) = 0.32396 0.33020
#
# Static dielectric constant tensor:
#      x y z
#    x 4.248610 0.000000 0.000000 
#    y 0.000000 4.547690 0.000000 
#    z 0.000000 0.000000 4.135730 
# 
# 
# High freq. dielectric constant tensor:
#      x y z
#    x 1.898810 0.000000 0.000000 
#    y 0.000000 1.901800 0.000000 
#    z 0.000000 0.000000 1.893530 
# 
# From -- ./inp_files/19919.got.cif
#   From: 2010.03.12/outbox.cif.g09.slc.cpg/sg37_10_cif.got.tgz:19919.got - 2010.04.14 02:25:27.
