data_PCOD8176577
_publ_section_title
;
Structure prediction by ZEFSAII (Michael W. Deem and Ramdas Pophale) SiO2 
 PCOD8176577
Probable space group: C C C 2
;
_chemical_formula_sum "Si O2"
_cell_formula_units_Z 60
_cell_length_a 23.053084
_cell_length_b 7.541588
_cell_length_c 15.228943
_cell_angle_alpha 90.000000
_cell_angle_beta 90.000000
_cell_angle_gamma 90.000000
_cell_volume 2647.656236
_symmetry_space_group_name_H-M "C C C 2"
_symmetry_group_IT_number 37
_symmetry_cell_setting 'orthorhombic'
loop_
_space_group_symop_operation_xyz
x,y,z
-x,-y,z
-x,y,1/2+z
x,-y,1/2+z
1/2+x,1/2+y,z
1/2-x,1/2-y,z
1/2-x,1/2+y,1/2+z
1/2+x,1/2-y,1/2+z
loop_
_atom_site_type_symbol
_atom_site_label
_atom_site_fract_x
_atom_site_fract_y
_atom_site_fract_z
Si Si1 0.434815 0.444700 0.354150
Si Si2 0.750000 0.750000 0.265137
Si Si3 0.065689 0.536975 0.660998
Si Si4 0.862565 0.957089 0.008764
Si Si5 0.869340 0.110267 0.691339
Si Si6 0.435479 0.031339 0.354978
Si Si7 0.250804 0.536640 0.409888
Si Si8 0.142398 0.441974 0.008198
O O1 0.500000 0.500000 0.329430
O O2 0.420215 0.528221 0.449502
O O3 0.390631 0.504921 0.276097
O O4 0.422664 0.237523 0.362314
O O5 0.807136 0.791487 0.206979
O O6 0.762927 0.572884 0.321919
O O7 0.079243 0.746390 0.671501
O O8 0.074495 0.450413 0.757256
O O9 0.108839 0.453673 0.586489
O O10 0.000000 0.500000 0.629028
O O11 0.811029 0.035655 0.949572
O O12 0.846841 0.757709 0.037585
O O13 0.867644 0.031601 0.108929
O O14 0.500000 0.000000 0.387684
O O15 0.394014 0.925222 0.418917
O O16 0.250000 0.750000 0.391023
O O17 0.204225 0.475134 0.483682
#
# Coordination Sequence:
#
# PCOD8176577 Si02
#       8
#     8   4   8   8   8   8   8   8
#     4  11  22  40  63  91 129 172 216 268 331 409
#     4  12  22  44  78  90 140 180 228 280 338 416
#     4   9  19  35  58  91 125 160 215 262 323 401
#     4  10  22  41  61  95 130 171 215 274 340 395
#     4  10  23  39  68  96 126 182 219 272 352 390
#     4  10  20  37  59  89 119 165 218 263 327 395
#     4  10  22  39  68  98 132 170 229 275 330 403
#     4  10  20  36  61  89 123 165 208 270 329 384
#
# _framework density 22.661552
#
# number of rings (size 3 to 8) (size 9 to 14) (size 15 to 20)
#    0.000    1.867    1.333    2.800    4.667    1.600 
#    0.000    5.333    7.333    0.000    0.000    0.000 
#    0.000    0.000    0.000    0.000    0.000    0.000 
#
# Total GULP energy -371687.845823 kJ/mol
# GULP energy per Si atom -12389.594861 kJ/mol
# Density = 2.260997 g / cm^3
# Si number density = 22.661552 Si / 1000 Ang^3
#
#
#
# Elastic Constant Matrix: (Units=GPa)
#
#
# Indices 1 2 3 4 5 6 
#
# 1 125.3822 12.2556 52.4302 0.0000 0.0000 0.0000
# 2 12.2556 43.6798 21.3276 0.0000 0.0000 0.0000
# 3 52.4302 21.3276 149.8942 0.0000 0.0000 0.0000
# 4 0.0000 0.0000 0.0000 26.6357 0.0000 0.0000
# 5 0.0000 0.0000 0.0000 0.0000 34.9211 0.0000
# 6 0.0000 0.0000 0.0000 0.0000 0.0000 18.9476
#
#
#
# Elastic Compliance Matrix: (Units=1/GPa)
#
#
# Indices 1 2 3 4 5 6 
#
# 1 0.009392 -0.001108 -0.003127 0.000000 0.000000 0.000000
# 2 -0.001108 0.024734 -0.003132 0.000000 0.000000 0.000000
# 3 -0.003127 -0.003132 0.008211 0.000000 0.000000 0.000000
# 4 0.000000 0.000000 0.000000 0.037544 0.000000 0.000000
# 5 0.000000 0.000000 0.000000 0.000000 0.028636 0.000000
# 6 0.000000 0.000000 0.000000 0.000000 0.000000 0.052777
#
#
# Mechanical properties :
#
#
# Convention : Reuss Voigt Hill
#
# Bulk Modulus (GPa) = 36.22903 54.55366 45.39134
# Shear Modulus (GPa) = 26.99373 31.63040 29.31207
#
# Velocity S-wave (km/s) = 3.45508 3.74006 3.60039
# Velocity P-wave (km/s) = 5.65141 6.54035 6.11206
#
# Compressibility (1/GPa) = 0.02760218
#
# Stress axis : x y z
#
# Youngs Moduli (GPa) = 106.47727 40.43037 121.79002
#
# Poissons Ratio (x) = 0.04480 0.38088
# Poissons Ratio (y) = 0.11799 0.38141
# Poissons Ratio (z) = 0.33299 0.12661
#
# Static dielectric constant tensor:
#      x y z
#    x 4.186890 0.000000 0.000000 
#    y 0.000000 3.604760 0.000000 
#    z 0.000000 0.000000 4.682740 
# 
# 
# High freq. dielectric constant tensor:
#      x y z
#    x 1.900590 0.000000 0.000000 
#    y 0.000000 1.850550 0.000000 
#    z 0.000000 0.000000 1.913600 
# 
# From -- ./inp_files/13146.got.cif
#   From: 2010.03.12/outbox.cif.g09.slc.cpg/sg37_7_cif.got.tgz:13146.got - 2010.04.14 02:25:27.
