data_PCOD8176862
_publ_section_title
;
Structure prediction by ZEFSAII (Michael W. Deem and Ramdas Pophale) SiO2 
 PCOD8176862
Probable space group: C C C 2
;
_chemical_formula_sum "Si O2"
_cell_formula_units_Z 52
_cell_length_a 13.812789
_cell_length_b 8.709569
_cell_length_c 21.484735
_cell_angle_alpha 90.000000
_cell_angle_beta 90.000000
_cell_angle_gamma 90.000000
_cell_volume 2584.687504
_symmetry_space_group_name_H-M "C C C 2"
_symmetry_group_IT_number 37
_symmetry_cell_setting 'orthorhombic'
loop_
_space_group_symop_operation_xyz
x,y,z
-x,-y,z
-x,y,1/2+z
x,-y,1/2+z
1/2+x,1/2+y,z
1/2-x,1/2-y,z
1/2-x,1/2+y,1/2+z
1/2+x,1/2-y,1/2+z
loop_
_atom_site_type_symbol
_atom_site_label
_atom_site_fract_x
_atom_site_fract_y
_atom_site_fract_z
Si Si1 0.731405 0.425634 0.407380
Si Si2 0.421217 0.111837 0.414922
Si Si3 0.343797 0.659108 0.693052
Si Si4 0.979891 0.675119 0.280432
Si Si5 0.000000 0.000000 0.608626
Si Si6 0.834161 0.872931 0.776511
Si Si7 0.909569 0.090495 0.989469
O O1 0.750000 0.250000 0.423417
O O2 0.830157 0.513508 0.392563
O O3 0.664119 0.445606 0.346076
O O4 0.685399 0.497541 0.469363
O O5 0.466310 0.191708 0.354212
O O6 0.395938 0.237049 0.466153
O O7 0.500000 0.000000 0.446122
O O8 0.250000 0.750000 0.663489
O O9 0.383154 0.773219 0.745746
O O10 0.432083 0.620130 0.645831
O O11 0.311698 0.500178 0.724798
O O12 0.000000 0.500000 0.261011
O O13 0.065200 0.790562 0.260385
O O14 0.925101 0.904525 0.564324
O O15 0.750000 0.750000 0.774046
O O16 0.000000 0.000000 0.958131
#
# Coordination Sequence:
#
# PCOD8176862 Si02
#       7
#     8   8   8   8   4   8   8
#     4  11  21  36  63  97 129 163 201 255 332 399
#     4  11  21  37  61 100 128 161 201 252 330 399
#     4  12  23  44  68  91 127 172 216 273 324 387
#     4  11  21  37  65 100 136 162 203 258 333 399
#     4  10  26  46  62  90 120 172 240 266 320 374
#     4  11  21  37  63 102 135 164 205 260 332 403
#     4  10  22  41  62  80 126 158 215 266 309 365
#
# _framework density 20.118486000000001
#
# number of rings (size 3 to 8) (size 9 to 14) (size 15 to 20)
#    0.462    0.615    1.538    8.769    0.000    0.615 
#    0.000    2.308    0.000    0.000    0.000    0.000 
#    0.000    0.000    0.000    0.000    0.000    0.000 
#
# Total GULP energy -322318.114158 kJ/mol
# GULP energy per Si atom -12396.850545 kJ/mol
# Density = 2.007270 g / cm^3
# Si number density = 20.118486 Si / 1000 Ang^3
#
#
#
# Elastic Constant Matrix: (Units=GPa)
#
#
# Indices 1 2 3 4 5 6 
#
# 1 95.6774 32.8257 23.2852 0.0000 0.0000 0.0000
# 2 32.8257 114.9161 40.8455 0.0000 0.0000 0.0000
# 3 23.2852 40.8455 80.0073 0.0000 0.0000 0.0000
# 4 0.0000 0.0000 0.0000 0.6645 0.0000 0.0000
# 5 0.0000 0.0000 0.0000 0.0000 27.2871 0.0000
# 6 0.0000 0.0000 0.0000 0.0000 0.0000 45.0461
#
#
#
# Elastic Compliance Matrix: (Units=1/GPa)
#
#
# Indices 1 2 3 4 5 6 
#
# 1 0.011871 -0.002642 -0.002106 0.000000 0.000000 0.000000
# 2 -0.002642 0.011219 -0.004959 0.000000 0.000000 0.000000
# 3 -0.002106 -0.004959 0.015643 0.000000 0.000000 0.000000
# 4 0.000000 0.000000 0.000000 1.504793 0.000000 0.000000
# 5 0.000000 0.000000 0.000000 0.000000 0.036647 0.000000
# 6 0.000000 0.000000 0.000000 0.000000 0.000000 0.022200
#
#
# Mechanical properties :
#
#
# Convention : Reuss Voigt Hill
#
# Bulk Modulus (GPa) = 51.76104 53.83485 52.79795
# Shear Modulus (GPa) = 3.07082 27.50917 15.29000
#
# Velocity S-wave (km/s) = 1.23680 3.70179 2.75980
# Velocity P-wave (km/s) = 5.27480 6.71476 6.03786
#
# Compressibility (1/GPa) = 0.01931955
#
# Stress axis : x y z
#
# Youngs Moduli (GPa) = 84.23975 89.13213 63.92530
#
# Poissons Ratio (x) = 0.23552 0.13462
# Poissons Ratio (y) = 0.22260 0.31698
# Poissons Ratio (z) = 0.17740 0.44198
#
# Static dielectric constant tensor:
#      x y z
#    x 3.720470 0.000000 0.000000 
#    y 0.000000 3.661770 0.000000 
#    z 0.000000 0.000000 3.415050 
# 
# 
# High freq. dielectric constant tensor:
#      x y z
#    x 1.796100 0.000000 0.000000 
#    y 0.000000 1.795590 0.000000 
#    z 0.000000 0.000000 1.753860 
# 
# From -- ./inp_files/18842.got.cif
#   From: 2010.03.12/outbox.cif.g09.slc.cpg/sg37_10_cif.got.tgz:18842.got - 2010.04.14 02:25:27.
