data_PCOD8176998
_publ_section_title
;
Structure prediction by ZEFSAII (Michael W. Deem and Ramdas Pophale) SiO2 
 PCOD8176998
Probable space group: C C C 2
;
_chemical_formula_sum "Si O2"
_cell_formula_units_Z 56
_cell_length_a 11.890125
_cell_length_b 22.669446
_cell_length_c 9.669549
_cell_angle_alpha 90.000000
_cell_angle_beta 90.000000
_cell_angle_gamma 90.000000
_cell_volume 2606.354862
_symmetry_space_group_name_H-M "C C C 2"
_symmetry_group_IT_number 37
_symmetry_cell_setting 'orthorhombic'
loop_
_space_group_symop_operation_xyz
x,y,z
-x,-y,z
-x,y,1/2+z
x,-y,1/2+z
1/2+x,1/2+y,z
1/2-x,1/2-y,z
1/2-x,1/2+y,1/2+z
1/2+x,1/2-y,1/2+z
loop_
_atom_site_type_symbol
_atom_site_label
_atom_site_fract_x
_atom_site_fract_y
_atom_site_fract_z
Si Si1 0.993443 0.794132 0.796660
Si Si2 0.368219 0.991913 0.021627
Si Si3 0.637992 0.924841 0.250920
Si Si4 0.618821 0.767971 0.538071
Si Si5 0.274622 0.316517 0.211390
Si Si6 0.390140 0.115563 0.690645
Si Si7 0.732857 0.317267 0.394873
O O1 0.095673 0.833542 0.738724
O O2 0.934258 0.765228 0.666792
O O3 0.898707 0.834060 0.871931
O O4 0.044629 0.745967 0.902381
O O5 0.326939 0.938070 0.116806
O O6 0.500000 0.000000 0.032313
O O7 0.320335 0.051071 0.098737
O O8 0.335729 0.977546 0.862543
O O9 0.703715 0.865299 0.294143
O O10 0.507359 0.906876 0.254460
O O11 0.750000 0.750000 0.519486
O O12 0.598989 0.836564 0.568700
O O13 0.250000 0.250000 0.266184
O O14 0.235497 0.321063 0.054222
O O15 0.313906 0.138564 0.815563
O O16 0.750000 0.250000 0.340918
#
# Coordination Sequence:
#
# PCOD8176998 Si02
#       7
#     8   8   8   8   8   8   8
#     4  12  23  43  60  97 144 176 237 279 356 424
#     4  10  24  43  64 101 134 182 229 288 341 412
#     4  11  26  44  69 102 139 177 235 284 358 421
#     4  12  25  40  64  99 145 191 229 289 359 432
#     4  11  26  41  68 101 138 181 226 290 355 419
#     4  11  23  37  68  96 139 182 233 281 350 418
#     4  11  23  40  63  98 140 190 221 285 353 412
#
# _framework density 21.485945000000001
#
# number of rings (size 3 to 8) (size 9 to 14) (size 15 to 20)
#    0.000    0.857    4.286    2.571   14.000    0.000 
#    0.000    0.000    0.000    0.857    0.000    0.000 
#    0.000    0.000    0.000    0.000    0.000    0.000 
#
# Total GULP energy -346953.860802 kJ/mol
# GULP energy per Si atom -12391.209314 kJ/mol
# Density = 2.143704 g / cm^3
# Si number density = 21.485945 Si / 1000 Ang^3
#
#
#
# Elastic Constant Matrix: (Units=GPa)
#
#
# Indices 1 2 3 4 5 6 
#
# 1 104.5741 21.9317 37.7317 0.0000 0.0000 0.0000
# 2 21.9317 82.9273 24.0048 0.0000 0.0000 0.0000
# 3 37.7317 24.0048 106.8446 0.0000 0.0000 0.0000
# 4 0.0000 0.0000 0.0000 26.5324 0.0000 0.0000
# 5 0.0000 0.0000 0.0000 0.0000 29.6318 0.0000
# 6 0.0000 0.0000 0.0000 0.0000 0.0000 29.4772
#
#
#
# Elastic Compliance Matrix: (Units=1/GPa)
#
#
# Indices 1 2 3 4 5 6 
#
# 1 0.011247 -0.001952 -0.003533 0.000000 0.000000 0.000000
# 2 -0.001952 0.013236 -0.002285 0.000000 0.000000 0.000000
# 3 -0.003533 -0.002285 0.011120 0.000000 0.000000 0.000000
# 4 0.000000 0.000000 0.000000 0.037690 0.000000 0.000000
# 5 0.000000 0.000000 0.000000 0.000000 0.033748 0.000000
# 6 0.000000 0.000000 0.000000 0.000000 0.000000 0.033925
#
#
# Mechanical properties :
#
#
# Convention : Reuss Voigt Hill
#
# Bulk Modulus (GPa) = 49.83947 51.29806 50.56876
# Shear Modulus (GPa) = 30.63869 31.17346 30.90607
#
# Velocity S-wave (km/s) = 3.78032 3.81317 3.79678
# Velocity P-wave (km/s) = 6.50393 6.58134 6.54275
#
# Compressibility (1/GPa) = 0.02006442
#
# Stress axis : x y z
#
# Youngs Moduli (GPa) = 88.91459 75.55032 89.92474
#
# Poissons Ratio (x) = 0.14745 0.31773
# Poissons Ratio (y) = 0.17353 0.20544
# Poissons Ratio (z) = 0.31416 0.17260
#
# Static dielectric constant tensor:
#      x y z
#    x 4.085330 0.000000 0.000000 
#    y 0.000000 4.071600 0.000000 
#    z 0.000000 0.000000 4.201410 
# 
# 
# High freq. dielectric constant tensor:
#      x y z
#    x 1.820690 0.000000 0.000000 
#    y 0.000000 1.820510 0.000000 
#    z 0.000000 0.000000 1.874360 
# 
# From -- ./inp_files/7283.got.cif
#   From: 2010.03.12/outbox.cif.g09.slc.cpg/sg37_4_cif.got.tgz:7283.got - 2010.04.14 02:25:27.
