data_PCOD8176127
_publ_section_title
;
Structure prediction by ZEFSAII (Michael W. Deem and Ramdas Pophale) SiO2 
 PCOD8176127
Probable space group: C M C 21
;
_chemical_formula_sum "Si O2"
_cell_formula_units_Z 36
_cell_length_a 10.725952
_cell_length_b 24.874609
_cell_length_c 5.428305
_cell_angle_alpha 90.000000
_cell_angle_beta 90.000000
_cell_angle_gamma 90.000000
_cell_volume 1448.292739
_symmetry_space_group_name_H-M "C M C 21"
_symmetry_group_IT_number 36
_symmetry_cell_setting 'orthorhombic'
loop_
_space_group_symop_operation_xyz
x,y,z
-x,-y,1/2+z
x,-y,1/2+z
-x,y,z
1/2+x,1/2+y,z
1/2-x,1/2-y,1/2+z
1/2+x,1/2-y,1/2+z
1/2-x,1/2+y,z
loop_
_atom_site_type_symbol
_atom_site_label
_atom_site_fract_x
_atom_site_fract_y
_atom_site_fract_z
Si Si1 0.856401 0.468385 0.414260
Si Si2 0.787198 0.112063 0.190903
Si Si3 0.000000 0.965162 0.825001
Si Si4 0.139468 0.321097 0.034554
Si Si5 0.135031 0.200814 0.871010
O O1 0.823305 0.505010 0.653345
O O2 0.769124 0.416138 0.445061
O O3 0.000000 0.451192 0.420857
O O4 0.877481 0.071905 0.338215
O O5 0.862889 0.166765 0.125240
O O6 0.667589 0.128977 0.354884
O O7 0.000000 0.003142 0.063988
O O8 0.148209 0.264247 0.897633
O O9 0.000000 0.328823 0.145675
O O10 0.246239 0.322582 0.235364
O O11 0.000000 0.189365 0.742773
#
# Coordination Sequence:
#
# PCOD8176127 Si02
#       5
#     8   8   4   8   8
#     4  10  23  43  66  96 138 186 245 313 381 454
#     4  12  25  44  72 104 145 199 252 323 400 457
#     4  12  30  50  78 116 156 210 282 336 400 488
#     4  11  26  45  71 109 153 202 261 321 401 489
#     4  11  25  45  70 107 151 203 254 322 396 486
#
# _framework density 24.856852
#
# number of rings (size 3 to 8) (size 9 to 14) (size 15 to 20)
#    0.000    0.889    3.333    2.000    7.778    2.667 
#    0.000    0.000    0.000    0.000    0.000    0.000 
#    0.000    0.000    0.000    0.000    0.000    0.000 
#
# Total GULP energy -223078.534804 kJ/mol
# GULP energy per Si atom -12393.251934 kJ/mol
# Density = 2.480028 g / cm^3
# Si number density = 24.856852 Si / 1000 Ang^3
#
#
#
# Elastic Constant Matrix: (Units=GPa)
#
#
# Indices 1 2 3 4 5 6 
#
# 1 179.3008 58.5077 33.9597 0.0000 0.0000 0.0000
# 2 58.5077 121.3043 34.6958 0.0000 0.0000 0.0000
# 3 33.9597 34.6958 87.0638 0.0000 0.0000 0.0000
# 4 0.0000 0.0000 0.0000 36.1579 0.0000 0.0000
# 5 0.0000 0.0000 0.0000 0.0000 36.8426 0.0000
# 6 0.0000 0.0000 0.0000 0.0000 0.0000 26.1437
#
#
#
# Elastic Compliance Matrix: (Units=1/GPa)
#
#
# Indices 1 2 3 4 5 6 
#
# 1 0.006792 -0.002842 -0.001517 0.000000 0.000000 0.000000
# 2 -0.002842 0.010494 -0.003073 0.000000 0.000000 0.000000
# 3 -0.001517 -0.003073 0.013302 0.000000 0.000000 0.000000
# 4 0.000000 0.000000 0.000000 0.027656 0.000000 0.000000
# 5 0.000000 0.000000 0.000000 0.000000 0.027142 0.000000
# 6 0.000000 0.000000 0.000000 0.000000 0.000000 0.038250
#
#
# Mechanical properties :
#
#
# Convention : Reuss Voigt Hill
#
# Bulk Modulus (GPa) = 63.59822 71.33279 67.46551
# Shear Modulus (GPa) = 34.78464 37.19589 35.99026
#
# Velocity S-wave (km/s) = 3.74491 3.87253 3.80926
# Velocity P-wave (km/s) = 6.65887 6.98249 6.82259
#
# Compressibility (1/GPa) = 0.01572371
#
# Stress axis : x y z
#
# Youngs Moduli (GPa) = 147.23492 95.29677 75.17609
#
# Poissons Ratio (x) = 0.27084 0.11401
# Poissons Ratio (y) = 0.41845 0.23103
# Poissons Ratio (z) = 0.22330 0.29287
#
# Static dielectric constant tensor:
#      x y z
#    x 4.846910 0.000000 0.000000 
#    y 0.000000 4.776380 0.000000 
#    z 0.000000 0.000000 4.108870 
# 
# 
# High freq. dielectric constant tensor:
#      x y z
#    x 2.011340 0.000000 0.000000 
#    y 0.000000 2.010050 0.000000 
#    z 0.000000 0.000000 1.962010 
# 
# From -- ./inp_files/462.got.cif
#   From: 2010.03.12/outbox.cif.g09.slc.cpg/sg36_1_cif.got.tgz:462.got - 2010.04.14 02:13:53.
