data_PCOD8176482
_publ_section_title
;
Structure prediction by ZEFSAII (Michael W. Deem and Ramdas Pophale) SiO2 
 PCOD8176482
Probable space group: C C C 2
;
_chemical_formula_sum "Si O2"
_cell_formula_units_Z 64
_cell_length_a 15.563402
_cell_length_b 8.672789
_cell_length_c 23.519005
_cell_angle_alpha 90.000000
_cell_angle_beta 90.000000
_cell_angle_gamma 90.000000
_cell_volume 3174.550648
_symmetry_space_group_name_H-M "C C C 2"
_symmetry_group_IT_number 37
_symmetry_cell_setting 'orthorhombic'
loop_
_space_group_symop_operation_xyz
x,y,z
-x,-y,z
-x,y,1/2+z
x,-y,1/2+z
1/2+x,1/2+y,z
1/2-x,1/2-y,z
1/2-x,1/2+y,1/2+z
1/2+x,1/2-y,1/2+z
loop_
_atom_site_type_symbol
_atom_site_label
_atom_site_fract_x
_atom_site_fract_y
_atom_site_fract_z
Si Si1 0.569400 0.901144 0.079190
Si Si2 0.669850 0.362452 0.346356
Si Si3 0.995692 0.672387 0.347200
Si Si4 0.411217 0.411227 0.268707
Si Si5 0.359563 0.488478 0.964736
Si Si6 0.505905 0.752186 0.472287
Si Si7 0.752207 0.433543 0.065777
Si Si8 0.335138 0.346719 0.147486
O O1 0.596893 0.741129 0.107458
O O2 0.500000 0.000000 0.116995
O O3 0.651025 0.008953 0.069334
O O4 0.509454 0.869033 0.023616
O O5 0.750000 0.250000 0.340728
O O6 0.586355 0.256698 0.345031
O O7 0.663860 0.479125 0.293307
O O8 0.676671 0.477003 0.400671
O O9 0.970034 0.661949 0.413561
O O10 0.000000 0.500000 0.321964
O O11 0.924924 0.764310 0.310130
O O12 0.500000 0.500000 0.264056
O O13 0.382388 0.364912 0.206552
O O14 0.414066 0.638561 0.981391
O O15 0.416305 0.337071 0.970019
O O16 0.280022 0.487540 0.007618
O O17 0.750000 0.250000 0.064778
O O18 0.692023 0.492340 0.117858
O O19 0.250000 0.250000 0.157654
#
# Coordination Sequence:
#
# PCOD8176482 Si02
#       8
#     8   8   8   8   8   8   8   8
#     4  11  23  40  64  93 126 165 211 259 322 381
#     4  10  22  39  62  89 123 168 210 256 321 375
#     4  10  21  38  61  91 124 162 209 263 310 375
#     4  10  22  43  64  88 123 166 215 260 309 376
#     4  10  20  36  61  89 126 163 203 258 317 381
#     4  10  19  36  62  89 125 165 204 255 319 378
#     4  11  24  41  61  95 129 162 211 263 317 382
#     4  10  24  44  66  89 126 169 212 266 315 367
#
# _framework density 20.160333000000001
#
# number of rings (size 3 to 8) (size 9 to 14) (size 15 to 20)
#    0.000    1.750    2.500    1.125    3.500    4.000 
#    0.000    5.625    0.000    0.000    0.000    0.000 
#    0.000    0.000    0.000    0.000    0.000    0.000 
#
# Total GULP energy -396612.225076 kJ/mol
# GULP energy per Si atom -12394.132034 kJ/mol
# Density = 2.011445 g / cm^3
# Si number density = 20.160333 Si / 1000 Ang^3
#
#
#
# Elastic Constant Matrix: (Units=GPa)
#
#
# Indices 1 2 3 4 5 6 
#
# 1 94.3145 40.7237 46.1268 0.0000 0.0000 0.0000
# 2 40.7237 114.4839 54.3047 0.0000 0.0000 0.0000
# 3 46.1268 54.3047 125.9107 0.0000 0.0000 0.0000
# 4 0.0000 0.0000 0.0000 9.3648 0.0000 0.0000
# 5 0.0000 0.0000 0.0000 0.0000 28.0427 0.0000
# 6 0.0000 0.0000 0.0000 0.0000 0.0000 18.0334
#
#
#
# Elastic Compliance Matrix: (Units=1/GPa)
#
#
# Indices 1 2 3 4 5 6 
#
# 1 0.013764 -0.003148 -0.003685 0.000000 0.000000 0.000000
# 2 -0.003148 0.011702 -0.003893 0.000000 0.000000 0.000000
# 3 -0.003685 -0.003893 0.010971 0.000000 0.000000 0.000000
# 4 0.000000 0.000000 0.000000 0.106783 0.000000 0.000000
# 5 0.000000 0.000000 0.000000 0.000000 0.035660 0.000000
# 6 0.000000 0.000000 0.000000 0.000000 0.000000 0.055453
#
#
# Mechanical properties :
#
#
# Convention : Reuss Voigt Hill
#
# Bulk Modulus (GPa) = 66.73690 68.55773 67.64732
# Shear Modulus (GPa) = 19.17321 23.99176 21.58248
#
# Velocity S-wave (km/s) = 3.08723 3.45345 3.27546
# Velocity P-wave (km/s) = 6.77370 7.06978 6.92332
#
# Compressibility (1/GPa) = 0.01498421
#
# Stress axis : x y z
#
# Youngs Moduli (GPa) = 72.65169 85.45815 91.14774
#
# Poissons Ratio (x) = 0.26906 0.33584
# Poissons Ratio (y) = 0.22874 0.35488
# Poissons Ratio (z) = 0.26769 0.33273
#
# Static dielectric constant tensor:
#      x y z
#    x 3.643150 0.000000 0.000000 
#    y 0.000000 3.773560 0.000000 
#    z 0.000000 0.000000 3.694420 
# 
# 
# High freq. dielectric constant tensor:
#      x y z
#    x 1.787480 0.000000 0.000000 
#    y 0.000000 1.798160 0.000000 
#    z 0.000000 0.000000 1.777660 
# 
# From -- ./inp_files/18904.got.cif
#   From: 2010.03.12/outbox.cif.g09.slc.cpg/sg37_10_cif.got.tgz:18904.got - 2010.04.14 02:25:27.
