data_PCOD8176986
_publ_section_title
;
Structure prediction by ZEFSAII (Michael W. Deem and Ramdas Pophale) SiO2 
 PCOD8176986
Probable space group: C C C 2
;
_chemical_formula_sum "Si O2"
_cell_formula_units_Z 40
_cell_length_a 7.479713
_cell_length_b 26.232066
_cell_length_c 9.739247
_cell_angle_alpha 90.000000
_cell_angle_beta 90.000000
_cell_angle_gamma 90.000000
_cell_volume 1910.921341
_symmetry_space_group_name_H-M "C C C 2"
_symmetry_group_IT_number 37
_symmetry_cell_setting 'orthorhombic'
loop_
_space_group_symop_operation_xyz
x,y,z
-x,-y,z
-x,y,1/2+z
x,-y,1/2+z
1/2+x,1/2+y,z
1/2-x,1/2-y,z
1/2-x,1/2+y,1/2+z
1/2+x,1/2-y,1/2+z
loop_
_atom_site_type_symbol
_atom_site_label
_atom_site_fract_x
_atom_site_fract_y
_atom_site_fract_z
Si Si1 0.822122 0.939430 0.908150
Si Si2 0.670993 0.805853 0.226112
Si Si3 0.536131 0.147167 0.452974
Si Si4 0.706290 0.988534 0.177181
Si Si5 0.698804 0.396610 0.863735
O O1 0.684343 0.893659 0.912866
O O2 0.017721 0.915807 0.931530
O O3 0.811052 0.967253 0.760238
O O4 0.791083 0.982154 0.025531
O O5 0.750000 0.750000 0.233652
O O6 0.501019 0.813695 0.327478
O O7 0.828784 0.845063 0.272551
O O8 0.598819 0.817650 0.075840
O O9 0.349913 0.115405 0.481173
O O10 0.716082 0.935951 0.257466
O O11 0.500000 0.000000 0.157236
#
# Coordination Sequence:
#
# PCOD8176986 Si02
#       5
#     8   8   8   8   8
#     4  12  25  45  71 102 143 193 233 292 351 425
#     4  10  23  48  75 105 137 184 237 290 362 421
#     4  10  23  48  73  97 148 183 227 302 353 417
#     4  12  24  44  68 100 144 191 237 287 353 420
#     4  10  25  44  68 103 140 184 243 287 350 424
#
# _framework density 20.932310000000001
#
# number of rings (size 3 to 8) (size 9 to 14) (size 15 to 20)
#    1.200    0.000    4.000    1.200    0.000    6.400 
#    0.000    1.000    0.000    0.000    0.000    0.000 
#    0.000    0.000    0.000    0.000    0.000    0.000 
#
# Total GULP energy -247870.007245 kJ/mol
# GULP energy per Si atom -12393.500362 kJ/mol
# Density = 2.088467 g / cm^3
# Si number density = 20.932310 Si / 1000 Ang^3
#
#
#
# Elastic Constant Matrix: (Units=GPa)
#
#
# Indices 1 2 3 4 5 6 
#
# 1 141.5963 75.3483 38.8208 0.0000 0.0000 0.0000
# 2 75.3483 135.9285 64.1757 0.0000 0.0000 0.0000
# 3 38.8208 64.1757 114.8918 0.0000 0.0000 0.0000
# 4 0.0000 0.0000 0.0000 22.5424 0.0000 0.0000
# 5 0.0000 0.0000 0.0000 0.0000 19.3368 0.0000
# 6 0.0000 0.0000 0.0000 0.0000 0.0000 34.1763
#
#
#
# Elastic Compliance Matrix: (Units=1/GPa)
#
#
# Indices 1 2 3 4 5 6 
#
# 1 0.010030 -0.005378 -0.000385 0.000000 0.000000 0.000000
# 2 -0.005378 0.012876 -0.005375 0.000000 0.000000 0.000000
# 3 -0.000385 -0.005375 0.011836 0.000000 0.000000 0.000000
# 4 0.000000 0.000000 0.000000 0.044361 0.000000 0.000000
# 5 0.000000 0.000000 0.000000 0.000000 0.051715 0.000000
# 6 0.000000 0.000000 0.000000 0.000000 0.000000 0.029260
#
#
# Mechanical properties :
#
#
# Convention : Reuss Voigt Hill
#
# Bulk Modulus (GPa) = 80.21837 83.23402 81.72619
# Shear Modulus (GPa) = 26.80857 29.48257 28.14557
#
# Velocity S-wave (km/s) = 3.58261 3.75703 3.67086
# Velocity P-wave (km/s) = 7.45113 7.65964 7.55611
#
# Compressibility (1/GPa) = 0.01246597
#
# Stress axis : x y z
#
# Youngs Moduli (GPa) = 99.70442 77.66685 84.48709
#
# Poissons Ratio (x) = 0.41769 0.03252
# Poissons Ratio (y) = 0.53620 0.45410
# Poissons Ratio (z) = 0.03838 0.41744
#
# Static dielectric constant tensor:
#      x y z
#    x 3.735330 0.000000 0.000000 
#    y 0.000000 3.730510 0.000000 
#    z 0.000000 0.000000 3.842910 
# 
# 
# High freq. dielectric constant tensor:
#      x y z
#    x 1.817870 0.000000 0.000000 
#    y 0.000000 1.819140 0.000000 
#    z 0.000000 0.000000 1.818800 
# 
# From -- ./inp_files/2290.got.cif
#   From: 2010.03.12/outbox.cif.g09.slc.cpg/sg37_2_cif.got.tgz:2290.got - 2010.04.14 02:25:27.
