data_PCOD8176387
_publ_section_title
;
Structure prediction by ZEFSAII (Michael W. Deem and Ramdas Pophale) SiO2 
 PCOD8176387
Probable space group: C C C 2
;
_chemical_formula_sum "Si O2"
_cell_formula_units_Z 40
_cell_length_a 20.412257
_cell_length_b 11.811832
_cell_length_c 8.871714
_cell_angle_alpha 90.000000
_cell_angle_beta 90.000000
_cell_angle_gamma 90.000000
_cell_volume 2139.024810
_symmetry_space_group_name_H-M "C C C 2"
_symmetry_group_IT_number 37
_symmetry_cell_setting 'orthorhombic'
loop_
_space_group_symop_operation_xyz
x,y,z
-x,-y,z
-x,y,1/2+z
x,-y,1/2+z
1/2+x,1/2+y,z
1/2-x,1/2-y,z
1/2-x,1/2+y,1/2+z
1/2+x,1/2-y,1/2+z
loop_
_atom_site_type_symbol
_atom_site_label
_atom_site_fract_x
_atom_site_fract_y
_atom_site_fract_z
Si Si1 0.296332 0.647892 0.295420
Si Si2 0.524858 0.876345 0.115035
Si Si3 0.148686 0.547681 0.770748
Si Si4 0.410831 0.193175 0.813134
Si Si5 0.238470 0.521375 0.023993
O O1 0.250000 0.750000 0.344519
O O2 0.371226 0.689936 0.299893
O O3 0.280331 0.606760 0.125898
O O4 0.287610 0.547210 0.415857
O O5 0.580118 0.888884 0.245947
O O6 0.465509 0.804966 0.183015
O O7 0.500000 0.000000 0.061865
O O8 0.553956 0.810470 0.974272
O O9 0.138203 0.412495 0.791703
O O10 0.196277 0.564820 0.627586
O O11 0.185834 0.591711 0.920953
#
# Coordination Sequence:
#
# PCOD8176387 Si02
#       5
#     8   8   8   8   8
#     4  11  21  39  59  84 122 160 195 247 296 359
#     4  10  20  32  57  91 117 150 192 251 309 356
#     4  10  17  34  56  87 118 144 186 248 309 356
#     4  11  21  34  57  81 122 152 187 241 304 357
#     4  10  20  34  61  87 117 155 195 239 301 356
#
# _framework density 18.700109000000001
#
# number of rings (size 3 to 8) (size 9 to 14) (size 15 to 20)
#    0.000    1.600    6.000    1.800    2.800    0.000 
#    0.000   12.000    0.000    3.600    0.000    0.000 
#    0.000    0.000    0.000    0.000    0.000    0.000 
#
# Total GULP energy -247996.256894 kJ/mol
# GULP energy per Si atom -12399.812845 kJ/mol
# Density = 1.865755 g / cm^3
# Si number density = 18.700109 Si / 1000 Ang^3
#
#
#
# Elastic Constant Matrix: (Units=GPa)
#
#
# Indices 1 2 3 4 5 6 
#
# 1 118.1487 41.9843 56.0280 0.0000 0.0000 0.0000
# 2 41.9843 42.6963 27.5408 0.0000 0.0000 0.0000
# 3 56.0280 27.5408 124.6318 0.0000 0.0000 0.0000
# 4 0.0000 0.0000 0.0000 25.9943 0.0000 0.0000
# 5 0.0000 0.0000 0.0000 0.0000 32.9581 0.0000
# 6 0.0000 0.0000 0.0000 0.0000 0.0000 38.7738
#
#
#
# Elastic Compliance Matrix: (Units=1/GPa)
#
#
# Indices 1 2 3 4 5 6 
#
# 1 0.014488 -0.011715 -0.003924 0.000000 0.000000 0.000000
# 2 -0.011715 0.036787 -0.002863 0.000000 0.000000 0.000000
# 3 -0.003924 -0.002863 0.010420 0.000000 0.000000 0.000000
# 4 0.000000 0.000000 0.000000 0.038470 0.000000 0.000000
# 5 0.000000 0.000000 0.000000 0.000000 0.030342 0.000000
# 6 0.000000 0.000000 0.000000 0.000000 0.000000 0.025791
#
#
# Mechanical properties :
#
#
# Convention : Reuss Voigt Hill
#
# Bulk Modulus (GPa) = 40.49939 59.62033 50.05986
# Shear Modulus (GPa) = 24.81000 30.20684 27.50842
#
# Velocity S-wave (km/s) = 3.64638 4.02348 3.83956
# Velocity P-wave (km/s) = 6.27953 7.31683 6.81794
#
# Compressibility (1/GPa) = 0.02469173
#
# Stress axis : x y z
#
# Youngs Moduli (GPa) = 69.02400 27.18330 95.96595
#
# Poissons Ratio (x) = 0.31845 0.37659
# Poissons Ratio (y) = 0.80861 0.27473
# Poissons Ratio (z) = 0.27086 0.07782
#
# Static dielectric constant tensor:
#      x y z
#    x 3.571940 0.000000 0.000000 
#    y 0.000000 2.935320 0.000000 
#    z 0.000000 0.000000 3.563880 
# 
# 
# High freq. dielectric constant tensor:
#      x y z
#    x 1.731310 0.000000 0.000000 
#    y 0.000000 1.658040 0.000000 
#    z 0.000000 0.000000 1.745680 
# 
# From -- ./inp_files/2204.got.cif
#   From: 2010.03.12/outbox.cif.g09.slc.cpg/sg37_2_cif.got.tgz:2204.got - 2010.04.14 02:25:27.
