data_PCOD8176730
_publ_section_title
;
Structure prediction by ZEFSAII (Michael W. Deem and Ramdas Pophale) SiO2 
 PCOD8176730
Probable space group: C C C 2
;
_chemical_formula_sum "Si O2"
_cell_formula_units_Z 48
_cell_length_a 15.409686
_cell_length_b 8.865019
_cell_length_c 18.539748
_cell_angle_alpha 90.000000
_cell_angle_beta 90.000000
_cell_angle_gamma 90.000000
_cell_volume 2532.662306
_symmetry_space_group_name_H-M "C C C 2"
_symmetry_group_IT_number 37
_symmetry_cell_setting 'orthorhombic'
loop_
_space_group_symop_operation_xyz
x,y,z
-x,-y,z
-x,y,1/2+z
x,-y,1/2+z
1/2+x,1/2+y,z
1/2-x,1/2-y,z
1/2-x,1/2+y,1/2+z
1/2+x,1/2-y,1/2+z
loop_
_atom_site_type_symbol
_atom_site_label
_atom_site_fract_x
_atom_site_fract_y
_atom_site_fract_z
Si Si1 0.659683 0.687285 0.095320
Si Si2 0.994912 0.673154 0.180125
Si Si3 0.003170 0.325255 0.349718
Si Si4 0.341155 0.679996 0.428601
Si Si5 0.416286 0.391924 0.581455
Si Si6 0.655766 0.674488 0.432661
O O1 0.750000 0.750000 0.121679
O O2 0.593668 0.764342 0.149012
O O3 0.660342 0.505636 0.105325
O O4 0.640435 0.725609 0.011588
O O5 0.000000 0.500000 0.157582
O O6 0.001263 0.697254 0.264614
O O7 0.072231 0.768245 0.143523
O O8 0.920342 0.242414 0.382494
O O9 0.000000 0.500000 0.371997
O O10 0.093820 0.253403 0.374571
O O11 0.250000 0.750000 0.402255
O O12 0.335108 0.501818 0.416007
O O13 0.500000 0.500000 0.566969
O O14 0.390065 0.301523 0.509849
O O15 0.750000 0.750000 0.430784
#
# Coordination Sequence:
#
# PCOD8176730 Si02
#       6
#     8   8   8   8   8   8
#     4   9  19  36  58  82 109 140 181 230 278 329
#     4  10  22  37  55  80 111 148 186 225 276 330
#     4  11  23  39  56  81 117 153 189 230 277 333
#     4  10  21  39  61  86 112 144 188 236 282 330
#     4   9  19  37  57  81 109 144 187 228 277 333
#     4  11  22  36  59  88 114 147 187 229 280 337
#
# _framework density 18.952387000000002
#
# number of rings (size 3 to 8) (size 9 to 14) (size 15 to 20)
#    0.000    2.000    0.000    4.500    0.000   11.333 
#    0.000    4.167    0.000    0.000    0.000    0.000 
#    0.000    0.000    0.000    0.000    0.000    0.000 
#
# Total GULP energy -297582.216431 kJ/mol
# GULP energy per Si atom -12399.259018 kJ/mol
# Density = 1.890925 g / cm^3
# Si number density = 18.952387 Si / 1000 Ang^3
#
#
#
# Elastic Constant Matrix: (Units=GPa)
#
#
# Indices 1 2 3 4 5 6 
#
# 1 107.6621 56.2922 44.3023 0.0000 0.0000 0.0000
# 2 56.2922 131.1665 62.1062 0.0000 0.0000 0.0000
# 3 44.3023 62.1062 79.2039 0.0000 0.0000 0.0000
# 4 0.0000 0.0000 0.0000 33.7517 0.0000 0.0000
# 5 0.0000 0.0000 0.0000 0.0000 1.0639 0.0000
# 6 0.0000 0.0000 0.0000 0.0000 0.0000 40.6628
#
#
#
# Elastic Compliance Matrix: (Units=1/GPa)
#
#
# Indices 1 2 3 4 5 6 
#
# 1 0.012945 -0.003383 -0.004588 0.000000 0.000000 0.000000
# 2 -0.003383 0.013010 -0.008309 0.000000 0.000000 0.000000
# 3 -0.004588 -0.008309 0.021707 0.000000 0.000000 0.000000
# 4 0.000000 0.000000 0.000000 0.029628 0.000000 0.000000
# 5 0.000000 0.000000 0.000000 0.000000 0.939946 0.000000
# 6 0.000000 0.000000 0.000000 0.000000 0.000000 0.024592
#
#
# Mechanical properties :
#
#
# Convention : Reuss Voigt Hill
#
# Bulk Modulus (GPa) = 66.21680 71.49265 68.85472
# Shear Modulus (GPa) = 4.63210 25.45114 15.04162
#
# Velocity S-wave (km/s) = 1.56505 3.66853 2.82024
# Velocity P-wave (km/s) = 6.18710 7.46648 6.85669
#
# Compressibility (1/GPa) = 0.01510191
#
# Stress axis : x y z
#
# Youngs Moduli (GPa) = 77.24871 76.86216 46.06711
#
# Poissons Ratio (x) = 0.26005 0.21135
# Poissons Ratio (y) = 0.26136 0.38279
# Poissons Ratio (z) = 0.35441 0.63867
#
# Static dielectric constant tensor:
#      x y z
#    x 3.600840 0.000000 0.000000 
#    y 0.000000 3.839230 0.000000 
#    z 0.000000 0.000000 3.412830 
# 
# 
# High freq. dielectric constant tensor:
#      x y z
#    x 1.740860 0.000000 0.000000 
#    y 0.000000 1.751520 0.000000 
#    z 0.000000 0.000000 1.729500 
# 
# From -- ./inp_files/12537.got.cif
#   From: 2010.03.12/outbox.cif.g09.slc.cpg/sg37_7_cif.got.tgz:12537.got - 2010.04.14 02:25:27.
