data_PCOD8176212
_publ_section_title
;
Structure prediction by ZEFSAII (Michael W. Deem and Ramdas Pophale) SiO2 
 PCOD8176212
Probable space group: C M C 21
;
_chemical_formula_sum "Si O2"
_cell_formula_units_Z 64
_cell_length_a 21.961162
_cell_length_b 17.060952
_cell_length_c 9.312223
_cell_angle_alpha 90.000000
_cell_angle_beta 90.000000
_cell_angle_gamma 90.000000
_cell_volume 3489.088169
_symmetry_space_group_name_H-M "C M C 21"
_symmetry_group_IT_number 36
_symmetry_cell_setting 'orthorhombic'
loop_
_space_group_symop_operation_xyz
x,y,z
-x,-y,1/2+z
x,-y,1/2+z
-x,y,z
1/2+x,1/2+y,z
1/2-x,1/2-y,1/2+z
1/2+x,1/2-y,1/2+z
1/2-x,1/2+y,z
loop_
_atom_site_type_symbol
_atom_site_label
_atom_site_fract_x
_atom_site_fract_y
_atom_site_fract_z
Si Si1 0.152679 0.180299 0.274760
Si Si2 0.274420 0.102822 0.170958
Si Si3 0.628989 0.563846 0.507307
Si Si4 0.734562 0.185546 0.883533
Si Si5 0.430384 0.567369 0.816161
Si Si6 0.430028 0.284764 0.511166
Si Si7 0.328148 0.819785 0.929656
Si Si8 0.757816 0.571154 0.635171
O O1 0.205722 0.123002 0.218471
O O2 0.122509 0.144474 0.418311
O O3 0.179329 0.265930 0.311981
O O4 0.099951 0.184112 0.157284
O O5 0.323091 0.147685 0.269421
O O6 0.285858 0.010357 0.190083
O O7 0.289916 0.131296 0.011117
O O8 0.609634 0.492247 0.407376
O O9 0.589343 0.569010 0.650632
O O10 0.699677 0.550254 0.539994
O O11 0.785733 0.242761 0.948931
O O12 0.763083 0.127611 0.764946
O O13 0.500000 0.539085 0.822744
O O14 0.422525 0.652873 0.883765
O O15 0.500000 0.265611 0.543213
O O16 0.397381 0.204883 0.460303
O O17 0.308629 0.886177 0.040952
#
# Coordination Sequence:
#
# PCOD8176212 Si02
#       8
#     8   8   8   8   8   8   8   8
#     4  11  23  39  56  92 122 167 200 252 307 375
#     4  11  22  35  59  90 127 154 193 259 319 372
#     4  12  24  37  61  90 125 166 209 248 309 363
#     4  11  21  36  59  85 130 156 197 253 319 368
#     4  11  25  41  61  86 125 171 213 253 295 370
#     4  11  23  42  64  85 120 169 213 254 302 378
#     4  11  21  38  59  88 119 158 203 252 318 364
#     4  12  22  36  57  94 123 157 198 253 317 378
#
# _framework density 18.342901000000001
#
# number of rings (size 3 to 8) (size 9 to 14) (size 15 to 20)
#    0.000    0.750    5.000    4.875    3.500    2.000 
#    0.000    0.000    0.000    0.750    0.000    0.000 
#    0.000    0.000    0.000    0.000    0.000    0.000 
#
# Total GULP energy -396957.789650 kJ/mol
# GULP energy per Si atom -12404.930927 kJ/mol
# Density = 1.830115 g / cm^3
# Si number density = 18.342901 Si / 1000 Ang^3
#
#
#
# Elastic Constant Matrix: (Units=GPa)
#
#
# Indices 1 2 3 4 5 6 
#
# 1 87.6160 44.5494 43.0659 0.0000 0.0000 0.0000
# 2 44.5494 112.5211 45.2004 0.0000 0.0000 0.0000
# 3 43.0659 45.2004 122.3205 0.0000 0.0000 0.0000
# 4 0.0000 0.0000 0.0000 36.8571 0.0000 0.0000
# 5 0.0000 0.0000 0.0000 0.0000 25.8010 0.0000
# 6 0.0000 0.0000 0.0000 0.0000 0.0000 25.5778
#
#
#
# Elastic Compliance Matrix: (Units=1/GPa)
#
#
# Indices 1 2 3 4 5 6 
#
# 1 0.015650 -0.004677 -0.003782 0.000000 0.000000 0.000000
# 2 -0.004677 0.011834 -0.002726 0.000000 0.000000 0.000000
# 3 -0.003782 -0.002726 0.010514 0.000000 0.000000 0.000000
# 4 0.000000 0.000000 0.000000 0.027132 0.000000 0.000000
# 5 0.000000 0.000000 0.000000 0.000000 0.038758 0.000000
# 6 0.000000 0.000000 0.000000 0.000000 0.000000 0.039096
#
#
# Mechanical properties :
#
#
# Convention : Reuss Voigt Hill
#
# Bulk Modulus (GPa) = 63.98665 65.34321 64.66493
# Shear Modulus (GPa) = 29.31431 30.28999 29.80215
#
# Velocity S-wave (km/s) = 4.00200 4.06805 4.03516
# Velocity P-wave (km/s) = 7.50426 7.60039 7.55248
#
# Compressibility (1/GPa) = 0.01562826
#
# Stress axis : x y z
#
# Youngs Moduli (GPa) = 63.89580 84.50103 95.10983
#
# Poissons Ratio (x) = 0.39523 0.35969
# Poissons Ratio (y) = 0.29885 0.25930
# Poissons Ratio (z) = 0.24164 0.23038
#
# Static dielectric constant tensor:
#      x y z
#    x 3.197030 0.000000 0.000000 
#    y 0.000000 3.465160 0.000000 
#    z 0.000000 0.000000 3.631710 
# 
# 
# High freq. dielectric constant tensor:
#      x y z
#    x 1.675010 0.000000 0.000000 
#    y 0.000000 1.712670 0.000000 
#    z 0.000000 0.000000 1.735980 
# 
# From -- ./inp_files/5325.got.cif
#   From: 2010.03.12/outbox.cif.g09.slc.cpg/sg36_3_cif.got.tgz:5325.got - 2010.04.14 02:13:53.
