data_PCOD8176819
_publ_section_title
;
Structure prediction by ZEFSAII (Michael W. Deem and Ramdas Pophale) SiO2 
 PCOD8176819
Probable space group: C C C 2
;
_chemical_formula_sum "Si O2"
_cell_formula_units_Z 44
_cell_length_a 23.057261
_cell_length_b 4.860278
_cell_length_c 18.364801
_cell_angle_alpha 90.000000
_cell_angle_beta 90.000000
_cell_angle_gamma 90.000000
_cell_volume 2058.045885
_symmetry_space_group_name_H-M "C C C 2"
_symmetry_group_IT_number 37
_symmetry_cell_setting 'orthorhombic'
loop_
_space_group_symop_operation_xyz
x,y,z
-x,-y,z
-x,y,1/2+z
x,-y,1/2+z
1/2+x,1/2+y,z
1/2-x,1/2-y,z
1/2-x,1/2+y,1/2+z
1/2+x,1/2-y,1/2+z
loop_
_atom_site_type_symbol
_atom_site_label
_atom_site_fract_x
_atom_site_fract_y
_atom_site_fract_z
Si Si1 0.461978 0.751726 0.366670
Si Si2 0.872975 0.417085 0.485113
Si Si3 0.067498 0.056666 0.715300
Si Si4 0.799574 0.070560 0.988189
Si Si5 0.128379 0.429048 0.150167
Si Si6 0.750000 0.250000 0.616751
O O1 0.500000 0.500000 0.397283
O O2 0.427277 0.877513 0.433815
O O3 0.423592 0.648219 0.299001
O O4 0.500000 0.000000 0.334532
O O5 0.856287 0.737131 0.488853
O O6 0.887227 0.329231 0.568023
O O7 0.819786 0.223149 0.454406
O O8 0.101928 0.267468 0.662865
O O9 0.097893 0.763974 0.708704
O O10 0.000000 0.000000 0.695396
O O11 0.750000 0.250000 0.945807
O O12 0.774789 0.001587 0.068195
O O13 0.198140 0.393834 0.163068
#
# Coordination Sequence:
#
# PCOD8176819 Si02
#       6
#     8   8   8   8   8   4
#     4  11  24  45  64  85 126 174 210 256 328 390
#     4  11  23  36  65  97 119 162 212 267 306 373
#     4  11  24  42  64  88 126 172 212 261 327 380
#     4  11  18  36  60  92 125 163 202 247 314 391
#     4  11  22  38  67  95 127 158 217 268 306 389
#     4  10  22  36  66  94 136 174 204 254 342 382
#
# _framework density 21.379505000000002
#
# number of rings (size 3 to 8) (size 9 to 14) (size 15 to 20)
#    0.000    1.091    3.636    6.000    0.000    2.182 
#    0.000    0.000   12.000    0.000    0.000    0.000 
#    0.000    0.000    0.000    0.000    0.000    0.000 
#
# Total GULP energy -272569.647319 kJ/mol
# GULP energy per Si atom -12389.529424 kJ/mol
# Density = 2.133084 g / cm^3
# Si number density = 21.379505 Si / 1000 Ang^3
#
#
#
# Elastic Constant Matrix: (Units=GPa)
#
#
# Indices 1 2 3 4 5 6 
#
# 1 113.4311 28.2187 30.3007 0.0000 0.0000 0.0000
# 2 28.2187 108.6283 5.2271 0.0000 0.0000 0.0000
# 3 30.3007 5.2271 69.3986 0.0000 0.0000 0.0000
# 4 0.0000 0.0000 0.0000 18.1855 0.0000 0.0000
# 5 0.0000 0.0000 0.0000 0.0000 6.6292 0.0000
# 6 0.0000 0.0000 0.0000 0.0000 0.0000 56.3624
#
#
#
# Elastic Compliance Matrix: (Units=1/GPa)
#
#
# Indices 1 2 3 4 5 6 
#
# 1 0.010640 -0.002550 -0.004454 0.000000 0.000000 0.000000
# 2 -0.002550 0.009850 0.000371 0.000000 0.000000 0.000000
# 3 -0.004454 0.000371 0.016326 0.000000 0.000000 0.000000
# 4 0.000000 0.000000 0.000000 0.054989 0.000000 0.000000
# 5 0.000000 0.000000 0.000000 0.000000 0.150847 0.000000
# 6 0.000000 0.000000 0.000000 0.000000 0.000000 0.017742
#
#
# Mechanical properties :
#
#
# Convention : Reuss Voigt Hill
#
# Bulk Modulus (GPa) = 42.45859 46.55010 44.50435
# Shear Modulus (GPa) = 17.76144 31.41619 24.58882
#
# Velocity S-wave (km/s) = 2.88543 3.83750 3.39501
# Velocity P-wave (km/s) = 5.56808 6.43861 6.01911
#
# Compressibility (1/GPa) = 0.02355236
#
# Stress axis : x y z
#
# Youngs Moduli (GPa) = 93.98605 101.52104 61.25186
#
# Poissons Ratio (x) = 0.25884 0.27279
# Poissons Ratio (y) = 0.23963 -0.02274
# Poissons Ratio (z) = 0.41857 -0.03770
#
# Static dielectric constant tensor:
#      x y z
#    x 4.303950 0.000000 0.000000 
#    y 0.000000 4.209740 0.000000 
#    z 0.000000 0.000000 3.356010 
# 
# 
# High freq. dielectric constant tensor:
#      x y z
#    x 1.840290 0.000000 0.000000 
#    y 0.000000 1.873230 0.000000 
#    z 0.000000 0.000000 1.784260 
# 
# From -- ./inp_files/17406.got.cif
#   From: 2010.03.12/outbox.cif.g09.slc.cpg/sg37_9_cif.got.tgz:17406.got - 2010.04.14 02:25:27.
