data_PCOD8176450
_publ_section_title
;
Structure prediction by ZEFSAII (Michael W. Deem and Ramdas Pophale) SiO2 
 PCOD8176450
Probable space group: C C C 2
;
_chemical_formula_sum "Si O2"
_cell_formula_units_Z 64
_cell_length_a 17.877615
_cell_length_b 8.774362
_cell_length_c 21.738865
_cell_angle_alpha 90.000000
_cell_angle_beta 90.000000
_cell_angle_gamma 90.000000
_cell_volume 3410.059791
_symmetry_space_group_name_H-M "C C C 2"
_symmetry_group_IT_number 37
_symmetry_cell_setting 'orthorhombic'
loop_
_space_group_symop_operation_xyz
x,y,z
-x,-y,z
-x,y,1/2+z
x,-y,1/2+z
1/2+x,1/2+y,z
1/2-x,1/2-y,z
1/2-x,1/2+y,1/2+z
1/2+x,1/2-y,1/2+z
loop_
_atom_site_type_symbol
_atom_site_label
_atom_site_fract_x
_atom_site_fract_y
_atom_site_fract_z
Si Si1 0.767592 0.416903 0.945680
Si Si2 0.185313 0.365362 0.177726
Si Si3 0.807319 0.613536 0.580158
Si Si4 0.327657 0.166221 0.865968
Si Si5 0.908983 0.869106 0.110122
Si Si6 0.073657 0.197089 0.640103
Si Si7 0.828475 0.832994 0.983781
Si Si8 0.079579 0.585943 0.250959
O O1 0.750000 0.250000 0.922347
O O2 0.808599 0.496051 0.888687
O O3 0.688593 0.494406 0.963110
O O4 0.816149 0.425821 0.008481
O O5 0.250000 0.250000 0.203110
O O6 0.217670 0.466341 0.120638
O O7 0.118880 0.260167 0.155310
O O8 0.147482 0.475890 0.228358
O O9 0.750000 0.750000 0.592401
O O10 0.888583 0.669589 0.600749
O O11 0.250000 0.250000 0.844727
O O12 0.365071 0.250978 0.924635
O O13 0.390910 0.157579 0.814361
O O14 0.996834 0.845273 0.107994
O O15 0.882582 0.034410 0.136934
O O16 0.882455 0.837278 0.041205
O O17 0.066934 0.264971 0.708634
O O18 0.750000 0.750000 0.000082
O O19 0.000000 0.500000 0.258969
#
# Coordination Sequence:
#
# PCOD8176450 Si02
#       8
#     8   8   8   8   8   8   8   8
#     4   9  16  31  56  84 115 140 188 252 296 340
#     4  11  21  33  59  87 113 151 204 241 296 357
#     4  10  19  33  54  88 122 151 188 245 308 364
#     4   9  21  39  59  82 110 159 203 240 288 350
#     4  11  19  36  58  87 121 148 189 248 305 363
#     4  10  23  35  57  83 121 158 190 238 307 355
#     4   9  18  35  60  87 116 150 186 243 300 353
#     4  11  23  44  58  81 123 165 200 250 293 351
#
# _framework density 18.767999
#
# number of rings (size 3 to 8) (size 9 to 14) (size 15 to 20)
#    0.000    2.250    1.250    4.875    0.000    4.000 
#    2.250    1.250    0.000    0.000    0.000    0.000 
#    0.000    0.000    0.000    0.000    0.000    0.000 
#
# Total GULP energy -396520.120710 kJ/mol
# GULP energy per Si atom -12391.253772 kJ/mol
# Density = 1.872528 g / cm^3
# Si number density = 18.767999 Si / 1000 Ang^3
#
#
#
# Elastic Constant Matrix: (Units=GPa)
#
#
# Indices 1 2 3 4 5 6 
#
# 1 67.4763 33.7347 49.2769 0.0000 0.0000 0.0000
# 2 33.7347 119.1660 50.7858 0.0000 0.0000 0.0000
# 3 49.2769 50.7858 123.0173 0.0000 0.0000 0.0000
# 4 0.0000 0.0000 0.0000 11.0964 0.0000 0.0000
# 5 0.0000 0.0000 0.0000 0.0000 21.3896 0.0000
# 6 0.0000 0.0000 0.0000 0.0000 0.0000 27.9399
#
#
#
# Elastic Compliance Matrix: (Units=1/GPa)
#
#
# Indices 1 2 3 4 5 6 
#
# 1 0.021781 -0.002970 -0.007499 0.000000 0.000000 0.000000
# 2 -0.002970 0.010588 -0.003181 0.000000 0.000000 0.000000
# 3 -0.007499 -0.003181 0.012446 0.000000 0.000000 0.000000
# 4 0.000000 0.000000 0.000000 0.090119 0.000000 0.000000
# 5 0.000000 0.000000 0.000000 0.000000 0.046752 0.000000
# 6 0.000000 0.000000 0.000000 0.000000 0.000000 0.035791
#
#
# Mechanical properties :
#
#
# Convention : Reuss Voigt Hill
#
# Bulk Modulus (GPa) = 57.09431 64.13939 60.61685
# Shear Modulus (GPa) = 19.95078 23.80931 21.88005
#
# Velocity S-wave (km/s) = 3.26394 3.56562 3.41811
# Velocity P-wave (km/s) = 6.68517 7.15546 6.92431
#
# Compressibility (1/GPa) = 0.01751488
#
# Stress axis : x y z
#
# Youngs Moduli (GPa) = 45.91134 94.44315 80.34675
#
# Poissons Ratio (x) = 0.28052 0.60249
# Poissons Ratio (y) = 0.13637 0.25562
# Poissons Ratio (z) = 0.34427 0.30047
#
# Static dielectric constant tensor:
#      x y z
#    x 3.256690 0.000000 0.000000 
#    y 0.000000 3.901810 0.000000 
#    z 0.000000 0.000000 3.267270 
# 
# 
# High freq. dielectric constant tensor:
#      x y z
#    x 1.707360 0.000000 0.000000 
#    y 0.000000 1.753100 0.000000 
#    z 0.000000 0.000000 1.712930 
# 
# From -- ./inp_files/17360.got.cif
#   From: 2010.03.12/outbox.cif.g09.slc.cpg/sg37_9_cif.got.tgz:17360.got - 2010.04.14 02:25:27.
