data_PCOD8176247
_publ_section_title
;
Structure prediction by ZEFSAII (Michael W. Deem and Ramdas Pophale) SiO2 
 PCOD8176247
Probable space group: C M C 21
;
_chemical_formula_sum "Si O2"
_cell_formula_units_Z 48
_cell_length_a 17.546579
_cell_length_b 9.178355
_cell_length_c 13.344348
_cell_angle_alpha 90.000000
_cell_angle_beta 90.000000
_cell_angle_gamma 90.000000
_cell_volume 2149.090313
_symmetry_space_group_name_H-M "C M C 21"
_symmetry_group_IT_number 36
_symmetry_cell_setting 'orthorhombic'
loop_
_space_group_symop_operation_xyz
x,y,z
-x,-y,1/2+z
x,-y,1/2+z
-x,y,z
1/2+x,1/2+y,z
1/2-x,1/2-y,1/2+z
1/2+x,1/2-y,1/2+z
1/2-x,1/2+y,z
loop_
_atom_site_type_symbol
_atom_site_label
_atom_site_fract_x
_atom_site_fract_y
_atom_site_fract_z
Si Si1 0.000000 0.167834 0.147780
Si Si2 0.500000 0.165331 0.943799
Si Si3 0.500000 0.963235 0.228431
Si Si4 0.500000 0.497735 0.442138
Si Si5 0.246988 0.119757 0.377989
Si Si6 0.113348 0.987904 0.270704
Si Si7 0.638409 0.182531 0.211924
Si Si8 0.668550 0.122427 0.996400
O O1 0.000000 0.344128 0.139003
O O2 0.074998 0.117807 0.208266
O O3 0.000000 0.107017 0.036638
O O4 0.500000 0.139038 0.825964
O O5 0.500000 0.334154 0.973672
O O6 0.576989 0.095918 0.990287
O O7 0.574347 0.061386 0.225511
O O8 0.574260 0.460729 0.377747
O O9 0.312656 0.194034 0.313033
O O10 0.193062 0.239219 0.429798
O O11 0.200114 0.026747 0.296437
O O12 0.285083 0.019243 0.462623
O O13 0.103864 0.844514 0.201522
O O14 0.688344 0.148655 0.113084
#
# Coordination Sequence:
#
# PCOD8176247 Si02
#       8
#     4   4   4   4   8   8   8   8
#     4  11  24  42  75 103 142 193 249 288 369 447
#     4  12  21  47  76 102 143 187 248 303 360 428
#     4  12  23  48  73 108 142 190 248 318 357 432
#     4  11  22  41  72 101 139 192 243 295 356 441
#     4  12  26  46  71 105 146 188 241 304 364 444
#     4  11  24  45  67 103 141 190 236 303 362 434
#     4  12  28  46  74 104 152 188 242 307 375 434
#     4  12  27  48  74 107 145 198 240 302 375 437
#
# _framework density 22.33503
#
# number of rings (size 3 to 8) (size 9 to 14) (size 15 to 20)
#    0.000    0.333    6.667    2.500    2.333    1.333 
#    3.000    0.000    0.000    0.000    0.000    0.000 
#    0.000    0.000    0.000    0.000    0.000    0.000 
#
# Total GULP energy -297686.322498 kJ/mol
# GULP energy per Si atom -12403.596771 kJ/mol
# Density = 2.228419 g / cm^3
# Si number density = 22.335030 Si / 1000 Ang^3
#
#
#
# Elastic Constant Matrix: (Units=GPa)
#
#
# Indices 1 2 3 4 5 6 
#
# 1 104.0102 32.7241 18.2592 0.0000 0.0000 0.0000
# 2 32.7241 99.2708 10.0530 0.0000 0.0000 0.0000
# 3 18.2592 10.0530 98.8169 0.0000 0.0000 0.0000
# 4 0.0000 0.0000 0.0000 35.2599 0.0000 0.0000
# 5 0.0000 0.0000 0.0000 0.0000 18.1149 0.0000
# 6 0.0000 0.0000 0.0000 0.0000 0.0000 35.9084
#
#
#
# Elastic Compliance Matrix: (Units=1/GPa)
#
#
# Indices 1 2 3 4 5 6 
#
# 1 0.010996 -0.003455 -0.001680 0.000000 0.000000 0.000000
# 2 -0.003455 0.011264 -0.000508 0.000000 0.000000 0.000000
# 3 -0.001680 -0.000508 0.010482 0.000000 0.000000 0.000000
# 4 0.000000 0.000000 0.000000 0.028361 0.000000 0.000000
# 5 0.000000 0.000000 0.000000 0.000000 0.055203 0.000000
# 6 0.000000 0.000000 0.000000 0.000000 0.000000 0.027849
#
#
# Mechanical properties :
#
#
# Convention : Reuss Voigt Hill
#
# Bulk Modulus (GPa) = 46.60581 47.13005 46.86793
# Shear Modulus (GPa) = 30.75181 33.92742 32.33961
#
# Velocity S-wave (km/s) = 3.71461 3.90169 3.80930
# Velocity P-wave (km/s) = 6.26975 6.43776 6.35431
#
# Compressibility (1/GPa) = 0.02145655
#
# Stress axis : x y z
#
# Youngs Moduli (GPa) = 90.93897 88.78094 95.40283
#
# Poissons Ratio (x) = 0.30671 0.16032
# Poissons Ratio (y) = 0.31417 0.04842
# Poissons Ratio (z) = 0.15282 0.04506
#
# Static dielectric constant tensor:
#      x y z
#    x 4.049950 0.000000 0.000000 
#    y 0.000000 3.980960 0.000000 
#    z 0.000000 0.000000 4.042470 
# 
# 
# High freq. dielectric constant tensor:
#      x y z
#    x 1.882130 0.000000 0.000000 
#    y 0.000000 1.886150 0.000000 
#    z 0.000000 0.000000 1.884240 
# 
# From -- ./inp_files/12526.got.cif
#   From: 2010.03.12/outbox.cif.g09.slc.cpg/sg36_7_cif.got.tgz:12526.got - 2010.04.14 02:13:53.
