data_PCOD8176607
_publ_section_title
;
Structure prediction by ZEFSAII (Michael W. Deem and Ramdas Pophale) SiO2 
 PCOD8176607
Probable space group: C C C 2
;
_chemical_formula_sum "Si O2"
_cell_formula_units_Z 36
_cell_length_a 4.866702
_cell_length_b 20.957307
_cell_length_c 16.148735
_cell_angle_alpha 90.000000
_cell_angle_beta 90.000000
_cell_angle_gamma 90.000000
_cell_volume 1647.057410
_symmetry_space_group_name_H-M "C C C 2"
_symmetry_group_IT_number 37
_symmetry_cell_setting 'orthorhombic'
loop_
_space_group_symop_operation_xyz
x,y,z
-x,-y,z
-x,y,1/2+z
x,-y,1/2+z
1/2+x,1/2+y,z
1/2-x,1/2-y,z
1/2-x,1/2+y,1/2+z
1/2+x,1/2-y,1/2+z
loop_
_atom_site_type_symbol
_atom_site_label
_atom_site_fract_x
_atom_site_fract_y
_atom_site_fract_z
Si Si1 0.750000 0.250000 0.439610
Si Si2 0.440063 0.072613 0.899072
Si Si3 0.130738 0.355865 0.055373
Si Si4 0.956881 0.854594 0.334967
Si Si5 0.150480 0.177372 0.655112
O O1 0.941976 0.295896 0.495679
O O2 0.959952 0.209382 0.383473
O O3 0.145502 0.086061 0.859589
O O4 0.648669 0.123200 0.856409
O O5 0.500000 0.000000 0.877843
O O6 0.410570 0.081335 0.998691
O O7 0.443386 0.342112 0.081815
O O8 0.928849 0.361758 0.134477
O O9 0.993995 0.841396 0.238070
O O10 0.250000 0.250000 0.656890
#
# Coordination Sequence:
#
# PCOD8176607 Si02
#       5
#     4   8   8   8   8
#     4  10  20  38  60 100 124 176 206 270 328 404
#     4  11  25  46  66  92 129 182 234 272 310 386
#     4  11  23  38  67  92 135 168 216 263 333 391
#     4  11  24  40  69  94 134 170 225 269 337 393
#     4  12  22  41  61 103 136 165 202 270 348 404
#
# _framework density 21.85716
#
# number of rings (size 3 to 8) (size 9 to 14) (size 15 to 20)
#    0.000    0.889    3.333    4.667    0.000    2.667 
#    0.000    6.667    0.000    0.000    0.000    0.000 
#    0.000    0.000    0.000    0.000    0.000    0.000 
#
# Total GULP energy -223105.279346 kJ/mol
# GULP energy per Si atom -12394.737741 kJ/mol
# Density = 2.180741 g / cm^3
# Si number density = 21.857160 Si / 1000 Ang^3
#
#
#
# Elastic Constant Matrix: (Units=GPa)
#
#
# Indices 1 2 3 4 5 6 
#
# 1 72.8176 -5.7080 17.3609 0.0000 0.0000 0.0000
# 2 -5.7080 68.0121 8.2132 0.0000 0.0000 0.0000
# 3 17.3609 8.2132 99.3463 0.0000 0.0000 0.0000
# 4 0.0000 0.0000 0.0000 11.5965 0.0000 0.0000
# 5 0.0000 0.0000 0.0000 0.0000 35.8208 0.0000
# 6 0.0000 0.0000 0.0000 0.0000 0.0000 27.3413
#
#
#
# Elastic Compliance Matrix: (Units=1/GPa)
#
#
# Indices 1 2 3 4 5 6 
#
# 1 0.014487 0.001537 -0.002659 0.000000 0.000000 0.000000
# 2 0.001537 0.015015 -0.001510 0.000000 0.000000 0.000000
# 3 -0.002659 -0.001510 0.010655 0.000000 0.000000 0.000000
# 4 0.000000 0.000000 0.000000 0.086233 0.000000 0.000000
# 5 0.000000 0.000000 0.000000 0.000000 0.027917 0.000000
# 6 0.000000 0.000000 0.000000 0.000000 0.000000 0.036575
#
#
# Mechanical properties :
#
#
# Convention : Reuss Voigt Hill
#
# Bulk Modulus (GPa) = 28.65842 31.10094 29.87968
# Shear Modulus (GPa) = 24.06440 29.63905 26.85173
#
# Velocity S-wave (km/s) = 3.32171 3.68643 3.50881
# Velocity P-wave (km/s) = 5.27748 5.69032 5.48779
#
# Compressibility (1/GPa) = 0.03489376
#
# Stress axis : x y z
#
# Youngs Moduli (GPa) = 69.02593 66.60192 93.85052
#
# Poissons Ratio (x) = -0.10236 0.24952
# Poissons Ratio (y) = -0.10609 0.14170
# Poissons Ratio (z) = 0.18352 0.10056
#
# Static dielectric constant tensor:
#      x y z
#    x 3.928870 0.000000 0.000000 
#    y 0.000000 3.649530 0.000000 
#    z 0.000000 0.000000 4.059730 
# 
# 
# High freq. dielectric constant tensor:
#      x y z
#    x 1.872570 0.000000 0.000000 
#    y 0.000000 1.829830 0.000000 
#    z 0.000000 0.000000 1.867280 
# 
# From -- ./inp_files/9547.got.cif
#   From: 2010.03.12/outbox.cif.g09.slc.cpg/sg37_5_cif.got.tgz:9547.got - 2010.04.14 02:25:27.
