data_PCOD8176594
_publ_section_title
;
Structure prediction by ZEFSAII (Michael W. Deem and Ramdas Pophale) SiO2 
 PCOD8176594
Probable space group: C C C 2
;
_chemical_formula_sum "Si O2"
_cell_formula_units_Z 40
_cell_length_a 11.486724
_cell_length_b 19.743264
_cell_length_c 8.596939
_cell_angle_alpha 90.000000
_cell_angle_beta 90.000000
_cell_angle_gamma 90.000000
_cell_volume 1949.660460
_symmetry_space_group_name_H-M "C C C 2"
_symmetry_group_IT_number 37
_symmetry_cell_setting 'orthorhombic'
loop_
_space_group_symop_operation_xyz
x,y,z
-x,-y,z
-x,y,1/2+z
x,-y,1/2+z
1/2+x,1/2+y,z
1/2-x,1/2-y,z
1/2-x,1/2+y,1/2+z
1/2+x,1/2-y,1/2+z
loop_
_atom_site_type_symbol
_atom_site_label
_atom_site_fract_x
_atom_site_fract_y
_atom_site_fract_z
Si Si1 0.905862 0.330431 0.930410
Si Si2 0.500000 0.500000 0.270547
Si Si3 0.595730 0.270021 0.420204
Si Si4 0.130869 0.637596 0.584854
Si Si5 0.750000 0.250000 0.140439
Si Si6 0.368007 0.583400 0.519331
O O1 0.865908 0.365275 0.771707
O O2 0.964785 0.257579 0.892908
O O3 0.795279 0.313884 0.039055
O O4 0.000193 0.378785 0.020593
O O5 0.406378 0.540977 0.370627
O O6 0.575727 0.552220 0.172434
O O7 0.667897 0.211761 0.516324
O O8 0.648669 0.280545 0.248587
O O9 0.587313 0.339585 0.513344
O O10 0.226553 0.583238 0.526903
#
# Coordination Sequence:
#
# PCOD8176594 Si02
#       6
#     8   4   8   8   4   8
#     4  10  22  34  58 109 128 165 204 245 374 399
#     4  10  28  44  62  98 114 202 234 260 320 384
#     4  10  20  37  61 100 130 163 202 283 339 391
#     4  10  21  39  64  98 137 159 208 282 346 403
#     4  12  20  34  58  98 142 162 200 258 348 414
#     4  11  23  44  65  87 138 167 238 274 317 397
#
# _framework density 20.516393999999998
#
# number of rings (size 3 to 8) (size 9 to 14) (size 15 to 20)
#    1.200    0.400    4.000    0.000    8.400    0.000 
#    3.600    0.000    0.000    3.600    0.000    0.000 
#    0.000    0.000    0.000    0.000    0.000    0.000 
#
# Total GULP energy -247898.107014 kJ/mol
# GULP energy per Si atom -12394.905351 kJ/mol
# Density = 2.046970 g / cm^3
# Si number density = 20.516394 Si / 1000 Ang^3
#
#
#
# Elastic Constant Matrix: (Units=GPa)
#
#
# Indices 1 2 3 4 5 6 
#
# 1 96.8120 32.3163 47.6405 0.0000 0.0000 0.0000
# 2 32.3163 73.8616 38.2723 0.0000 0.0000 0.0000
# 3 47.6405 38.2723 142.4940 0.0000 0.0000 0.0000
# 4 0.0000 0.0000 0.0000 15.0890 0.0000 0.0000
# 5 0.0000 0.0000 0.0000 0.0000 31.8433 0.0000
# 6 0.0000 0.0000 0.0000 0.0000 0.0000 35.9491
#
#
#
# Elastic Compliance Matrix: (Units=1/GPa)
#
#
# Indices 1 2 3 4 5 6 
#
# 1 0.013353 -0.004099 -0.003363 0.000000 0.000000 0.000000
# 2 -0.004099 0.016986 -0.003192 0.000000 0.000000 0.000000
# 3 -0.003363 -0.003192 0.009000 0.000000 0.000000 0.000000
# 4 0.000000 0.000000 0.000000 0.066273 0.000000 0.000000
# 5 0.000000 0.000000 0.000000 0.000000 0.031404 0.000000
# 6 0.000000 0.000000 0.000000 0.000000 0.000000 0.027817
#
#
# Mechanical properties :
#
#
# Convention : Reuss Voigt Hill
#
# Bulk Modulus (GPa) = 55.46388 61.06952 58.26670
# Shear Modulus (GPa) = 26.02114 29.57218 27.79666
#
# Velocity S-wave (km/s) = 3.56520 3.80069 3.68482
# Velocity P-wave (km/s) = 6.63627 7.00651 6.82390
#
# Compressibility (1/GPa) = 0.01802975
#
# Stress axis : x y z
#
# Youngs Moduli (GPa) = 74.89104 58.87101 111.11684
#
# Poissons Ratio (x) = 0.24134 0.37371
# Poissons Ratio (y) = 0.30701 0.35466
# Poissons Ratio (z) = 0.25187 0.18790
#
# Static dielectric constant tensor:
#      x y z
#    x 3.779610 0.000000 0.000000 
#    y 0.000000 3.772120 0.000000 
#    z 0.000000 0.000000 3.704490 
# 
# 
# High freq. dielectric constant tensor:
#      x y z
#    x 1.810890 0.000000 0.000000 
#    y 0.000000 1.749710 0.000000 
#    z 0.000000 0.000000 1.813170 
# 
# From -- ./inp_files/2745.got.cif
#   From: 2010.03.12/outbox.cif.g09.slc.cpg/sg37_2_cif.got.tgz:2745.got - 2010.04.14 02:25:27.
