data_PCOD8176273
_publ_section_title
;
Structure prediction by ZEFSAII (Michael W. Deem and Ramdas Pophale) SiO2 
 PCOD8176273
Probable space group: C M C 21
;
_chemical_formula_sum "Si O2"
_cell_formula_units_Z 48
_cell_length_a 8.427881
_cell_length_b 19.575979
_cell_length_c 13.819170
_cell_angle_alpha 90.000000
_cell_angle_beta 90.000000
_cell_angle_gamma 90.000000
_cell_volume 2279.942240
_symmetry_space_group_name_H-M "C M C 21"
_symmetry_group_IT_number 36
_symmetry_cell_setting 'orthorhombic'
loop_
_space_group_symop_operation_xyz
x,y,z
-x,-y,1/2+z
x,-y,1/2+z
-x,y,z
1/2+x,1/2+y,z
1/2-x,1/2-y,1/2+z
1/2+x,1/2-y,1/2+z
1/2-x,1/2+y,z
loop_
_atom_site_type_symbol
_atom_site_label
_atom_site_fract_x
_atom_site_fract_y
_atom_site_fract_z
Si Si1 0.680708 0.054874 0.464380
Si Si2 0.817228 0.004274 0.275801
Si Si3 0.320256 0.072296 0.093700
Si Si4 0.684630 0.692973 0.977379
Si Si5 0.684502 0.145175 0.775583
Si Si6 0.816561 0.178061 0.574628
O O1 0.500000 0.080881 0.457179
O O2 0.762296 0.055791 0.359847
O O3 0.777679 0.102199 0.537774
O O4 0.688650 0.977551 0.502046
O O5 0.793995 0.045015 0.176956
O O6 0.000000 0.983997 0.288537
O O7 0.714845 0.935618 0.278218
O O8 0.500000 0.077551 0.133189
O O9 0.261654 0.145832 0.059588
O O10 0.500000 0.676416 0.967391
O O11 0.766136 0.681549 0.874357
O O12 0.711525 0.770205 0.011640
O O13 0.500000 0.156993 0.757201
O O14 0.777979 0.181632 0.688397
O O15 0.000000 0.195361 0.558741
#
# Coordination Sequence:
#
# PCOD8176273 Si02
#       6
#     8   8   8   8   8   8
#     4  11  23  41  67  97 132 172 219 271 326 386
#     4  12  24  39  66 101 134 173 223 275 329 389
#     4  11  23  41  67  97 132 172 219 271 326 386
#     4  12  26  45  69  99 135 175 221 273 331 395
#     4  12  24  43  68  97 132 175 221 269 331 395
#     4  12  26  45  69  99 135 175 221 273 331 395
#
# _framework density 21.053166000000001
#
# number of rings (size 3 to 8) (size 9 to 14) (size 15 to 20)
#    0.000    0.333    3.333    7.000    0.000    2.667 
#    0.000    6.667    0.000    0.000    0.000    0.000 
#    0.000    0.000    0.000    0.000    0.000    0.000 
#
# Total GULP energy -297832.594249 kJ/mol
# GULP energy per Si atom -12409.691427 kJ/mol
# Density = 2.100525 g / cm^3
# Si number density = 21.053166 Si / 1000 Ang^3
#
#
#
# Elastic Constant Matrix: (Units=GPa)
#
#
# Indices 1 2 3 4 5 6 
#
# 1 107.2784 18.9494 24.9177 0.0000 0.0000 0.0000
# 2 18.9494 66.5574 18.6124 0.0000 0.0000 0.0000
# 3 24.9177 18.6124 115.3972 0.0000 0.0000 0.0000
# 4 0.0000 0.0000 0.0000 35.4072 0.0000 0.0000
# 5 0.0000 0.0000 0.0000 0.0000 38.4337 0.0000
# 6 0.0000 0.0000 0.0000 0.0000 0.0000 33.8442
#
#
#
# Elastic Compliance Matrix: (Units=1/GPa)
#
#
# Indices 1 2 3 4 5 6 
#
# 1 0.010164 -0.002388 -0.001810 0.000000 0.000000 0.000000
# 2 -0.002388 0.016295 -0.002113 0.000000 0.000000 0.000000
# 3 -0.001810 -0.002113 0.009397 0.000000 0.000000 0.000000
# 4 0.000000 0.000000 0.000000 0.028243 0.000000 0.000000
# 5 0.000000 0.000000 0.000000 0.000000 0.026019 0.000000
# 6 0.000000 0.000000 0.000000 0.000000 0.000000 0.029547
#
#
# Mechanical properties :
#
#
# Convention : Reuss Voigt Hill
#
# Bulk Modulus (GPa) = 43.03608 46.02133 44.52871
# Shear Modulus (GPa) = 35.70663 36.65390 36.18027
#
# Velocity S-wave (km/s) = 4.12275 4.17708 4.15000
# Velocity P-wave (km/s) = 6.56877 6.72094 6.64529
#
# Compressibility (1/GPa) = 0.02323631
#
# Stress axis : x y z
#
# Youngs Moduli (GPa) = 98.39044 61.36779 106.41457
#
# Poissons Ratio (x) = 0.14652 0.19256
# Poissons Ratio (y) = 0.23492 0.22482
# Poissons Ratio (z) = 0.17804 0.12965
#
# Static dielectric constant tensor:
#      x y z
#    x 3.860570 0.000000 0.000000 
#    y 0.000000 3.661700 0.000000 
#    z 0.000000 0.000000 3.858990 
# 
# 
# High freq. dielectric constant tensor:
#      x y z
#    x 1.840960 0.000000 0.000000 
#    y 0.000000 1.815430 0.000000 
#    z 0.000000 0.000000 1.837080 
# 
# From -- ./inp_files/10362.got.cif
#   From: 2010.03.12/outbox.cif.g09.slc.cpg/sg36_6_cif.got.tgz:10362.got - 2010.04.14 02:13:53.
