data_PCOD8176953
_publ_section_title
;
Structure prediction by ZEFSAII (Michael W. Deem and Ramdas Pophale) SiO2 
 PCOD8176953
Probable space group: C C C 2
;
_chemical_formula_sum "Si O2"
_cell_formula_units_Z 60
_cell_length_a 18.786543
_cell_length_b 16.561744
_cell_length_c 8.939714
_cell_angle_alpha 90.000000
_cell_angle_beta 90.000000
_cell_angle_gamma 90.000000
_cell_volume 2781.483982
_symmetry_space_group_name_H-M "C C C 2"
_symmetry_group_IT_number 37
_symmetry_cell_setting 'orthorhombic'
loop_
_space_group_symop_operation_xyz
x,y,z
-x,-y,z
-x,y,1/2+z
x,-y,1/2+z
1/2+x,1/2+y,z
1/2-x,1/2-y,z
1/2-x,1/2+y,1/2+z
1/2+x,1/2-y,1/2+z
loop_
_atom_site_type_symbol
_atom_site_label
_atom_site_fract_x
_atom_site_fract_y
_atom_site_fract_z
Si Si1 0.717081 0.416781 0.564170
Si Si2 0.413702 0.194740 0.666250
Si Si3 0.072669 0.092154 0.229034
Si Si4 0.713047 0.091050 0.064350
Si Si5 0.695837 0.683543 0.783765
Si Si6 0.048805 0.731504 0.828112
Si Si7 0.000000 0.000000 0.474643
Si Si8 0.300559 0.179718 0.270728
O O1 0.655912 0.412291 0.690231
O O2 0.762080 0.498967 0.571952
O O3 0.686659 0.390182 0.402281
O O4 0.773756 0.349054 0.609976
O O5 0.360114 0.116957 0.654633
O O6 0.377694 0.272833 0.743611
O O7 0.482537 0.176905 0.769648
O O8 0.441652 0.219695 0.503766
O O9 0.039077 0.175400 0.285397
O O10 0.063562 0.030271 0.367204
O O11 0.029317 0.070628 0.079733
O O12 0.775993 0.146132 0.128904
O O13 0.700882 0.107800 0.890642
O O14 0.750000 0.750000 0.848636
O O15 0.119414 0.706427 0.739798
O O16 0.250000 0.250000 0.335369
#
# Coordination Sequence:
#
# PCOD8176953 Si02
#       8
#     8   8   8   8   8   8   4   8
#     4  12  25  38  66  98 131 171 226 277 344 397
#     4  10  24  43  69  97 133 176 231 280 340 408
#     4  11  25  40  62  92 131 179 213 269 327 421
#     4  10  23  43  64  95 133 177 218 282 343 399
#     4  10  23  41  64  94 130 172 223 278 330 410
#     4  11  23  41  70  95 130 178 227 281 334 400
#     4  10  26  44  54  92 138 170 212 258 344 406
#     4  11  22  42  65  95 128 171 230 275 330 404
#
# _framework density 21.571217999999998
#
# number of rings (size 3 to 8) (size 9 to 14) (size 15 to 20)
#    0.000    1.333    1.333    4.000    7.467    2.133 
#    0.000    0.667    0.000    3.200    0.000    0.000 
#    0.000    0.000    0.000    0.000    0.000    0.000 
#
# Total GULP energy -371860.647859 kJ/mol
# GULP energy per Si atom -12395.354929 kJ/mol
# Density = 2.152212 g / cm^3
# Si number density = 21.571218 Si / 1000 Ang^3
#
#
#
# Elastic Constant Matrix: (Units=GPa)
#
#
# Indices 1 2 3 4 5 6 
#
# 1 129.3224 30.8728 35.9253 0.0000 0.0000 0.0000
# 2 30.8728 87.1664 36.1985 0.0000 0.0000 0.0000
# 3 35.9253 36.1985 92.5063 0.0000 0.0000 0.0000
# 4 0.0000 0.0000 0.0000 25.6462 0.0000 0.0000
# 5 0.0000 0.0000 0.0000 0.0000 33.0625 0.0000
# 6 0.0000 0.0000 0.0000 0.0000 0.0000 32.5963
#
#
#
# Elastic Compliance Matrix: (Units=1/GPa)
#
#
# Indices 1 2 3 4 5 6 
#
# 1 0.008969 -0.002066 -0.002675 0.000000 0.000000 0.000000
# 2 -0.002066 0.014174 -0.004744 0.000000 0.000000 0.000000
# 3 -0.002675 -0.004744 0.013705 0.000000 0.000000 0.000000
# 4 0.000000 0.000000 0.000000 0.038992 0.000000 0.000000
# 5 0.000000 0.000000 0.000000 0.000000 0.030246 0.000000
# 6 0.000000 0.000000 0.000000 0.000000 0.000000 0.030678
#
#
# Mechanical properties :
#
#
# Convention : Reuss Voigt Hill
#
# Bulk Modulus (GPa) = 55.93229 57.22091 56.57660
# Shear Modulus (GPa) = 30.92269 31.99422 31.45845
#
# Velocity S-wave (km/s) = 3.79029 3.85540 3.82298
# Velocity P-wave (km/s) = 6.71867 6.81197 6.76548
#
# Compressibility (1/GPa) = 0.01787876
#
# Stress axis : x y z
#
# Youngs Moduli (GPa) = 111.49749 70.55083 72.96467
#
# Poissons Ratio (x) = 0.14575 0.19516
# Poissons Ratio (y) = 0.23034 0.34616
# Poissons Ratio (z) = 0.29822 0.33471
#
# Static dielectric constant tensor:
#      x y z
#    x 4.068180 0.000000 0.000000 
#    y 0.000000 3.866060 0.000000 
#    z 0.000000 0.000000 3.823390 
# 
# 
# High freq. dielectric constant tensor:
#      x y z
#    x 1.849380 0.000000 0.000000 
#    y 0.000000 1.831000 0.000000 
#    z 0.000000 0.000000 1.857150 
# 
# From -- ./inp_files/4079.got.cif
#   From: 2010.03.12/outbox.cif.g09.slc.cpg/sg37_3_cif.got.tgz:4079.got - 2010.04.14 02:25:27.
