data_PCOD8176747
_publ_section_title
;
Structure prediction by ZEFSAII (Michael W. Deem and Ramdas Pophale) SiO2 
 PCOD8176747
Probable space group: C C C 2
;
_chemical_formula_sum "Si O2"
_cell_formula_units_Z 44
_cell_length_a 6.564963
_cell_length_b 13.657352
_cell_length_c 23.322438
_cell_angle_alpha 90.000000
_cell_angle_beta 90.000000
_cell_angle_gamma 90.000000
_cell_volume 2091.090037
_symmetry_space_group_name_H-M "C C C 2"
_symmetry_group_IT_number 37
_symmetry_cell_setting 'orthorhombic'
loop_
_space_group_symop_operation_xyz
x,y,z
-x,-y,z
-x,y,1/2+z
x,-y,1/2+z
1/2+x,1/2+y,z
1/2-x,1/2-y,z
1/2-x,1/2+y,1/2+z
1/2+x,1/2-y,1/2+z
loop_
_atom_site_type_symbol
_atom_site_label
_atom_site_fract_x
_atom_site_fract_y
_atom_site_fract_z
Si Si1 0.574834 0.892931 0.094120
Si Si2 0.250000 0.750000 0.919128
Si Si3 0.568772 0.107967 0.463926
Si Si4 0.130240 0.841686 0.693527
Si Si5 0.500000 0.500000 0.274871
Si Si6 0.250000 0.750000 0.142858
Si Si7 0.072438 0.898618 0.383183
O O1 0.768164 0.865779 0.132480
O O2 0.388832 0.818354 0.103087
O O3 0.500000 0.000000 0.111235
O O4 0.653051 0.889302 0.028669
O O5 0.379989 0.818872 0.960671
O O6 0.393797 0.682150 0.879713
O O7 0.739672 0.144351 0.419092
O O8 0.500000 0.000000 0.445771
O O9 0.250000 0.750000 0.721720
O O10 0.893052 0.816435 0.683603
O O11 0.148838 0.934783 0.735497
O O12 0.630697 0.427410 0.317021
O O13 0.000000 0.000000 0.414363
#
# Coordination Sequence:
#
# PCOD8176747 Si02
#       7
#     8   4   8   8   4   4   8
#     4  10  22  38  66  95 130 167 205 259 319 385
#     4  12  23  42  70  92 134 176 211 268 332 388
#     4  11  22  43  65 100 134 169 216 267 325 397
#     4  10  22  41  63  94 124 165 216 259 323 382
#     4  10  22  44  64  88 122 168 216 276 316 374
#     4  10  21  40  58  96 128 164 209 256 322 392
#     4  10  24  43  64  94 127 170 222 267 323 382
#
# _framework density 21.041658000000002
#
# number of rings (size 3 to 8) (size 9 to 14) (size 15 to 20)
#    0.545    1.091    1.818    2.182    1.273    5.818 
#    4.909    8.182    0.000    0.000    0.000    0.000 
#    0.000    0.000    0.000    0.000    0.000    0.000 
#
# Total GULP energy -272753.844354 kJ/mol
# GULP energy per Si atom -12397.902016 kJ/mol
# Density = 2.099377 g / cm^3
# Si number density = 21.041658 Si / 1000 Ang^3
#
#
#
# Elastic Constant Matrix: (Units=GPa)
#
#
# Indices 1 2 3 4 5 6 
#
# 1 122.4826 53.7267 60.6960 0.0000 0.0000 0.0000
# 2 53.7267 139.3149 53.3740 0.0000 0.0000 0.0000
# 3 60.6960 53.3740 119.6460 0.0000 0.0000 0.0000
# 4 0.0000 0.0000 0.0000 14.5606 0.0000 0.0000
# 5 0.0000 0.0000 0.0000 0.0000 5.9292 0.0000
# 6 0.0000 0.0000 0.0000 0.0000 0.0000 32.5824
#
#
#
# Elastic Compliance Matrix: (Units=1/GPa)
#
#
# Indices 1 2 3 4 5 6 
#
# 1 0.011690 -0.002697 -0.004727 0.000000 0.000000 0.000000
# 2 -0.002697 0.009280 -0.002772 0.000000 0.000000 0.000000
# 3 -0.004727 -0.002772 0.011992 0.000000 0.000000 0.000000
# 4 0.000000 0.000000 0.000000 0.068679 0.000000 0.000000
# 5 0.000000 0.000000 0.000000 0.000000 0.168656 0.000000
# 6 0.000000 0.000000 0.000000 0.000000 0.000000 0.030691
#
#
# Mechanical properties :
#
#
# Convention : Reuss Voigt Hill
#
# Bulk Modulus (GPa) = 79.54953 79.67077 79.61015
# Shear Modulus (GPa) = 15.35765 24.85756 20.10760
#
# Velocity S-wave (km/s) = 2.70454 3.44081 3.09465
# Velocity P-wave (km/s) = 6.90221 7.33015 7.11940
#
# Compressibility (1/GPa) = 0.01257079
#
# Stress axis : x y z
#
# Youngs Moduli (GPa) = 85.54274 107.75884 83.38616
#
# Poissons Ratio (x) = 0.29065 0.39417
# Poissons Ratio (y) = 0.23073 0.23110
# Poissons Ratio (z) = 0.40437 0.29865
#
# Static dielectric constant tensor:
#      x y z
#    x 3.602020 0.000000 0.000000 
#    y 0.000000 4.150220 0.000000 
#    z 0.000000 0.000000 3.513350 
# 
# 
# High freq. dielectric constant tensor:
#      x y z
#    x 1.807060 0.000000 0.000000 
#    y 0.000000 1.849040 0.000000 
#    z 0.000000 0.000000 1.808320 
# 
# From -- ./inp_files/19294.got.cif
#   From: 2010.03.12/outbox.cif.g09.slc.cpg/sg37_10_cif.got.tgz:19294.got - 2010.04.14 02:25:27.
