data_PCOD8176528
_publ_section_title
;
Structure prediction by ZEFSAII (Michael W. Deem and Ramdas Pophale) SiO2 
 PCOD8176528
Probable space group: C C C 2
;
_chemical_formula_sum "Si O2"
_cell_formula_units_Z 64
_cell_length_a 10.319822
_cell_length_b 10.536324
_cell_length_c 27.312776
_cell_angle_alpha 90.000000
_cell_angle_beta 90.000000
_cell_angle_gamma 90.000000
_cell_volume 2969.799751
_symmetry_space_group_name_H-M "C C C 2"
_symmetry_group_IT_number 37
_symmetry_cell_setting 'orthorhombic'
loop_
_space_group_symop_operation_xyz
x,y,z
-x,-y,z
-x,y,1/2+z
x,-y,1/2+z
1/2+x,1/2+y,z
1/2-x,1/2-y,z
1/2-x,1/2+y,1/2+z
1/2+x,1/2-y,1/2+z
loop_
_atom_site_type_symbol
_atom_site_label
_atom_site_fract_x
_atom_site_fract_y
_atom_site_fract_z
Si Si1 0.708170 0.513898 0.368750
Si Si2 0.506679 0.297879 0.361343
Si Si3 0.300614 0.992896 0.762819
Si Si4 0.142840 0.642466 0.438168
Si Si5 0.599341 0.109425 0.547381
Si Si6 0.861627 0.144395 0.690170
Si Si7 0.392994 0.603152 0.579946
Si Si8 0.517044 0.800871 0.755126
O O1 0.630906 0.386477 0.356366
O O2 0.616354 0.629512 0.383685
O O3 0.785578 0.545968 0.319557
O O4 0.797494 0.486753 0.415785
O O5 0.534717 0.184907 0.398971
O O6 0.473556 0.253706 0.307196
O O7 0.337395 0.142398 0.757361
O O8 0.176176 0.964926 0.729349
O O9 0.417791 0.911870 0.741788
O O10 0.250000 0.750000 0.447631
O O11 0.075730 0.612177 0.489329
O O12 0.566080 0.250183 0.568699
O O13 0.749899 0.073400 0.558131
O O14 0.500000 0.000000 0.568356
O O15 0.750000 0.250000 0.685747
O O16 0.886957 0.082473 0.637997
O O17 0.997151 0.199582 0.711566
O O18 0.500000 0.500000 0.559703
#
# Coordination Sequence:
#
# PCOD8176528 Si02
#       8
#     8   8   8   8   8   8   8   8
#     4  10  20  33  54  85 124 168 214 262 321 401
#     4  10  20  33  54  85 124 168 214 262 321 401
#     4  10  20  33  54  85 124 168 214 262 321 401
#     4  10  20  39  61  90 123 177 222 273 349 407
#     4  11  25  48  75 103 138 179 235 306 361 420
#     4  10  20  39  61  90 123 177 222 273 349 407
#     4  11  25  48  75 103 138 179 235 306 361 420
#     4  10  20  33  54  85 124 168 214 262 321 401
#
# _framework density 21.550273000000001
#
# number of rings (size 3 to 8) (size 9 to 14) (size 15 to 20)
#    0.000    1.750    5.000    0.000    0.000    4.500 
#    0.000    0.000    0.000    0.000    0.000    0.000 
#    0.000    0.000    0.000    0.000    0.000    0.000 
#
# Total GULP energy -396579.104530 kJ/mol
# GULP energy per Si atom -12393.097017 kJ/mol
# Density = 2.150122 g / cm^3
# Si number density = 21.550273 Si / 1000 Ang^3
#
#
#
# Elastic Constant Matrix: (Units=GPa)
#
#
# Indices 1 2 3 4 5 6 
#
# 1 59.0935 44.3360 -0.0013 0.0000 0.0000 0.0000
# 2 44.3360 84.7108 7.2753 0.0000 0.0000 0.0000
# 3 -0.0013 7.2753 95.5360 0.0000 0.0000 0.0000
# 4 0.0000 0.0000 0.0000 24.2224 0.0000 0.0000
# 5 0.0000 0.0000 0.0000 0.0000 24.1023 0.0000
# 6 0.0000 0.0000 0.0000 0.0000 0.0000 39.8570
#
#
#
# Elastic Compliance Matrix: (Units=1/GPa)
#
#
# Indices 1 2 3 4 5 6 
#
# 1 0.027983 -0.014742 0.001123 0.000000 0.000000 0.000000
# 2 -0.014742 0.019649 -0.001497 0.000000 0.000000 0.000000
# 3 0.001123 -0.001497 0.010581 0.000000 0.000000 0.000000
# 4 0.000000 0.000000 0.000000 0.041284 0.000000 0.000000
# 5 0.000000 0.000000 0.000000 0.000000 0.041490 0.000000
# 6 0.000000 0.000000 0.000000 0.000000 0.000000 0.025090
#
#
# Mechanical properties :
#
#
# Convention : Reuss Voigt Hill
#
# Bulk Modulus (GPa) = 35.73727 38.06226 36.89977
# Shear Modulus (GPa) = 24.31485 30.15168 27.23327
#
# Velocity S-wave (km/s) = 3.36264 3.74456 3.55872
# Velocity P-wave (km/s) = 5.62989 6.03291 5.83488
#
# Compressibility (1/GPa) = 0.02798199
#
# Stress axis : x y z
#
# Youngs Moduli (GPa) = 35.73610 50.89278 94.50689
#
# Poissons Ratio (x) = 0.75027 -0.10614
# Poissons Ratio (y) = 0.52683 0.14143
# Poissons Ratio (z) = -0.04013 0.07616
#
# Static dielectric constant tensor:
#      x y z
#    x 3.974330 0.000000 0.000000 
#    y 0.000000 4.133700 0.000000 
#    z 0.000000 0.000000 3.775240 
# 
# 
# High freq. dielectric constant tensor:
#      x y z
#    x 1.839140 0.000000 0.000000 
#    y 0.000000 1.847030 0.000000 
#    z 0.000000 0.000000 1.833660 
# 
# From -- ./inp_files/20497.got.cif
#   From: 2010.03.12/outbox.cif.g09.slc.cpg/sg37_11_cif.got.tgz:20497.got - 2010.04.14 02:25:27.
