data_PCOD8176548
_publ_section_title
;
Structure prediction by ZEFSAII (Michael W. Deem and Ramdas Pophale) SiO2 
 PCOD8176548
Probable space group: C C C 2
;
_chemical_formula_sum "Si O2"
_cell_formula_units_Z 52
_cell_length_a 10.514694
_cell_length_b 29.591196
_cell_length_c 9.127966
_cell_angle_alpha 90.000000
_cell_angle_beta 90.000000
_cell_angle_gamma 90.000000
_cell_volume 2840.096984
_symmetry_space_group_name_H-M "C C C 2"
_symmetry_group_IT_number 37
_symmetry_cell_setting 'orthorhombic'
loop_
_space_group_symop_operation_xyz
x,y,z
-x,-y,z
-x,y,1/2+z
x,-y,1/2+z
1/2+x,1/2+y,z
1/2-x,1/2-y,z
1/2-x,1/2+y,1/2+z
1/2+x,1/2-y,1/2+z
loop_
_atom_site_type_symbol
_atom_site_label
_atom_site_fract_x
_atom_site_fract_y
_atom_site_fract_z
Si Si1 0.757864 0.042003 0.282900
Si Si2 0.870706 0.382449 0.774481
Si Si3 0.500000 0.500000 0.696322
Si Si4 0.870864 0.278068 0.117141
Si Si5 0.129136 0.278068 0.275503
Si Si6 0.757864 0.957997 0.109744
Si Si7 0.370706 0.882449 0.118163
O O1 0.700829 0.046630 0.446322
O O2 0.740152 0.087928 0.190907
O O3 0.909380 0.032138 0.294915
O O4 0.690803 0.000000 0.196322
O O5 0.841261 0.330248 0.741857
O O6 0.759848 0.412072 0.701737
O O7 0.000000 0.397695 0.696322
O O8 0.879675 0.392370 0.946322
O O9 0.590620 0.467862 0.597729
O O10 0.750000 0.250000 0.176904
O O11 0.841261 0.330248 0.150787
O O12 0.000000 0.262089 0.196322
O O13 0.891780 0.269020 0.946322
O O14 0.250000 0.250000 0.215740
#
# Coordination Sequence:
#
# PCOD8176548 Si02
#       7
#     8   8   4   8   8   8   8
#     4  10  20  35  55  77 105 139 176 217 265 315
#     4  10  20  35  56  79 108 141 179 223 269 320
#     4   8  22  36  56  72 106 140 178 218 262 320
#     4   9  19  37  58  82 113 146 184 230 278 329
#     4   9  19  37  58  82 113 146 184 230 278 329
#     4  10  20  35  55  77 105 139 176 217 265 315
#     4  10  20  35  56  79 108 141 179 223 269 320
#
# _framework density 18.309234
#
# number of rings (size 3 to 8) (size 9 to 14) (size 15 to 20)
#    0.923    1.538    0.000    2.308    0.000    2.462 
#    2.769    3.077    0.000    0.000    0.000    0.000 
#    0.000    0.000    0.000    0.000    0.000    0.000 
#
# Total GULP energy -322251.080925 kJ/mol
# GULP energy per Si atom -12394.272343 kJ/mol
# Density = 1.826756 g / cm^3
# Si number density = 18.309234 Si / 1000 Ang^3
#
#
#
# Elastic Constant Matrix: (Units=GPa)
#
#
# Indices 1 2 3 4 5 6 
#
# 1 114.4627 67.6362 47.3057 0.0000 0.0000 0.0000
# 2 67.6362 94.5046 54.9397 0.0000 0.0000 0.0000
# 3 47.3057 54.9397 118.9193 0.0000 0.0000 0.0000
# 4 0.0000 0.0000 0.0000 27.5072 0.0000 0.0000
# 5 0.0000 0.0000 0.0000 0.0000 28.1106 0.0000
# 6 0.0000 0.0000 0.0000 0.0000 0.0000 37.0718
#
#
#
# Elastic Compliance Matrix: (Units=1/GPa)
#
#
# Indices 1 2 3 4 5 6 
#
# 1 0.015309 -0.010139 -0.001406 0.000000 0.000000 0.000000
# 2 -0.010139 0.021182 -0.005753 0.000000 0.000000 0.000000
# 3 -0.001406 -0.005753 0.011626 0.000000 0.000000 0.000000
# 4 0.000000 0.000000 0.000000 0.036354 0.000000 0.000000
# 5 0.000000 0.000000 0.000000 0.000000 0.035574 0.000000
# 6 0.000000 0.000000 0.000000 0.000000 0.000000 0.026975
#
#
# Mechanical properties :
#
#
# Convention : Reuss Voigt Hill
#
# Bulk Modulus (GPa) = 73.95348 74.18332 74.06840
# Shear Modulus (GPa) = 26.86419 29.07160 27.96789
#
# Velocity S-wave (km/s) = 3.83462 3.98906 3.91260
# Velocity P-wave (km/s) = 7.75144 7.86267 7.80725
#
# Compressibility (1/GPa) = 0.01352201
#
# Stress axis : x y z
#
# Youngs Moduli (GPa) = 65.32289 47.20918 86.01497
#
# Poissons Ratio (x) = 0.47866 0.12089
# Poissons Ratio (y) = 0.66232 0.49482
# Poissons Ratio (z) = 0.09181 0.27158
#
# Static dielectric constant tensor:
#      x y z
#    x 3.210820 0.000000 0.000000 
#    y 0.000000 3.309360 0.000000 
#    z 0.000000 0.000000 3.327720 
# 
# 
# High freq. dielectric constant tensor:
#      x y z
#    x 1.692680 0.000000 0.000000 
#    y 0.000000 1.704280 0.000000 
#    z 0.000000 0.000000 1.716160 
# 
# From -- ./inp_files/3088.got.cif
#   From: 2010.03.12/outbox.cif.g09.slc.cpg/sg37_2_cif.got.tgz:3088.got - 2010.04.14 02:25:27.
