data_PCOD8176902
_publ_section_title
;
Structure prediction by ZEFSAII (Michael W. Deem and Ramdas Pophale) SiO2 
 PCOD8176902
Probable space group: C C C 2
;
_chemical_formula_sum "Si O2"
_cell_formula_units_Z 44
_cell_length_a 17.758770
_cell_length_b 7.740465
_cell_length_c 14.372830
_cell_angle_alpha 90.000000
_cell_angle_beta 90.000000
_cell_angle_gamma 90.000000
_cell_volume 1975.705563
_symmetry_space_group_name_H-M "C C C 2"
_symmetry_group_IT_number 37
_symmetry_cell_setting 'orthorhombic'
loop_
_space_group_symop_operation_xyz
x,y,z
-x,-y,z
-x,y,1/2+z
x,-y,1/2+z
1/2+x,1/2+y,z
1/2-x,1/2-y,z
1/2-x,1/2+y,1/2+z
1/2+x,1/2-y,1/2+z
loop_
_atom_site_type_symbol
_atom_site_label
_atom_site_fract_x
_atom_site_fract_y
_atom_site_fract_z
Si Si1 0.436888 0.641861 0.053190
Si Si2 0.250000 0.750000 0.830615
Si Si3 0.162027 0.219879 0.723986
Si Si4 0.250000 0.750000 0.551592
Si Si5 0.662969 0.530154 0.912283
Si Si6 0.142166 0.597211 0.692892
Si Si7 0.500000 0.000000 0.597295
O O1 0.500000 0.500000 0.078499
O O2 0.373862 0.625595 0.134251
O O3 0.459483 0.845724 0.039565
O O4 0.403166 0.589047 0.953051
O O5 0.261857 0.582214 0.893493
O O6 0.172371 0.730881 0.770772
O O7 0.250000 0.250000 0.710499
O O8 0.129985 0.409837 0.737041
O O9 0.138004 0.116047 0.815735
O O10 0.315661 0.670476 0.488944
O O11 0.206809 0.605206 0.612905
O O12 0.057928 0.625959 0.654278
#
# Coordination Sequence:
#
# PCOD8176902 Si02
#       7
#     8   4   8   4   8   8   4
#     4  11  27  47  72 102 150 197 240 301 374 450
#     4  11  24  40  67 106 130 182 245 296 361 418
#     4  11  22  46  72 101 136 187 242 304 362 429
#     4  11  22  40  73 104 144 180 241 304 371 428
#     4  12  25  41  72 107 141 183 242 310 368 441
#     4  10  22  43  69  95 137 186 234 296 359 433
#     4  10  24  44  70  98 140 198 240 286 370 442
#
# _framework density 22.270526
#
# number of rings (size 3 to 8) (size 9 to 14) (size 15 to 20)
#    0.000    1.091    2.727    2.182   11.455    0.727 
#    6.545    0.000    0.000    0.000    0.000    0.000 
#    0.000    0.000    0.000    0.000    0.000    0.000 
#
# Total GULP energy -272557.070478 kJ/mol
# GULP energy per Si atom -12388.957749 kJ/mol
# Density = 2.221984 g / cm^3
# Si number density = 22.270526 Si / 1000 Ang^3
#
#
#
# Elastic Constant Matrix: (Units=GPa)
#
#
# Indices 1 2 3 4 5 6 
#
# 1 112.9076 30.0234 52.1940 0.0000 0.0000 0.0000
# 2 30.0234 115.2657 58.8690 0.0000 0.0000 0.0000
# 3 52.1940 58.8690 125.0107 0.0000 0.0000 0.0000
# 4 0.0000 0.0000 0.0000 32.3325 0.0000 0.0000
# 5 0.0000 0.0000 0.0000 0.0000 20.3374 0.0000
# 6 0.0000 0.0000 0.0000 0.0000 0.0000 46.0801
#
#
#
# Elastic Compliance Matrix: (Units=1/GPa)
#
#
# Indices 1 2 3 4 5 6 
#
# 1 0.011016 -0.000685 -0.004277 0.000000 0.000000 0.000000
# 2 -0.000685 0.011465 -0.005113 0.000000 0.000000 0.000000
# 3 -0.004277 -0.005113 0.012193 0.000000 0.000000 0.000000
# 4 0.000000 0.000000 0.000000 0.030929 0.000000 0.000000
# 5 0.000000 0.000000 0.000000 0.000000 0.049171 0.000000
# 6 0.000000 0.000000 0.000000 0.000000 0.000000 0.021701
#
#
# Mechanical properties :
#
#
# Convention : Reuss Voigt Hill
#
# Bulk Modulus (GPa) = 68.85063 70.59520 69.72291
# Shear Modulus (GPa) = 30.96622 33.88983 32.42803
#
# Velocity S-wave (km/s) = 3.73293 3.90517 3.82002
# Velocity P-wave (km/s) = 7.04006 7.21814 7.12966
#
# Compressibility (1/GPa) = 0.01452420
#
# Stress axis : x y z
#
# Youngs Moduli (GPa) = 90.77718 87.21826 82.01575
#
# Poissons Ratio (x) = 0.05975 0.35076
# Poissons Ratio (y) = 0.06219 0.41936
# Poissons Ratio (z) = 0.38823 0.44596
#
# Static dielectric constant tensor:
#      x y z
#    x 3.597630 0.000000 0.000000 
#    y 0.000000 3.987540 0.000000 
#    z 0.000000 0.000000 3.958540 
# 
# 
# High freq. dielectric constant tensor:
#      x y z
#    x 1.870710 0.000000 0.000000 
#    y 0.000000 1.891540 0.000000 
#    z 0.000000 0.000000 1.866110 
# 
# From -- ./inp_files/12528.got.cif
#   From: 2010.03.12/outbox.cif.g09.slc.cpg/sg37_7_cif.got.tgz:12528.got - 2010.04.14 02:25:27.
