data_PCOD8176472
_publ_section_title
;
Structure prediction by ZEFSAII (Michael W. Deem and Ramdas Pophale) SiO2 
 PCOD8176472
Probable space group: C C C 2
;
_chemical_formula_sum "Si O2"
_cell_formula_units_Z 64
_cell_length_a 11.602989
_cell_length_b 16.077479
_cell_length_c 16.806732
_cell_angle_alpha 90.000000
_cell_angle_beta 90.000000
_cell_angle_gamma 90.000000
_cell_volume 3135.242274
_symmetry_space_group_name_H-M "C C C 2"
_symmetry_group_IT_number 37
_symmetry_cell_setting 'orthorhombic'
loop_
_space_group_symop_operation_xyz
x,y,z
-x,-y,z
-x,y,1/2+z
x,-y,1/2+z
1/2+x,1/2+y,z
1/2-x,1/2-y,z
1/2-x,1/2+y,1/2+z
1/2+x,1/2-y,1/2+z
loop_
_atom_site_type_symbol
_atom_site_label
_atom_site_fract_x
_atom_site_fract_y
_atom_site_fract_z
Si Si1 0.665678 0.996790 0.292960
Si Si2 0.140238 0.303392 0.002799
Si Si3 0.242317 0.429230 0.126443
Si Si4 0.887986 0.944585 0.366284
Si Si5 0.011782 0.374042 0.854062
Si Si6 0.884837 0.772738 0.278179
Si Si7 0.038184 0.818258 0.620019
Si Si8 0.387725 0.557485 0.045193
O O1 0.671462 0.953337 0.206029
O O2 0.790646 0.005840 0.331748
O O3 0.592434 0.940402 0.355164
O O4 0.605701 0.088337 0.290687
O O5 0.250000 0.250000 0.970185
O O6 0.078090 0.358883 0.936629
O O7 0.167924 0.368084 0.072603
O O8 0.057737 0.233301 0.039576
O O9 0.361146 0.382855 0.145281
O O10 0.274164 0.513384 0.079391
O O11 0.897557 0.865012 0.310799
O O12 0.859631 0.913898 0.455545
O O13 0.000000 0.000000 0.361928
O O14 0.952603 0.286816 0.836764
O O15 0.750000 0.750000 0.265539
O O16 0.959802 0.759945 0.197363
O O17 0.917879 0.865599 0.603801
O O18 0.500000 0.500000 0.041389
#
# Coordination Sequence:
#
# PCOD8176472 Si02
#       8
#     8   8   8   8   8   8   8   8
#     4  11  23  41  65  95 129 171 224 264 333 393
#     4  10  21  39  64  91 124 172 219 263 329 388
#     4  10  19  38  65  88 122 170 213 264 315 399
#     4  11  23  40  68 100 126 167 220 269 324 388
#     4  11  24  41  61  92 134 169 213 280 317 394
#     4  12  22  40  66  93 126 172 219 263 324 394
#     4  10  19  35  62  92 121 164 219 261 318 382
#     4   9  20  35  57  92 127 155 208 268 312 371
#
# _framework density 20.413094000000001
#
# number of rings (size 3 to 8) (size 9 to 14) (size 15 to 20)
#    0.000    1.500    2.500    3.375    1.750    3.000 
#    0.000    8.750    0.000    0.000    0.000    0.000 
#    0.000    0.000    0.000    0.000    0.000    0.000 
#
# Total GULP energy -396522.582600 kJ/mol
# GULP energy per Si atom -12391.330706 kJ/mol
# Density = 2.036663 g / cm^3
# Si number density = 20.413094 Si / 1000 Ang^3
#
#
#
# Elastic Constant Matrix: (Units=GPa)
#
#
# Indices 1 2 3 4 5 6 
#
# 1 78.2309 38.9334 36.0672 0.0000 0.0000 0.0000
# 2 38.9334 83.3938 30.3030 0.0000 0.0000 0.0000
# 3 36.0672 30.3030 109.2125 0.0000 0.0000 0.0000
# 4 0.0000 0.0000 0.0000 32.9525 0.0000 0.0000
# 5 0.0000 0.0000 0.0000 0.0000 14.6561 0.0000
# 6 0.0000 0.0000 0.0000 0.0000 0.0000 29.5438
#
#
#
# Elastic Compliance Matrix: (Units=1/GPa)
#
#
# Indices 1 2 3 4 5 6 
#
# 1 0.018129 -0.006993 -0.004047 0.000000 0.000000 0.000000
# 2 -0.006993 0.016034 -0.002139 0.000000 0.000000 0.000000
# 3 -0.004047 -0.002139 0.011086 0.000000 0.000000 0.000000
# 4 0.000000 0.000000 0.000000 0.030347 0.000000 0.000000
# 5 0.000000 0.000000 0.000000 0.000000 0.068231 0.000000
# 6 0.000000 0.000000 0.000000 0.000000 0.000000 0.033848
#
#
# Mechanical properties :
#
#
# Convention : Reuss Voigt Hill
#
# Bulk Modulus (GPa) = 52.93670 53.49380 53.21525
# Shear Modulus (GPa) = 23.77228 26.46605 25.11917
#
# Velocity S-wave (km/s) = 3.41627 3.60463 3.51171
# Velocity P-wave (km/s) = 6.44594 6.60205 6.52446
#
# Compressibility (1/GPa) = 0.01889049
#
# Stress axis : x y z
#
# Youngs Moduli (GPa) = 55.16160 62.36941 90.20049
#
# Poissons Ratio (x) = 0.43616 0.36500
# Poissons Ratio (y) = 0.38575 0.19297
# Poissons Ratio (z) = 0.22321 0.13343
#
# Static dielectric constant tensor:
#      x y z
#    x 3.777650 0.000000 0.000000 
#    y 0.000000 4.061150 0.000000 
#    z 0.000000 0.000000 3.797640 
# 
# 
# High freq. dielectric constant tensor:
#      x y z
#    x 1.781450 0.000000 0.000000 
#    y 0.000000 1.798900 0.000000 
#    z 0.000000 0.000000 1.799240 
# 
# From -- ./inp_files/11797.got.cif
#   From: 2010.03.12/outbox.cif.g09.slc.cpg/sg37_6_cif.got.tgz:11797.got - 2010.04.14 02:25:27.
