data_PCOD8176687
_publ_section_title
;
Structure prediction by ZEFSAII (Michael W. Deem and Ramdas Pophale) SiO2 
 PCOD8176687
Probable space group: C C C 2
;
_chemical_formula_sum "Si O2"
_cell_formula_units_Z 64
_cell_length_a 14.828306
_cell_length_b 23.441318
_cell_length_c 9.320371
_cell_angle_alpha 90.000000
_cell_angle_beta 90.000000
_cell_angle_gamma 90.000000
_cell_volume 3239.714697
_symmetry_space_group_name_H-M "C C C 2"
_symmetry_group_IT_number 37
_symmetry_cell_setting 'orthorhombic'
loop_
_space_group_symop_operation_xyz
x,y,z
-x,-y,z
-x,y,1/2+z
x,-y,1/2+z
1/2+x,1/2+y,z
1/2-x,1/2-y,z
1/2-x,1/2+y,1/2+z
1/2+x,1/2-y,1/2+z
loop_
_atom_site_type_symbol
_atom_site_label
_atom_site_fract_x
_atom_site_fract_y
_atom_site_fract_z
Si Si1 0.400317 0.126939 0.104600
Si Si2 0.620297 0.398809 0.837209
Si Si3 0.501286 0.575180 0.588161
Si Si4 0.380784 0.529799 0.339704
Si Si5 0.286144 0.813255 0.827140
Si Si6 0.105646 0.371857 0.554142
Si Si7 0.405146 0.030248 0.329031
Si Si8 0.196370 0.583313 0.330151
O O1 0.347363 0.176421 0.187578
O O2 0.503675 0.146761 0.088946
O O3 0.397366 0.066783 0.185413
O O4 0.350416 0.118458 0.955561
O O5 0.561237 0.386298 0.693370
O O6 0.654592 0.464607 0.839145
O O7 0.706580 0.359008 0.833395
O O8 0.563281 0.385711 0.983013
O O9 0.441279 0.536161 0.481771
O O10 0.562082 0.536414 0.693947
O O11 0.304285 0.579040 0.344422
O O12 0.250000 0.750000 0.821585
O O13 0.349320 0.820501 0.966087
O O14 0.105927 0.430744 0.467541
O O15 0.167128 0.381759 0.691560
O O16 0.500000 0.000000 0.336184
O O17 0.329709 0.982647 0.325284
#
# Coordination Sequence:
#
# PCOD8176687 Si02
#       8
#     8   8   8   8   8   8   8   8
#     4  11  22  39  62  89 129 166 203 245 306 375
#     4  11  20  38  58  86 115 155 195 245 300 353
#     4  10  21  36  60  86 124 156 186 240 297 366
#     4  11  20  33  55  90 125 157 194 227 297 368
#     4  11  26  47  63  82 115 158 217 275 313 352
#     4  11  22  39  62  89 129 166 203 245 306 375
#     4  11  20  34  56  96 140 176 190 219 293 393
#     4  12  22  32  59  99 131 169 200 237 297 382
#
# _framework density 19.754826999999999
#
# number of rings (size 3 to 8) (size 9 to 14) (size 15 to 20)
#    0.000    1.000    2.500    7.500    0.000    2.000 
#    2.250    0.625    0.000    0.000    0.000    0.000 
#    0.000    0.000    0.000    0.000    0.000    0.000 
#
# Total GULP energy -396795.322859 kJ/mol
# GULP energy per Si atom -12399.853839 kJ/mol
# Density = 1.970986 g / cm^3
# Si number density = 19.754827 Si / 1000 Ang^3
#
#
#
# Elastic Constant Matrix: (Units=GPa)
#
#
# Indices 1 2 3 4 5 6 
#
# 1 109.4095 33.7586 22.0641 0.0000 0.0000 0.0000
# 2 33.7586 82.7753 20.8827 0.0000 0.0000 0.0000
# 3 22.0641 20.8827 114.7608 0.0000 0.0000 0.0000
# 4 0.0000 0.0000 0.0000 2.0233 0.0000 0.0000
# 5 0.0000 0.0000 0.0000 0.0000 1.7531 0.0000
# 6 0.0000 0.0000 0.0000 0.0000 0.0000 30.0186
#
#
#
# Elastic Compliance Matrix: (Units=1/GPa)
#
#
# Indices 1 2 3 4 5 6 
#
# 1 0.010642 -0.004008 -0.001317 0.000000 0.000000 0.000000
# 2 -0.004008 0.014172 -0.001808 0.000000 0.000000 0.000000
# 3 -0.001317 -0.001808 0.009296 0.000000 0.000000 0.000000
# 4 0.000000 0.000000 0.000000 0.494237 0.000000 0.000000
# 5 0.000000 0.000000 0.000000 0.000000 0.570409 0.000000
# 6 0.000000 0.000000 0.000000 0.000000 0.000000 0.033313
#
#
# Mechanical properties :
#
#
# Convention : Reuss Voigt Hill
#
# Bulk Modulus (GPa) = 50.39339 51.15070 50.77205
# Shear Modulus (GPa) = 4.33670 22.10838 13.22254
#
# Velocity S-wave (km/s) = 1.48325 3.34898 2.58995
# Velocity P-wave (km/s) = 5.33837 6.39556 5.89073
#
# Compressibility (1/GPa) = 0.01984387
#
# Stress axis : x y z
#
# Youngs Moduli (GPa) = 93.96542 70.56323 107.57358
#
# Poissons Ratio (x) = 0.28282 0.14165
# Poissons Ratio (y) = 0.37662 0.19451
# Poissons Ratio (z) = 0.12373 0.12759
#
# Static dielectric constant tensor:
#      x y z
#    x 3.912340 0.000000 0.000000 
#    y 0.000000 3.252010 0.000000 
#    z 0.000000 0.000000 4.045230 
# 
# 
# High freq. dielectric constant tensor:
#      x y z
#    x 1.792290 0.000000 0.000000 
#    y 0.000000 1.708630 0.000000 
#    z 0.000000 0.000000 1.794250 
# 
# From -- ./inp_files/3747.got.cif
#   From: 2010.03.12/outbox.cif.g09.slc.cpg/sg37_2_cif.got.tgz:3747.got - 2010.04.14 02:25:27.
