data_PCOD8176641
_publ_section_title
;
Structure prediction by ZEFSAII (Michael W. Deem and Ramdas Pophale) SiO2 
 PCOD8176641
Probable space group: C C C 2
;
_chemical_formula_sum "Si O2"
_cell_formula_units_Z 48
_cell_length_a 11.026794
_cell_length_b 8.820888
_cell_length_c 21.285061
_cell_angle_alpha 90.000000
_cell_angle_beta 90.000000
_cell_angle_gamma 90.000000
_cell_volume 2070.315188
_symmetry_space_group_name_H-M "C C C 2"
_symmetry_group_IT_number 37
_symmetry_cell_setting 'orthorhombic'
loop_
_space_group_symop_operation_xyz
x,y,z
-x,-y,z
-x,y,1/2+z
x,-y,1/2+z
1/2+x,1/2+y,z
1/2-x,1/2-y,z
1/2-x,1/2+y,1/2+z
1/2+x,1/2-y,1/2+z
loop_
_atom_site_type_symbol
_atom_site_label
_atom_site_fract_x
_atom_site_fract_y
_atom_site_fract_z
Si Si1 0.188477 0.102157 0.348660
Si Si2 0.634913 0.064973 0.259263
Si Si3 0.144611 0.635532 0.646371
Si Si4 0.621841 0.567021 0.968352
Si Si5 0.494156 0.329846 0.240294
Si Si6 0.385566 0.910730 0.506208
O O1 0.250000 0.250000 0.380918
O O2 0.099954 0.176020 0.297272
O O3 0.283087 0.989443 0.316243
O O4 0.115532 0.999272 0.397730
O O5 0.622868 0.251303 0.260786
O O6 0.500000 0.000000 0.270267
O O7 0.687004 0.002547 0.191980
O O8 0.250000 0.750000 0.629248
O O9 0.041202 0.727476 0.681669
O O10 0.090381 0.583880 0.580490
O O11 0.500000 0.500000 0.002848
O O12 0.613718 0.747726 0.972765
O O13 0.752631 0.512174 0.995672
O O14 0.500000 0.500000 0.215712
O O15 0.500000 0.000000 0.475502
#
# Coordination Sequence:
#
# PCOD8176641 Si02
#       6
#     8   8   8   8   8   8
#     4  12  23  42  68  99 148 194 242 308 365 444
#     4  10  20  40  71 103 135 190 234 287 381 438
#     4  11  19  46  74 101 139 184 240 304 373 441
#     4  11  28  46  70 106 144 193 255 304 363 440
#     4  11  23  38  66 107 144 181 235 307 370 448
#     4  11  26  51  78 103 144 198 254 312 368 437
#
# _framework density 23.184875000000002
#
# number of rings (size 3 to 8) (size 9 to 14) (size 15 to 20)
#    0.000    1.000    6.667    2.000    2.333    7.333 
#    0.000    0.000    3.667    0.000    0.000    0.000 
#    0.000    0.000    0.000    0.000    0.000    0.000 
#
# Total GULP energy -297345.364115 kJ/mol
# GULP energy per Si atom -12389.390171 kJ/mol
# Density = 2.313211 g / cm^3
# Si number density = 23.184875 Si / 1000 Ang^3
#
#
#
# Elastic Constant Matrix: (Units=GPa)
#
#
# Indices 1 2 3 4 5 6 
#
# 1 145.8183 51.7435 31.6928 0.0000 0.0000 0.0000
# 2 51.7435 121.0096 27.6044 0.0000 0.0000 0.0000
# 3 31.6928 27.6044 75.7358 0.0000 0.0000 0.0000
# 4 0.0000 0.0000 0.0000 22.3459 0.0000 0.0000
# 5 0.0000 0.0000 0.0000 0.0000 25.0832 0.0000
# 6 0.0000 0.0000 0.0000 0.0000 0.0000 47.2418
#
#
#
# Elastic Compliance Matrix: (Units=1/GPa)
#
#
# Indices 1 2 3 4 5 6 
#
# 1 0.008475 -0.003070 -0.002427 0.000000 0.000000 0.000000
# 2 -0.003070 0.010125 -0.002406 0.000000 0.000000 0.000000
# 3 -0.002427 -0.002406 0.015096 0.000000 0.000000 0.000000
# 4 0.000000 0.000000 0.000000 0.044751 0.000000 0.000000
# 5 0.000000 0.000000 0.000000 0.000000 0.039867 0.000000
# 6 0.000000 0.000000 0.000000 0.000000 0.000000 0.021168
#
#
# Mechanical properties :
#
#
# Convention : Reuss Voigt Hill
#
# Bulk Modulus (GPa) = 55.89703 62.73836 59.31770
# Shear Modulus (GPa) = 31.00725 34.36905 32.68815
#
# Velocity S-wave (km/s) = 3.66100 3.85436 3.75893
# Velocity P-wave (km/s) = 6.48322 6.85032 6.66930
#
# Compressibility (1/GPa) = 0.01789004
#
# Stress axis : x y z
#
# Youngs Moduli (GPa) = 117.99602 98.76172 66.24064
#
# Poissons Ratio (x) = 0.30321 0.16080
# Poissons Ratio (y) = 0.36226 0.15936
# Poissons Ratio (z) = 0.28643 0.23760
#
# Static dielectric constant tensor:
#      x y z
#    x 4.647210 0.000000 0.000000 
#    y 0.000000 4.870850 0.000000 
#    z 0.000000 0.000000 3.970980 
# 
# 
# High freq. dielectric constant tensor:
#      x y z
#    x 1.935260 0.000000 0.000000 
#    y 0.000000 1.923340 0.000000 
#    z 0.000000 0.000000 1.891850 
# 
# From -- ./inp_files/18651.got.cif
#   From: 2010.03.12/outbox.cif.g09.slc.cpg/sg37_10_cif.got.tgz:18651.got - 2010.04.14 02:25:27.
