data_PCOD8176968
_publ_section_title
;
Structure prediction by ZEFSAII (Michael W. Deem and Ramdas Pophale) SiO2 
 PCOD8176968
Probable space group: C C C 2
;
_chemical_formula_sum "Si O2"
_cell_formula_units_Z 40
_cell_length_a 9.958247
_cell_length_b 9.958251
_cell_length_c 19.990777
_cell_angle_alpha 90.000000
_cell_angle_beta 90.000000
_cell_angle_gamma 90.000000
_cell_volume 1982.419848
_symmetry_space_group_name_H-M "C C C 2"
_symmetry_group_IT_number 37
_symmetry_cell_setting 'orthorhombic'
loop_
_space_group_symop_operation_xyz
x,y,z
-x,-y,z
-x,y,1/2+z
x,-y,1/2+z
1/2+x,1/2+y,z
1/2-x,1/2-y,z
1/2-x,1/2+y,1/2+z
1/2+x,1/2-y,1/2+z
loop_
_atom_site_type_symbol
_atom_site_label
_atom_site_fract_x
_atom_site_fract_y
_atom_site_fract_z
Si Si1 0.480528 0.347988 0.399440
Si Si2 0.902285 0.881369 0.550592
Si Si3 0.618631 0.097715 0.104057
Si Si4 0.750000 0.750000 0.305482
Si Si5 0.250000 0.750000 0.349167
Si Si6 0.847988 0.480528 0.255209
O O1 0.500000 0.500000 0.374822
O O2 0.424732 0.342076 0.474105
O O3 0.379772 0.270244 0.351332
O O4 0.623126 0.272725 0.397188
O O5 0.748357 0.930029 0.557978
O O6 0.930029 0.751643 0.596671
O O7 0.000000 0.000000 0.574643
O O8 0.500000 0.000000 0.080005
O O9 0.657924 0.075267 0.180544
O O10 0.772725 0.623126 0.257461
O O11 0.229756 0.620228 0.303316
O O12 0.000000 0.500000 0.279827
#
# Coordination Sequence:
#
# PCOD8176968 Si02
#       6
#     8   8   8   4   4   8
#     4  11  24  41  66  99 132 171 217 266 333 390
#     4  10  23  44  65  95 131 171 222 271 321 386
#     4  10  23  44  65  95 131 171 222 271 321 386
#     4  12  22  42  65  99 136 168 210 272 326 398
#     4  12  22  42  65  99 136 168 210 272 326 398
#     4  11  24  41  66  99 132 171 217 266 333 390
#
# _framework density 20.177358999999999
#
# number of rings (size 3 to 8) (size 9 to 14) (size 15 to 20)
#    0.000    1.200    4.000    2.400    0.000    7.200 
#    7.200    0.000    0.000    0.000    0.000    0.000 
#    0.000    0.000    0.000    0.000    0.000    0.000 
#
# Total GULP energy -248092.698143 kJ/mol
# GULP energy per Si atom -12404.634907 kJ/mol
# Density = 2.013143 g / cm^3
# Si number density = 20.177359 Si / 1000 Ang^3
#
#
#
# Elastic Constant Matrix: (Units=GPa)
#
#
# Indices 1 2 3 4 5 6 
#
# 1 151.8038 59.6473 53.3100 0.0000 0.0000 0.0000
# 2 59.6473 151.8043 53.3101 0.0000 0.0000 0.0000
# 3 53.3100 53.3101 107.3914 0.0000 0.0000 0.0000
# 4 0.0000 0.0000 0.0000 29.3470 0.0000 0.0000
# 5 0.0000 0.0000 0.0000 0.0000 29.3471 0.0000
# 6 0.0000 0.0000 0.0000 0.0000 0.0000 43.4547
#
#
#
# Elastic Compliance Matrix: (Units=1/GPa)
#
#
# Indices 1 2 3 4 5 6 
#
# 1 0.008580 -0.002271 -0.003131 0.000000 0.000000 0.000000
# 2 -0.002271 0.008580 -0.003131 0.000000 0.000000 0.000000
# 3 -0.003131 -0.003131 0.012421 0.000000 0.000000 0.000000
# 4 0.000000 0.000000 0.000000 0.034075 0.000000 0.000000
# 5 0.000000 0.000000 0.000000 0.000000 0.034075 0.000000
# 6 0.000000 0.000000 0.000000 0.000000 0.000000 0.023012
#
#
# Mechanical properties :
#
#
# Convention : Reuss Voigt Hill
#
# Bulk Modulus (GPa) = 79.92778 82.61493 81.27135
# Shear Modulus (GPa) = 35.21588 36.74524 35.98056
#
# Velocity S-wave (km/s) = 4.18223 4.27208 4.22739
# Velocity P-wave (km/s) = 7.93851 8.08502 8.01210
#
# Compressibility (1/GPa) = 0.01251129
#
# Stress axis : x y z
#
# Youngs Moduli (GPa) = 116.55494 116.55532 80.51091
#
# Poissons Ratio (x) = 0.26475 0.25211
# Poissons Ratio (y) = 0.26475 0.25211
# Poissons Ratio (z) = 0.36498 0.36499
#
# Static dielectric constant tensor:
#      x y z
#    x 3.876540 0.000000 0.000000 
#    y 0.000000 3.876550 0.000000 
#    z 0.000000 0.000000 3.411530 
# 
# 
# High freq. dielectric constant tensor:
#      x y z
#    x 1.802130 0.000000 0.000000 
#    y 0.000000 1.802130 0.000000 
#    z 0.000000 0.000000 1.778580 
# 
# From -- ./inp_files/18260.got.cif
#   From: 2010.03.12/outbox.cif.g09.slc.cpg/sg37_10_cif.got.tgz:18260.got - 2010.04.14 02:25:27.
