data_PCOD8176063
_publ_section_title
;
Structure prediction by ZEFSAII (Michael W. Deem and Ramdas Pophale) SiO2 
 PCOD8176063
Probable space group: C M C 21
;
_chemical_formula_sum "Si O2"
_cell_formula_units_Z 64
_cell_length_a 18.463892
_cell_length_b 9.126710
_cell_length_c 18.358850
_cell_angle_alpha 90.000000
_cell_angle_beta 90.000000
_cell_angle_gamma 90.000000
_cell_volume 3093.734039
_symmetry_space_group_name_H-M "C M C 21"
_symmetry_group_IT_number 36
_symmetry_cell_setting 'orthorhombic'
loop_
_space_group_symop_operation_xyz
x,y,z
-x,-y,1/2+z
x,-y,1/2+z
-x,y,z
1/2+x,1/2+y,z
1/2-x,1/2-y,1/2+z
1/2+x,1/2-y,1/2+z
1/2-x,1/2+y,z
loop_
_atom_site_type_symbol
_atom_site_label
_atom_site_fract_x
_atom_site_fract_y
_atom_site_fract_z
Si Si1 0.168882 0.965618 0.177350
Si Si2 0.834094 0.933377 0.902830
Si Si3 0.805209 0.722970 0.393196
Si Si4 0.584822 0.944017 0.166359
Si Si5 0.301544 0.847414 0.728579
Si Si6 0.419168 0.177352 0.514007
Si Si7 0.917165 0.833146 0.764912
Si Si8 0.919265 0.014548 0.541310
O O1 0.201517 0.823038 0.212940
O O2 0.231091 0.086510 0.189378
O O3 0.095138 0.022624 0.215532
O O4 0.144814 0.931973 0.094741
O O5 0.768184 0.832990 0.932166
O O6 0.863837 0.848186 0.832791
O O7 0.809383 0.100870 0.885651
O O8 0.898143 0.931237 0.961250
O O9 0.805070 0.637678 0.315995
O O10 0.870213 0.660472 0.442596
O O11 0.500000 0.976031 0.169775
O O12 0.605242 0.808713 0.218490
O O13 0.625816 0.086071 0.194893
O O14 0.609220 0.917568 0.082578
O O15 0.500000 0.128465 0.490901
O O16 0.420588 0.340442 0.544907
O O17 0.000000 0.828363 0.790635
O O18 0.000000 0.075963 0.559584
#
# Coordination Sequence:
#
# PCOD8176063 Si02
#       8
#     8   8   8   8   8   8   8   8
#     4  12  24  40  65  93 127 167 208 267 316 378
#     4  11  24  41  64  95 127 169 210 263 314 382
#     4  11  23  41  63  90 127 165 208 263 316 379
#     4  10  23  42  66  93 128 167 213 264 320 383
#     4  12  25  41  63  96 130 164 213 266 319 381
#     4   9  20  41  66  90 121 168 211 255 315 384
#     4  11  21  40  67  92 123 168 212 258 317 375
#     4  10  22  42  66  95 127 164 215 262 315 382
#
# _framework density 20.686975
#
# number of rings (size 3 to 8) (size 9 to 14) (size 15 to 20)
#    0.000    1.250    3.750    1.500    3.500    3.000 
#    0.000    0.000    0.000    0.000    0.000    0.000 
#    0.000    0.000    0.000    0.000    0.000    0.000 
#
# Total GULP energy -396751.620909 kJ/mol
# GULP energy per Si atom -12398.488153 kJ/mol
# Density = 2.063989 g / cm^3
# Si number density = 20.686975 Si / 1000 Ang^3
#
#
#
# Elastic Constant Matrix: (Units=GPa)
#
#
# Indices 1 2 3 4 5 6 
#
# 1 107.8633 31.1858 43.2062 0.0000 0.0000 0.0000
# 2 31.1858 47.1412 7.8453 0.0000 0.0000 0.0000
# 3 43.2062 7.8453 91.9857 0.0000 0.0000 0.0000
# 4 0.0000 0.0000 0.0000 21.3983 0.0000 0.0000
# 5 0.0000 0.0000 0.0000 0.0000 39.1174 0.0000
# 6 0.0000 0.0000 0.0000 0.0000 0.0000 33.8169
#
#
#
# Elastic Compliance Matrix: (Units=1/GPa)
#
#
# Indices 1 2 3 4 5 6 
#
# 1 0.014026 -0.008300 -0.005880 0.000000 0.000000 0.000000
# 2 -0.008300 0.026430 0.001645 0.000000 0.000000 0.000000
# 3 -0.005880 0.001645 0.013493 0.000000 0.000000 0.000000
# 4 0.000000 0.000000 0.000000 0.046733 0.000000 0.000000
# 5 0.000000 0.000000 0.000000 0.000000 0.025564 0.000000
# 6 0.000000 0.000000 0.000000 0.000000 0.000000 0.029571
#
#
# Mechanical properties :
#
#
# Convention : Reuss Voigt Hill
#
# Bulk Modulus (GPa) = 34.62937 45.71833 40.17385
# Shear Modulus (GPa) = 26.24463 29.85004 28.04733
#
# Velocity S-wave (km/s) = 3.56568 3.80272 3.68611
# Velocity P-wave (km/s) = 5.80759 6.43653 6.13014
#
# Compressibility (1/GPa) = 0.02887722
#
# Stress axis : x y z
#
# Youngs Moduli (GPa) = 71.29498 37.83557 74.11257
#
# Poissons Ratio (x) = 0.31405 0.43580
# Poissons Ratio (y) = 0.59177 -0.12188
# Poissons Ratio (z) = 0.41923 -0.06222
#
# Static dielectric constant tensor:
#      x y z
#    x 3.841220 0.000000 0.000000 
#    y 0.000000 3.562290 0.000000 
#    z 0.000000 0.000000 3.778050 
# 
# 
# High freq. dielectric constant tensor:
#      x y z
#    x 1.820530 0.000000 0.000000 
#    y 0.000000 1.792370 0.000000 
#    z 0.000000 0.000000 1.815600 
# 
# From -- ./inp_files/15053.got.cif
#   From: 2010.03.12/outbox.cif.g09.slc.cpg/sg36_8_cif.got.tgz:15053.got - 2010.04.14 02:13:53.
