data_PCOD8176264
_publ_section_title
;
Structure prediction by ZEFSAII (Michael W. Deem and Ramdas Pophale) SiO2 
 PCOD8176264
Probable space group: C M C 21
;
_chemical_formula_sum "Si O2"
_cell_formula_units_Z 48
_cell_length_a 18.680936
_cell_length_b 14.123390
_cell_length_c 8.815891
_cell_angle_alpha 90.000000
_cell_angle_beta 90.000000
_cell_angle_gamma 90.000000
_cell_volume 2325.968325
_symmetry_space_group_name_H-M "C M C 21"
_symmetry_group_IT_number 36
_symmetry_cell_setting 'orthorhombic'
loop_
_space_group_symop_operation_xyz
x,y,z
-x,-y,1/2+z
x,-y,1/2+z
-x,y,z
1/2+x,1/2+y,z
1/2-x,1/2-y,1/2+z
1/2+x,1/2-y,1/2+z
1/2-x,1/2+y,z
loop_
_atom_site_type_symbol
_atom_site_label
_atom_site_fract_x
_atom_site_fract_y
_atom_site_fract_z
Si Si1 0.078263 0.877714 0.137110
Si Si2 0.175413 0.241465 0.809232
Si Si3 0.583511 0.731250 0.105163
Si Si4 0.618415 0.442609 0.814337
Si Si5 0.281678 0.940715 0.890927
Si Si6 0.690289 0.122125 0.727359
O O1 0.134076 0.791762 0.158005
O O2 0.000000 0.833477 0.156437
O O3 0.090612 0.955746 0.265231
O O4 0.085188 0.926096 0.976761
O O5 0.179848 0.354282 0.805904
O O6 0.253948 0.194387 0.806416
O O7 0.129838 0.209701 0.955523
O O8 0.500000 0.752735 0.068358
O O9 0.589413 0.638084 0.204866
O O10 0.616777 0.821715 0.194400
O O11 0.703382 0.447997 0.820909
O O12 0.324015 0.036977 0.846722
O O13 0.278799 0.923130 0.071409
#
# Coordination Sequence:
#
# PCOD8176264 Si02
#       6
#     8   8   8   8   8   8
#     4  12  24  38  59  94 130 167 205 257 331 394
#     4  11  23  41  66  93 127 169 213 267 316 388
#     4  11  25  44  65  95 132 172 214 270 331 385
#     4  12  22  39  62  89 132 162 209 265 323 390
#     4  11  23  40  65  97 119 164 218 264 310 378
#     4  11  24  42  65  94 129 166 215 265 316 383
#
# _framework density 20.636566999999999
#
# number of rings (size 3 to 8) (size 9 to 14) (size 15 to 20)
#    0.000    0.667    5.000    3.000    2.333    1.333 
#    0.000    4.167    0.000    0.000    0.000    0.000 
#    0.000    0.000    0.000    0.000    0.000    0.000 
#
# Total GULP energy -297647.285608 kJ/mol
# GULP energy per Si atom -12401.970234 kJ/mol
# Density = 2.058960 g / cm^3
# Si number density = 20.636567 Si / 1000 Ang^3
#
#
#
# Elastic Constant Matrix: (Units=GPa)
#
#
# Indices 1 2 3 4 5 6 
#
# 1 88.9328 19.9872 26.3448 0.0000 0.0000 0.0000
# 2 19.9872 86.8609 8.6142 0.0000 0.0000 0.0000
# 3 26.3448 8.6142 55.9062 0.0000 0.0000 0.0000
# 4 0.0000 0.0000 0.0000 31.4261 0.0000 0.0000
# 5 0.0000 0.0000 0.0000 0.0000-1272.8860 0.0000
# 6 0.0000 0.0000 0.0000 0.0000 0.0000 5.2757
#
#
#
# Elastic Compliance Matrix: (Units=1/GPa)
#
#
# Indices 1 2 3 4 5 6 
#
# 1 0.013596 -0.002532 -0.006017 0.000000 0.000000 0.000000
# 2 -0.002532 0.012163 -0.000681 0.000000 0.000000 0.000000
# 3 -0.006017 -0.000681 0.020827 0.000000 0.000000 0.000000
# 4 0.000000 0.000000 0.000000 0.031821 0.000000 0.000000
# 5 0.000000 0.000000 0.000000 0.000000 -0.000786 0.000000
# 6 0.000000 0.000000 0.000000 0.000000 0.000000 0.189549
#
#
# Mechanical properties :
#
#
# Convention : Reuss Voigt Hill
#
# Bulk Modulus (GPa) = 35.55313 37.95470 36.75391
# Shear Modulus (GPa) = 16.94887 -235.45327 -109.25220
#
# Velocity S-wave (km/s) = 2.86895 -10.69312 -7.28396
# Velocity P-wave (km/s) = 5.31414 11.57693 7.27273
#
# Compressibility (1/GPa) = 0.02812692
#
# Stress axis : x y z
#
# Youngs Moduli (GPa) = 73.55218 82.21810 48.01390
#
# Poissons Ratio (x) = 0.20816 0.28888
# Poissons Ratio (y) = 0.18622 0.03270
# Poissons Ratio (z) = 0.44254 0.05599
#
# Static dielectric constant tensor:
#      x y z
#    x 3.872420 0.000000 0.000000 
#    y 0.000000 3.867250 0.000000 
#    z 0.000000 0.000000 4.048580 
# 
# 
# High freq. dielectric constant tensor:
#      x y z
#    x 1.801340 0.000000 0.000000 
#    y 0.000000 1.809800 0.000000 
#    z 0.000000 0.000000 1.814960 
# 
# From -- ./inp_files/4649.got.cif
#   From: 2010.03.12/outbox.cif.g09.slc.cpg/sg36_3_cif.got.tgz:4649.got - 2010.04.14 02:13:53.
