data_PCOD8176546
_publ_section_title
;
Structure prediction by ZEFSAII (Michael W. Deem and Ramdas Pophale) SiO2 
 PCOD8176546
Probable space group: C C C 2
;
_chemical_formula_sum "Si O2"
_cell_formula_units_Z 48
_cell_length_a 17.080880
_cell_length_b 8.651814
_cell_length_c 15.292754
_cell_angle_alpha 90.000000
_cell_angle_beta 90.000000
_cell_angle_gamma 90.000000
_cell_volume 2259.972312
_symmetry_space_group_name_H-M "C C C 2"
_symmetry_group_IT_number 37
_symmetry_cell_setting 'orthorhombic'
loop_
_space_group_symop_operation_xyz
x,y,z
-x,-y,z
-x,y,1/2+z
x,-y,1/2+z
1/2+x,1/2+y,z
1/2-x,1/2-y,z
1/2-x,1/2+y,1/2+z
1/2+x,1/2-y,1/2+z
loop_
_atom_site_type_symbol
_atom_site_label
_atom_site_fract_x
_atom_site_fract_y
_atom_site_fract_z
Si Si1 0.353691 0.095043 0.041350
Si Si2 0.085578 0.442862 0.372026
Si Si3 0.845391 0.586251 0.708256
Si Si4 0.336044 0.422257 0.690504
Si Si5 0.669614 0.647227 0.349060
Si Si6 0.170996 0.934642 0.516769
O O1 0.260972 0.088468 0.039537
O O2 0.376309 0.272214 0.019215
O O3 0.383882 0.028583 0.135355
O O4 0.394380 0.988479 0.970073
O O5 0.147157 0.516129 0.304467
O O6 0.095446 0.258479 0.365778
O O7 0.000000 0.500000 0.344364
O O8 0.755666 0.606544 0.685608
O O9 0.880794 0.760905 0.711744
O O10 0.349537 0.561219 0.758633
O O11 0.367824 0.466321 0.594407
O O12 0.750000 0.750000 0.348210
O O13 0.667700 0.517610 0.423685
#
# Coordination Sequence:
#
# PCOD8176546 Si02
#       6
#     8   8   8   8   8   8
#     4  10  20  37  60  88 121 154 198 249 310 368
#     4  12  25  39  57  83 122 167 201 244 309 373
#     4  10  20  37  60  88 121 154 198 249 310 368
#     4  10  20  34  63  93 117 149 199 262 308 356
#     4  12  21  37  61  91 122 156 207 258 311 359
#     4  10  20  34  63  93 117 149 199 262 308 356
#
# _framework density 21.239196
#
# number of rings (size 3 to 8) (size 9 to 14) (size 15 to 20)
#    0.000    1.333    3.333    3.000    4.667    3.333 
#    0.000    3.333    0.000    2.000    0.000    0.000 
#    0.000    0.000    0.000    0.000    0.000    0.000 
#
# Total GULP energy -297430.518694 kJ/mol
# GULP energy per Si atom -12392.938279 kJ/mol
# Density = 2.119085 g / cm^3
# Si number density = 21.239196 Si / 1000 Ang^3
#
#
#
# Elastic Constant Matrix: (Units=GPa)
#
#
# Indices 1 2 3 4 5 6 
#
# 1 25.2122 19.3278 3.1523 0.0000 0.0000 0.0000
# 2 19.3278 133.3986 17.9781 0.0000 0.0000 0.0000
# 3 3.1523 17.9781 96.9546 0.0000 0.0000 0.0000
# 4 0.0000 0.0000 0.0000 46.7531 0.0000 0.0000
# 5 0.0000 0.0000 0.0000 0.0000 3.3895 0.0000
# 6 0.0000 0.0000 0.0000 0.0000 0.0000 18.1113
#
#
#
# Elastic Compliance Matrix: (Units=1/GPa)
#
#
# Indices 1 2 3 4 5 6 
#
# 1 0.044626 -0.006431 -0.000258 0.000000 0.000000 0.000000
# 2 -0.006431 0.008615 -0.001388 0.000000 0.000000 0.000000
# 3 -0.000258 -0.001388 0.010580 0.000000 0.000000 0.000000
# 4 0.000000 0.000000 0.000000 0.021389 0.000000 0.000000
# 5 0.000000 0.000000 0.000000 0.000000 0.295028 0.000000
# 6 0.000000 0.000000 0.000000 0.000000 0.000000 0.055214
#
#
# Mechanical properties :
#
#
# Convention : Reuss Voigt Hill
#
# Bulk Modulus (GPa) = 20.97962 37.38688 29.18325
# Shear Modulus (GPa) = 10.69527 27.99124 19.34326
#
# Velocity S-wave (km/s) = 2.24646 3.63423 3.02111
# Velocity P-wave (km/s) = 4.07774 5.93727 5.09309
#
# Compressibility (1/GPa) = 0.04766531
#
# Stress axis : x y z
#
# Youngs Moduli (GPa) = 22.40863 116.07394 94.51836
#
# Poissons Ratio (x) = 0.74646 0.02443
# Poissons Ratio (y) = 0.14411 0.13123
# Poissons Ratio (z) = 0.00579 0.16116
#
# Static dielectric constant tensor:
#      x y z
#    x 3.219470 0.000000 0.000000 
#    y 0.000000 4.461110 0.000000 
#    z 0.000000 0.000000 3.942860 
# 
# 
# High freq. dielectric constant tensor:
#      x y z
#    x 1.763790 0.000000 0.000000 
#    y 0.000000 1.858340 0.000000 
#    z 0.000000 0.000000 1.848530 
# 
# From -- ./inp_files/10588.got.cif
#   From: 2010.03.12/outbox.cif.g09.slc.cpg/sg37_6_cif.got.tgz:10588.got - 2010.04.14 02:25:27.
