data_PCOD8176041
_publ_section_title
;
Structure prediction by ZEFSAII (Michael W. Deem and Ramdas Pophale) SiO2 
 PCOD8176041
Probable space group: C M C 21
;
_chemical_formula_sum "Si O2"
_cell_formula_units_Z 48
_cell_length_a 13.713943
_cell_length_b 16.818484
_cell_length_c 9.726679
_cell_angle_alpha 90.000000
_cell_angle_beta 90.000000
_cell_angle_gamma 90.000000
_cell_volume 2243.436441
_symmetry_space_group_name_H-M "C M C 21"
_symmetry_group_IT_number 36
_symmetry_cell_setting 'orthorhombic'
loop_
_space_group_symop_operation_xyz
x,y,z
-x,-y,1/2+z
x,-y,1/2+z
-x,y,z
1/2+x,1/2+y,z
1/2-x,1/2-y,1/2+z
1/2+x,1/2-y,1/2+z
1/2-x,1/2+y,z
loop_
_atom_site_type_symbol
_atom_site_label
_atom_site_fract_x
_atom_site_fract_y
_atom_site_fract_z
Si Si1 0.883235 0.590926 0.654420
Si Si2 0.392605 0.541549 0.025593
Si Si3 0.607643 0.404826 0.824996
Si Si4 0.201711 0.324258 0.894174
Si Si5 0.763168 0.350142 0.409388
Si Si6 0.611196 0.095398 0.146232
O O1 0.824660 0.641228 0.542139
O O2 0.841267 0.625640 0.795127
O O3 0.857251 0.497445 0.640198
O O4 0.000000 0.604502 0.648079
O O5 0.500000 0.579242 0.006368
O O6 0.364530 0.543896 0.187792
O O7 0.392019 0.452496 0.968085
O O8 0.319202 0.584094 0.923057
O O9 0.500000 0.366501 0.804888
O O10 0.687716 0.337754 0.843759
O O11 0.199091 0.229280 0.889891
O O12 0.123761 0.368373 0.797540
O O13 0.824126 0.348258 0.550157
O O14 0.500000 0.102349 0.100145
#
# Coordination Sequence:
#
# PCOD8176041 Si02
#       6
#     8   8   8   8   8   8
#     4  11  25  44  71  97 129 175 222 269 322 384
#     4  10  22  41  66  94 126 168 214 261 315 382
#     4  10  22  41  66  94 126 168 214 261 315 382
#     4  12  25  42  63 100 132 169 210 267 335 387
#     4  12  25  42  63 100 132 169 210 267 335 387
#     4  11  23  44  69  95 127 171 226 271 316 386
#
# _framework density 21.395748999999999
#
# number of rings (size 3 to 8) (size 9 to 14) (size 15 to 20)
#    0.000    1.000    1.667    5.000    2.333    5.333 
#    0.000    0.000    0.000    0.000    0.000    0.000 
#    0.000    0.000    0.000    0.000    0.000    0.000 
#
# Total GULP energy -297476.143204 kJ/mol
# GULP energy per Si atom -12394.839300 kJ/mol
# Density = 2.134705 g / cm^3
# Si number density = 21.395749 Si / 1000 Ang^3
#
#
#
# Elastic Constant Matrix: (Units=GPa)
#
#
# Indices 1 2 3 4 5 6 
#
# 1 91.7450 21.3401 22.7196 0.0000 0.0000 0.0000
# 2 21.3401 63.1568 7.2470 0.0000 0.0000 0.0000
# 3 22.7196 7.2470 90.3169 0.0000 0.0000 0.0000
# 4 0.0000 0.0000 0.0000 30.2085 0.0000 0.0000
# 5 0.0000 0.0000 0.0000 0.0000 36.9425 0.0000
# 6 0.0000 0.0000 0.0000 0.0000 0.0000 14.8066
#
#
#
# Elastic Compliance Matrix: (Units=1/GPa)
#
#
# Indices 1 2 3 4 5 6 
#
# 1 0.012509 -0.003902 -0.002834 0.000000 0.000000 0.000000
# 2 -0.003902 0.017198 -0.000398 0.000000 0.000000 0.000000
# 3 -0.002834 -0.000398 0.011817 0.000000 0.000000 0.000000
# 4 0.000000 0.000000 0.000000 0.033103 0.000000 0.000000
# 5 0.000000 0.000000 0.000000 0.000000 0.027069 0.000000
# 6 0.000000 0.000000 0.000000 0.000000 0.000000 0.067538
#
#
# Mechanical properties :
#
#
# Convention : Reuss Voigt Hill
#
# Bulk Modulus (GPa) = 36.68886 38.64803 37.66845
# Shear Modulus (GPa) = 25.96240 29.31897 27.64069
#
# Velocity S-wave (km/s) = 3.48722 3.70580 3.59817
# Velocity P-wave (km/s) = 5.77921 6.03433 5.90815
#
# Compressibility (1/GPa) = 0.02725623
#
# Stress axis : x y z
#
# Youngs Moduli (GPa) = 79.94245 58.14754 84.62446
#
# Poissons Ratio (x) = 0.22686 0.23980
# Poissons Ratio (y) = 0.31190 0.03372
# Poissons Ratio (z) = 0.22653 0.02317
#
# Static dielectric constant tensor:
#      x y z
#    x 4.120830 0.000000 0.000000 
#    y 0.000000 3.587050 0.000000 
#    z 0.000000 0.000000 3.927520 
# 
# 
# High freq. dielectric constant tensor:
#      x y z
#    x 1.861670 0.000000 0.000000 
#    y 0.000000 1.814990 0.000000 
#    z 0.000000 0.000000 1.852220 
# 
# From -- ./inp_files/3981.got.cif
#   From: 2010.03.12/outbox.cif.g09.slc.cpg/sg36_2_cif.got.tgz:3981.got - 2010.04.14 02:13:53.
