data_PCOD8176026
_publ_section_title
;
Structure prediction by ZEFSAII (Michael W. Deem and Ramdas Pophale) SiO2 
 PCOD8176026
Probable space group: C M C 21
;
_chemical_formula_sum "Si O2"
_cell_formula_units_Z 64
_cell_length_a 9.132474
_cell_length_b 23.710803
_cell_length_c 15.190698
_cell_angle_alpha 90.000000
_cell_angle_beta 90.000000
_cell_angle_gamma 90.000000
_cell_volume 3289.367798
_symmetry_space_group_name_H-M "C M C 21"
_symmetry_group_IT_number 36
_symmetry_cell_setting 'orthorhombic'
loop_
_space_group_symop_operation_xyz
x,y,z
-x,-y,1/2+z
x,-y,1/2+z
-x,y,z
1/2+x,1/2+y,z
1/2-x,1/2-y,1/2+z
1/2+x,1/2-y,1/2+z
1/2-x,1/2+y,z
loop_
_atom_site_type_symbol
_atom_site_label
_atom_site_fract_x
_atom_site_fract_y
_atom_site_fract_z
Si Si1 0.833502 0.009520 0.392420
Si Si2 0.333434 0.370927 0.806803
Si Si3 0.669961 0.236410 0.376215
Si Si4 0.834916 0.492978 0.567239
Si Si5 0.672080 0.056854 0.742243
Si Si6 0.171270 0.313142 0.240311
Si Si7 0.331246 0.264608 0.575541
Si Si8 0.165412 0.628580 0.132568
O O1 0.821043 0.073837 0.364386
O O2 0.771110 0.010758 0.489978
O O3 0.000000 0.988403 0.393870
O O4 0.746869 0.967393 0.329292
O O5 0.500000 0.349320 0.798334
O O6 0.235668 0.322559 0.847626
O O7 0.271972 0.386039 0.711973
O O8 0.500000 0.238197 0.352198
O O9 0.745588 0.287637 0.324299
O O10 0.696752 0.238601 0.480237
O O11 0.776210 0.521252 0.657365
O O12 0.833226 0.425419 0.569898
O O13 0.000000 0.514757 0.548740
O O14 0.500000 0.049943 0.756435
O O15 0.718112 0.121859 0.728881
O O16 0.213770 0.280184 0.150807
O O17 0.000000 0.307980 0.259543
O O18 0.500000 0.283029 0.587395
O O19 0.226606 0.318346 0.579846
O O20 0.000000 0.641247 0.165178
#
# Coordination Sequence:
#
# PCOD8176026 Si02
#       8
#     8   8   8   8   8   8   8   8
#     4  11  25  41  62  92 125 162 203 251 309 365
#     4  11  23  41  63  89 123 161 202 256 313 360
#     4  11  24  40  63  93 122 161 207 251 301 362
#     4  10  23  41  64  92 121 158 207 255 304 363
#     4  10  22  42  65  89 122 164 206 251 303 363
#     4  10  22  41  63  87 122 165 202 247 307 360
#     4  10  23  41  61  89 125 162 199 247 309 364
#     4  11  22  39  65  93 118 155 208 258 304 361
#
# _framework density 19.456627000000001
#
# number of rings (size 3 to 8) (size 9 to 14) (size 15 to 20)
#    0.000    1.500    2.500    1.500    3.500    4.500 
#    0.000    0.000    0.000    0.000    0.000    0.000 
#    0.000    0.000    0.000    0.000    0.000    0.000 
#
# Total GULP energy -396907.978310 kJ/mol
# GULP energy per Si atom -12403.374322 kJ/mol
# Density = 1.941234 g / cm^3
# Si number density = 19.456627 Si / 1000 Ang^3
#
#
#
# Elastic Constant Matrix: (Units=GPa)
#
#
# Indices 1 2 3 4 5 6 
#
# 1 69.5226 44.2890 41.1905 0.0000 0.0000 0.0000
# 2 44.2890 87.1155 21.6330 0.0000 0.0000 0.0000
# 3 41.1905 21.6330 95.2136 0.0000 0.0000 0.0000
# 4 0.0000 0.0000 0.0000 34.6572 0.0000 0.0000
# 5 0.0000 0.0000 0.0000 0.0000 32.3791 0.0000
# 6 0.0000 0.0000 0.0000 0.0000 0.0000 28.6108
#
#
#
# Elastic Compliance Matrix: (Units=1/GPa)
#
#
# Indices 1 2 3 4 5 6 
#
# 1 0.027130 -0.011529 -0.009117 0.000000 0.000000 0.000000
# 2 -0.011529 0.017064 0.001110 0.000000 0.000000 0.000000
# 3 -0.009117 0.001110 0.014195 0.000000 0.000000 0.000000
# 4 0.000000 0.000000 0.000000 0.028854 0.000000 0.000000
# 5 0.000000 0.000000 0.000000 0.000000 0.030884 0.000000
# 6 0.000000 0.000000 0.000000 0.000000 0.000000 0.034952
#
#
# Mechanical properties :
#
#
# Convention : Reuss Voigt Hill
#
# Bulk Modulus (GPa) = 51.76613 51.78631 51.77622
# Shear Modulus (GPa) = 25.17758 28.77868 26.97813
#
# Velocity S-wave (km/s) = 3.60117 3.85011 3.72772
# Velocity P-wave (km/s) = 6.62985 6.81458 6.72285
#
# Compressibility (1/GPa) = 0.01931765
#
# Stress axis : x y z
#
# Youngs Moduli (GPa) = 36.85979 58.60170 70.44878
#
# Poissons Ratio (x) = 0.67559 0.64231
# Poissons Ratio (y) = 0.42494 -0.07822
# Poissons Ratio (z) = 0.33606 -0.06506
#
# Static dielectric constant tensor:
#      x y z
#    x 3.715830 0.000000 0.000000 
#    y 0.000000 3.626400 0.000000 
#    z 0.000000 0.000000 3.574020 
# 
# 
# High freq. dielectric constant tensor:
#      x y z
#    x 1.761920 0.000000 0.000000 
#    y 0.000000 1.767960 0.000000 
#    z 0.000000 0.000000 1.763510 
# 
# From -- ./inp_files/10956.got.cif
#   From: 2010.03.12/outbox.cif.g09.slc.cpg/sg36_6_cif.got.tgz:10956.got - 2010.04.14 02:13:53.
