data_PCOD8176748
_publ_section_title
;
Structure prediction by ZEFSAII (Michael W. Deem and Ramdas Pophale) SiO2 
 PCOD8176748
Probable space group: C C C 2
;
_chemical_formula_sum "Si O2"
_cell_formula_units_Z 48
_cell_length_a 27.202965
_cell_length_b 5.122425
_cell_length_c 15.783921
_cell_angle_alpha 90.000000
_cell_angle_beta 90.000000
_cell_angle_gamma 90.000000
_cell_volume 2199.412808
_symmetry_space_group_name_H-M "C C C 2"
_symmetry_group_IT_number 37
_symmetry_cell_setting 'orthorhombic'
loop_
_space_group_symop_operation_xyz
x,y,z
-x,-y,z
-x,y,1/2+z
x,-y,1/2+z
1/2+x,1/2+y,z
1/2-x,1/2-y,z
1/2-x,1/2+y,1/2+z
1/2+x,1/2-y,1/2+z
loop_
_atom_site_type_symbol
_atom_site_label
_atom_site_fract_x
_atom_site_fract_y
_atom_site_fract_z
Si Si1 0.281930 0.500669 0.071180
Si Si2 0.861400 0.322700 0.638289
Si Si3 0.448775 0.380211 0.775589
Si Si4 0.055190 0.964980 0.086980
Si Si5 0.393525 0.896077 0.813886
Si Si6 0.859740 0.292777 0.991075
O O1 0.250000 0.750000 0.102656
O O2 0.321970 0.416386 0.143548
O O3 0.316163 0.577283 0.989991
O O4 0.250000 0.250000 0.045237
O O5 0.916669 0.232888 0.611506
O O6 0.862092 0.467471 0.729542
O O7 0.842148 0.511260 0.564546
O O8 0.500000 0.500000 0.805987
O O9 0.448890 0.307826 0.675543
O O10 0.408770 0.595409 0.801691
O O11 0.437779 0.106393 0.822526
O O12 0.086188 0.817453 0.014764
O O13 0.000000 0.000000 0.050235
O O14 0.361520 0.923419 0.898897
#
# Coordination Sequence:
#
# PCOD8176748 Si02
#       6
#     8   8   8   8   8   8
#     4  11  23  43  73  94 123 168 211 273 339 398
#     4  10  22  43  65  94 131 170 218 267 331 384
#     4  10  21  40  60  89 131 179 223 269 314 365
#     4   9  20  38  63  93 132 179 222 264 316 381
#     4  11  24  39  64  93 132 172 217 271 321 387
#     4  11  23  41  66  96 132 173 217 267 333 386
#
# _framework density 21.824006000000001
#
# number of rings (size 3 to 8) (size 9 to 14) (size 15 to 20)
#    0.000    1.667    3.333    0.500    4.667    1.333 
#    3.000    1.667    0.000    0.000    0.000    0.000 
#    0.000    0.000    0.000    0.000    0.000    0.000 
#
# Total GULP energy -297385.787172 kJ/mol
# GULP energy per Si atom -12391.074466 kJ/mol
# Density = 2.177433 g / cm^3
# Si number density = 21.824006 Si / 1000 Ang^3
#
#
#
# Elastic Constant Matrix: (Units=GPa)
#
#
# Indices 1 2 3 4 5 6 
#
# 1 138.2995 49.7173 37.8252 0.0000 0.0000 0.0000
# 2 49.7173 109.6938 43.7175 0.0000 0.0000 0.0000
# 3 37.8252 43.7175 132.0189 0.0000 0.0000 0.0000
# 4 0.0000 0.0000 0.0000 25.9148 0.0000 0.0000
# 5 0.0000 0.0000 0.0000 0.0000 7.5657 0.0000
# 6 0.0000 0.0000 0.0000 0.0000 0.0000 37.4350
#
#
#
# Elastic Compliance Matrix: (Units=1/GPa)
#
#
# Indices 1 2 3 4 5 6 
#
# 1 0.008855 -0.003459 -0.001392 0.000000 0.000000 0.000000
# 2 -0.003459 0.011853 -0.002934 0.000000 0.000000 0.000000
# 3 -0.001392 -0.002934 0.008945 0.000000 0.000000 0.000000
# 4 0.000000 0.000000 0.000000 0.038588 0.000000 0.000000
# 5 0.000000 0.000000 0.000000 0.000000 0.132176 0.000000
# 6 0.000000 0.000000 0.000000 0.000000 0.000000 0.026713
#
#
# Mechanical properties :
#
#
# Convention : Reuss Voigt Hill
#
# Bulk Modulus (GPa) = 71.00275 71.39247 71.19761
# Shear Modulus (GPa) = 20.21074 30.76658 25.48866
#
# Velocity S-wave (km/s) = 3.04646 3.75875 3.42119
# Velocity P-wave (km/s) = 6.70667 7.18480 6.94985
#
# Compressibility (1/GPa) = 0.01408396
#
# Stress axis : x y z
#
# Youngs Moduli (GPa) = 112.93507 84.36494 111.79357
#
# Poissons Ratio (x) = 0.29179 0.15558
# Poissons Ratio (y) = 0.39060 0.32803
# Poissons Ratio (z) = 0.15717 0.24755
#
# Static dielectric constant tensor:
#      x y z
#    x 4.016010 0.000000 0.000000 
#    y 0.000000 4.044570 0.000000 
#    z 0.000000 0.000000 3.701120 
# 
# 
# High freq. dielectric constant tensor:
#      x y z
#    x 1.854350 0.000000 0.000000 
#    y 0.000000 1.864000 0.000000 
#    z 0.000000 0.000000 1.821230 
# 
# From -- ./inp_files/9746.got.cif
#   From: 2010.03.12/outbox.cif.g09.slc.cpg/sg37_5_cif.got.tgz:9746.got - 2010.04.14 02:25:27.
