data_PCOD8176351
_publ_section_title
;
Structure prediction by ZEFSAII (Michael W. Deem and Ramdas Pophale) SiO2 
 PCOD8176351
Probable space group: C M C 21
;
_chemical_formula_sum "Si O2"
_cell_formula_units_Z 64
_cell_length_a 13.856672
_cell_length_b 17.133580
_cell_length_c 14.593692
_cell_angle_alpha 90.000000
_cell_angle_beta 90.000000
_cell_angle_gamma 90.000000
_cell_volume 3464.752604
_symmetry_space_group_name_H-M "C M C 21"
_symmetry_group_IT_number 36
_symmetry_cell_setting 'orthorhombic'
loop_
_space_group_symop_operation_xyz
x,y,z
-x,-y,1/2+z
x,-y,1/2+z
-x,y,z
1/2+x,1/2+y,z
1/2-x,1/2-y,1/2+z
1/2+x,1/2-y,1/2+z
1/2-x,1/2+y,z
loop_
_atom_site_type_symbol
_atom_site_label
_atom_site_fract_x
_atom_site_fract_y
_atom_site_fract_z
Si Si1 0.106677 0.425891 0.119650
Si Si2 0.108998 0.998654 0.851028
Si Si3 0.244659 0.281412 0.929496
Si Si4 0.202247 0.155807 0.801357
Si Si5 0.208636 0.456123 0.950164
Si Si6 0.107596 0.569883 0.822320
Si Si7 0.388305 0.331227 0.779035
Si Si8 0.286179 0.771009 0.135271
O O1 0.113824 0.464346 0.219537
O O2 0.128469 0.333638 0.124961
O O3 0.000000 0.435487 0.078195
O O4 0.182996 0.471668 0.056140
O O5 0.133918 0.079976 0.800368
O O6 0.000000 0.002439 0.889317
O O7 0.182421 0.986981 0.935626
O O8 0.121746 0.925654 0.782115
O O9 0.172761 0.220773 0.877042
O O10 0.193300 0.365005 0.930120
O O11 0.344009 0.291829 0.871316
O O12 0.259582 0.251311 0.034988
O O13 0.312736 0.137214 0.832715
O O14 0.201332 0.191624 0.698912
O O15 0.130577 0.498309 0.887699
O O16 0.000000 0.603015 0.842573
O O17 0.500000 0.306232 0.773811
O O18 0.331328 0.303989 0.687451
#
# Coordination Sequence:
#
# PCOD8176351 Si02
#       8
#     8   8   8   8   8   8   8   8
#     4   9  16  27  48  76 102 126 159 204 250 303
#     4   9  18  34  52  71 100 137 175 211 246 291
#     4   9  18  32  50  75 103 130 165 210 258 302
#     4   9  18  33  51  71  98 133 167 208 255 301
#     4   9  17  31  50  71  99 131 161 203 253 295
#     4   9  17  30  50  74  98 127 161 199 249 303
#     4   9  17  32  55  78 100 131 174 217 251 296
#     4   9  17  31  51  74 100 131 168 208 258 305
#
# _framework density 18.471737000000001
#
# number of rings (size 3 to 8) (size 9 to 14) (size 15 to 20)
#    0.000    3.000    0.000    0.750    0.000    3.000 
#    0.000   20.625    0.000   20.250    0.000    4.375 
#    0.000    0.000    0.000    0.000    0.000    0.000 
#
# Total GULP energy -396466.086819 kJ/mol
# GULP energy per Si atom -12389.565213 kJ/mol
# Density = 1.842969 g / cm^3
# Si number density = 18.471737 Si / 1000 Ang^3
#
#
#
# Elastic Constant Matrix: (Units=GPa)
#
#
# Indices 1 2 3 4 5 6 
#
# 1 50.9855 2.5691 6.0053 0.0000 0.0000 0.0000
# 2 2.5691 59.8808 25.9630 0.0000 0.0000 0.0000
# 3 6.0053 25.9630 94.9466 0.0000 0.0000 0.0000
# 4 0.0000 0.0000 0.0000 24.5697 0.0000 0.0000
# 5 0.0000 0.0000 0.0000 0.0000 20.9290 0.0000
# 6 0.0000 0.0000 0.0000 0.0000 0.0000 17.2786
#
#
#
# Elastic Compliance Matrix: (Units=1/GPa)
#
#
# Indices 1 2 3 4 5 6 
#
# 1 0.019767 -0.000347 -0.001155 0.000000 0.000000 0.000000
# 2 -0.000347 0.018952 -0.005160 0.000000 0.000000 0.000000
# 3 -0.001155 -0.005160 0.012016 0.000000 0.000000 0.000000
# 4 0.000000 0.000000 0.000000 0.040701 0.000000 0.000000
# 5 0.000000 0.000000 0.000000 0.000000 0.047781 0.000000
# 6 0.000000 0.000000 0.000000 0.000000 0.000000 0.057875
#
#
# Mechanical properties :
#
#
# Convention : Reuss Voigt Hill
#
# Bulk Modulus (GPa) = 26.73104 30.54309 28.63706
# Shear Modulus (GPa) = 22.43281 23.97382 23.20331
#
# Velocity S-wave (km/s) = 3.48866 3.60650 3.54807
# Velocity P-wave (km/s) = 5.54350 5.82352 5.68523
#
# Compressibility (1/GPa) = 0.03740970
#
# Stress axis : x y z
#
# Youngs Moduli (GPa) = 50.58944 52.76431 83.21934
#
# Poissons Ratio (x) = 0.01832 0.09615
# Poissons Ratio (y) = 0.01756 0.42945
# Poissons Ratio (z) = 0.05845 0.27229
#
# Static dielectric constant tensor:
#      x y z
#    x 3.299880 0.000000 0.000000 
#    y 0.000000 3.406060 0.000000 
#    z 0.000000 0.000000 3.504320 
# 
# 
# High freq. dielectric constant tensor:
#      x y z
#    x 1.694950 0.000000 0.000000 
#    y 0.000000 1.711900 0.000000 
#    z 0.000000 0.000000 1.708990 
# 
# From -- ./inp_files/12344.got.cif
#   From: 2010.03.12/outbox.cif.g09.slc.cpg/sg36_7_cif.got.tgz:12344.got - 2010.04.14 02:13:53.
