data_PCOD8176145
_publ_section_title
;
Structure prediction by ZEFSAII (Michael W. Deem and Ramdas Pophale) SiO2 
 PCOD8176145
Probable space group: C M C 21
;
_chemical_formula_sum "Si O2"
_cell_formula_units_Z 48
_cell_length_a 26.751550
_cell_length_b 9.109718
_cell_length_c 8.949030
_cell_angle_alpha 90.000000
_cell_angle_beta 90.000000
_cell_angle_gamma 90.000000
_cell_volume 2180.870347
_symmetry_space_group_name_H-M "C M C 21"
_symmetry_group_IT_number 36
_symmetry_cell_setting 'orthorhombic'
loop_
_space_group_symop_operation_xyz
x,y,z
-x,-y,1/2+z
x,-y,1/2+z
-x,y,z
1/2+x,1/2+y,z
1/2-x,1/2-y,1/2+z
1/2+x,1/2-y,1/2+z
1/2-x,1/2+y,z
loop_
_atom_site_type_symbol
_atom_site_label
_atom_site_fract_x
_atom_site_fract_y
_atom_site_fract_z
Si Si1 0.242031 0.999890 0.061630
Si Si2 0.818700 0.732969 0.469762
Si Si3 0.181301 0.267310 0.653519
Si Si4 0.413488 0.156524 0.988278
Si Si5 0.000000 0.158026 0.991076
Si Si6 0.586505 0.157097 0.634929
Si Si7 0.500000 0.658674 0.632170
O O1 0.206405 0.892970 0.156193
O O2 0.276673 0.106269 0.159805
O O3 0.276715 0.893552 0.963594
O O4 0.206459 0.106821 0.966878
O O5 0.848069 0.718362 0.311652
O O6 0.856743 0.711803 0.607032
O O7 0.143260 0.288824 0.516308
O O8 0.423793 0.152035 0.811596
O O9 0.450652 0.264518 0.071218
O O10 0.422115 0.999552 0.061238
O O11 0.000000 0.153897 0.811612
O O12 0.950661 0.234522 0.052522
O O13 0.000000 0.999457 0.061100
#
# Coordination Sequence:
#
# PCOD8176145 Si02
#       7
#     8   8   8   8   4   8   4
#     4  10  24  40  66  98 140 180 236 284 348 396
#     4  11  23  42  67  99 137 183 234 284 342 406
#     4  11  23  42  67  99 137 183 234 284 342 406
#     4  12  26  46  72 103 139 182 231 282 343 410
#     4  12  27  50  77 106 140 176 222 280 343 410
#     4  12  26  46  72 103 139 182 231 282 343 410
#     4  12  27  50  77 106 140 176 222 280 343 410
#
# _framework density 22.009561999999999
#
# number of rings (size 3 to 8) (size 9 to 14) (size 15 to 20)
#    0.000    0.667    1.667    6.000    2.333    6.667 
#    0.000    0.000    0.000    0.000    0.000    0.000 
#    0.000    0.000    0.000    0.000    0.000    0.000 
#
# Total GULP energy -297504.274961 kJ/mol
# GULP energy per Si atom -12396.011457 kJ/mol
# Density = 2.195947 g / cm^3
# Si number density = 22.009562 Si / 1000 Ang^3
#
#
#
# Elastic Constant Matrix: (Units=GPa)
#
#
# Indices 1 2 3 4 5 6 
#
# 1 92.8885 71.8069 49.5537 0.0000 0.0000 0.0000
# 2 71.8069 191.5973 62.3478 0.0000 0.0000 0.0000
# 3 49.5537 62.3478 199.9027 0.0000 0.0000 0.0000
# 4 0.0000 0.0000 0.0000 22.7582 0.0000 0.0000
# 5 0.0000 0.0000 0.0000 0.0000 27.9597 0.0000
# 6 0.0000 0.0000 0.0000 0.0000 0.0000 131.3588
#
#
#
# Elastic Compliance Matrix: (Units=1/GPa)
#
#
# Indices 1 2 3 4 5 6 
#
# 1 0.016088 -0.005266 -0.002346 0.000000 0.000000 0.000000
# 2 -0.005266 0.007533 -0.001044 0.000000 0.000000 0.000000
# 3 -0.002346 -0.001044 0.005909 0.000000 0.000000 0.000000
# 4 0.000000 0.000000 0.000000 0.043940 0.000000 0.000000
# 5 0.000000 0.000000 0.000000 0.000000 0.035766 0.000000
# 6 0.000000 0.000000 0.000000 0.000000 0.000000 0.007613
#
#
# Mechanical properties :
#
#
# Convention : Reuss Voigt Hill
#
# Bulk Modulus (GPa) = 81.84178 94.64503 88.24341
# Shear Modulus (GPa) = 36.17083 56.46067 46.31575
#
# Velocity S-wave (km/s) = 4.05830 5.07035 4.59229
# Velocity P-wave (km/s) = 7.69579 8.79620 8.26433
#
# Compressibility (1/GPa) = 0.01221870
#
# Stress axis : x y z
#
# Youngs Moduli (GPa) = 62.15868 132.75561 169.22016
#
# Poissons Ratio (x) = 0.69911 0.39691
# Poissons Ratio (y) = 0.32734 0.17666
# Poissons Ratio (z) = 0.14580 0.13859
#
# Static dielectric constant tensor:
#      x y z
#    x 4.098290 0.000000 0.000000 
#    y 0.000000 4.136620 0.000000 
#    z 0.000000 0.000000 4.291830 
# 
# 
# High freq. dielectric constant tensor:
#      x y z
#    x 1.867090 0.000000 0.000000 
#    y 0.000000 1.885500 0.000000 
#    z 0.000000 0.000000 1.873960 
# 
# From -- ./inp_files/6016.got.cif
#   From: 2010.03.12/outbox.cif.g09.slc.cpg/sg36_4_cif.got.tgz:6016.got - 2010.04.14 02:13:53.
