data_PCOD8176373
_publ_section_title
;
Structure prediction by ZEFSAII (Michael W. Deem and Ramdas Pophale) SiO2 
 PCOD8176373
Probable space group: C C C 2
;
_chemical_formula_sum "Si O2"
_cell_formula_units_Z 48
_cell_length_a 11.378783
_cell_length_b 16.033006
_cell_length_c 14.629736
_cell_angle_alpha 90.000000
_cell_angle_beta 90.000000
_cell_angle_gamma 90.000000
_cell_volume 2668.991923
_symmetry_space_group_name_H-M "C C C 2"
_symmetry_group_IT_number 37
_symmetry_cell_setting 'orthorhombic'
loop_
_space_group_symop_operation_xyz
x,y,z
-x,-y,z
-x,y,1/2+z
x,-y,1/2+z
1/2+x,1/2+y,z
1/2-x,1/2-y,z
1/2-x,1/2+y,1/2+z
1/2+x,1/2-y,1/2+z
loop_
_atom_site_type_symbol
_atom_site_label
_atom_site_fract_x
_atom_site_fract_y
_atom_site_fract_z
Si Si1 0.873109 0.978767 0.309760
Si Si2 0.250000 0.750000 0.441897
Si Si3 0.129804 0.206021 0.330655
Si Si4 0.242074 0.363404 0.777956
Si Si5 0.937361 0.745962 0.700459
Si Si6 0.515182 0.316200 0.515588
Si Si7 0.000000 0.000000 0.484548
O O1 0.839036 0.884022 0.287574
O O2 0.884725 0.993122 0.419367
O O3 0.767522 0.037981 0.274682
O O4 0.000000 0.000000 0.263138
O O5 0.210186 0.671383 0.378948
O O6 0.354096 0.719828 0.507673
O O7 0.250000 0.250000 0.358362
O O8 0.061783 0.258807 0.253001
O O9 0.049562 0.196009 0.419595
O O10 0.133487 0.341627 0.710480
O O11 0.362135 0.318588 0.747864
O O12 0.950563 0.763771 0.593555
O O13 0.514239 0.414994 0.543552
#
# Coordination Sequence:
#
# PCOD8176373 Si02
#       7
#     8   4   8   8   8   8   4
#     4   9  15  34  59  81 103 142 193 231 268 330
#     4  10  16  34  58  76 104 150 186 228 264 334
#     4  11  22  36  53  85 118 142 185 238 288 331
#     4  10  17  36  59  80 106 150 191 231 272 341
#     4  10  21  33  54  86 110 147 188 224 289 338
#     4  11  20  34  56  85 113 145 188 237 281 337
#     4   8  16  30  54  88 108 128 190 242 278 316
#
# _framework density 17.984317999999998
#
# number of rings (size 3 to 8) (size 9 to 14) (size 15 to 20)
#    0.500    1.667    6.667    0.000    3.500    1.333 
#    0.000    0.833    0.000    0.000    4.333    0.000 
#    0.000    0.000    0.000    0.000    0.000    0.000 
#
# Total GULP energy -297435.967841 kJ/mol
# GULP energy per Si atom -12393.165327 kJ/mol
# Density = 1.794338 g / cm^3
# Si number density = 17.984318 Si / 1000 Ang^3
#
#
#
# Elastic Constant Matrix: (Units=GPa)
#
#
# Indices 1 2 3 4 5 6 
#
# 1 86.4003 66.0677 22.4733 0.0000 0.0000 0.0000
# 2 66.0677 113.7273 25.2371 0.0000 0.0000 0.0000
# 3 22.4733 25.2371 61.5604 0.0000 0.0000 0.0000
# 4 0.0000 0.0000 0.0000 14.3434 0.0000 0.0000
# 5 0.0000 0.0000 0.0000 0.0000 17.4330 0.0000
# 6 0.0000 0.0000 0.0000 0.0000 0.0000 33.5532
#
#
#
# Elastic Compliance Matrix: (Units=1/GPa)
#
#
# Indices 1 2 3 4 5 6 
#
# 1 0.021309 -0.011719 -0.002975 0.000000 0.000000 0.000000
# 2 -0.011719 0.016118 -0.002329 0.000000 0.000000 0.000000
# 3 -0.002975 -0.002329 0.018285 0.000000 0.000000 0.000000
# 4 0.000000 0.000000 0.000000 0.069718 0.000000 0.000000
# 5 0.000000 0.000000 0.000000 0.000000 0.057362 0.000000
# 6 0.000000 0.000000 0.000000 0.000000 0.000000 0.029803
#
#
# Mechanical properties :
#
#
# Convention : Reuss Voigt Hill
#
# Bulk Modulus (GPa) = 46.15633 54.36047 50.25840
# Shear Modulus (GPa) = 19.69558 22.92659 21.31109
#
# Velocity S-wave (km/s) = 3.31290 3.57432 3.44609
# Velocity P-wave (km/s) = 6.35250 6.87943 6.62121
#
# Compressibility (1/GPa) = 0.02166550
#
# Stress axis : x y z
#
# Youngs Moduli (GPa) = 46.92886 62.04346 54.68906
#
# Poissons Ratio (x) = 0.72708 0.16269
# Poissons Ratio (y) = 0.54995 0.12740
# Poissons Ratio (z) = 0.13960 0.14453
#
# Static dielectric constant tensor:
#      x y z
#    x 3.184630 0.000000 0.000000 
#    y 0.000000 3.351720 0.000000 
#    z 0.000000 0.000000 3.043090 
# 
# 
# High freq. dielectric constant tensor:
#      x y z
#    x 1.675960 0.000000 0.000000 
#    y 0.000000 1.682390 0.000000 
#    z 0.000000 0.000000 1.675530 
# 
# From -- ./inp_files/11689.got.cif
#   From: 2010.03.12/outbox.cif.g09.slc.cpg/sg37_6_cif.got.tgz:11689.got - 2010.04.14 02:25:27.
