data_PCOD8176844
_publ_section_title
;
Structure prediction by ZEFSAII (Michael W. Deem and Ramdas Pophale) SiO2 
 PCOD8176844
Probable space group: C C C 2
;
_chemical_formula_sum "Si O2"
_cell_formula_units_Z 60
_cell_length_a 10.973442
_cell_length_b 26.849817
_cell_length_c 9.052835
_cell_angle_alpha 90.000000
_cell_angle_beta 90.000000
_cell_angle_gamma 90.000000
_cell_volume 2667.281221
_symmetry_space_group_name_H-M "C C C 2"
_symmetry_group_IT_number 37
_symmetry_cell_setting 'orthorhombic'
loop_
_space_group_symop_operation_xyz
x,y,z
-x,-y,z
-x,y,1/2+z
x,-y,1/2+z
1/2+x,1/2+y,z
1/2-x,1/2-y,z
1/2-x,1/2+y,1/2+z
1/2+x,1/2-y,1/2+z
loop_
_atom_site_type_symbol
_atom_site_label
_atom_site_fract_x
_atom_site_fract_y
_atom_site_fract_z
Si Si1 0.777374 0.066579 0.274990
Si Si2 0.620357 0.156627 0.202783
Si Si3 0.364164 0.674770 0.793476
Si Si4 0.401053 0.818664 0.893933
Si Si5 0.750000 0.250000 0.319201
Si Si6 0.967351 0.220446 0.505678
Si Si7 0.940209 0.067038 0.764830
Si Si8 0.832261 0.002178 0.021034
O O1 0.697201 0.115673 0.289980
O O2 0.745551 0.035522 0.126150
O O3 0.918861 0.082259 0.269425
O O4 0.748372 0.033089 0.418990
O O5 0.484838 0.156845 0.269352
O O6 0.679754 0.211303 0.215916
O O7 0.619539 0.142576 0.028764
O O8 0.226960 0.695131 0.816224
O O9 0.436945 0.710272 0.677653
O O10 0.359669 0.617056 0.745706
O O11 0.440487 0.677941 0.946312
O O12 0.466965 0.772942 0.977516
O O13 0.839645 0.218017 0.421432
O O14 0.918386 0.031560 0.625312
O O15 0.912303 0.037709 0.915371
#
# Coordination Sequence:
#
# PCOD8176844 Si02
#       8
#     8   8   8   8   4   8   8   8
#     4  11  21  39  68  96 138 176 230 288 355 423
#     4  11  26  45  69  97 134 186 235 282 357 415
#     4  12  28  42  71 104 140 184 238 285 346 428
#     4  11  27  47  69  97 145 184 236 292 348 415
#     4  10  24  42  68 100 138 174 232 284 336 410
#     4  11  26  44  69 101 139 184 231 283 347 410
#     4  11  22  38  65 100 139 173 228 285 360 414
#     4  10  22  39  63 103 141 179 222 299 364 421
#
# _framework density 22.494817000000001
#
# number of rings (size 3 to 8) (size 9 to 14) (size 15 to 20)
#    0.000    1.067    0.000    6.800   16.800    0.000 
#    0.000    0.000    0.000   13.600    0.000    0.000 
#    0.000    0.000    0.000    0.000    0.000    0.000 
#
# Total GULP energy -372033.202164 kJ/mol
# GULP energy per Si atom -12401.106739 kJ/mol
# Density = 2.244362 g / cm^3
# Si number density = 22.494817 Si / 1000 Ang^3
#
#
#
# Elastic Constant Matrix: (Units=GPa)
#
#
# Indices 1 2 3 4 5 6 
#
# 1 124.8634 37.0502 46.9414 0.0000 0.0000 0.0000
# 2 37.0502 85.2080 25.2595 0.0000 0.0000 0.0000
# 3 46.9414 25.2595 130.9839 0.0000 0.0000 0.0000
# 4 0.0000 0.0000 0.0000 -15.0656 0.0000 0.0000
# 5 0.0000 0.0000 0.0000 0.0000 30.1443 0.0000
# 6 0.0000 0.0000 0.0000 0.0000 0.0000 32.0237
#
#
#
# Elastic Compliance Matrix: (Units=1/GPa)
#
#
# Indices 1 2 3 4 5 6 
#
# 1 0.010175 -0.003546 -0.002963 0.000000 0.000000 0.000000
# 2 -0.003546 0.013683 -0.001368 0.000000 0.000000 0.000000
# 3 -0.002963 -0.001368 0.008960 0.000000 0.000000 0.000000
# 4 0.000000 0.000000 0.000000 -0.066376 0.000000 0.000000
# 5 0.000000 0.000000 0.000000 0.000000 0.033174 0.000000
# 6 0.000000 0.000000 0.000000 0.000000 0.000000 0.031227
#
#
# Mechanical properties :
#
#
# Convention : Reuss Voigt Hill
#
# Bulk Modulus (GPa) = 58.59891 62.17305 60.38598
# Shear Modulus (GPa) = 95.63232 24.87410 60.25321
#
# Velocity S-wave (km/s) = 6.52728 3.32892 5.18107
# Velocity P-wave (km/s) = 9.10569 6.51724 7.91796
#
# Compressibility (1/GPa) = 0.01706516
#
# Stress axis : x y z
#
# Youngs Moduli (GPa) = 98.28336 73.08143 111.60664
#
# Poissons Ratio (x) = 0.25914 0.33064
# Poissons Ratio (y) = 0.34851 0.15268
# Poissons Ratio (z) = 0.29117 0.09997
#
# Static dielectric constant tensor:
#      x y z
#    x 3.832250 0.000000 0.000000 
#    y 0.000000 4.000230 0.000000 
#    z 0.000000 0.000000 4.354250 
# 
# 
# High freq. dielectric constant tensor:
#      x y z
#    x 1.864660 0.000000 0.000000 
#    y 0.000000 1.878910 0.000000 
#    z 0.000000 0.000000 1.907050 
# 
# From -- ./inp_files/3068.got.cif
#   From: 2010.03.12/outbox.cif.g09.slc.cpg/sg37_2_cif.got.tgz:3068.got - 2010.04.14 02:25:27.
