data_PCOD8176288
_publ_section_title
;
Structure prediction by ZEFSAII (Michael W. Deem and Ramdas Pophale) SiO2 
 PCOD8176288
Probable space group: C M C 21
;
_chemical_formula_sum "Si O2"
_cell_formula_units_Z 48
_cell_length_a 17.400489
_cell_length_b 9.429193
_cell_length_c 13.853515
_cell_angle_alpha 90.000000
_cell_angle_beta 90.000000
_cell_angle_gamma 90.000000
_cell_volume 2272.981797
_symmetry_space_group_name_H-M "C M C 21"
_symmetry_group_IT_number 36
_symmetry_cell_setting 'orthorhombic'
loop_
_space_group_symop_operation_xyz
x,y,z
-x,-y,1/2+z
x,-y,1/2+z
-x,y,z
1/2+x,1/2+y,z
1/2-x,1/2-y,1/2+z
1/2+x,1/2-y,1/2+z
1/2-x,1/2+y,z
loop_
_atom_site_type_symbol
_atom_site_label
_atom_site_fract_x
_atom_site_fract_y
_atom_site_fract_z
Si Si1 0.088807 0.909053 0.317970
Si Si2 0.333983 0.640142 0.428680
Si Si3 0.668288 0.196141 0.643364
Si Si4 0.588607 0.115208 0.837017
Si Si5 0.324703 0.533605 0.636746
Si Si6 0.655683 0.847033 0.924689
O O1 0.109719 0.902284 0.205639
O O2 0.140214 0.808367 0.384225
O O3 0.000000 0.875652 0.333733
O O4 0.111891 0.066587 0.349840
O O5 0.357205 0.804281 0.415070
O O6 0.354829 0.580296 0.532792
O O7 0.244584 0.616171 0.406783
O O8 0.608539 0.151891 0.726010
O O9 0.685719 0.364181 0.644167
O O10 0.745647 0.109872 0.664621
O O11 0.635270 0.150446 0.538694
O O12 0.500000 0.153029 0.853353
O O13 0.602556 0.950954 0.861929
#
# Coordination Sequence:
#
# PCOD8176288 Si02
#       6
#     8   8   8   8   8   8
#     4  12  25  42  66 101 136 173 218 273 338 396
#     4  11  23  44  72  96 128 176 229 275 325 390
#     4  11  25  45  71  99 133 177 230 276 332 392
#     4  12  27  44  67 102 142 177 216 276 344 400
#     4  11  25  43  71 101 131 179 229 280 324 398
#     4  11  25  46  71  97 132 180 226 280 325 398
#
# _framework density 21.117635
#
# number of rings (size 3 to 8) (size 9 to 14) (size 15 to 20)
#    0.000    0.667    3.333    4.000    9.333    2.667 
#    0.000    0.000    0.000    0.000    0.000    0.000 
#    0.000    0.000    0.000    0.000    0.000    0.000 
#
# Total GULP energy -297679.458725 kJ/mol
# GULP energy per Si atom -12403.310780 kJ/mol
# Density = 2.106957 g / cm^3
# Si number density = 21.117635 Si / 1000 Ang^3
#
#
#
# Elastic Constant Matrix: (Units=GPa)
#
#
# Indices 1 2 3 4 5 6 
#
# 1 98.7484 30.4288 67.6008 0.0000 0.0000 0.0000
# 2 30.4288 79.3894 32.5034 0.0000 0.0000 0.0000
# 3 67.6008 32.5034 122.2757 0.0000 0.0000 0.0000
# 4 0.0000 0.0000 0.0000 41.2530 0.0000 0.0000
# 5 0.0000 0.0000 0.0000 0.0000 22.7541 0.0000
# 6 0.0000 0.0000 0.0000 0.0000 0.0000 29.3399
#
#
#
# Elastic Compliance Matrix: (Units=1/GPa)
#
#
# Indices 1 2 3 4 5 6 
#
# 1 0.016897 -0.002976 -0.008551 0.000000 0.000000 0.000000
# 2 -0.002976 0.014658 -0.002251 0.000000 0.000000 0.000000
# 3 -0.008551 -0.002251 0.013504 0.000000 0.000000 0.000000
# 4 0.000000 0.000000 0.000000 0.024241 0.000000 0.000000
# 5 0.000000 0.000000 0.000000 0.000000 0.043948 0.000000
# 6 0.000000 0.000000 0.000000 0.000000 0.000000 0.034083
#
#
# Mechanical properties :
#
#
# Convention : Reuss Voigt Hill
#
# Bulk Modulus (GPa) = 57.12942 62.38660 59.75801
# Shear Modulus (GPa) = 27.66676 29.99478 28.83077
#
# Velocity S-wave (km/s) = 3.62349 3.77286 3.69893
# Velocity P-wave (km/s) = 6.67967 6.97036 6.82656
#
# Compressibility (1/GPa) = 0.01750412
#
# Stress axis : x y z
#
# Youngs Moduli (GPa) = 59.18085 68.22015 74.05178
#
# Poissons Ratio (x) = 0.20300 0.63320
# Poissons Ratio (y) = 0.17610 0.16672
# Poissons Ratio (z) = 0.50604 0.15359
#
# Static dielectric constant tensor:
#      x y z
#    x 3.530890 0.000000 0.000000 
#    y 0.000000 3.865880 0.000000 
#    z 0.000000 0.000000 3.984370 
# 
# 
# High freq. dielectric constant tensor:
#      x y z
#    x 1.816420 0.000000 0.000000 
#    y 0.000000 1.843180 0.000000 
#    z 0.000000 0.000000 1.841520 
# 
# From -- ./inp_files/12502.got.cif
#   From: 2010.03.12/outbox.cif.g09.slc.cpg/sg36_7_cif.got.tgz:12502.got - 2010.04.14 02:13:53.
