data_PCOD8176878
_publ_section_title
;
Structure prediction by ZEFSAII (Michael W. Deem and Ramdas Pophale) SiO2 
 PCOD8176878
Probable space group: C C C 2
;
_chemical_formula_sum "Si O2"
_cell_formula_units_Z 48
_cell_length_a 16.784129
_cell_length_b 8.485777
_cell_length_c 15.454236
_cell_angle_alpha 90.000000
_cell_angle_beta 90.000000
_cell_angle_gamma 90.000000
_cell_volume 2201.090825
_symmetry_space_group_name_H-M "C C C 2"
_symmetry_group_IT_number 37
_symmetry_cell_setting 'orthorhombic'
loop_
_space_group_symop_operation_xyz
x,y,z
-x,-y,z
-x,y,1/2+z
x,-y,1/2+z
1/2+x,1/2+y,z
1/2-x,1/2-y,z
1/2-x,1/2+y,1/2+z
1/2+x,1/2-y,1/2+z
loop_
_atom_site_type_symbol
_atom_site_label
_atom_site_fract_x
_atom_site_fract_y
_atom_site_fract_z
Si Si1 0.902468 0.666627 0.973030
Si Si2 0.337432 0.195754 0.795735
Si Si3 0.163011 0.678886 0.808473
Si Si4 0.918060 0.317207 0.979363
Si Si5 0.338376 0.686935 0.637484
Si Si6 0.079177 0.888082 0.152127
O O1 0.853204 0.747552 0.894944
O O2 0.877348 0.487356 0.998329
O O3 0.993458 0.663257 0.943659
O O4 0.893878 0.773233 0.056825
O O5 0.250000 0.250000 0.765870
O O6 0.405438 0.268585 0.732440
O O7 0.342617 0.007805 0.800789
O O8 0.250000 0.750000 0.796996
O O9 0.128996 0.753947 0.896852
O O10 0.118349 0.740286 0.722359
O O11 0.918401 0.209180 0.063388
O O12 0.250000 0.750000 0.619290
O O13 0.342182 0.498489 0.648180
O O14 0.000000 0.000000 0.162266
#
# Coordination Sequence:
#
# PCOD8176878 Si02
#       6
#     8   8   8   8   8   8
#     4  10  22  42  67  96 134 178 225 279 343 407
#     4  11  24  44  68 100 135 178 232 286 347 411
#     4  10  23  43  69  99 133 181 229 286 349 409
#     4  10  23  42  65  97 133 177 228 278 342 408
#     4  11  23  42  66  96 134 176 220 277 344 405
#     4  12  26  44  67 106 137 182 231 286 345 412
#
# _framework density 21.807369000000001
#
# number of rings (size 3 to 8) (size 9 to 14) (size 15 to 20)
#    0.000    1.333    1.667    3.500    2.333    6.000 
#    0.000    0.000    0.000    0.000    0.000    0.000 
#    0.000    0.000    0.000    0.000    0.000    0.000 
#
# Total GULP energy -297390.785316 kJ/mol
# GULP energy per Si atom -12391.282721 kJ/mol
# Density = 2.175773 g / cm^3
# Si number density = 21.807369 Si / 1000 Ang^3
#
#
#
# Elastic Constant Matrix: (Units=GPa)
#
#
# Indices 1 2 3 4 5 6 
#
# 1 65.4414 33.1949 36.1522 0.0000 0.0000 0.0000
# 2 33.1949 105.9531 63.4389 0.0000 0.0000 0.0000
# 3 36.1522 63.4389 189.6284 0.0000 0.0000 0.0000
# 4 0.0000 0.0000 0.0000 5.7706 0.0000 0.0000
# 5 0.0000 0.0000 0.0000 0.0000 25.5786 0.0000
# 6 0.0000 0.0000 0.0000 0.0000 0.0000 33.6704
#
#
#
# Elastic Compliance Matrix: (Units=1/GPa)
#
#
# Indices 1 2 3 4 5 6 
#
# 1 0.018764 -0.004673 -0.002014 0.000000 0.000000 0.000000
# 2 -0.004673 0.012966 -0.003447 0.000000 0.000000 0.000000
# 3 -0.002014 -0.003447 0.006811 0.000000 0.000000 0.000000
# 4 0.000000 0.000000 0.000000 0.173292 0.000000 0.000000
# 5 0.000000 0.000000 0.000000 0.000000 0.039095 0.000000
# 6 0.000000 0.000000 0.000000 0.000000 0.000000 0.029700
#
#
# Mechanical properties :
#
#
# Convention : Reuss Voigt Hill
#
# Bulk Modulus (GPa) = 54.72564 69.62166 62.17365
# Shear Modulus (GPa) = 16.28746 28.21972 22.25359
#
# Velocity S-wave (km/s) = 2.73587 3.60119 3.19793
# Velocity P-wave (km/s) = 5.92701 7.02043 6.49677
#
# Compressibility (1/GPa) = 0.01827297
#
# Stress axis : x y z
#
# Youngs Moduli (GPa) = 53.29445 77.12569 146.83132
#
# Poissons Ratio (x) = 0.36039 0.29572
# Poissons Ratio (y) = 0.24903 0.50610
# Poissons Ratio (z) = 0.10734 0.26584
#
# Static dielectric constant tensor:
#      x y z
#    x 3.954260 0.000000 0.000000 
#    y 0.000000 4.057420 0.000000 
#    z 0.000000 0.000000 4.151180 
# 
# 
# High freq. dielectric constant tensor:
#      x y z
#    x 1.848210 0.000000 0.000000 
#    y 0.000000 1.859470 0.000000 
#    z 0.000000 0.000000 1.875640 
# 
# From -- ./inp_files/12539.got.cif
#   From: 2010.03.12/outbox.cif.g09.slc.cpg/sg37_7_cif.got.tgz:12539.got - 2010.04.14 02:25:27.
