data_PCOD8176073
_publ_section_title
;
Structure prediction by ZEFSAII (Michael W. Deem and Ramdas Pophale) SiO2 
 PCOD8176073
Probable space group: C M C 21
;
_chemical_formula_sum "Si O2"
_cell_formula_units_Z 40
_cell_length_a 11.459017
_cell_length_b 15.892396
_cell_length_c 8.747823
_cell_angle_alpha 90.000000
_cell_angle_beta 90.000000
_cell_angle_gamma 90.000000
_cell_volume 1593.076858
_symmetry_space_group_name_H-M "C M C 21"
_symmetry_group_IT_number 36
_symmetry_cell_setting 'orthorhombic'
loop_
_space_group_symop_operation_xyz
x,y,z
-x,-y,1/2+z
x,-y,1/2+z
-x,y,z
1/2+x,1/2+y,z
1/2-x,1/2-y,1/2+z
1/2+x,1/2-y,1/2+z
1/2-x,1/2+y,z
loop_
_atom_site_type_symbol
_atom_site_label
_atom_site_fract_x
_atom_site_fract_y
_atom_site_fract_z
Si Si1 0.500000 0.387971 0.012100
Si Si2 0.000000 0.067472 0.151209
Si Si3 0.360911 0.995485 0.788403
Si Si4 0.808558 0.769815 0.148291
Si Si5 0.745957 0.095228 0.032162
Si Si6 0.865113 0.678102 0.435194
O O1 0.500000 0.468152 0.122871
O O2 0.389623 0.332414 0.054612
O O3 0.500000 0.413333 0.832857
O O4 0.116311 0.105560 0.071137
O O5 0.500000 0.012420 0.797883
O O6 0.316799 0.985340 0.614878
O O7 0.316890 0.908408 0.866404
O O8 0.282309 0.072238 0.855681
O O9 0.827193 0.677200 0.077736
O O10 0.829357 0.760234 0.330106
O O11 0.679445 0.803221 0.106531
O O12 0.000000 0.670154 0.447381
#
# Coordination Sequence:
#
# PCOD8176073 Si02
#       6
#     4   4   8   8   8   8
#     4  12  26  48  74 104 144 192 236 310 358 442
#     4  12  26  46  72 106 146 190 244 288 376 448
#     4  10  22  42  69  98 139 180 234 289 359 428
#     4  11  24  44  72 100 145 181 241 297 366 417
#     4  11  24  42  71 104 142 188 237 299 355 440
#     4  10  22  43  65  98 137 185 228 296 357 426
#
# _framework density 25.108646
#
# number of rings (size 3 to 8) (size 9 to 14) (size 15 to 20)
#    0.000    1.200    1.000    5.400    4.200    4.800 
#    1.800    0.000    0.000    0.000    0.000    0.000 
#    0.000    0.000    0.000    0.000    0.000    0.000 
#
# Total GULP energy -247904.938157 kJ/mol
# GULP energy per Si atom -12395.246908 kJ/mol
# Density = 2.505150 g / cm^3
# Si number density = 25.108646 Si / 1000 Ang^3
#
#
#
# Elastic Constant Matrix: (Units=GPa)
#
#
# Indices 1 2 3 4 5 6 
#
# 1 77.1610 11.9856 28.8713 0.0000 0.0000 0.0000
# 2 11.9856 56.3299 10.9455 0.0000 0.0000 0.0000
# 3 28.8713 10.9455 84.6822 0.0000 0.0000 0.0000
# 4 0.0000 0.0000 0.0000 34.4221 0.0000 0.0000
# 5 0.0000 0.0000 0.0000 0.0000 31.6851 0.0000
# 6 0.0000 0.0000 0.0000 0.0000 0.0000 62.6292
#
#
#
# Elastic Compliance Matrix: (Units=1/GPa)
#
#
# Indices 1 2 3 4 5 6 
#
# 1 0.015134 -0.002275 -0.004866 0.000000 0.000000 0.000000
# 2 -0.002275 0.018552 -0.001622 0.000000 0.000000 0.000000
# 3 -0.004866 -0.001622 0.013677 0.000000 0.000000 0.000000
# 4 0.000000 0.000000 0.000000 0.029051 0.000000 0.000000
# 5 0.000000 0.000000 0.000000 0.000000 0.031561 0.000000
# 6 0.000000 0.000000 0.000000 0.000000 0.000000 0.015967
#
#
# Mechanical properties :
#
#
# Convention : Reuss Voigt Hill
#
# Bulk Modulus (GPa) = 33.51469 35.75310 34.63389
# Shear Modulus (GPa) = 33.02223 36.83864 34.93043
#
# Velocity S-wave (km/s) = 3.63047 3.83452 3.73389
# Velocity P-wave (km/s) = 5.56332 5.82022 5.69322
#
# Compressibility (1/GPa) = 0.02983767
#
# Stress axis : x y z
#
# Youngs Moduli (GPa) = 66.07707 53.90309 73.11306
#
# Poissons Ratio (x) = 0.12261 0.35575
# Poissons Ratio (y) = 0.15030 0.11862
# Poissons Ratio (z) = 0.32151 0.08745
#
# Static dielectric constant tensor:
#      x y z
#    x 4.451000 0.000000 0.000000 
#    y 0.000000 4.925430 0.000000 
#    z 0.000000 0.000000 4.715400 
# 
# 
# High freq. dielectric constant tensor:
#      x y z
#    x 1.998640 0.000000 0.000000 
#    y 0.000000 2.017200 0.000000 
#    z 0.000000 0.000000 2.003390 
# 
# From -- ./inp_files/3082.got.cif
#   From: 2010.03.12/outbox.cif.g09.slc.cpg/sg36_2_cif.got.tgz:3082.got - 2010.04.14 02:13:53.
