data_PCOD8176560
_publ_section_title
;
Structure prediction by ZEFSAII (Michael W. Deem and Ramdas Pophale) SiO2 
 PCOD8176560
Probable space group: C C C 2
;
_chemical_formula_sum "Si O2"
_cell_formula_units_Z 64
_cell_length_a 9.252006
_cell_length_b 13.252167
_cell_length_c 22.820322
_cell_angle_alpha 90.000000
_cell_angle_beta 90.000000
_cell_angle_gamma 90.000000
_cell_volume 2797.979795
_symmetry_space_group_name_H-M "C C C 2"
_symmetry_group_IT_number 37
_symmetry_cell_setting 'orthorhombic'
loop_
_space_group_symop_operation_xyz
x,y,z
-x,-y,z
-x,y,1/2+z
x,-y,1/2+z
1/2+x,1/2+y,z
1/2-x,1/2-y,z
1/2-x,1/2+y,1/2+z
1/2+x,1/2-y,1/2+z
loop_
_atom_site_type_symbol
_atom_site_label
_atom_site_fract_x
_atom_site_fract_y
_atom_site_fract_z
Si Si1 0.068289 0.392660 0.218500
Si Si2 0.523833 0.205627 0.103973
Si Si3 0.811404 0.905342 0.593012
Si Si4 0.688656 0.855213 0.792378
Si Si5 0.350714 0.028881 0.902843
Si Si6 0.604730 0.586657 0.462402
Si Si7 0.409478 0.218437 0.978604
Si Si8 0.338100 0.496415 0.710675
O O1 0.238571 0.410429 0.234068
O O2 0.000000 0.500000 0.200157
O O3 0.063419 0.319807 0.162564
O O4 0.982376 0.348555 0.274997
O O5 0.643474 0.122434 0.087743
O O6 0.596532 0.312243 0.117056
O O7 0.417418 0.210921 0.048596
O O8 0.867120 0.939385 0.530002
O O9 0.833304 0.995745 0.639578
O O10 0.750000 0.750000 0.811957
O O11 0.733120 0.922858 0.848123
O O12 0.769749 0.892300 0.733960
O O13 0.416326 0.107116 0.951224
O O14 0.500000 0.000000 0.871702
O O15 0.256987 0.934256 0.928653
O O16 0.500000 0.500000 0.437589
O O17 0.532940 0.699437 0.455427
O O18 0.250000 0.250000 0.959656
O O19 0.500000 0.500000 0.735244
#
# Coordination Sequence:
#
# PCOD8176560 Si02
#       8
#     8   8   8   8   8   8   8   8
#     4  10  20  37  65  96 132 178 229 275 339 423
#     4  10  20  35  63  91 135 175 222 271 345 410
#     4  10  20  37  60  96 134 178 212 283 344 409
#     4  11  24  47  71  94 132 183 230 291 343 418
#     4  12  26  45  75  97 136 184 237 287 357 419
#     4  11  24  42  67  98 142 176 231 288 351 418
#     4  11  24  43  65 105 137 181 233 289 354 430
#     4  11  23  39  65  98 136 169 230 276 346 404
#
# _framework density 22.873646000000001
#
# number of rings (size 3 to 8) (size 9 to 14) (size 15 to 20)
#    0.000    1.250    3.750    3.375    1.750    4.500 
#    0.000    1.875    2.750    0.000    0.000    0.000 
#    0.000    0.000    0.000    0.000    0.000    0.000 
#
# Total GULP energy -396481.307836 kJ/mol
# GULP energy per Si atom -12390.040870 kJ/mol
# Density = 2.282158 g / cm^3
# Si number density = 22.873646 Si / 1000 Ang^3
#
#
#
# Elastic Constant Matrix: (Units=GPa)
#
#
# Indices 1 2 3 4 5 6 
#
# 1 150.1774 34.9481 24.6185 0.0000 0.0000 0.0000
# 2 34.9481 70.5168 23.6169 0.0000 0.0000 0.0000
# 3 24.6185 23.6169 90.4890 0.0000 0.0000 0.0000
# 4 0.0000 0.0000 0.0000 35.5461 0.0000 0.0000
# 5 0.0000 0.0000 0.0000 0.0000 11.5124 0.0000
# 6 0.0000 0.0000 0.0000 0.0000 0.0000 28.0689
#
#
#
# Elastic Compliance Matrix: (Units=1/GPa)
#
#
# Indices 1 2 3 4 5 6 
#
# 1 0.007643 -0.003388 -0.001195 0.000000 0.000000 0.000000
# 2 -0.003388 0.017041 -0.003526 0.000000 0.000000 0.000000
# 3 -0.001195 -0.003526 0.012296 0.000000 0.000000 0.000000
# 4 0.000000 0.000000 0.000000 0.028132 0.000000 0.000000
# 5 0.000000 0.000000 0.000000 0.000000 0.086863 0.000000
# 6 0.000000 0.000000 0.000000 0.000000 0.000000 0.035627
#
#
# Mechanical properties :
#
#
# Convention : Reuss Voigt Hill
#
# Bulk Modulus (GPa) = 48.16287 53.06113 50.61200
# Shear Modulus (GPa) = 23.72582 30.22546 26.97564
#
# Velocity S-wave (km/s) = 3.22414 3.63906 3.43787
# Velocity P-wave (km/s) = 5.91286 6.39569 6.15901
#
# Compressibility (1/GPa) = 0.02076288
#
# Stress axis : x y z
#
# Youngs Moduli (GPa) = 130.83760 58.68280 81.32418
#
# Poissons Ratio (x) = 0.19879 0.09720
# Poissons Ratio (y) = 0.44322 0.28674
# Poissons Ratio (z) = 0.15638 0.20691
#
# Static dielectric constant tensor:
#      x y z
#    x 4.445090 0.000000 0.000000 
#    y 0.000000 4.115730 0.000000 
#    z 0.000000 0.000000 3.855900 
# 
# 
# High freq. dielectric constant tensor:
#      x y z
#    x 1.907760 0.000000 0.000000 
#    y 0.000000 1.884360 0.000000 
#    z 0.000000 0.000000 1.895230 
# 
# From -- ./inp_files/18518.got.cif
#   From: 2010.03.12/outbox.cif.g09.slc.cpg/sg37_10_cif.got.tgz:18518.got - 2010.04.14 02:25:27.
