data_PCOD8176395
_publ_section_title
;
Structure prediction by ZEFSAII (Michael W. Deem and Ramdas Pophale) SiO2 
 PCOD8176395
Probable space group: C C C 2
;
_chemical_formula_sum "Si O2"
_cell_formula_units_Z 64
_cell_length_a 16.074436
_cell_length_b 8.817426
_cell_length_c 23.981967
_cell_angle_alpha 90.000000
_cell_angle_beta 90.000000
_cell_angle_gamma 90.000000
_cell_volume 3399.087688
_symmetry_space_group_name_H-M "C C C 2"
_symmetry_group_IT_number 37
_symmetry_cell_setting 'orthorhombic'
loop_
_space_group_symop_operation_xyz
x,y,z
-x,-y,z
-x,y,1/2+z
x,-y,1/2+z
1/2+x,1/2+y,z
1/2-x,1/2-y,z
1/2-x,1/2+y,1/2+z
1/2+x,1/2-y,1/2+z
loop_
_atom_site_type_symbol
_atom_site_label
_atom_site_fract_x
_atom_site_fract_y
_atom_site_fract_z
Si Si1 0.579624 0.894339 0.532880
Si Si2 0.655530 0.303029 0.812270
Si Si3 0.991830 0.178164 0.734486
Si Si4 0.661105 0.190749 0.550472
Si Si5 0.160423 0.706220 0.423329
Si Si6 0.416648 0.905592 0.908072
Si Si7 0.503743 0.319442 0.610952
Si Si8 0.580856 0.602093 0.834178
O O1 0.579855 0.829609 0.469692
O O2 0.571528 0.751242 0.574307
O O3 0.500000 0.000000 0.540200
O O4 0.657080 0.004992 0.549437
O O5 0.750000 0.250000 0.802836
O O6 0.599880 0.272556 0.756911
O O7 0.608653 0.219439 0.863233
O O8 0.657114 0.484607 0.824305
O O9 0.007474 0.249157 0.673634
O O10 0.063453 0.215184 0.781004
O O11 0.000000 0.000000 0.725571
O O12 0.750000 0.250000 0.572143
O O13 0.645408 0.249536 0.487544
O O14 0.593377 0.265870 0.590084
O O15 0.250000 0.750000 0.400763
O O16 0.156659 0.528051 0.411854
O O17 0.091254 0.796178 0.388517
O O18 0.500000 0.000000 0.893075
O O19 0.500000 0.500000 0.607663
O O20 0.500000 0.500000 0.843569
#
# Coordination Sequence:
#
# PCOD8176395 Si02
#       8
#     8   8   8   8   8   8   8   8
#     4   8  17  33  51  72 102 133 165 207 250 300
#     4  10  19  31  50  77 102 127 162 205 247 289
#     4   8  18  34  50  68  97 131 163 203 250 290
#     4   9  19  34  52  75 105 135 161 198 259 312
#     4  10  19  32  50  74 104 134 159 193 247 307
#     4  10  18  31  49  73 103 131 161 201 245 295
#     4  10  19  34  55  73  93 131 178 216 249 293
#     4   9  18  33  51  70  99 132 164 201 242 292
#
# _framework density 18.828582999999998
#
# number of rings (size 3 to 8) (size 9 to 14) (size 15 to 20)
#    0.000    3.000    0.000    3.000    0.000    2.000 
#    0.000    6.875    0.000    6.000    0.000    1.750 
#    0.000    0.000    0.000    0.000    0.000    0.000 
#
# Total GULP energy -396428.545842 kJ/mol
# GULP energy per Si atom -12388.392058 kJ/mol
# Density = 1.878573 g / cm^3
# Si number density = 18.828583 Si / 1000 Ang^3
#
#
#
# Elastic Constant Matrix: (Units=GPa)
#
#
# Indices 1 2 3 4 5 6 
#
# 1 89.8915 31.5162 49.1491 0.0000 0.0000 0.0000
# 2 31.5162 62.3600 50.8345 0.0000 0.0000 0.0000
# 3 49.1491 50.8345 138.4186 0.0000 0.0000 0.0000
# 4 0.0000 0.0000 0.0000 14.7361 0.0000 0.0000
# 5 0.0000 0.0000 0.0000 0.0000 7.7606 0.0000
# 6 0.0000 0.0000 0.0000 0.0000 0.0000 29.4481
#
#
#
# Elastic Compliance Matrix: (Units=1/GPa)
#
#
# Indices 1 2 3 4 5 6 
#
# 1 0.014644 -0.004513 -0.003542 0.000000 0.000000 0.000000
# 2 -0.004513 0.024279 -0.007314 0.000000 0.000000 0.000000
# 3 -0.003542 -0.007314 0.011168 0.000000 0.000000 0.000000
# 4 0.000000 0.000000 0.000000 0.067861 0.000000 0.000000
# 5 0.000000 0.000000 0.000000 0.000000 0.128856 0.000000
# 6 0.000000 0.000000 0.000000 0.000000 0.000000 0.033958
#
#
# Mechanical properties :
#
#
# Convention : Reuss Voigt Hill
#
# Bulk Modulus (GPa) = 51.67375 61.51886 56.59630
# Shear Modulus (GPa) = 15.72549 21.00030 18.36290
#
# Velocity S-wave (km/s) = 2.89310 3.34330 3.12631
# Velocity P-wave (km/s) = 6.21804 6.90272 6.56930
#
# Compressibility (1/GPa) = 0.01935219
#
# Stress axis : x y z
#
# Youngs Moduli (GPa) = 68.28945 41.18767 89.53984
#
# Poissons Ratio (x) = 0.18589 0.31715
# Poissons Ratio (y) = 0.30821 0.65489
# Poissons Ratio (z) = 0.24188 0.30125
#
# Static dielectric constant tensor:
#      x y z
#    x 3.502300 0.000000 0.000000 
#    y 0.000000 3.548790 0.000000 
#    z 0.000000 0.000000 3.901910 
# 
# 
# High freq. dielectric constant tensor:
#      x y z
#    x 1.715770 0.000000 0.000000 
#    y 0.000000 1.716230 0.000000 
#    z 0.000000 0.000000 1.732700 
# 
# From -- ./inp_files/18995.got.cif
#   From: 2010.03.12/outbox.cif.g09.slc.cpg/sg37_10_cif.got.tgz:18995.got - 2010.04.14 02:25:27.
