data_PCOD8176654
_publ_section_title
;
Structure prediction by ZEFSAII (Michael W. Deem and Ramdas Pophale) SiO2 
 PCOD8176654
Probable space group: C C C 2
;
_chemical_formula_sum "Si O2"
_cell_formula_units_Z 56
_cell_length_a 11.696101
_cell_length_b 11.377287
_cell_length_c 19.432411
_cell_angle_alpha 90.000000
_cell_angle_beta 90.000000
_cell_angle_gamma 90.000000
_cell_volume 2585.868947
_symmetry_space_group_name_H-M "C C C 2"
_symmetry_group_IT_number 37
_symmetry_cell_setting 'orthorhombic'
loop_
_space_group_symop_operation_xyz
x,y,z
-x,-y,z
-x,y,1/2+z
x,-y,1/2+z
1/2+x,1/2+y,z
1/2-x,1/2-y,z
1/2-x,1/2+y,1/2+z
1/2+x,1/2-y,1/2+z
loop_
_atom_site_type_symbol
_atom_site_label
_atom_site_fract_x
_atom_site_fract_y
_atom_site_fract_z
Si Si1 0.277700 0.991310 0.945120
Si Si2 0.000000 0.500000 0.514908
Si Si3 0.264605 0.071836 0.291921
Si Si4 0.557155 0.767844 0.078189
Si Si5 0.250000 0.250000 0.978388
Si Si6 0.389912 0.420928 0.566859
Si Si7 0.074843 0.240199 0.235228
Si Si8 0.173436 0.859002 0.212815
O O1 0.250449 0.928402 0.874018
O O2 0.196499 0.947117 0.005946
O O3 0.403398 0.947334 0.965572
O O4 0.278081 0.133836 0.933823
O O5 0.943947 0.405905 0.565367
O O6 0.156078 0.142519 0.265994
O O7 0.386023 0.133542 0.269265
O O8 0.247791 0.938635 0.265120
O O9 0.646068 0.707389 0.026468
O O10 0.431515 0.714798 0.063799
O O11 0.600150 0.746750 0.154744
O O12 0.500000 0.500000 0.557091
O O13 0.342593 0.439297 0.644373
O O14 0.943983 0.194879 0.246669
O O15 0.250000 0.750000 0.190735
#
# Coordination Sequence:
#
# PCOD8176654 Si02
#       8
#     8   4   8   8   4   8   8   8
#     4  11  26  43  70 102 140 185 226 288 358 429
#     4  10  26  42  66 106 138 174 216 296 350 426
#     4  11  25  46  70  98 141 191 236 286 363 435
#     4  10  21  40  70  98 134 173 228 287 344 402
#     4  10  20  42  64  98 130 176 226 278 348 412
#     4  11  23  42  68 102 131 180 235 292 338 413
#     4  10  24  44  69 100 135 185 236 294 349 424
#     4  11  26  43  69 104 139 181 240 301 352 426
#
# _framework density 21.656162999999999
#
# number of rings (size 3 to 8) (size 9 to 14) (size 15 to 20)
#    0.000    1.429    1.429    3.000    9.000    5.143 
#    2.571    0.000    0.000    0.000    0.000    0.000 
#    0.000    0.000    0.000    0.000    0.000    0.000 
#
# Total GULP energy -347029.655655 kJ/mol
# GULP energy per Si atom -12393.916273 kJ/mol
# Density = 2.160687 g / cm^3
# Si number density = 21.656163 Si / 1000 Ang^3
#
#
#
# Elastic Constant Matrix: (Units=GPa)
#
#
# Indices 1 2 3 4 5 6 
#
# 1 109.1205 38.1252 62.9454 0.0000 0.0000 0.0000
# 2 38.1252 74.5773 50.0515 0.0000 0.0000 0.0000
# 3 62.9454 50.0515 143.6797 0.0000 0.0000 0.0000
# 4 0.0000 0.0000 0.0000 24.2928 0.0000 0.0000
# 5 0.0000 0.0000 0.0000 0.0000 23.5596 0.0000
# 6 0.0000 0.0000 0.0000 0.0000 0.0000 38.1987
#
#
#
# Elastic Compliance Matrix: (Units=1/GPa)
#
#
# Indices 1 2 3 4 5 6 
#
# 1 0.012995 -0.003684 -0.004410 0.000000 0.000000 0.000000
# 2 -0.003684 0.018545 -0.004846 0.000000 0.000000 0.000000
# 3 -0.004410 -0.004846 0.010580 0.000000 0.000000 0.000000
# 4 0.000000 0.000000 0.000000 0.041165 0.000000 0.000000
# 5 0.000000 0.000000 0.000000 0.000000 0.042446 0.000000
# 6 0.000000 0.000000 0.000000 0.000000 0.000000 0.026179
#
#
# Mechanical properties :
#
#
# Convention : Reuss Voigt Hill
#
# Bulk Modulus (GPa) = 61.57607 69.95797 65.76702
# Shear Modulus (GPa) = 27.29236 28.96058 28.12647
#
# Velocity S-wave (km/s) = 3.55386 3.66087 3.60776
# Velocity P-wave (km/s) = 6.73314 7.08825 6.91298
#
# Compressibility (1/GPa) = 0.01624007
#
# Stress axis : x y z
#
# Youngs Moduli (GPa) = 76.95282 53.92411 94.51726
#
# Poissons Ratio (x) = 0.19864 0.41680
# Poissons Ratio (y) = 0.28347 0.45806
# Poissons Ratio (z) = 0.33935 0.26133
#
# Static dielectric constant tensor:
#      x y z
#    x 4.229340 0.000000 0.000000 
#    y 0.000000 4.290300 0.000000 
#    z 0.000000 0.000000 3.773340 
# 
# 
# High freq. dielectric constant tensor:
#      x y z
#    x 1.855090 0.000000 0.000000 
#    y 0.000000 1.860710 0.000000 
#    z 0.000000 0.000000 1.840350 
# 
# From -- ./inp_files/16915.got.cif
#   From: 2010.03.12/outbox.cif.g09.slc.cpg/sg37_9_cif.got.tgz:16915.got - 2010.04.14 02:25:27.
