data_PCOD8176293
_publ_section_title
;
Structure prediction by ZEFSAII (Michael W. Deem and Ramdas Pophale) SiO2 
 PCOD8176293
Probable space group: C M C 21
;
_chemical_formula_sum "Si O2"
_cell_formula_units_Z 64
_cell_length_a 22.420561
_cell_length_b 8.834919
_cell_length_c 14.815489
_cell_angle_alpha 90.000000
_cell_angle_beta 90.000000
_cell_angle_gamma 90.000000
_cell_volume 2934.708958
_symmetry_space_group_name_H-M "C M C 21"
_symmetry_group_IT_number 36
_symmetry_cell_setting 'orthorhombic'
loop_
_space_group_symop_operation_xyz
x,y,z
-x,-y,1/2+z
x,-y,1/2+z
-x,y,z
1/2+x,1/2+y,z
1/2-x,1/2-y,1/2+z
1/2+x,1/2-y,1/2+z
1/2-x,1/2+y,z
loop_
_atom_site_type_symbol
_atom_site_label
_atom_site_fract_x
_atom_site_fract_y
_atom_site_fract_z
Si Si1 0.775349 0.603071 0.183190
Si Si2 0.385625 0.710833 0.970334
Si Si3 0.615982 0.715586 0.766825
Si Si4 0.267802 0.163143 0.556218
Si Si5 0.353232 0.629899 0.471080
Si Si6 0.849832 0.868108 0.768487
Si Si7 0.066746 0.668449 0.639838
Si Si8 0.566261 0.171097 0.100728
O O1 0.831157 0.673211 0.235090
O O2 0.762355 0.682225 0.088241
O O3 0.784256 0.430429 0.148154
O O4 0.719958 0.628463 0.249112
O O5 0.402559 0.759020 0.868517
O O6 0.384760 0.530859 0.979083
O O7 0.325118 0.799225 0.996410
O O8 0.436628 0.760082 0.039830
O O9 0.630699 0.540378 0.758647
O O10 0.562338 0.741422 0.696522
O O11 0.215618 0.092367 0.494635
O O12 0.358958 0.694002 0.369606
O O13 0.385767 0.751499 0.535033
O O14 0.886766 0.760358 0.701425
O O15 0.088880 0.497058 0.625139
O O16 0.000000 0.674343 0.682003
O O17 0.500000 0.170959 0.057071
#
# Coordination Sequence:
#
# PCOD8176293 Si02
#       8
#     8   8   8   8   8   8   8   8
#     4  12  21  39  65  93 133 173 210 253 311 375
#     4  11  24  41  64  97 130 168 215 263 318 381
#     4  11  24  41  64  97 130 168 215 263 318 381
#     4  12  21  39  65  93 133 173 210 253 311 375
#     4  11  24  42  65  95 130 169 213 261 318 386
#     4  11  24  42  65  95 130 169 213 261 318 386
#     4  11  25  45  66  90 123 166 215 271 329 384
#     4  11  25  45  66  90 123 166 215 271 329 384
#
# _framework density 21.807953999999999
#
# number of rings (size 3 to 8) (size 9 to 14) (size 15 to 20)
#    0.000    0.750    5.000    2.250    0.000    4.000 
#    0.000    5.000    0.000    0.000    0.000    0.000 
#    0.000    0.000    0.000    0.000    0.000    0.000 
#
# Total GULP energy -396617.983775 kJ/mol
# GULP energy per Si atom -12394.311993 kJ/mol
# Density = 2.175832 g / cm^3
# Si number density = 21.807954 Si / 1000 Ang^3
#
#
#
# Elastic Constant Matrix: (Units=GPa)
#
#
# Indices 1 2 3 4 5 6 
#
# 1 78.0808 29.6940 28.2423 0.0000 0.0000 0.0000
# 2 29.6940 87.4222 51.2036 0.0000 0.0000 0.0000
# 3 28.2423 51.2036 142.5348 0.0000 0.0000 0.0000
# 4 0.0000 0.0000 0.0000 25.8344 0.0000 0.0000
# 5 0.0000 0.0000 0.0000 0.0000 17.7281 0.0000
# 6 0.0000 0.0000 0.0000 0.0000 0.0000 25.6832
#
#
#
# Elastic Compliance Matrix: (Units=1/GPa)
#
#
# Indices 1 2 3 4 5 6 
#
# 1 0.014937 -0.004230 -0.001440 0.000000 0.000000 0.000000
# 2 -0.004230 0.015685 -0.004796 0.000000 0.000000 0.000000
# 3 -0.001440 -0.004796 0.009024 0.000000 0.000000 0.000000
# 4 0.000000 0.000000 0.000000 0.038708 0.000000 0.000000
# 5 0.000000 0.000000 0.000000 0.000000 0.056408 0.000000
# 6 0.000000 0.000000 0.000000 0.000000 0.000000 0.038936
#
#
# Mechanical properties :
#
#
# Convention : Reuss Voigt Hill
#
# Bulk Modulus (GPa) = 53.43917 58.47972 55.95945
# Shear Modulus (GPa) = 24.89197 27.10900 26.00048
#
# Velocity S-wave (km/s) = 3.38215 3.52956 3.45664
# Velocity P-wave (km/s) = 6.30948 6.59427 6.45345
#
# Compressibility (1/GPa) = 0.01871286
#
# Stress axis : x y z
#
# Youngs Moduli (GPa) = 66.94884 63.75608 110.81316
#
# Poissons Ratio (x) = 0.26969 0.15958
# Poissons Ratio (y) = 0.28319 0.53150
# Poissons Ratio (z) = 0.09641 0.30580
#
# Static dielectric constant tensor:
#      x y z
#    x 3.824900 0.000000 0.000000 
#    y 0.000000 4.124180 0.000000 
#    z 0.000000 0.000000 4.186900 
# 
# 
# High freq. dielectric constant tensor:
#      x y z
#    x 1.853350 0.000000 0.000000 
#    y 0.000000 1.870060 0.000000 
#    z 0.000000 0.000000 1.856270 
# 
# From -- ./inp_files/12997.got.cif
#   From: 2010.03.12/outbox.cif.g09.slc.cpg/sg36_7_cif.got.tgz:12997.got - 2010.04.14 02:13:53.
