data_PCOD8176109
_publ_section_title
;
Structure prediction by ZEFSAII (Michael W. Deem and Ramdas Pophale) SiO2 
 PCOD8176109
Probable space group: C M C 21
;
_chemical_formula_sum "Si O2"
_cell_formula_units_Z 56
_cell_length_a 20.482757
_cell_length_b 24.151941
_cell_length_c 5.247650
_cell_angle_alpha 90.000000
_cell_angle_beta 90.000000
_cell_angle_gamma 90.000000
_cell_volume 2596.003736
_symmetry_space_group_name_H-M "C M C 21"
_symmetry_group_IT_number 36
_symmetry_cell_setting 'orthorhombic'
loop_
_space_group_symop_operation_xyz
x,y,z
-x,-y,1/2+z
x,-y,1/2+z
-x,y,z
1/2+x,1/2+y,z
1/2-x,1/2-y,1/2+z
1/2+x,1/2-y,1/2+z
1/2-x,1/2+y,z
loop_
_atom_site_type_symbol
_atom_site_label
_atom_site_fract_x
_atom_site_fract_y
_atom_site_fract_z
Si Si1 0.395670 0.700321 0.024840
Si Si2 0.352469 0.862956 0.496667
Si Si3 0.076630 0.669399 0.505484
Si Si4 0.245817 0.219488 0.074380
Si Si5 0.645026 0.525688 0.518436
Si Si6 0.206666 0.521729 0.015508
Si Si7 0.428342 0.636241 0.519711
O O1 0.319863 0.683968 0.056287
O O2 0.431352 0.672021 0.262038
O O3 0.405724 0.766082 0.032188
O O4 0.420468 0.677656 0.756094
O O5 0.393140 0.859055 0.755946
O O6 0.308243 0.809714 0.455758
O O7 0.298909 0.912285 0.508410
O O8 0.399462 0.865185 0.252110
O O9 0.000000 0.662377 0.484564
O O10 0.261178 0.230045 0.372850
O O11 0.610968 0.499781 0.268955
O O12 0.721139 0.507001 0.520124
O O13 0.630661 0.591438 0.517173
O O14 0.169208 0.501310 0.267850
O O15 0.500000 0.607574 0.543541
#
# Coordination Sequence:
#
# PCOD8176109 Si02
#       7
#     8   8   8   8   8   8   8
#     4  12  25  43  67 102 139 180 221 270 324 388
#     4  12  24  43  69 100 131 177 220 272 339 395
#     4  12  25  45  69  99 140 179 219 260 324 415
#     4  12  23  42  64 101 137 170 220 278 333 388
#     4  10  23  42  62  93 124 174 227 279 330 367
#     4  10  23  41  65  96 127 161 221 280 335 390
#     4  12  26  42  66  97 139 187 228 265 317 393
#
# _framework density 21.571617
#
# number of rings (size 3 to 8) (size 9 to 14) (size 15 to 20)
#    0.000    0.571    2.857    5.143    8.000    0.571 
#    0.000    0.000    0.000    8.571    0.000    0.000 
#    0.000    0.000    0.000    0.000    0.000    0.000 
#
# Total GULP energy -346953.078473 kJ/mol
# GULP energy per Si atom -12391.181374 kJ/mol
# Density = 2.152252 g / cm^3
# Si number density = 21.571617 Si / 1000 Ang^3
#
#
#
# Elastic Constant Matrix: (Units=GPa)
#
#
# Indices 1 2 3 4 5 6 
#
# 1 122.4006 34.3600 27.5961 0.0000 0.0000 0.0000
# 2 34.3600 98.5521 46.8024 0.0000 0.0000 0.0000
# 3 27.5961 46.8024 194.3223 0.0000 0.0000 0.0000
# 4 0.0000 0.0000 0.0000 27.9368 0.0000 0.0000
# 5 0.0000 0.0000 0.0000 0.0000 23.2216 0.0000
# 6 0.0000 0.0000 0.0000 0.0000 0.0000 6991.8550
#
#
#
# Elastic Compliance Matrix: (Units=1/GPa)
#
#
# Indices 1 2 3 4 5 6 
#
# 1 0.009117 -0.002895 -0.000598 0.000000 0.000000 0.000000
# 2 -0.002895 0.012377 -0.002570 0.000000 0.000000 0.000000
# 3 -0.000598 -0.002570 0.005850 0.000000 0.000000 0.000000
# 4 0.000000 0.000000 0.000000 0.035795 0.000000 0.000000
# 5 0.000000 0.000000 0.000000 0.000000 0.043063 0.000000
# 6 0.000000 0.000000 0.000000 0.000000 0.000000 0.000143
#
#
# Mechanical properties :
#
#
# Convention : Reuss Voigt Hill
#
# Bulk Modulus (GPa) = 65.70621 70.31023 68.00822
# Shear Modulus (GPa) = 40.47176 1429.03710 734.75443
#
# Velocity S-wave (km/s) = 4.33616 25.76626 18.47569
# Velocity P-wave (km/s) = 7.45624 30.29628 22.06196
#
# Compressibility (1/GPa) = 0.01521926
#
# Stress axis : x y z
#
# Youngs Moduli (GPa) = 109.68190 80.79743 170.94383
#
# Poissons Ratio (x) = 0.23391 0.10214
# Poissons Ratio (y) = 0.31753 0.43929
# Poissons Ratio (z) = 0.06554 0.20763
#
# Static dielectric constant tensor:
#      x y z
#    x 3.833680 0.000000 0.000000 
#    y 0.000000 3.677950 0.000000 
#    z 0.000000 0.000000 5.054370 
# 
# 
# High freq. dielectric constant tensor:
#      x y z
#    x 1.833420 0.000000 0.000000 
#    y 0.000000 1.825740 0.000000 
#    z 0.000000 0.000000 1.884830 
# 
# From -- ./inp_files/1419.got.cif
#   From: 2010.03.12/outbox.cif.g09.slc.cpg/sg36_1_cif.got.tgz:1419.got - 2010.04.14 02:13:53.
