data_PCOD8176409
_publ_section_title
;
Structure prediction by ZEFSAII (Michael W. Deem and Ramdas Pophale) SiO2 
 PCOD8176409
Probable space group: C C C 2
;
_chemical_formula_sum "Si O2"
_cell_formula_units_Z 40
_cell_length_a 8.899002
_cell_length_b 16.386103
_cell_length_c 13.858385
_cell_angle_alpha 90.000000
_cell_angle_beta 90.000000
_cell_angle_gamma 90.000000
_cell_volume 2020.829193
_symmetry_space_group_name_H-M "C C C 2"
_symmetry_group_IT_number 37
_symmetry_cell_setting 'orthorhombic'
loop_
_space_group_symop_operation_xyz
x,y,z
-x,-y,z
-x,y,1/2+z
x,-y,1/2+z
1/2+x,1/2+y,z
1/2-x,1/2-y,z
1/2-x,1/2+y,1/2+z
1/2+x,1/2-y,1/2+z
loop_
_atom_site_type_symbol
_atom_site_label
_atom_site_fract_x
_atom_site_fract_y
_atom_site_fract_z
Si Si1 0.637546 0.446079 0.563500
Si Si2 0.629492 0.055298 0.152365
Si Si3 0.066946 0.364318 0.996828
Si Si4 0.614590 0.196728 0.297082
Si Si5 0.590771 0.724194 0.148640
O O1 0.500000 0.500000 0.515235
O O2 0.717705 0.505310 0.640215
O O3 0.770019 0.411009 0.493977
O O4 0.567722 0.369760 0.620235
O O5 0.562870 0.082078 0.047231
O O6 0.670873 0.129097 0.221913
O O7 0.500000 0.000000 0.202427
O O8 0.068709 0.279482 0.054154
O O9 0.025240 0.344677 0.886046
O O10 0.750000 0.250000 0.341222
O O11 0.517762 0.260584 0.237482
O O12 0.750000 0.750000 0.192536
#
# Coordination Sequence:
#
# PCOD8176409 Si02
#       5
#     8   8   8   8   8
#     4  10  18  34  56  80 107 137 176 228 270 302
#     4   9  20  36  55  78 109 144 177 216 269 325
#     4   9  20  38  55  74 107 148 179 209 264 331
#     4  11  20  35  57  80 106 142 182 219 263 319
#     4   9  19  37  56  76 107 143 178 218 265 319
#
# _framework density 19.793856999999999
#
# number of rings (size 3 to 8) (size 9 to 14) (size 15 to 20)
#    0.000    2.400    0.000    4.200    0.000    2.400 
#    0.000   13.000    0.000    0.000    0.000    0.000 
#    0.000    0.000    0.000    0.000    0.000    0.000 
#
# Total GULP energy -247781.174607 kJ/mol
# GULP energy per Si atom -12389.058730 kJ/mol
# Density = 1.974880 g / cm^3
# Si number density = 19.793857 Si / 1000 Ang^3
#
#
#
# Elastic Constant Matrix: (Units=GPa)
#
#
# Indices 1 2 3 4 5 6 
#
# 1 44.5659 35.6482 11.9768 0.0000 0.0000 0.0000
# 2 35.6482 124.8291 36.0227 0.0000 0.0000 0.0000
# 3 11.9768 36.0227 98.4774 0.0000 0.0000 0.0000
# 4 0.0000 0.0000 0.0000 -3.7266 0.0000 0.0000
# 5 0.0000 0.0000 0.0000 0.0000 -10.6117 0.0000
# 6 0.0000 0.0000 0.0000 0.0000 0.0000 30.7230
#
#
#
# Elastic Compliance Matrix: (Units=1/GPa)
#
#
# Indices 1 2 3 4 5 6 
#
# 1 0.029109 -0.008152 -0.000558 0.000000 0.000000 0.000000
# 2 -0.008152 0.011239 -0.003120 0.000000 0.000000 0.000000
# 3 -0.000558 -0.003120 0.011364 0.000000 0.000000 0.000000
# 4 0.000000 0.000000 0.000000 -0.268340 0.000000 0.000000
# 5 0.000000 0.000000 0.000000 0.000000 -0.094236 0.000000
# 6 0.000000 0.000000 0.000000 0.000000 0.000000 0.032549
#
#
# Mechanical properties :
#
#
# Convention : Reuss Voigt Hill
#
# Bulk Modulus (GPa) = 35.64773 48.35198 41.99985
# Shear Modulus (GPa) = -20.38293 15.55859 -2.41217
#
# Velocity S-wave (km/s) = -3.21247 2.80667 -1.10512
# Velocity P-wave (km/s) = 2.07090 5.91472 4.43129
#
# Compressibility (1/GPa) = 0.02805228
#
# Stress axis : x y z
#
# Youngs Moduli (GPa) = 34.35325 88.97410 87.99908
#
# Poissons Ratio (x) = 0.72530 0.04914
# Poissons Ratio (y) = 0.28004 0.27454
# Poissons Ratio (z) = 0.01918 0.27759
#
# Static dielectric constant tensor:
#      x y z
#    x 3.719320 0.000000 0.000000 
#    y 0.000000 3.901030 0.000000 
#    z 0.000000 0.000000 3.144260 
# 
# 
# High freq. dielectric constant tensor:
#      x y z
#    x 1.762080 0.000000 0.000000 
#    y 0.000000 1.797500 0.000000 
#    z 0.000000 0.000000 1.734300 
# 
# From -- ./inp_files/6113.got.cif
#   From: 2010.03.12/outbox.cif.g09.slc.cpg/sg37_4_cif.got.tgz:6113.got - 2010.04.14 02:25:27.
