data_PCOD8176015
_publ_section_title
;
Structure prediction by ZEFSAII (Michael W. Deem and Ramdas Pophale) SiO2 
 PCOD8176015
Probable space group: C M C 21
;
_chemical_formula_sum "Si O2"
_cell_formula_units_Z 64
_cell_length_a 17.438097
_cell_length_b 11.552691
_cell_length_c 15.320378
_cell_angle_alpha 90.000000
_cell_angle_beta 90.000000
_cell_angle_gamma 90.000000
_cell_volume 3086.396568
_symmetry_space_group_name_H-M "C M C 21"
_symmetry_group_IT_number 36
_symmetry_cell_setting 'orthorhombic'
loop_
_space_group_symop_operation_xyz
x,y,z
-x,-y,1/2+z
x,-y,1/2+z
-x,y,z
1/2+x,1/2+y,z
1/2-x,1/2-y,1/2+z
1/2+x,1/2-y,1/2+z
1/2-x,1/2+y,z
loop_
_atom_site_type_symbol
_atom_site_label
_atom_site_fract_x
_atom_site_fract_y
_atom_site_fract_z
Si Si1 0.180951 0.360174 0.698500
Si Si2 0.802645 0.537833 0.555239
Si Si3 0.584577 0.369060 0.190403
Si Si4 0.660280 0.731791 0.148465
Si Si5 0.627678 0.472782 0.539198
Si Si6 0.820667 0.495530 0.365179
Si Si7 0.410544 0.768622 0.321598
Si Si8 0.357758 0.514846 0.350887
O O1 0.156287 0.443449 0.618081
O O2 0.143035 0.235943 0.689422
O O3 0.273284 0.342764 0.697850
O O4 0.152380 0.417188 0.789039
O O5 0.800726 0.662047 0.599636
O O6 0.716960 0.499668 0.538734
O O7 0.842239 0.547514 0.460174
O O8 0.500000 0.319436 0.207483
O O9 0.584133 0.431692 0.096602
O O10 0.603851 0.462645 0.264807
O O11 0.614059 0.653655 0.079849
O O12 0.598121 0.777408 0.217213
O O13 0.599601 0.469583 0.438812
O O14 0.865263 0.374773 0.363605
O O15 0.730413 0.474525 0.351451
O O16 0.500000 0.771907 0.347544
O O17 0.369042 0.652663 0.354558
#
# Coordination Sequence:
#
# PCOD8176015 Si02
#       8
#     8   8   8   8   8   8   8   8
#     4  11  22  41  65  93 129 168 222 270 328 390
#     4  10  22  40  67 100 123 163 223 273 322 391
#     4  12  25  41  60  90 134 172 212 269 333 393
#     4  11  20  42  69  90 127 169 216 277 319 394
#     4  10  23  38  66  96 123 160 219 272 325 383
#     4  11  24  41  72  97 128 171 219 274 326 395
#     4  12  25  43  67  96 135 179 221 270 335 401
#     4  11  24  42  68  98 126 172 224 275 329 399
#
# _framework density 20.736155
#
# number of rings (size 3 to 8) (size 9 to 14) (size 15 to 20)
#    0.000    1.000    5.000    1.875    3.500    3.500 
#    0.000    0.625    0.000    0.000    0.000    0.000 
#    0.000    0.000    0.000    0.000    0.000    0.000 
#
# Total GULP energy -396798.088314 kJ/mol
# GULP energy per Si atom -12399.940260 kJ/mol
# Density = 2.068896 g / cm^3
# Si number density = 20.736155 Si / 1000 Ang^3
#
#
#
# Elastic Constant Matrix: (Units=GPa)
#
#
# Indices 1 2 3 4 5 6 
#
# 1 74.9354 16.9223 10.1236 0.0000 0.0000 0.0000
# 2 16.9223 93.7129 26.8487 0.0000 0.0000 0.0000
# 3 10.1236 26.8487 126.6810 0.0000 0.0000 0.0000
# 4 0.0000 0.0000 0.0000 31.8395 0.0000 0.0000
# 5 0.0000 0.0000 0.0000 0.0000 8.3538 0.0000
# 6 0.0000 0.0000 0.0000 0.0000 0.0000 7.0601
#
#
#
# Elastic Compliance Matrix: (Units=1/GPa)
#
#
# Indices 1 2 3 4 5 6 
#
# 1 0.013958 -0.002343 -0.000619 0.000000 0.000000 0.000000
# 2 -0.002343 0.011754 -0.002304 0.000000 0.000000 0.000000
# 3 -0.000619 -0.002304 0.008432 0.000000 0.000000 0.000000
# 4 0.000000 0.000000 0.000000 0.031408 0.000000 0.000000
# 5 0.000000 0.000000 0.000000 0.000000 0.119706 0.000000
# 6 0.000000 0.000000 0.000000 0.000000 0.000000 0.141641
#
#
# Mechanical properties :
#
#
# Convention : Reuss Voigt Hill
#
# Bulk Modulus (GPa) = 42.35213 44.79094 43.57154
# Shear Modulus (GPa) = 14.48016 25.54632 20.01324
#
# Velocity S-wave (km/s) = 2.64541 3.51375 3.11004
# Velocity P-wave (km/s) = 5.45890 6.17327 5.82704
#
# Compressibility (1/GPa) = 0.02361156
#
# Stress axis : x y z
#
# Youngs Moduli (GPa) = 71.64574 85.07693 118.60170
#
# Poissons Ratio (x) = 0.19935 0.07339
# Poissons Ratio (y) = 0.16787 0.27325
# Poissons Ratio (z) = 0.04433 0.19601
#
# Static dielectric constant tensor:
#      x y z
#    x 3.448620 0.000000 0.000000 
#    y 0.000000 3.690170 0.000000 
#    z 0.000000 0.000000 4.266340 
# 
# 
# High freq. dielectric constant tensor:
#      x y z
#    x 1.779280 0.000000 0.000000 
#    y 0.000000 1.814830 0.000000 
#    z 0.000000 0.000000 1.829070 
# 
# From -- ./inp_files/12646.got.cif
#   From: 2010.03.12/outbox.cif.g09.slc.cpg/sg36_7_cif.got.tgz:12646.got - 2010.04.14 02:13:53.
