data_PCOD8176205
_publ_section_title
;
Structure prediction by ZEFSAII (Michael W. Deem and Ramdas Pophale) SiO2 
 PCOD8176205
Probable space group: C M C 21
;
_chemical_formula_sum "Si O2"
_cell_formula_units_Z 64
_cell_length_a 21.565837
_cell_length_b 16.071392
_cell_length_c 9.779662
_cell_angle_alpha 90.000000
_cell_angle_beta 90.000000
_cell_angle_gamma 90.000000
_cell_volume 3389.562589
_symmetry_space_group_name_H-M "C M C 21"
_symmetry_group_IT_number 36
_symmetry_cell_setting 'orthorhombic'
loop_
_space_group_symop_operation_xyz
x,y,z
-x,-y,1/2+z
x,-y,1/2+z
-x,y,z
1/2+x,1/2+y,z
1/2-x,1/2-y,1/2+z
1/2+x,1/2-y,1/2+z
1/2-x,1/2+y,z
loop_
_atom_site_type_symbol
_atom_site_label
_atom_site_fract_x
_atom_site_fract_y
_atom_site_fract_z
Si Si1 0.780211 0.691631 0.060600
Si Si2 0.071101 0.817455 0.634625
Si Si3 0.720015 0.100497 0.781565
Si Si4 0.864858 0.907062 0.876307
Si Si5 0.150517 0.845553 0.161471
Si Si6 0.428698 0.579643 0.874039
Si Si7 0.777382 0.587809 0.316617
Si Si8 0.164813 0.309180 0.046896
O O1 0.834491 0.752176 0.113147
O O2 0.779756 0.610715 0.156875
O O3 0.714572 0.736673 0.072146
O O4 0.790467 0.664578 0.905170
O O5 0.105115 0.839023 0.776115
O O6 0.078117 0.895681 0.532292
O O7 0.098310 0.734860 0.561419
O O8 0.000000 0.798140 0.667031
O O9 0.788624 0.106898 0.717649
O O10 0.670410 0.121669 0.664848
O O11 0.705477 0.008291 0.834580
O O12 0.791084 0.896552 0.873424
O O13 0.888973 0.998193 0.837302
O O14 0.882086 0.891695 0.033997
O O15 0.099457 0.845615 0.281930
O O16 0.500000 0.563675 0.834855
O O17 0.825157 0.646078 0.400870
#
# Coordination Sequence:
#
# PCOD8176205 Si02
#       8
#     8   8   8   8   8   8   8   8
#     4  11  21  34  55  82 114 151 191 240 290 348
#     4  11  24  41  61  81 115 163 204 242 287 356
#     4  11  22  35  55  86 115 149 186 240 305 350
#     4  12  22  35  56  87 121 159 197 235 287 346
#     4  11  23  36  58  82 118 160 196 246 289 343
#     4  11  24  39  56  82 120 164 203 235 278 350
#     4  12  22  34  57  87 119 150 185 245 298 355
#     4  11  21  38  56  83 115 146 194 241 294 348
#
# _framework density 18.881494
#
# number of rings (size 3 to 8) (size 9 to 14) (size 15 to 20)
#    0.000    0.750    5.000    5.625    0.000    2.000 
#    0.000    0.000    0.000    0.750    0.000    1.750 
#    0.000    0.000    0.000    0.000    0.000    0.000 
#
# Total GULP energy -396890.882844 kJ/mol
# GULP energy per Si atom -12402.840089 kJ/mol
# Density = 1.883852 g / cm^3
# Si number density = 18.881494 Si / 1000 Ang^3
#
#
#
# Elastic Constant Matrix: (Units=GPa)
#
#
# Indices 1 2 3 4 5 6 
#
# 1 53.1476 30.4430 14.6035 0.0000 0.0000 0.0000
# 2 30.4430 86.2959 24.5217 0.0000 0.0000 0.0000
# 3 14.6035 24.5217 99.5238 0.0000 0.0000 0.0000
# 4 0.0000 0.0000 0.0000 34.7088 0.0000 0.0000
# 5 0.0000 0.0000 0.0000 0.0000 20.5333 0.0000
# 6 0.0000 0.0000 0.0000 0.0000 0.0000 18.2423
#
#
#
# Elastic Compliance Matrix: (Units=1/GPa)
#
#
# Indices 1 2 3 4 5 6 
#
# 1 0.023795 -0.007959 -0.001530 0.000000 0.000000 0.000000
# 2 -0.007959 0.015123 -0.002558 0.000000 0.000000 0.000000
# 3 -0.001530 -0.002558 0.010903 0.000000 0.000000 0.000000
# 4 0.000000 0.000000 0.000000 0.028811 0.000000 0.000000
# 5 0.000000 0.000000 0.000000 0.000000 0.048701 0.000000
# 6 0.000000 0.000000 0.000000 0.000000 0.000000 0.054818
#
#
# Mechanical properties :
#
#
# Convention : Reuss Voigt Hill
#
# Bulk Modulus (GPa) = 38.87324 42.01151 40.44238
# Shear Modulus (GPa) = 23.27507 25.99016 24.63261
#
# Velocity S-wave (km/s) = 3.51478 3.71413 3.61583
# Velocity P-wave (km/s) = 6.09133 6.37898 6.23681
#
# Compressibility (1/GPa) = 0.02572463
#
# Stress axis : x y z
#
# Youngs Moduli (GPa) = 42.02524 66.12504 91.72015
#
# Poissons Ratio (x) = 0.52632 0.14037
# Poissons Ratio (y) = 0.33450 0.23464
# Poissons Ratio (z) = 0.06432 0.16916
#
# Static dielectric constant tensor:
#      x y z
#    x 3.237540 0.000000 0.000000 
#    y 0.000000 3.435350 0.000000 
#    z 0.000000 0.000000 3.670750 
# 
# 
# High freq. dielectric constant tensor:
#      x y z
#    x 1.693890 0.000000 0.000000 
#    y 0.000000 1.727940 0.000000 
#    z 0.000000 0.000000 1.756810 
# 
# From -- ./inp_files/5345.got.cif
#   From: 2010.03.12/outbox.cif.g09.slc.cpg/sg36_3_cif.got.tgz:5345.got - 2010.04.14 02:13:53.
