data_PCOD8176674
_publ_section_title
;
Structure prediction by ZEFSAII (Michael W. Deem and Ramdas Pophale) SiO2 
 PCOD8176674
Probable space group: C C C 2
;
_chemical_formula_sum "Si O2"
_cell_formula_units_Z 48
_cell_length_a 10.545210
_cell_length_b 16.365955
_cell_length_c 12.833437
_cell_angle_alpha 90.000000
_cell_angle_beta 90.000000
_cell_angle_gamma 90.000000
_cell_volume 2214.825773
_symmetry_space_group_name_H-M "C C C 2"
_symmetry_group_IT_number 37
_symmetry_cell_setting 'orthorhombic'
loop_
_space_group_symop_operation_xyz
x,y,z
-x,-y,z
-x,y,1/2+z
x,-y,1/2+z
1/2+x,1/2+y,z
1/2-x,1/2-y,z
1/2-x,1/2+y,1/2+z
1/2+x,1/2-y,1/2+z
loop_
_atom_site_type_symbol
_atom_site_label
_atom_site_fract_x
_atom_site_fract_y
_atom_site_fract_z
Si Si1 0.500000 0.500000 0.334220
Si Si2 0.598210 0.932136 0.094715
Si Si3 0.086627 0.336875 0.461687
Si Si4 0.250000 0.750000 0.120383
Si Si5 0.389156 0.220476 0.239586
Si Si6 0.807918 0.041101 0.000227
Si Si7 0.940803 0.136362 0.173875
O O1 0.626913 0.499853 0.401782
O O2 0.489881 0.580960 0.266305
O O3 0.617016 0.867018 0.184976
O O4 0.500000 0.000000 0.136853
O O5 0.537595 0.888201 0.993676
O O6 0.734279 0.972383 0.067745
O O7 0.126510 0.271787 0.550461
O O8 0.049684 0.292079 0.354172
O O9 0.209009 0.395099 0.451773
O O10 0.201067 0.824893 0.192625
O O11 0.250000 0.250000 0.260978
O O12 0.462020 0.287257 0.169268
O O13 0.921442 0.083597 0.067903
#
# Coordination Sequence:
#
# PCOD8176674 Si02
#       7
#     4   8   8   4   8   8   8
#     4  12  26  42  66  98 140 186 220 272 350 418
#     4  10  24  46  70  99 132 180 227 286 334 404
#     4  10  21  44  70  96 131 177 228 282 342 393
#     4  10  20  46  66  92 138 172 218 292 336 392
#     4  12  25  40  72 101 134 177 234 279 341 413
#     4  10  25  45  68  96 144 178 225 283 343 401
#     4  11  26  43  67  99 134 181 225 278 346 397
#
# _framework density 21.672134
#
# number of rings (size 3 to 8) (size 9 to 14) (size 15 to 20)
#    0.000    1.333    2.500    1.500    9.333    3.333 
#    0.000    0.000    0.000    0.000    0.000    0.000 
#    0.000    0.000    0.000    0.000    0.000    0.000 
#
# Total GULP energy -297472.897291 kJ/mol
# GULP energy per Si atom -12394.704054 kJ/mol
# Density = 2.162281 g / cm^3
# Si number density = 21.672134 Si / 1000 Ang^3
#
#
#
# Elastic Constant Matrix: (Units=GPa)
#
#
# Indices 1 2 3 4 5 6 
#
# 1 51.6513 30.6791 38.2289 0.0000 0.0000 0.0000
# 2 30.6791 123.1579 44.5930 0.0000 0.0000 0.0000
# 3 38.2289 44.5930 70.6089 0.0000 0.0000 0.0000
# 4 0.0000 0.0000 0.0000 29.3426 0.0000 0.0000
# 5 0.0000 0.0000 0.0000 0.0000 22.8764 0.0000
# 6 0.0000 0.0000 0.0000 0.0000 0.0000 42.8337
#
#
#
# Elastic Compliance Matrix: (Units=1/GPa)
#
#
# Indices 1 2 3 4 5 6 
#
# 1 0.032783 -0.002255 -0.016325 0.000000 0.000000 0.000000
# 2 -0.002255 0.010682 -0.005525 0.000000 0.000000 0.000000
# 3 -0.016325 -0.005525 0.026490 0.000000 0.000000 0.000000
# 4 0.000000 0.000000 0.000000 0.034080 0.000000 0.000000
# 5 0.000000 0.000000 0.000000 0.000000 0.043713 0.000000
# 6 0.000000 0.000000 0.000000 0.000000 0.000000 0.023346
#
#
# Mechanical properties :
#
#
# Convention : Reuss Voigt Hill
#
# Bulk Modulus (GPa) = 45.98838 52.49111 49.23975
# Shear Modulus (GPa) = 22.06989 27.80502 24.93746
#
# Velocity S-wave (km/s) = 3.19463 3.58576 3.39583
# Velocity P-wave (km/s) = 5.90539 6.43558 6.17618
#
# Compressibility (1/GPa) = 0.02174462
#
# Stress axis : x y z
#
# Youngs Moduli (GPa) = 30.50392 93.61527 37.74963
#
# Poissons Ratio (x) = 0.21114 0.61625
# Poissons Ratio (y) = 0.06880 0.20857
# Poissons Ratio (z) = 0.49797 0.51723
#
# Static dielectric constant tensor:
#      x y z
#    x 3.894220 0.000000 0.000000 
#    y 0.000000 4.317960 0.000000 
#    z 0.000000 0.000000 3.678140 
# 
# 
# High freq. dielectric constant tensor:
#      x y z
#    x 1.848720 0.000000 0.000000 
#    y 0.000000 1.873950 0.000000 
#    z 0.000000 0.000000 1.831950 
# 
# From -- ./inp_files/7219.got.cif
#   From: 2010.03.12/outbox.cif.g09.slc.cpg/sg37_4_cif.got.tgz:7219.got - 2010.04.14 02:25:27.
