data_PCOD8176042
_publ_section_title
;
Structure prediction by ZEFSAII (Michael W. Deem and Ramdas Pophale) SiO2 
 PCOD8176042
Probable space group: C M C 21
;
_chemical_formula_sum "Si O2"
_cell_formula_units_Z 64
_cell_length_a 8.756338
_cell_length_b 23.755097
_cell_length_c 15.067850
_cell_angle_alpha 90.000000
_cell_angle_beta 90.000000
_cell_angle_gamma 90.000000
_cell_volume 3134.228198
_symmetry_space_group_name_H-M "C M C 21"
_symmetry_group_IT_number 36
_symmetry_cell_setting 'orthorhombic'
loop_
_space_group_symop_operation_xyz
x,y,z
-x,-y,1/2+z
x,-y,1/2+z
-x,y,z
1/2+x,1/2+y,z
1/2-x,1/2-y,1/2+z
1/2+x,1/2-y,1/2+z
1/2-x,1/2+y,z
loop_
_atom_site_type_symbol
_atom_site_label
_atom_site_fract_x
_atom_site_fract_y
_atom_site_fract_z
Si Si1 0.170986 0.626125 0.023020
Si Si2 0.820814 0.995780 0.765581
Si Si3 0.821455 0.494759 0.455466
Si Si4 0.177769 0.768571 0.770751
Si Si5 0.821408 0.692637 0.606268
Si Si6 0.171524 0.380061 0.727558
Si Si7 0.180234 0.929236 0.100418
Si Si8 0.175859 0.228743 0.942259
O O1 0.173962 0.638478 0.126409
O O2 0.000000 0.636974 0.985028
O O3 0.220689 0.562088 0.007062
O O4 0.295045 0.666483 0.979192
O O5 0.738881 0.012516 0.856206
O O6 0.784079 0.931598 0.743144
O O7 0.000000 0.003271 0.778574
O O8 0.759831 0.035668 0.685897
O O9 0.746490 0.546344 0.508606
O O10 0.000000 0.506698 0.452490
O O11 0.233769 0.732088 0.686940
O O12 0.269736 0.826566 0.782022
O O13 0.212223 0.734130 0.859265
O O14 0.000000 0.782461 0.761442
O O15 0.728903 0.635057 0.610859
O O16 0.782527 0.724285 0.514979
O O17 0.000000 0.678994 0.614498
O O18 0.000000 0.395925 0.759011
O O19 0.000000 0.933283 0.094258
O O20 0.000000 0.233351 0.913116
#
# Coordination Sequence:
#
# PCOD8176042 Si02
#       8
#     8   8   8   8   8   8   8   8
#     4  10  22  41  66  95 124 162 209 260 316 373
#     4  11  25  43  64  95 129 166 211 261 318 374
#     4  11  24  43  67  94 127 168 212 258 316 380
#     4  11  24  43  65  94 128 167 210 260 316 372
#     4  10  24  44  64  88 126 170 211 255 314 377
#     4  11  22  41  68  95 124 163 211 261 314 375
#     4  11  25  43  65  93 128 167 210 262 318 374
#     4  11  24  42  65  94 126 167 212 259 314 373
#
# _framework density 20.419701
#
# number of rings (size 3 to 8) (size 9 to 14) (size 15 to 20)
#    0.000    1.250    2.500    2.250    3.500    5.000 
#    0.000    0.000    0.000    0.000    0.000    0.000 
#    0.000    0.000    0.000    0.000    0.000    0.000 
#
# Total GULP energy -396977.614641 kJ/mol
# GULP energy per Si atom -12405.550458 kJ/mol
# Density = 2.037322 g / cm^3
# Si number density = 20.419701 Si / 1000 Ang^3
#
#
#
# Elastic Constant Matrix: (Units=GPa)
#
#
# Indices 1 2 3 4 5 6 
#
# 1 66.0197 35.6999 34.5991 0.0000 0.0000 0.0000
# 2 35.6999 89.7319 12.4646 0.0000 0.0000 0.0000
# 3 34.5991 12.4646 87.2301 0.0000 0.0000 0.0000
# 4 0.0000 0.0000 0.0000 27.0915 0.0000 0.0000
# 5 0.0000 0.0000 0.0000 0.0000 34.9858 0.0000
# 6 0.0000 0.0000 0.0000 0.0000 0.0000 33.8381
#
#
#
# Elastic Compliance Matrix: (Units=1/GPa)
#
#
# Indices 1 2 3 4 5 6 
#
# 1 0.024073 -0.008418 -0.008345 0.000000 0.000000 0.000000
# 2 -0.008418 0.014314 0.001294 0.000000 0.000000 0.000000
# 3 -0.008345 0.001294 0.014589 0.000000 0.000000 0.000000
# 4 0.000000 0.000000 0.000000 0.036912 0.000000 0.000000
# 5 0.000000 0.000000 0.000000 0.000000 0.028583 0.000000
# 6 0.000000 0.000000 0.000000 0.000000 0.000000 0.029553
#
#
# Mechanical properties :
#
#
# Convention : Reuss Voigt Hill
#
# Bulk Modulus (GPa) = 45.38026 45.38987 45.38507
# Shear Modulus (GPa) = 26.83731 29.86427 28.35079
#
# Velocity S-wave (km/s) = 3.62924 3.82844 3.73017
# Velocity P-wave (km/s) = 6.31141 6.46679 6.38957
#
# Compressibility (1/GPa) = 0.02203601
#
# Stress axis : x y z
#
# Youngs Moduli (GPa) = 41.54109 69.86297 68.54391
#
# Poissons Ratio (x) = 0.58811 0.57202
# Poissons Ratio (y) = 0.34969 -0.08867
# Poissons Ratio (z) = 0.34667 -0.09038
#
# Static dielectric constant tensor:
#      x y z
#    x 3.681060 0.000000 0.000000 
#    y 0.000000 3.666820 0.000000 
#    z 0.000000 0.000000 3.821460 
# 
# 
# High freq. dielectric constant tensor:
#      x y z
#    x 1.801480 0.000000 0.000000 
#    y 0.000000 1.806340 0.000000 
#    z 0.000000 0.000000 1.805930 
# 
# From -- ./inp_files/10965.got.cif
#   From: 2010.03.12/outbox.cif.g09.slc.cpg/sg36_6_cif.got.tgz:10965.got - 2010.04.14 02:13:53.
