data_PCOD8176583
_publ_section_title
;
Structure prediction by ZEFSAII (Michael W. Deem and Ramdas Pophale) SiO2 
 PCOD8176583
Probable space group: C C C 2
;
_chemical_formula_sum "Si O2"
_cell_formula_units_Z 64
_cell_length_a 14.744280
_cell_length_b 9.245252
_cell_length_c 21.117356
_cell_angle_alpha 90.000000
_cell_angle_beta 90.000000
_cell_angle_gamma 90.000000
_cell_volume 2878.603602
_symmetry_space_group_name_H-M "C C C 2"
_symmetry_group_IT_number 37
_symmetry_cell_setting 'orthorhombic'
loop_
_space_group_symop_operation_xyz
x,y,z
-x,-y,z
-x,y,1/2+z
x,-y,1/2+z
1/2+x,1/2+y,z
1/2-x,1/2-y,z
1/2-x,1/2+y,1/2+z
1/2+x,1/2-y,1/2+z
loop_
_atom_site_type_symbol
_atom_site_label
_atom_site_fract_x
_atom_site_fract_y
_atom_site_fract_z
Si Si1 0.111267 0.711000 0.529290
Si Si2 0.584420 0.268684 0.064925
Si Si3 0.666655 0.351986 0.935036
Si Si4 0.338326 0.685119 0.397053
Si Si5 0.127714 0.958312 0.622781
Si Si6 0.519049 0.335763 0.833605
Si Si7 0.142305 0.269214 0.224453
Si Si8 0.328149 0.990175 0.127014
O O1 0.142356 0.715012 0.457526
O O2 0.144696 0.856776 0.562606
O O3 0.157901 0.573555 0.560928
O O4 0.002814 0.696260 0.533848
O O5 0.556797 0.412787 0.105368
O O6 0.625146 0.163713 0.118156
O O7 0.653729 0.319473 0.009785
O O8 0.750000 0.250000 0.911138
O O9 0.681912 0.520153 0.917898
O O10 0.572778 0.318276 0.899470
O O11 0.250000 0.750000 0.362911
O O12 0.417620 0.718574 0.346900
O O13 0.101710 0.861925 0.682849
O O14 0.222585 0.037130 0.638536
O O15 0.500000 0.500000 0.810891
O O16 0.576813 0.236692 0.785129
O O17 0.250000 0.250000 0.240727
O O18 0.128961 0.418744 0.185746
#
# Coordination Sequence:
#
# PCOD8176583 Si02
#       8
#     8   8   8   8   8   8   8   8
#     4  11  21  36  56  90 135 172 209 256 328 395
#     4  12  22  35  58 100 139 167 210 270 323 391
#     4  11  23  39  63  97 136 173 214 271 332 394
#     4  11  23  41  65  95 136 174 219 277 333 399
#     4  10  20  36  64  92 127 171 218 258 323 393
#     4  10  22  42  70  97 127 170 238 274 317 396
#     4   9  20  41  69  95 129 179 223 270 327 391
#     4  10  22  38  59  98 133 170 212 266 329 389
#
# _framework density 22.233003
#
# number of rings (size 3 to 8) (size 9 to 14) (size 15 to 20)
#    0.000    1.500    2.500    4.125    1.750    2.000 
#    0.000    0.625    0.000   48.000    0.000    0.000 
#    0.000    0.000    0.000    0.000    0.000    0.000 
#
# Total GULP energy -396554.638398 kJ/mol
# GULP energy per Si atom -12392.332450 kJ/mol
# Density = 2.218240 g / cm^3
# Si number density = 22.233003 Si / 1000 Ang^3
#
#
#
# Elastic Constant Matrix: (Units=GPa)
#
#
# Indices 1 2 3 4 5 6 
#
# 1 92.7256 23.7153 29.8771 0.0000 0.0000 0.0000
# 2 23.7153 89.1704 34.8636 0.0000 0.0000 0.0000
# 3 29.8771 34.8636 95.0757 0.0000 0.0000 0.0000
# 4 0.0000 0.0000 0.0000 17.2602 0.0000 0.0000
# 5 0.0000 0.0000 0.0000 0.0000 31.4375 0.0000
# 6 0.0000 0.0000 0.0000 0.0000 0.0000 36.8947
#
#
#
# Elastic Compliance Matrix: (Units=1/GPa)
#
#
# Indices 1 2 3 4 5 6 
#
# 1 0.012314 -0.002057 -0.003115 0.000000 0.000000 0.000000
# 2 -0.002057 0.013435 -0.004280 0.000000 0.000000 0.000000
# 3 -0.003115 -0.004280 0.013066 0.000000 0.000000 0.000000
# 4 0.000000 0.000000 0.000000 0.057937 0.000000 0.000000
# 5 0.000000 0.000000 0.000000 0.000000 0.031809 0.000000
# 6 0.000000 0.000000 0.000000 0.000000 0.000000 0.027104
#
#
# Mechanical properties :
#
#
# Convention : Reuss Voigt Hill
#
# Bulk Modulus (GPa) = 50.22425 50.43151 50.32788
# Shear Modulus (GPa) = 27.59260 29.68619 28.63940
#
# Velocity S-wave (km/s) = 3.52670 3.65805 3.59297
# Velocity P-wave (km/s) = 6.26278 6.36978 6.31651
#
# Compressibility (1/GPa) = 0.01991070
#
# Stress axis : x y z
#
# Youngs Moduli (GPa) = 81.20553 74.43259 76.53194
#
# Poissons Ratio (x) = 0.15311 0.23843
# Poissons Ratio (y) = 0.16704 0.32756
# Poissons Ratio (z) = 0.25299 0.31858
#
# Static dielectric constant tensor:
#      x y z
#    x 4.170870 0.000000 0.000000 
#    y 0.000000 3.934210 0.000000 
#    z 0.000000 0.000000 3.713520 
# 
# 
# High freq. dielectric constant tensor:
#      x y z
#    x 1.891460 0.000000 0.000000 
#    y 0.000000 1.865810 0.000000 
#    z 0.000000 0.000000 1.847660 
# 
# From -- ./inp_files/18929.got.cif
#   From: 2010.03.12/outbox.cif.g09.slc.cpg/sg37_10_cif.got.tgz:18929.got - 2010.04.14 02:25:27.
