data_PCOD8176555
_publ_section_title
;
Structure prediction by ZEFSAII (Michael W. Deem and Ramdas Pophale) SiO2 
 PCOD8176555
Probable space group: C C C 2
;
_chemical_formula_sum "Si O2"
_cell_formula_units_Z 64
_cell_length_a 8.266426
_cell_length_b 23.553735
_cell_length_c 16.847990
_cell_angle_alpha 90.000000
_cell_angle_beta 90.000000
_cell_angle_gamma 90.000000
_cell_volume 3280.391387
_symmetry_space_group_name_H-M "C C C 2"
_symmetry_group_IT_number 37
_symmetry_cell_setting 'orthorhombic'
loop_
_space_group_symop_operation_xyz
x,y,z
-x,-y,z
-x,y,1/2+z
x,-y,1/2+z
1/2+x,1/2+y,z
1/2-x,1/2-y,z
1/2-x,1/2+y,1/2+z
1/2+x,1/2-y,1/2+z
loop_
_atom_site_type_symbol
_atom_site_label
_atom_site_fract_x
_atom_site_fract_y
_atom_site_fract_z
Si Si1 0.317091 0.496470 0.474420
Si Si2 0.390806 0.108437 0.141357
Si Si3 0.819121 0.189169 0.540281
Si Si4 0.390811 0.108436 0.495548
Si Si5 0.182909 0.996466 0.662487
Si Si6 0.300447 0.111897 0.727339
Si Si7 0.180880 0.810831 0.096620
Si Si8 0.800450 0.611896 0.909560
O O1 0.500000 0.500000 0.440732
O O2 0.228844 0.437217 0.455198
O O3 0.320535 0.500011 0.568452
O O4 0.216325 0.545973 0.432765
O O5 0.288512 0.161854 0.110136
O O6 0.513957 0.129956 0.209365
O O7 0.271164 0.062784 0.181719
O O8 0.499992 0.082984 0.068451
O O9 0.750000 0.250000 0.516639
O O10 0.820868 0.149324 0.462560
O O11 0.000003 0.195788 0.568446
O O12 0.288526 0.161855 0.526770
O O13 0.513951 0.129952 0.427534
O O14 0.283676 0.045975 0.704128
O O15 0.000000 0.000000 0.696174
O O16 0.179124 0.149325 0.674341
O O17 0.257923 0.122656 0.818450
O O18 0.250000 0.750000 0.120264
#
# Coordination Sequence:
#
# PCOD8176555 Si02
#       8
#     8   8   8   8   8   8   8   8
#     4  11  20  34  58  86 120 160 200 241 292 355
#     4  10  20  35  58  85 117 156 202 240 287 354
#     4  11  22  41  67  90 113 157 207 245 287 355
#     4  10  20  35  58  85 117 156 202 240 287 354
#     4  11  20  34  58  86 120 160 200 241 292 355
#     4  11  24  38  59  92 125 157 194 248 306 349
#     4  11  22  41  67  90 113 157 207 245 287 355
#     4  11  24  38  59  92 125 157 194 248 306 349
#
# _framework density 19.509865999999999
#
# number of rings (size 3 to 8) (size 9 to 14) (size 15 to 20)
#    0.000    1.250    5.000    4.500    0.000    3.000 
#    0.000    3.750    0.000    3.000    0.000    0.000 
#    0.000    0.000    0.000    0.000    0.000    0.000 
#
# Total GULP energy -396802.226330 kJ/mol
# GULP energy per Si atom -12400.069573 kJ/mol
# Density = 1.946546 g / cm^3
# Si number density = 19.509866 Si / 1000 Ang^3
#
#
#
# Elastic Constant Matrix: (Units=GPa)
#
#
# Indices 1 2 3 4 5 6 
#
# 1 100.3201 7.3496 20.5000 0.0000 0.0000 0.0000
# 2 7.3496 86.4735 18.4273 0.0000 0.0000 0.0000
# 3 20.5000 18.4273 87.0762 0.0000 0.0000 0.0000
# 4 0.0000 0.0000 0.0000 10.4685 0.0000 0.0000
# 5 0.0000 0.0000 0.0000 0.0000 9.6098 0.0000
# 6 0.0000 0.0000 0.0000 0.0000 0.0000 47.4343
#
#
#
# Elastic Compliance Matrix: (Units=1/GPa)
#
#
# Indices 1 2 3 4 5 6 
#
# 1 0.010484 -0.000382 -0.002387 0.000000 0.000000 0.000000
# 2 -0.000382 0.012124 -0.002476 0.000000 0.000000 0.000000
# 3 -0.002387 -0.002476 0.012570 0.000000 0.000000 0.000000
# 4 0.000000 0.000000 0.000000 0.095525 0.000000 0.000000
# 5 0.000000 0.000000 0.000000 0.000000 0.104060 0.000000
# 6 0.000000 0.000000 0.000000 0.000000 0.000000 0.021082
#
#
# Mechanical properties :
#
#
# Convention : Reuss Voigt Hill
#
# Bulk Modulus (GPa) = 40.50613 40.71376 40.60994
# Shear Modulus (GPa) = 18.21060 28.67539 23.44299
#
# Velocity S-wave (km/s) = 3.05848 3.83794 3.47017
# Velocity P-wave (km/s) = 5.76883 6.36815 6.07588
#
# Compressibility (1/GPa) = 0.02468762
#
# Stress axis : x y z
#
# Youngs Moduli (GPa) = 95.38407 82.47890 79.55358
#
# Poissons Ratio (x) = 0.03153 0.18992
# Poissons Ratio (y) = 0.03647 0.19696
# Poissons Ratio (z) = 0.22771 0.20420
#
# Static dielectric constant tensor:
#      x y z
#    x 3.947760 0.000000 0.000000 
#    y 0.000000 3.646570 0.000000 
#    z 0.000000 0.000000 3.700960 
# 
# 
# High freq. dielectric constant tensor:
#      x y z
#    x 1.777170 0.000000 0.000000 
#    y 0.000000 1.752710 0.000000 
#    z 0.000000 0.000000 1.722570 
# 
# From -- ./inp_files/14747.got.cif
#   From: 2010.03.12/outbox.cif.g09.slc.cpg/sg37_8_cif.got.tgz:14747.got - 2010.04.14 02:25:27.
