data_PCOD8176833
_publ_section_title
;
Structure prediction by ZEFSAII (Michael W. Deem and Ramdas Pophale) SiO2 
 PCOD8176833
Probable space group: C C C 2
;
_chemical_formula_sum "Si O2"
_cell_formula_units_Z 52
_cell_length_a 9.024210
_cell_length_b 20.381869
_cell_length_c 13.832051
_cell_angle_alpha 90.000000
_cell_angle_beta 90.000000
_cell_angle_gamma 90.000000
_cell_volume 2544.132820
_symmetry_space_group_name_H-M "C C C 2"
_symmetry_group_IT_number 37
_symmetry_cell_setting 'orthorhombic'
loop_
_space_group_symop_operation_xyz
x,y,z
-x,-y,z
-x,y,1/2+z
x,-y,1/2+z
1/2+x,1/2+y,z
1/2-x,1/2-y,z
1/2-x,1/2+y,1/2+z
1/2+x,1/2-y,1/2+z
loop_
_atom_site_type_symbol
_atom_site_label
_atom_site_fract_x
_atom_site_fract_y
_atom_site_fract_z
Si Si1 0.351495 0.588779 0.883540
Si Si2 0.689888 0.440424 0.400479
Si Si3 0.806341 0.824370 0.567720
Si Si4 0.707172 0.821843 0.237523
Si Si5 0.628493 0.854456 0.757434
Si Si6 0.357722 0.339839 0.047450
Si Si7 0.750000 0.750000 0.887325
O O1 0.280509 0.517687 0.901807
O O2 0.525960 0.581112 0.869272
O O3 0.307713 0.621880 0.783367
O O4 0.287882 0.634377 0.969418
O O5 0.812023 0.412785 0.325799
O O6 0.695977 0.412116 0.510761
O O7 0.750000 0.750000 0.550956
O O8 0.712795 0.856257 0.654799
O O9 0.979974 0.831354 0.595185
O O10 0.750000 0.750000 0.282901
O O11 0.545902 0.853592 0.243687
O O12 0.738493 0.815909 0.123860
O O13 0.643772 0.787571 0.815403
O O14 0.355746 0.295327 0.951494
#
# Coordination Sequence:
#
# PCOD8176833 Si02
#       7
#     8   8   8   8   8   8   4
#     4  10  23  41  66  90 127 163 219 255 306 372
#     4   9  22  45  64  90 119 175 212 258 306 368
#     4  11  22  37  63  95 125 164 205 260 309 378
#     4  12  25  38  62  97 129 164 202 264 314 375
#     4  11  24  38  64  91 130 161 209 254 318 366
#     4  10  22  39  64  87 127 160 211 253 313 363
#     4  10  22  38  60  88 124 162 194 260 304 370
#
# _framework density 20.439184000000001
#
# number of rings (size 3 to 8) (size 9 to 14) (size 15 to 20)
#    0.000    1.538    1.538    2.308    8.615    3.077 
#    0.000    3.077    0.000    0.000    0.000    0.000 
#    0.000    0.000    0.000    0.000    0.000    0.000 
#
# Total GULP energy -322138.986394 kJ/mol
# GULP energy per Si atom -12389.961015 kJ/mol
# Density = 2.039266 g / cm^3
# Si number density = 20.439184 Si / 1000 Ang^3
#
#
#
# Elastic Constant Matrix: (Units=GPa)
#
#
# Indices 1 2 3 4 5 6 
#
# 1 99.2048 35.8742 40.2663 0.0000 0.0000 0.0000
# 2 35.8742 138.5273 35.8397 0.0000 0.0000 0.0000
# 3 40.2663 35.8397 86.2102 0.0000 0.0000 0.0000
# 4 0.0000 0.0000 0.0000 32.4942 0.0000 0.0000
# 5 0.0000 0.0000 0.0000 0.0000 38.5347 0.0000
# 6 0.0000 0.0000 0.0000 0.0000 0.0000 25.5081
#
#
#
# Elastic Compliance Matrix: (Units=1/GPa)
#
#
# Indices 1 2 3 4 5 6 
#
# 1 0.012914 -0.001999 -0.005201 0.000000 0.000000 0.000000
# 2 -0.001999 0.008398 -0.002558 0.000000 0.000000 0.000000
# 3 -0.005201 -0.002558 0.015092 0.000000 0.000000 0.000000
# 4 0.000000 0.000000 0.000000 0.030775 0.000000 0.000000
# 5 0.000000 0.000000 0.000000 0.000000 0.025951 0.000000
# 6 0.000000 0.000000 0.000000 0.000000 0.000000 0.039203
#
#
# Mechanical properties :
#
#
# Convention : Reuss Voigt Hill
#
# Bulk Modulus (GPa) = 59.20846 60.87808 60.04327
# Shear Modulus (GPa) = 31.75066 33.43820 32.59443
#
# Velocity S-wave (km/s) = 3.94562 4.04912 3.99771
# Velocity P-wave (km/s) = 7.05608 7.19098 7.12385
#
# Compressibility (1/GPa) = 0.01688948
#
# Stress axis : x y z
#
# Youngs Moduli (GPa) = 77.43606 119.07391 66.26022
#
# Poissons Ratio (x) = 0.23800 0.34460
# Poissons Ratio (y) = 0.15477 0.16948
# Poissons Ratio (z) = 0.40273 0.30456
#
# Static dielectric constant tensor:
#      x y z
#    x 3.540910 0.000000 0.000000 
#    y 0.000000 4.000340 0.000000 
#    z 0.000000 0.000000 3.751180 
# 
# 
# High freq. dielectric constant tensor:
#      x y z
#    x 1.796100 0.000000 0.000000 
#    y 0.000000 1.800420 0.000000 
#    z 0.000000 0.000000 1.804810 
# 
# From -- ./inp_files/10764.got.cif
#   From: 2010.03.12/outbox.cif.g09.slc.cpg/sg37_6_cif.got.tgz:10764.got - 2010.04.14 02:25:27.
