data_PCOD8176006
_publ_section_title
;
Structure prediction by ZEFSAII (Michael W. Deem and Ramdas Pophale) SiO2 
 PCOD8176006
Probable space group: C M C 21
;
_chemical_formula_sum "Si O2"
_cell_formula_units_Z 48
_cell_length_a 8.660806
_cell_length_b 19.653804
_cell_length_c 13.788025
_cell_angle_alpha 90.000000
_cell_angle_beta 90.000000
_cell_angle_gamma 90.000000
_cell_volume 2346.967056
_symmetry_space_group_name_H-M "C M C 21"
_symmetry_group_IT_number 36
_symmetry_cell_setting 'orthorhombic'
loop_
_space_group_symop_operation_xyz
x,y,z
-x,-y,1/2+z
x,-y,1/2+z
-x,y,z
1/2+x,1/2+y,z
1/2-x,1/2-y,1/2+z
1/2+x,1/2-y,1/2+z
1/2-x,1/2+y,z
loop_
_atom_site_type_symbol
_atom_site_label
_atom_site_fract_x
_atom_site_fract_y
_atom_site_fract_z
Si Si1 0.825913 0.301603 0.022950
Si Si2 0.679618 0.952979 0.524190
Si Si3 0.181733 0.614524 0.823340
Si Si4 0.321248 0.422451 0.127868
Si Si5 0.323111 0.333262 0.631067
Si Si6 0.822728 0.736774 0.309943
O O1 0.706883 0.349174 0.079248
O O2 0.792807 0.223938 0.050760
O O3 0.000000 0.322584 0.053647
O O4 0.803531 0.306132 0.908207
O O5 0.500000 0.970011 0.524501
O O6 0.734269 0.927514 0.418270
O O7 0.715306 0.896724 0.605572
O O8 0.769709 0.021372 0.550428
O O9 0.227332 0.570846 0.728520
O O10 0.268470 0.686070 0.821422
O O11 0.000000 0.628393 0.825033
O O12 0.500000 0.430597 0.152165
O O13 0.500000 0.357710 0.631078
O O14 0.282380 0.303653 0.735347
O O15 0.000000 0.738091 0.275425
#
# Coordination Sequence:
#
# PCOD8176006 Si02
#       6
#     8   8   8   8   8   8
#     4  10  22  40  63  92 128 166 208 261 313 368
#     4  11  25  44  67  93 128 170 213 262 319 380
#     4  11  23  41  66  93 125 167 211 260 320 381
#     4  12  26  42  66  95 129 169 213 262 317 382
#     4  11  22  39  64  95 129 164 209 262 313 371
#     4  11  22  38  64  96 129 168 214 263 314 372
#
# _framework density 20.451927000000001
#
# number of rings (size 3 to 8) (size 9 to 14) (size 15 to 20)
#    0.000    1.000    3.333    3.500    0.000    5.333 
#    0.000    1.667    0.000    0.000    0.000    0.000 
#    0.000    0.000    0.000    0.000    0.000    0.000 
#
# Total GULP energy -297753.603704 kJ/mol
# GULP energy per Si atom -12406.400154 kJ/mol
# Density = 2.040538 g / cm^3
# Si number density = 20.451927 Si / 1000 Ang^3
#
#
#
# Elastic Constant Matrix: (Units=GPa)
#
#
# Indices 1 2 3 4 5 6 
#
# 1 62.1477 22.8212 17.4333 0.0000 0.0000 0.0000
# 2 22.8212 57.0124 18.1787 0.0000 0.0000 0.0000
# 3 17.4333 18.1787 93.8445 0.0000 0.0000 0.0000
# 4 0.0000 0.0000 0.0000 32.4950 0.0000 0.0000
# 5 0.0000 0.0000 0.0000 0.0000 28.7677 0.0000
# 6 0.0000 0.0000 0.0000 0.0000 0.0000 37.8117
#
#
#
# Elastic Compliance Matrix: (Units=1/GPa)
#
#
# Indices 1 2 3 4 5 6 
#
# 1 0.019290 -0.007012 -0.002225 0.000000 0.000000 0.000000
# 2 -0.007012 0.021244 -0.002813 0.000000 0.000000 0.000000
# 3 -0.002225 -0.002813 0.011614 0.000000 0.000000 0.000000
# 4 0.000000 0.000000 0.000000 0.030774 0.000000 0.000000
# 5 0.000000 0.000000 0.000000 0.000000 0.034761 0.000000
# 6 0.000000 0.000000 0.000000 0.000000 0.000000 0.026447
#
#
# Mechanical properties :
#
#
# Convention : Reuss Voigt Hill
#
# Bulk Modulus (GPa) = 35.65277 36.65232 36.15255
# Shear Modulus (GPa) = 28.15665 30.11963 29.13814
#
# Velocity S-wave (km/s) = 3.71445 3.84175 3.77863
# Velocity P-wave (km/s) = 5.98886 6.13505 6.06240
#
# Compressibility (1/GPa) = 0.02804831
#
# Stress axis : x y z
#
# Youngs Moduli (GPa) = 51.84109 47.07305 86.10228
#
# Poissons Ratio (x) = 0.33007 0.19159
# Poissons Ratio (y) = 0.36350 0.24216
# Poissons Ratio (z) = 0.11535 0.13239
#
# Static dielectric constant tensor:
#      x y z
#    x 3.741620 0.000000 0.000000 
#    y 0.000000 3.559690 0.000000 
#    z 0.000000 0.000000 3.903930 
# 
# 
# High freq. dielectric constant tensor:
#      x y z
#    x 1.806160 0.000000 0.000000 
#    y 0.000000 1.791830 0.000000 
#    z 0.000000 0.000000 1.812620 
# 
# From -- ./inp_files/10341.got.cif
#   From: 2010.03.12/outbox.cif.g09.slc.cpg/sg36_6_cif.got.tgz:10341.got - 2010.04.14 02:13:53.
