data_PCOD8176677
_publ_section_title
;
Structure prediction by ZEFSAII (Michael W. Deem and Ramdas Pophale) SiO2 
 PCOD8176677
Probable space group: C C C 2
;
_chemical_formula_sum "Si O2"
_cell_formula_units_Z 60
_cell_length_a 13.890846
_cell_length_b 26.296572
_cell_length_c 8.131628
_cell_angle_alpha 90.000000
_cell_angle_beta 90.000000
_cell_angle_gamma 90.000000
_cell_volume 2970.334346
_symmetry_space_group_name_H-M "C C C 2"
_symmetry_group_IT_number 37
_symmetry_cell_setting 'orthorhombic'
loop_
_space_group_symop_operation_xyz
x,y,z
-x,-y,z
-x,y,1/2+z
x,-y,1/2+z
1/2+x,1/2+y,z
1/2-x,1/2-y,z
1/2-x,1/2+y,1/2+z
1/2+x,1/2-y,1/2+z
loop_
_atom_site_type_symbol
_atom_site_label
_atom_site_fract_x
_atom_site_fract_y
_atom_site_fract_z
Si Si1 0.251042 0.137512 0.558430
Si Si2 0.407159 0.937452 0.166367
Si Si3 0.394642 0.226734 0.891537
Si Si4 0.248748 0.628466 0.701167
Si Si5 0.750000 0.250000 0.975021
Si Si6 0.800565 0.170550 0.373733
Si Si7 0.902713 0.283318 0.753203
Si Si8 0.884257 0.450832 0.551742
O O1 0.351237 0.107779 0.575112
O O2 0.200416 0.122570 0.383161
O O3 0.270148 0.198834 0.578181
O O4 0.186784 0.128415 0.725488
O O5 0.384847 0.938815 0.359040
O O6 0.520184 0.928906 0.138113
O O7 0.373929 0.989231 0.078274
O O8 0.313315 0.183839 0.882559
O O9 0.363273 0.280946 0.816244
O O10 0.490983 0.203421 0.815988
O O11 0.414796 0.242200 0.078215
O O12 0.322032 0.649102 0.558602
O O13 0.160395 0.665646 0.745794
O O14 0.207568 0.575230 0.636645
O O15 0.845615 0.241690 0.863000
#
# Coordination Sequence:
#
# PCOD8176677 Si02
#       8
#     8   8   8   8   4   8   8   8
#     4  11  21  35  58  74 106 149 190 229 293 323
#     4  11  22  35  55  80 109 157 186 246 289 342
#     4  10  21  34  51  75 108 146 196 233 283 340
#     4  10  21  35  54  77 109 147 189 240 279 339
#     4  10  22  38  54  78 114 150 196 240 280 348
#     4  10  21  37  50  75 109 150 186 242 281 336
#     4  10  22  34  54  77 107 152 189 236 288 339
#     4  11  21  37  52  81 116 143 202 237 287 346
#
# _framework density 20.199746999999999
#
# number of rings (size 3 to 8) (size 9 to 14) (size 15 to 20)
#    0.000    1.600    1.333    6.400    7.467    2.133 
#    0.000    0.000    0.000    0.000    0.000    0.000 
#    0.000    1.067    1.067    0.000    0.000    0.000 
#
# Total GULP energy -371686.282645 kJ/mol
# GULP energy per Si atom -12389.542755 kJ/mol
# Density = 2.015377 g / cm^3
# Si number density = 20.199747 Si / 1000 Ang^3
#
#
#
# Elastic Constant Matrix: (Units=GPa)
#
#
# Indices 1 2 3 4 5 6 
#
# 1 28.3735 1.6810 2.2740 0.0000 0.0000 0.0000
# 2 1.6810 66.9502 13.4947 0.0000 0.0000 0.0000
# 3 2.2740 13.4947 157.4027 0.0000 0.0000 0.0000
# 4 0.0000 0.0000 0.0000 26.1487 0.0000 0.0000
# 5 0.0000 0.0000 0.0000 0.0000 25.1882 0.0000
# 6 0.0000 0.0000 0.0000 0.0000 0.0000 26.2762
#
#
#
# Elastic Compliance Matrix: (Units=1/GPa)
#
#
# Indices 1 2 3 4 5 6 
#
# 1 0.035327 -0.000798 -0.000442 0.000000 0.000000 0.000000
# 2 -0.000798 0.015217 -0.001293 0.000000 0.000000 0.000000
# 3 -0.000442 -0.001293 0.006470 0.000000 0.000000 0.000000
# 4 0.000000 0.000000 0.000000 0.038243 0.000000 0.000000
# 5 0.000000 0.000000 0.000000 0.000000 0.039701 0.000000
# 6 0.000000 0.000000 0.000000 0.000000 0.000000 0.038057
#
#
# Mechanical properties :
#
#
# Convention : Reuss Voigt Hill
#
# Bulk Modulus (GPa) = 19.24987 31.95844 25.60415
# Shear Modulus (GPa) = 25.58885 31.20774 28.39830
#
# Velocity S-wave (km/s) = 3.56306 3.93486 3.75357
# Velocity P-wave (km/s) = 5.14564 6.04150 5.61148
#
# Compressibility (1/GPa) = 0.05194841
#
# Stress axis : x y z
#
# Youngs Moduli (GPa) = 28.30707 65.71533 154.55049
#
# Poissons Ratio (x) = 0.05244 0.06831
# Poissons Ratio (y) = 0.02259 0.19985
# Poissons Ratio (z) = 0.01251 0.08498
#
# Static dielectric constant tensor:
#      x y z
#    x 3.488800 0.000000 0.000000 
#    y 0.000000 3.519810 0.000000 
#    z 0.000000 0.000000 4.544600 
# 
# 
# High freq. dielectric constant tensor:
#      x y z
#    x 1.717310 0.000000 0.000000 
#    y 0.000000 1.763650 0.000000 
#    z 0.000000 0.000000 1.836140 
# 
# From -- ./inp_files/3797.got.cif
#   From: 2010.03.12/outbox.cif.g09.slc.cpg/sg37_2_cif.got.tgz:3797.got - 2010.04.14 02:25:27.
