data_PCOD8176483
_publ_section_title
;
Structure prediction by ZEFSAII (Michael W. Deem and Ramdas Pophale) SiO2 
 PCOD8176483
Probable space group: C C C 2
;
_chemical_formula_sum "Si O2"
_cell_formula_units_Z 64
_cell_length_a 8.913829
_cell_length_b 16.718661
_cell_length_c 20.450397
_cell_angle_alpha 90.000000
_cell_angle_beta 90.000000
_cell_angle_gamma 90.000000
_cell_volume 3047.667147
_symmetry_space_group_name_H-M "C C C 2"
_symmetry_group_IT_number 37
_symmetry_cell_setting 'orthorhombic'
loop_
_space_group_symop_operation_xyz
x,y,z
-x,-y,z
-x,y,1/2+z
x,-y,1/2+z
1/2+x,1/2+y,z
1/2-x,1/2-y,z
1/2-x,1/2+y,1/2+z
1/2+x,1/2-y,1/2+z
loop_
_atom_site_type_symbol
_atom_site_label
_atom_site_fract_x
_atom_site_fract_y
_atom_site_fract_z
Si Si1 0.606952 0.701059 0.546020
Si Si2 0.203290 0.906787 0.155234
Si Si3 0.299427 0.665844 0.498836
Si Si4 0.857953 0.449605 0.596499
Si Si5 0.069492 0.084136 0.787580
Si Si6 0.421845 0.747362 0.799689
Si Si7 0.183542 0.332710 0.853449
Si Si8 0.014169 0.309302 0.663645
O O1 0.750000 0.750000 0.515010
O O2 0.656895 0.620765 0.582701
O O3 0.482370 0.672602 0.492786
O O4 0.525875 0.754905 0.599944
O O5 0.070671 0.911322 0.208428
O O6 0.322829 0.843033 0.184004
O O7 0.262962 0.995363 0.144670
O O8 0.250000 0.750000 0.531464
O O9 0.244847 0.589295 0.540127
O O10 0.218723 0.656835 0.429551
O O11 0.000000 0.500000 0.566574
O O12 0.908817 0.382640 0.646658
O O13 0.241088 0.092469 0.815036
O O14 0.976574 0.157837 0.818187
O O15 0.000000 0.000000 0.811239
O O16 0.250000 0.750000 0.820485
O O17 0.505784 0.819853 0.839369
O O18 0.443047 0.759498 0.722315
O O19 0.250000 0.250000 0.824858
#
# Coordination Sequence:
#
# PCOD8176483 Si02
#       8
#     8   8   8   8   8   8   8   8
#     4  10  21  36  62 100 125 164 210 264 322 382
#     4  10  21  36  59  95 133 168 197 263 333 386
#     4  11  22  42  69  89 120 177 222 259 319 392
#     4  10  23  38  59  94 132 167 207 261 324 389
#     4  11  23  40  61  91 132 165 208 263 324 378
#     4  11  23  39  67  96 121 167 220 269 320 389
#     4   9  22  46  67  86 124 177 220 263 320 386
#     4  10  19  36  62  93 131 161 208 260 322 386
#
# _framework density 20.999666999999999
#
# number of rings (size 3 to 8) (size 9 to 14) (size 15 to 20)
#    0.000    1.750    3.750    0.000    5.250    0.000 
#    2.250    7.500    0.000    0.000    0.000    0.000 
#    0.000    0.000    0.000    0.000    0.000    0.000 
#
# Total GULP energy -396572.342504 kJ/mol
# GULP energy per Si atom -12392.885703 kJ/mol
# Density = 2.095187 g / cm^3
# Si number density = 20.999667 Si / 1000 Ang^3
#
#
#
# Elastic Constant Matrix: (Units=GPa)
#
#
# Indices 1 2 3 4 5 6 
#
# 1 138.4533 38.6791 37.5387 0.0000 0.0000 0.0000
# 2 38.6791 97.4168 22.0409 0.0000 0.0000 0.0000
# 3 37.5387 22.0409 59.9768 0.0000 0.0000 0.0000
# 4 0.0000 0.0000 0.0000 15.7795 0.0000 0.0000
# 5 0.0000 0.0000 0.0000 0.0000 22.1241 0.0000
# 6 0.0000 0.0000 0.0000 0.0000 0.0000 37.4196
#
#
#
# Elastic Compliance Matrix: (Units=1/GPa)
#
#
# Indices 1 2 3 4 5 6 
#
# 1 0.009257 -0.002579 -0.004846 0.000000 0.000000 0.000000
# 2 -0.002579 0.011915 -0.002764 0.000000 0.000000 0.000000
# 3 -0.004846 -0.002764 0.020722 0.000000 0.000000 0.000000
# 4 0.000000 0.000000 0.000000 0.063373 0.000000 0.000000
# 5 0.000000 0.000000 0.000000 0.000000 0.045200 0.000000
# 6 0.000000 0.000000 0.000000 0.000000 0.000000 0.026724
#
#
# Mechanical properties :
#
#
# Convention : Reuss Voigt Hill
#
# Bulk Modulus (GPa) = 46.47958 54.70715 50.59337
# Shear Modulus (GPa) = 24.42108 28.23719 26.32913
#
# Velocity S-wave (km/s) = 3.41387 3.67092 3.54473
# Velocity P-wave (km/s) = 6.14173 6.63894 6.39517
#
# Compressibility (1/GPa) = 0.02151482
#
# Stress axis : x y z
#
# Youngs Moduli (GPa) = 108.02567 83.93056 48.25774
#
# Poissons Ratio (x) = 0.21646 0.23386
# Poissons Ratio (y) = 0.27860 0.13340
# Poissons Ratio (z) = 0.52350 0.23201
#
# Static dielectric constant tensor:
#      x y z
#    x 4.027260 0.000000 0.000000 
#    y 0.000000 3.987690 0.000000 
#    z 0.000000 0.000000 3.342630 
# 
# 
# High freq. dielectric constant tensor:
#      x y z
#    x 1.822710 0.000000 0.000000 
#    y 0.000000 1.819800 0.000000 
#    z 0.000000 0.000000 1.792800 
# 
# From -- ./inp_files/16564.got.cif
#   From: 2010.03.12/outbox.cif.g09.slc.cpg/sg37_9_cif.got.tgz:16564.got - 2010.04.14 02:25:27.
