data_PCOD8176412
_publ_section_title
;
Structure prediction by ZEFSAII (Michael W. Deem and Ramdas Pophale) SiO2 
 PCOD8176412
Probable space group: C C C 2
;
_chemical_formula_sum "Si O2"
_cell_formula_units_Z 56
_cell_length_a 18.720384
_cell_length_b 11.103048
_cell_length_c 12.005382
_cell_angle_alpha 90.000000
_cell_angle_beta 90.000000
_cell_angle_gamma 90.000000
_cell_volume 2495.358532
_symmetry_space_group_name_H-M "C C C 2"
_symmetry_group_IT_number 37
_symmetry_cell_setting 'orthorhombic'
loop_
_space_group_symop_operation_xyz
x,y,z
-x,-y,z
-x,y,1/2+z
x,-y,1/2+z
1/2+x,1/2+y,z
1/2-x,1/2-y,z
1/2-x,1/2+y,1/2+z
1/2+x,1/2-y,1/2+z
loop_
_atom_site_type_symbol
_atom_site_label
_atom_site_fract_x
_atom_site_fract_y
_atom_site_fract_z
Si Si1 0.661987 0.105408 0.073930
Si Si2 0.094629 0.192983 0.861927
Si Si3 0.561058 0.095816 0.520312
Si Si4 0.706046 0.577948 0.713671
Si Si5 0.609177 0.532949 0.513828
Si Si6 0.035502 0.777562 0.133484
Si Si7 0.259336 0.620124 0.873140
O O1 0.730721 0.139190 0.146343
O O2 0.610270 0.212983 0.106537
O O3 0.623301 0.975329 0.085853
O O4 0.689067 0.105569 0.948266
O O5 0.170839 0.171270 0.801590
O O6 0.033885 0.184015 0.764327
O O7 0.090871 0.326982 0.915356
O O8 0.084290 0.091563 0.956914
O O9 0.530538 0.190644 0.609822
O O10 0.500000 0.000000 0.480113
O O11 0.647681 0.513611 0.633518
O O12 0.747921 0.473458 0.775622
O O13 0.537669 0.610376 0.545799
O O14 0.664240 0.604606 0.434823
O O15 0.250000 0.750000 0.817799
#
# Coordination Sequence:
#
# PCOD8176412 Si02
#       7
#     8   8   8   8   8   8   8
#     4  10  21  39  61  95 132 173 213 273 326 401
#     4  10  22  41  68  93 128 176 221 274 339 404
#     4  10  24  43  62  95 131 173 227 279 324 401
#     4   9  21  37  62 100 131 166 218 268 339 397
#     4   9  19  39  60  94 127 160 221 264 322 396
#     4  10  21  42  65  87 130 177 221 273 331 393
#     4  10  18  34  59  91 127 170 203 262 334 387
#
# _framework density 22.441662999999998
#
# number of rings (size 3 to 8) (size 9 to 14) (size 15 to 20)
#    0.000    2.286    1.429    0.000    2.000    3.429 
#    7.714    7.143    0.000    0.000    0.000    0.000 
#    0.000    0.000    0.000    0.000    0.000    0.000 
#
# Total GULP energy -346908.494862 kJ/mol
# GULP energy per Si atom -12389.589102 kJ/mol
# Density = 2.239059 g / cm^3
# Si number density = 22.441663 Si / 1000 Ang^3
#
#
#
# Elastic Constant Matrix: (Units=GPa)
#
#
# Indices 1 2 3 4 5 6 
#
# 1 69.7937 34.4116 24.2579 0.0000 0.0000 0.0000
# 2 34.4116 125.9471 43.3209 0.0000 0.0000 0.0000
# 3 24.2579 43.3209 90.8890 0.0000 0.0000 0.0000
# 4 0.0000 0.0000 0.0000 25.7954 0.0000 0.0000
# 5 0.0000 0.0000 0.0000 0.0000 13.7480 0.0000
# 6 0.0000 0.0000 0.0000 0.0000 0.0000 27.3355
#
#
#
# Elastic Compliance Matrix: (Units=1/GPa)
#
#
# Indices 1 2 3 4 5 6 
#
# 1 0.017135 -0.003718 -0.002801 0.000000 0.000000 0.000000
# 2 -0.003718 0.010304 -0.003919 0.000000 0.000000 0.000000
# 3 -0.002801 -0.003919 0.013618 0.000000 0.000000 0.000000
# 4 0.000000 0.000000 0.000000 0.038767 0.000000 0.000000
# 5 0.000000 0.000000 0.000000 0.000000 0.072738 0.000000
# 6 0.000000 0.000000 0.000000 0.000000 0.000000 0.036582
#
#
# Mechanical properties :
#
#
# Convention : Reuss Voigt Hill
#
# Bulk Modulus (GPa) = 49.55301 54.51231 52.03266
# Shear Modulus (GPa) = 23.06856 25.68509 24.37682
#
# Velocity S-wave (km/s) = 3.20962 3.38676 3.29938
# Velocity P-wave (km/s) = 5.98868 6.29578 6.14415
#
# Compressibility (1/GPa) = 0.02018041
#
# Stress axis : x y z
#
# Youngs Moduli (GPa) = 58.36116 97.05330 73.43328
#
# Poissons Ratio (x) = 0.36086 0.20568
# Poissons Ratio (y) = 0.21700 0.28776
# Poissons Ratio (z) = 0.16347 0.38032
#
# Static dielectric constant tensor:
#      x y z
#    x 3.989830 0.000000 0.000000 
#    y 0.000000 4.187180 0.000000 
#    z 0.000000 0.000000 4.095590 
# 
# 
# High freq. dielectric constant tensor:
#      x y z
#    x 1.879820 0.000000 0.000000 
#    y 0.000000 1.891670 0.000000 
#    z 0.000000 0.000000 1.876400 
# 
# From -- ./inp_files/7293.got.cif
#   From: 2010.03.12/outbox.cif.g09.slc.cpg/sg37_4_cif.got.tgz:7293.got - 2010.04.14 02:25:27.
