data_PCOD8176045
_publ_section_title
;
Structure prediction by ZEFSAII (Michael W. Deem and Ramdas Pophale) SiO2 
 PCOD8176045
Probable space group: C M C 21
;
_chemical_formula_sum "Si O2"
_cell_formula_units_Z 48
_cell_length_a 24.707320
_cell_length_b 9.395121
_cell_length_c 8.379945
_cell_angle_alpha 90.000000
_cell_angle_beta 90.000000
_cell_angle_gamma 90.000000
_cell_volume 1945.222060
_symmetry_space_group_name_H-M "C M C 21"
_symmetry_group_IT_number 36
_symmetry_cell_setting 'orthorhombic'
loop_
_space_group_symop_operation_xyz
x,y,z
-x,-y,1/2+z
x,-y,1/2+z
-x,y,z
1/2+x,1/2+y,z
1/2-x,1/2-y,1/2+z
1/2+x,1/2-y,1/2+z
1/2-x,1/2+y,z
loop_
_atom_site_type_symbol
_atom_site_label
_atom_site_fract_x
_atom_site_fract_y
_atom_site_fract_z
Si Si1 0.065367 0.294684 0.844060
Si Si2 0.940254 0.559630 0.032480
Si Si3 0.400810 0.710637 0.331314
Si Si4 0.882549 0.054440 0.023437
Si Si5 0.715969 0.814943 0.361842
Si Si6 0.237216 0.043728 0.554015
O O1 0.089258 0.362760 0.680133
O O2 0.082744 0.405023 0.984738
O O3 0.000000 0.265687 0.840177
O O4 0.100621 0.152589 0.872356
O O5 0.942160 0.663555 0.876136
O O6 0.000000 0.532425 0.094380
O O7 0.415411 0.619981 0.173911
O O8 0.401176 0.605131 0.483889
O O9 0.344708 0.793439 0.303676
O O10 0.818524 0.048336 0.058857
O O11 0.738285 0.661478 0.414675
O O12 0.717104 0.926973 0.509653
O O13 0.753133 0.881024 0.222751
#
# Coordination Sequence:
#
# PCOD8176045 Si02
#       6
#     8   8   8   8   8   8
#     4  10  22  42  67  95 131 174 220 272 330 391
#     4  10  22  41  66  98 134 173 221 273 326 391
#     4  11  24  40  63  92 125 168 216 268 328 390
#     4  11  23  41  64  92 127 169 217 272 327 390
#     4  11  24  41  64  92 126 168 211 266 326 390
#     4  11  23  43  66  93 129 168 217 269 327 392
#
# _framework density 24.675847000000001
#
# number of rings (size 3 to 8) (size 9 to 14) (size 15 to 20)
#    0.000    1.333    0.000    6.000    0.000    8.000 
#    0.000    0.000    0.000    0.000    0.000    0.000 
#    0.000    0.000    0.000    0.000    0.000    0.000 
#
# Total GULP energy -297476.193970 kJ/mol
# GULP energy per Si atom -12394.841415 kJ/mol
# Density = 2.461968 g / cm^3
# Si number density = 24.675847 Si / 1000 Ang^3
#
#
#
# Elastic Constant Matrix: (Units=GPa)
#
#
# Indices 1 2 3 4 5 6 
#
# 1 40.2326 41.5531 17.7479 0.0000 0.0000 0.0000
# 2 41.5531 110.5848 15.3556 0.0000 0.0000 0.0000
# 3 17.7479 15.3556 70.4931 0.0000 0.0000 0.0000
# 4 0.0000 0.0000 0.0000 52.0224 0.0000 0.0000
# 5 0.0000 0.0000 0.0000 0.0000 29.8086 0.0000
# 6 0.0000 0.0000 0.0000 0.0000 0.0000 42.8118
#
#
#
# Elastic Compliance Matrix: (Units=1/GPa)
#
#
# Indices 1 2 3 4 5 6 
#
# 1 0.044405 -0.015605 -0.007780 0.000000 0.000000 0.000000
# 2 -0.015605 0.014809 0.000703 0.000000 0.000000 0.000000
# 3 -0.007780 0.000703 0.015992 0.000000 0.000000 0.000000
# 4 0.000000 0.000000 0.000000 0.019223 0.000000 0.000000
# 5 0.000000 0.000000 0.000000 0.000000 0.033547 0.000000
# 6 0.000000 0.000000 0.000000 0.000000 0.000000 0.023358
#
#
# Mechanical properties :
#
#
# Convention : Reuss Voigt Hill
#
# Bulk Modulus (GPa) = 33.51173 41.18040 37.34607
# Shear Modulus (GPa) = 24.19605 34.70549 29.45077
#
# Velocity S-wave (km/s) = 3.13478 3.75434 3.45846
# Velocity P-wave (km/s) = 5.16844 5.95972 5.57813
#
# Compressibility (1/GPa) = 0.02984030
#
# Stress axis : x y z
#
# Youngs Moduli (GPa) = 22.51998 67.52664 62.53317
#
# Poissons Ratio (x) = 1.05376 0.48654
# Poissons Ratio (y) = 0.35143 -0.04396
# Poissons Ratio (z) = 0.17522 -0.04747
#
# Static dielectric constant tensor:
#      x y z
#    x 3.942900 0.000000 0.000000 
#    y 0.000000 4.682590 0.000000 
#    z 0.000000 0.000000 4.526880 
# 
# 
# High freq. dielectric constant tensor:
#      x y z
#    x 1.938830 0.000000 0.000000 
#    y 0.000000 2.008160 0.000000 
#    z 0.000000 0.000000 1.991090 
# 
# From -- ./inp_files/5975.got.cif
#   From: 2010.03.12/outbox.cif.g09.slc.cpg/sg36_3_cif.got.tgz:5975.got - 2010.04.14 02:13:53.
