data_PCOD8176792
_publ_section_title
;
Structure prediction by ZEFSAII (Michael W. Deem and Ramdas Pophale) SiO2 
 PCOD8176792
Probable space group: C C C 2
;
_chemical_formula_sum "Si O2"
_cell_formula_units_Z 64
_cell_length_a 9.147278
_cell_length_b 29.872880
_cell_length_c 10.623201
_cell_angle_alpha 90.000000
_cell_angle_beta 90.000000
_cell_angle_gamma 90.000000
_cell_volume 2902.848505
_symmetry_space_group_name_H-M "C C C 2"
_symmetry_group_IT_number 37
_symmetry_cell_setting 'orthorhombic'
loop_
_space_group_symop_operation_xyz
x,y,z
-x,-y,z
-x,y,1/2+z
x,-y,1/2+z
1/2+x,1/2+y,z
1/2-x,1/2-y,z
1/2-x,1/2+y,1/2+z
1/2+x,1/2-y,1/2+z
loop_
_atom_site_type_symbol
_atom_site_label
_atom_site_fract_x
_atom_site_fract_y
_atom_site_fract_z
Si Si1 0.606843 0.720216 0.181290
Si Si2 0.196269 0.972265 0.927267
Si Si3 0.968746 0.355131 0.979568
Si Si4 0.085342 0.426208 0.273312
Si Si5 0.794873 0.581458 0.652323
Si Si6 0.600366 0.570609 0.886540
Si Si7 0.225381 0.128403 0.097988
Si Si8 0.582635 0.753945 0.449586
O O1 0.750000 0.750000 0.169535
O O2 0.641269 0.667517 0.172181
O O3 0.535932 0.728957 0.319400
O O4 0.502721 0.733658 0.067113
O O5 0.208884 0.954381 0.068754
O O6 0.350717 0.966032 0.857259
O O7 0.067920 0.942902 0.859917
O O8 0.175523 0.024973 0.932813
O O9 0.843643 0.373329 0.077120
O O10 0.128089 0.351577 0.038878
O O11 0.976661 0.386328 0.858553
O O12 0.937083 0.306364 0.928458
O O13 0.223225 0.410336 0.191591
O O14 0.945659 0.442855 0.194693
O O15 0.681685 0.591669 0.765095
O O16 0.614289 0.607477 0.995974
O O17 0.750000 0.750000 0.483709
#
# Coordination Sequence:
#
# PCOD8176792 Si02
#       8
#     8   8   8   8   8   8   8   8
#     4  11  24  45  69 101 138 184 231 284 354 424
#     4  10  26  44  65  99 140 186 230 286 358 416
#     4  10  21  44  70  98 136 177 228 283 351 411
#     4  10  21  43  67  99 132 175 228 288 338 412
#     4  10  23  43  68 101 132 182 234 284 344 420
#     4  11  25  44  68  97 139 190 232 288 359 418
#     4  11  23  41  69  97 135 183 227 288 344 411
#     4  11  25  44  71 103 138 182 226 291 354 424
#
# _framework density 22.047308999999998
#
# number of rings (size 3 to 8) (size 9 to 14) (size 15 to 20)
#    0.000    1.500    2.500    1.500    5.250    5.000 
#    4.500    0.000    0.000    0.000    0.000    0.000 
#    0.000    0.000    0.000    0.000    0.000    0.000 
#
# Total GULP energy -396723.712596 kJ/mol
# GULP energy per Si atom -12397.616019 kJ/mol
# Density = 2.199713 g / cm^3
# Si number density = 22.047309 Si / 1000 Ang^3
#
#
#
# Elastic Constant Matrix: (Units=GPa)
#
#
# Indices 1 2 3 4 5 6 
#
# 1 68.8035 20.0432 35.1759 0.0000 0.0000 0.0000
# 2 20.0432 25.4935 -7.5467 0.0000 0.0000 0.0000
# 3 35.1759 -7.5467 113.2990 0.0000 0.0000 0.0000
# 4 0.0000 0.0000 0.0000 24.4292 0.0000 0.0000
# 5 0.0000 0.0000 0.0000 0.0000 42.5660 0.0000
# 6 0.0000 0.0000 0.0000 0.0000 0.0000 31.6172
#
#
#
# Elastic Compliance Matrix: (Units=1/GPa)
#
#
# Indices 1 2 3 4 5 6 
#
# 1 0.026434 -0.023679 -0.009784 0.000000 0.000000 0.000000
# 2 -0.023679 0.061226 0.011430 0.000000 0.000000 0.000000
# 3 -0.009784 0.011430 0.012625 0.000000 0.000000 0.000000
# 4 0.000000 0.000000 0.000000 0.040935 0.000000 0.000000
# 5 0.000000 0.000000 0.000000 0.000000 0.023493 0.000000
# 6 0.000000 0.000000 0.000000 0.000000 0.000000 0.031628
#
#
# Mechanical properties :
#
#
# Convention : Reuss Voigt Hill
#
# Bulk Modulus (GPa) = 17.78780 33.66011 25.72395
# Shear Modulus (GPa) = 19.29391 30.38404 24.83898
#
# Velocity S-wave (km/s) = 2.96144 3.71634 3.36016
# Velocity P-wave (km/s) = 4.44736 5.80649 5.17177
#
# Compressibility (1/GPa) = 0.05621831
#
# Stress axis : x y z
#
# Youngs Moduli (GPa) = 37.82939 16.33285 79.20619
#
# Poissons Ratio (x) = 0.38675 0.77498
# Poissons Ratio (y) = 0.89578 -0.90532
# Poissons Ratio (z) = 0.37014 -0.18668
#
# Static dielectric constant tensor:
#      x y z
#    x 3.995890 0.000000 0.000000 
#    y 0.000000 3.801030 0.000000 
#    z 0.000000 0.000000 4.214640 
# 
# 
# High freq. dielectric constant tensor:
#      x y z
#    x 1.870760 0.000000 0.000000 
#    y 0.000000 1.859500 0.000000 
#    z 0.000000 0.000000 1.878460 
# 
# From -- ./inp_files/6641.got.cif
#   From: 2010.03.12/outbox.cif.g09.slc.cpg/sg37_4_cif.got.tgz:6641.got - 2010.04.14 02:25:27.
