data_PCOD8176060
_publ_section_title
;
Structure prediction by ZEFSAII (Michael W. Deem and Ramdas Pophale) SiO2 
 PCOD8176060
Probable space group: C M C 21
;
_chemical_formula_sum "Si O2"
_cell_formula_units_Z 64
_cell_length_a 8.524298
_cell_length_b 30.439302
_cell_length_c 11.974284
_cell_angle_alpha 90.000000
_cell_angle_beta 90.000000
_cell_angle_gamma 90.000000
_cell_volume 3107.011549
_symmetry_space_group_name_H-M "C M C 21"
_symmetry_group_IT_number 36
_symmetry_cell_setting 'orthorhombic'
loop_
_space_group_symop_operation_xyz
x,y,z
-x,-y,1/2+z
x,-y,1/2+z
-x,y,z
1/2+x,1/2+y,z
1/2-x,1/2-y,1/2+z
1/2+x,1/2-y,1/2+z
1/2-x,1/2+y,z
loop_
_atom_site_type_symbol
_atom_site_label
_atom_site_fract_x
_atom_site_fract_y
_atom_site_fract_z
Si Si1 0.179594 0.415738 0.072960
Si Si2 0.185994 0.377042 0.421524
Si Si3 0.682142 0.455816 0.279023
Si Si4 0.317441 0.206034 0.775237
Si Si5 0.682496 0.203658 0.333802
Si Si6 0.186090 0.626462 0.175571
Si Si7 0.682300 0.952524 0.828947
Si Si8 0.179608 0.174433 0.558227
O O1 0.223628 0.452797 0.162695
O O2 0.290304 0.374691 0.101879
O O3 0.000000 0.401468 0.089801
O O4 0.211462 0.432228 0.949633
O O5 0.262203 0.419889 0.368130
O O6 0.239059 0.333314 0.356003
O O7 0.247722 0.372895 0.548755
O O8 0.000000 0.382804 0.419289
O O9 0.500000 0.449482 0.256065
O O10 0.714545 0.503971 0.326126
O O11 0.500000 0.200958 0.748900
O O12 0.283545 0.252086 0.834337
O O13 0.221456 0.206758 0.659759
O O14 0.500000 0.214326 0.315701
O O15 0.747019 0.169981 0.239687
O O16 0.705980 0.181912 0.454260
O O17 0.245413 0.582300 0.237414
O O18 0.000000 0.626884 0.181964
O O19 0.500000 0.964059 0.809967
O O20 0.000000 0.181645 0.522933
#
# Coordination Sequence:
#
# PCOD8176060 Si02
#       8
#     8   8   8   8   8   8   8   8
#     4  11  22  42  69  93 121 164 216 266 317 377
#     4  10  22  42  66  89 124 169 214 259 310 378
#     4  12  26  41  61  94 132 165 206 260 321 377
#     4  11  24  41  64  96 130 169 215 263 319 379
#     4  11  23  42  67  96 130 167 211 264 321 382
#     4   9  20  41  66  92 121 163 211 257 311 373
#     4  10  22  42  67  92 122 165 214 258 311 378
#     4  12  24  41  66  94 128 168 213 267 322 376
#
# _framework density 20.598572000000001
#
# number of rings (size 3 to 8) (size 9 to 14) (size 15 to 20)
#    0.000    1.250    2.500    3.375    3.500    1.500 
#    0.000    1.250    0.000    0.000    0.000    0.000 
#    0.000    0.000    0.000    0.000    0.000    0.000 
#
# Total GULP energy -396977.888736 kJ/mol
# GULP energy per Si atom -12405.559023 kJ/mol
# Density = 2.055169 g / cm^3
# Si number density = 20.598572 Si / 1000 Ang^3
#
#
#
# Elastic Constant Matrix: (Units=GPa)
#
#
# Indices 1 2 3 4 5 6 
#
# 1 54.9032 31.1327 39.1508 0.0000 0.0000 0.0000
# 2 31.1327 131.7276 43.8010 0.0000 0.0000 0.0000
# 3 39.1508 43.8010 137.8871 0.0000 0.0000 0.0000
# 4 0.0000 0.0000 0.0000 20.8578 0.0000 0.0000
# 5 0.0000 0.0000 0.0000 0.0000 21.9460 0.0000
# 6 0.0000 0.0000 0.0000 0.0000 0.0000 32.3197
#
#
#
# Elastic Compliance Matrix: (Units=1/GPa)
#
#
# Indices 1 2 3 4 5 6 
#
# 1 0.024498 -0.003888 -0.005721 0.000000 0.000000 0.000000
# 2 -0.003888 0.009105 -0.001788 0.000000 0.000000 0.000000
# 3 -0.005721 -0.001788 0.009445 0.000000 0.000000 0.000000
# 4 0.000000 0.000000 0.000000 0.047944 0.000000 0.000000
# 5 0.000000 0.000000 0.000000 0.000000 0.045566 0.000000
# 6 0.000000 0.000000 0.000000 0.000000 0.000000 0.030941
#
#
# Mechanical properties :
#
#
# Convention : Reuss Voigt Hill
#
# Bulk Modulus (GPa) = 49.37363 61.40967 55.39165
# Shear Modulus (GPa) = 25.37514 29.05360 27.21437
#
# Velocity S-wave (km/s) = 3.51363 3.75969 3.63874
# Velocity P-wave (km/s) = 6.36257 6.98028 6.67857
#
# Compressibility (1/GPa) = 0.02025372
#
# Stress axis : x y z
#
# Youngs Moduli (GPa) = 40.82007 109.83097 105.87891
#
# Poissons Ratio (x) = 0.42698 0.60571
# Poissons Ratio (y) = 0.15869 0.18936
# Poissons Ratio (z) = 0.23352 0.19642
#
# Static dielectric constant tensor:
#      x y z
#    x 3.460640 0.000000 0.000000 
#    y 0.000000 3.726020 0.000000 
#    z 0.000000 0.000000 3.845060 
# 
# 
# High freq. dielectric constant tensor:
#      x y z
#    x 1.789520 0.000000 0.000000 
#    y 0.000000 1.812800 0.000000 
#    z 0.000000 0.000000 1.818660 
# 
# From -- ./inp_files/7059.got.cif
#   From: 2010.03.12/outbox.cif.g09.slc.cpg/sg36_4_cif.got.tgz:7059.got - 2010.04.14 02:13:53.
