data_PCOD8176690
_publ_section_title
;
Structure prediction by ZEFSAII (Michael W. Deem and Ramdas Pophale) SiO2 
 PCOD8176690
Probable space group: C C C 2
;
_chemical_formula_sum "Si O2"
_cell_formula_units_Z 32
_cell_length_a 7.376918
_cell_length_b 39.091596
_cell_length_c 5.192283
_cell_angle_alpha 90.000000
_cell_angle_beta 90.000000
_cell_angle_gamma 90.000000
_cell_volume 1497.327197
_symmetry_space_group_name_H-M "C C C 2"
_symmetry_group_IT_number 37
_symmetry_cell_setting 'orthorhombic'
loop_
_space_group_symop_operation_xyz
x,y,z
-x,-y,z
-x,y,1/2+z
x,-y,1/2+z
1/2+x,1/2+y,z
1/2-x,1/2-y,z
1/2-x,1/2+y,1/2+z
1/2+x,1/2-y,1/2+z
loop_
_atom_site_type_symbol
_atom_site_label
_atom_site_fract_x
_atom_site_fract_y
_atom_site_fract_z
Si Si1 0.616149 0.418370 0.365960
Si Si2 0.881820 0.159193 0.380789
Si Si3 0.385876 0.780618 0.433434
Si Si4 0.797441 0.485260 0.453615
O O1 0.464440 0.424860 0.582971
O O2 0.690197 0.379783 0.389741
O O3 0.784943 0.444358 0.408746
O O4 0.707034 0.182804 0.395511
O O5 0.013951 0.167208 0.617523
O O6 0.545509 0.777614 0.225461
O O7 0.250000 0.750000 0.376862
O O8 0.696704 0.495154 0.719560
O O9 0.000000 0.500000 0.492944
#
# Coordination Sequence:
#
# PCOD8176690 Si02
#       4
#     8   8   8   8
#     4  10  21  37  60  85 113 154 199 245 300 359
#     4  10  21  41  63  89 125 162 201 255 309 361
#     4  12  24  41  64  97 127 167 207 248 300 359
#     4  10  21  37  53  81 113 151 191 242 309 343
#
# _framework density 21.371414999999999
#
# number of rings (size 3 to 8) (size 9 to 14) (size 15 to 20)
#    0.000    1.500    0.000    5.250    0.000    3.000 
#    9.000    0.000    0.000    0.000    0.000    0.000 
#    0.000    0.000    0.000    0.000    0.000    0.000 
#
# Total GULP energy -198373.622197 kJ/mol
# GULP energy per Si atom -12398.351387 kJ/mol
# Density = 2.132277 g / cm^3
# Si number density = 21.371415 Si / 1000 Ang^3
#
#
#
# Elastic Constant Matrix: (Units=GPa)
#
#
# Indices 1 2 3 4 5 6 
#
# 1 52.5502 42.4206 -17.4752 0.0000 0.0000 0.0000
# 2 42.4206 131.4827 -0.1036 0.0000 0.0000 0.0000
# 3 -17.4752 -0.1036 67.7045 0.0000 0.0000 0.0000
# 4 0.0000 0.0000 0.0000 18.0503 0.0000 0.0000
# 5 0.0000 0.0000 0.0000 0.0000 25.1297 0.0000
# 6 0.0000 0.0000 0.0000 0.0000 0.0000 51.2368
#
#
#
# Elastic Compliance Matrix: (Units=1/GPa)
#
#
# Indices 1 2 3 4 5 6 
#
# 1 0.029095 -0.009381 0.007495 0.000000 0.000000 0.000000
# 2 -0.009381 0.010630 -0.002405 0.000000 0.000000 0.000000
# 3 0.007495 -0.002405 0.016701 0.000000 0.000000 0.000000
# 4 0.000000 0.000000 0.000000 0.055401 0.000000 0.000000
# 5 0.000000 0.000000 0.000000 0.000000 0.039793 0.000000
# 6 0.000000 0.000000 0.000000 0.000000 0.000000 0.019517
#
#
# Mechanical properties :
#
#
# Convention : Reuss Voigt Hill
#
# Bulk Modulus (GPa) = 20.90110 33.49122 27.19616
# Shear Modulus (GPa) = 25.55359 34.00971 29.78165
#
# Velocity S-wave (km/s) = 3.46163 3.99352 3.73705
# Velocity P-wave (km/s) = 5.07723 6.08024 5.60123
#
# Compressibility (1/GPa) = 0.04784437
#
# Stress axis : x y z
#
# Youngs Moduli (GPa) = 34.37058 94.07084 59.87666
#
# Poissons Ratio (x) = 0.88248 -0.44879
# Poissons Ratio (y) = 0.32243 0.14401
# Poissons Ratio (z) = -0.25762 0.22625
#
# Static dielectric constant tensor:
#      x y z
#    x 3.433750 0.000000 0.000000 
#    y 0.000000 4.285370 0.000000 
#    z 0.000000 0.000000 4.854400 
# 
# 
# High freq. dielectric constant tensor:
#      x y z
#    x 1.802230 0.000000 0.000000 
#    y 0.000000 1.853640 0.000000 
#    z 0.000000 0.000000 1.875460 
# 
# From -- ./inp_files/160.got.cif
#   From: 2010.03.12/outbox.cif.g09.slc.cpg/sg37_1_cif.got.tgz:160.got - 2010.04.14 02:25:27.
