data_PCOD8176299
_publ_section_title
;
Structure prediction by ZEFSAII (Michael W. Deem and Ramdas Pophale) SiO2 
 PCOD8176299
Probable space group: C M C 21
;
_chemical_formula_sum "Si O2"
_cell_formula_units_Z 48
_cell_length_a 8.624587
_cell_length_b 21.791971
_cell_length_c 12.627043
_cell_angle_alpha 90.000000
_cell_angle_beta 90.000000
_cell_angle_gamma 90.000000
_cell_volume 2373.211691
_symmetry_space_group_name_H-M "C M C 21"
_symmetry_group_IT_number 36
_symmetry_cell_setting 'orthorhombic'
loop_
_space_group_symop_operation_xyz
x,y,z
-x,-y,1/2+z
x,-y,1/2+z
-x,y,z
1/2+x,1/2+y,z
1/2-x,1/2-y,1/2+z
1/2+x,1/2-y,1/2+z
1/2-x,1/2+y,z
loop_
_atom_site_type_symbol
_atom_site_label
_atom_site_fract_x
_atom_site_fract_y
_atom_site_fract_z
Si Si1 0.319928 0.319462 0.726120
Si Si2 0.318072 0.303983 0.147193
Si Si3 0.174973 0.393163 0.549631
Si Si4 0.324241 0.002898 0.414597
Si Si5 0.682493 0.140453 0.439044
Si Si6 0.181100 0.889717 0.337544
O O1 0.500000 0.321183 0.755445
O O2 0.277346 0.257838 0.664381
O O3 0.280573 0.376811 0.649884
O O4 0.218257 0.322796 0.832109
O O5 0.500000 0.290285 0.155717
O O6 0.263430 0.354056 0.233423
O O7 0.278494 0.328887 0.032130
O O8 0.182451 0.466905 0.528168
O O9 0.235784 0.360079 0.441431
O O10 0.000000 0.370896 0.572278
O O11 0.500000 0.007431 0.372662
O O12 0.254917 0.070687 0.427000
O O13 0.228341 0.962109 0.328805
O O14 0.500000 0.142475 0.464110
O O15 0.000000 0.883342 0.354702
#
# Coordination Sequence:
#
# PCOD8176299 Si02
#       6
#     8   8   8   8   8   8
#     4  12  26  42  63  91 124 166 208 256 312 368
#     4  11  25  43  63  90 125 165 207 258 310 368
#     4   9  19  39  64  91 122 161 204 248 303 366
#     4   8  19  38  63  92 124 163 203 248 307 369
#     4  11  24  43  64  92 125 162 208 257 307 368
#     4   9  19  37  63  92 122 159 204 251 305 361
#
# _framework density 20.225756000000001
#
# number of rings (size 3 to 8) (size 9 to 14) (size 15 to 20)
#    1.000    1.000    0.000    3.000    2.333    5.333 
#    0.000    5.000    0.000    0.000    0.000    0.000 
#    0.000    0.000    0.000    0.000    0.000    0.000 
#
# Total GULP energy -297517.143118 kJ/mol
# GULP energy per Si atom -12396.547630 kJ/mol
# Density = 2.017972 g / cm^3
# Si number density = 20.225756 Si / 1000 Ang^3
#
#
#
# Elastic Constant Matrix: (Units=GPa)
#
#
# Indices 1 2 3 4 5 6 
#
# 1 70.5180 24.3378 14.6738 0.0000 0.0000 0.0000
# 2 24.3378 84.4004 23.2608 0.0000 0.0000 0.0000
# 3 14.6738 23.2608 105.3893 0.0000 0.0000 0.0000
# 4 0.0000 0.0000 0.0000 31.1327 0.0000 0.0000
# 5 0.0000 0.0000 0.0000 0.0000 31.7855 0.0000
# 6 0.0000 0.0000 0.0000 0.0000 0.0000 29.8858
#
#
#
# Elastic Compliance Matrix: (Units=1/GPa)
#
#
# Indices 1 2 3 4 5 6 
#
# 1 0.015909 -0.004235 -0.001280 0.000000 0.000000 0.000000
# 2 -0.004235 0.013743 -0.002444 0.000000 0.000000 0.000000
# 3 -0.001280 -0.002444 0.010206 0.000000 0.000000 0.000000
# 4 0.000000 0.000000 0.000000 0.032121 0.000000 0.000000
# 5 0.000000 0.000000 0.000000 0.000000 0.031461 0.000000
# 6 0.000000 0.000000 0.000000 0.000000 0.000000 0.033461
#
#
# Mechanical properties :
#
#
# Convention : Reuss Voigt Hill
#
# Bulk Modulus (GPa) = 41.77010 42.76138 42.26574
# Shear Modulus (GPa) = 31.09504 31.76315 31.42910
#
# Velocity S-wave (km/s) = 3.92522 3.96717 3.94625
# Velocity P-wave (km/s) = 6.42183 6.49403 6.45803
#
# Compressibility (1/GPa) = 0.02394057
#
# Stress axis : x y z
#
# Youngs Moduli (GPa) = 62.85875 72.76516 97.97924
#
# Poissons Ratio (x) = 0.30813 0.12545
# Poissons Ratio (y) = 0.26618 0.23943
# Poissons Ratio (z) = 0.08048 0.17781
#
# Static dielectric constant tensor:
#      x y z
#    x 3.573360 0.000000 0.000000 
#    y 0.000000 3.686770 0.000000 
#    z 0.000000 0.000000 3.520560 
# 
# 
# High freq. dielectric constant tensor:
#      x y z
#    x 1.793330 0.000000 0.000000 
#    y 0.000000 1.784370 0.000000 
#    z 0.000000 0.000000 1.781760 
# 
# From -- ./inp_files/6747.got.cif
#   From: 2010.03.12/outbox.cif.g09.slc.cpg/sg36_4_cif.got.tgz:6747.got - 2010.04.14 02:13:53.
