data_PCOD8176369
_publ_section_title
;
Structure prediction by ZEFSAII (Michael W. Deem and Ramdas Pophale) SiO2 
 PCOD8176369
Probable space group: C C C 2
;
_chemical_formula_sum "Si O2"
_cell_formula_units_Z 40
_cell_length_a 33.789863
_cell_length_b 11.225543
_cell_length_c 5.290633
_cell_angle_alpha 90.000000
_cell_angle_beta 90.000000
_cell_angle_gamma 90.000000
_cell_volume 2006.787676
_symmetry_space_group_name_H-M "C C C 2"
_symmetry_group_IT_number 37
_symmetry_cell_setting 'orthorhombic'
loop_
_space_group_symop_operation_xyz
x,y,z
-x,-y,z
-x,y,1/2+z
x,-y,1/2+z
1/2+x,1/2+y,z
1/2-x,1/2-y,z
1/2-x,1/2+y,1/2+z
1/2+x,1/2-y,1/2+z
loop_
_atom_site_type_symbol
_atom_site_label
_atom_site_fract_x
_atom_site_fract_y
_atom_site_fract_z
Si Si1 0.694568 0.956218 0.516260
Si Si2 0.270192 0.622697 0.516934
Si Si3 0.187533 0.820044 0.017284
Si Si4 0.894313 0.923847 0.478849
Si Si5 0.983224 0.134177 0.988116
O O1 0.702217 0.816137 0.518377
O O2 0.670939 0.998998 0.265413
O O3 0.737375 0.019571 0.512310
O O4 0.250000 0.750000 0.513849
O O5 0.297777 0.611920 0.268310
O O6 0.296116 0.611005 0.771958
O O7 0.139937 0.825086 0.010790
O O8 0.936093 0.858090 0.503668
O O9 0.890675 0.020229 0.700917
O O10 0.998480 0.199841 0.733892
O O11 0.000000 0.000000 0.973997
#
# Coordination Sequence:
#
# PCOD8176369 Si02
#       5
#     8   8   8   8   8
#     4  12  23  39  61  75 104 144 196 238 282 326
#     4  12  23  41  61  79 102 155 200 237 282 332
#     4  12  26  41  54  85 113 140 195 245 286 330
#     4  12  23  38  56  86 121 155 179 229 286 336
#     4  10  16  32  59  80 111 152 179 210 270 345
#
# _framework density 19.932355000000001
#
# number of rings (size 3 to 8) (size 9 to 14) (size 15 to 20)
#    0.000    0.400    8.000    3.000    0.000    4.800 
#    0.000    0.000    0.000    0.000    0.000    0.000 
#    0.000    4.800    0.000    0.000    0.000    0.000 
#
# Total GULP energy -247911.924130 kJ/mol
# GULP energy per Si atom -12395.596207 kJ/mol
# Density = 1.988699 g / cm^3
# Si number density = 19.932355 Si / 1000 Ang^3
#
#
#
# Elastic Constant Matrix: (Units=GPa)
#
#
# Indices 1 2 3 4 5 6 
#
# 1 130.7868 35.1178 26.5206 0.0000 0.0000 0.0000
# 2 35.1178 90.7805 11.4732 0.0000 0.0000 0.0000
# 3 26.5206 11.4732 190.9988 0.0000 0.0000 0.0000
# 4 0.0000 0.0000 0.0000 -14.8862 0.0000 0.0000
# 5 0.0000 0.0000 0.0000 0.0000 -4.9727 0.0000
# 6 0.0000 0.0000 0.0000 0.0000 0.0000 7.6610
#
#
#
# Elastic Compliance Matrix: (Units=1/GPa)
#
#
# Indices 1 2 3 4 5 6 
#
# 1 0.008724 -0.003246 -0.001016 0.000000 0.000000 0.000000
# 2 -0.003246 0.012308 -0.000289 0.000000 0.000000 0.000000
# 3 -0.001016 -0.000289 0.005394 0.000000 0.000000 0.000000
# 4 0.000000 0.000000 0.000000 -0.067176 0.000000 0.000000
# 5 0.000000 0.000000 0.000000 0.000000 -0.201100 0.000000
# 6 0.000000 0.000000 0.000000 0.000000 0.000000 0.130531
#
#
# Mechanical properties :
#
#
# Convention : Reuss Voigt Hill
#
# Bulk Modulus (GPa) = 57.72546 62.08770 59.90658
# Shear Modulus (GPa) = -51.84452 20.19073 -15.82689
#
# Velocity S-wave (km/s) = -5.10556 3.18616 -2.82091
# Velocity P-wave (km/s) = 2.39417 6.68972 4.41703
#
# Compressibility (1/GPa) = 0.01732338
#
# Stress axis : x y z
#
# Youngs Moduli (GPa) = 114.62919 81.24888 185.38816
#
# Poissons Ratio (x) = 0.26376 0.18841
# Poissons Ratio (y) = 0.37212 0.05350
# Poissons Ratio (z) = 0.11650 0.02345
#
# Static dielectric constant tensor:
#      x y z
#    x 3.551360 0.000000 0.000000 
#    y 0.000000 3.319170 0.000000 
#    z 0.000000 0.000000 5.983780 
# 
# 
# High freq. dielectric constant tensor:
#      x y z
#    x 1.746000 0.000000 0.000000 
#    y 0.000000 1.735130 0.000000 
#    z 0.000000 0.000000 1.831540 
# 
# From -- ./inp_files/1456.got.cif
#   From: 2010.03.12/outbox.cif.g09.slc.cpg/sg37_1_cif.got.tgz:1456.got - 2010.04.14 02:25:27.
