data_PCOD8176673
_publ_section_title
;
Structure prediction by ZEFSAII (Michael W. Deem and Ramdas Pophale) SiO2 
 PCOD8176673
Probable space group: C C C 2
;
_chemical_formula_sum "Si O2"
_cell_formula_units_Z 48
_cell_length_a 13.896180
_cell_length_b 17.086646
_cell_length_c 9.097546
_cell_angle_alpha 90.000000
_cell_angle_beta 90.000000
_cell_angle_gamma 90.000000
_cell_volume 2160.113211
_symmetry_space_group_name_H-M "C C C 2"
_symmetry_group_IT_number 37
_symmetry_cell_setting 'orthorhombic'
loop_
_space_group_symop_operation_xyz
x,y,z
-x,-y,z
-x,y,1/2+z
x,-y,1/2+z
1/2+x,1/2+y,z
1/2-x,1/2-y,z
1/2-x,1/2+y,1/2+z
1/2+x,1/2-y,1/2+z
loop_
_atom_site_type_symbol
_atom_site_label
_atom_site_fract_x
_atom_site_fract_y
_atom_site_fract_z
Si Si1 0.000000 0.000000 0.210690
Si Si2 0.326563 0.088441 0.293527
Si Si3 0.250000 0.750000 0.744289
Si Si4 0.027029 0.654553 0.360891
Si Si5 0.793627 0.432668 0.451721
Si Si6 0.458290 0.743465 0.622186
Si Si7 0.082710 0.905490 0.468975
O O1 0.965600 0.070084 0.315532
O O2 0.083961 0.028905 0.099253
O O3 0.270129 0.169741 0.335642
O O4 0.439804 0.096377 0.326431
O O5 0.280425 0.021534 0.394889
O O6 0.320952 0.067145 0.122305
O O7 0.343845 0.737252 0.645595
O O8 0.128279 0.609267 0.345428
O O9 0.018299 0.679702 0.528982
O O10 0.020547 0.736778 0.267902
O O11 0.693404 0.385935 0.433689
O O12 0.483821 0.664338 0.535145
#
# Coordination Sequence:
#
# PCOD8176673 Si02
#       7
#     4   8   4   8   8   8   8
#     4  10  24  42  64 104 130 182 234 296 356 404
#     4  11  25  42  72  98 147 178 238 278 355 409
#     4  10  20  46  64  92 130 188 220 282 344 414
#     4  11  23  40  66 102 137 190 224 280 349 416
#     4  12  24  43  70 104 137 187 227 291 344 420
#     4  11  21  40  67  92 135 184 229 284 345 414
#     4  11  22  43  70  97 139 178 238 288 353 416
#
# _framework density 22.221056999999998
#
# number of rings (size 3 to 8) (size 9 to 14) (size 15 to 20)
#    0.000    1.000    5.000    2.500    2.333    1.333 
#    3.000    0.000    0.000    2.000    0.000    0.000 
#    0.000    0.000    0.000    0.000    0.000    0.000 
#
# Total GULP energy -297399.032256 kJ/mol
# GULP energy per Si atom -12391.626344 kJ/mol
# Density = 2.217048 g / cm^3
# Si number density = 22.221057 Si / 1000 Ang^3
#
#
#
# Elastic Constant Matrix: (Units=GPa)
#
#
# Indices 1 2 3 4 5 6 
#
# 1 108.4124 21.5950 45.5543 0.0000 0.0000 0.0000
# 2 21.5950 112.9714 31.7933 0.0000 0.0000 0.0000
# 3 45.5543 31.7933 69.5863 0.0000 0.0000 0.0000
# 4 0.0000 0.0000 0.0000 52.4837 0.0000 0.0000
# 5 0.0000 0.0000 0.0000 0.0000 21.8344 0.0000
# 6 0.0000 0.0000 0.0000 0.0000 0.0000 34.4215
#
#
#
# Elastic Compliance Matrix: (Units=1/GPa)
#
#
# Indices 1 2 3 4 5 6 
#
# 1 0.012725 -0.000101 -0.008284 0.000000 0.000000 0.000000
# 2 -0.000101 0.010159 -0.004575 0.000000 0.000000 0.000000
# 3 -0.008284 -0.004575 0.021884 0.000000 0.000000 0.000000
# 4 0.000000 0.000000 0.000000 0.019054 0.000000 0.000000
# 5 0.000000 0.000000 0.000000 0.000000 0.045799 0.000000
# 6 0.000000 0.000000 0.000000 0.000000 0.000000 0.029052
#
#
# Mechanical properties :
#
#
# Convention : Reuss Voigt Hill
#
# Bulk Modulus (GPa) = 53.05891 54.31726 53.68808
# Shear Modulus (GPa) = 29.26095 34.54976 31.90536
#
# Velocity S-wave (km/s) = 3.63273 3.94740 3.79333
# Velocity P-wave (km/s) = 6.44401 6.72853 6.58780
#
# Compressibility (1/GPa) = 0.01884698
#
# Stress axis : x y z
#
# Youngs Moduli (GPa) = 78.58427 98.43757 45.69485
#
# Poissons Ratio (x) = 0.00995 0.37855
# Poissons Ratio (y) = 0.00794 0.20907
# Poissons Ratio (z) = 0.65102 0.45038
#
# Static dielectric constant tensor:
#      x y z
#    x 4.007930 0.000000 0.000000 
#    y 0.000000 4.274160 0.000000 
#    z 0.000000 0.000000 3.967130 
# 
# 
# High freq. dielectric constant tensor:
#      x y z
#    x 1.864070 0.000000 0.000000 
#    y 0.000000 1.881850 0.000000 
#    z 0.000000 0.000000 1.873080 
# 
# From -- ./inp_files/3517.got.cif
#   From: 2010.03.12/outbox.cif.g09.slc.cpg/sg37_2_cif.got.tgz:3517.got - 2010.04.14 02:25:27.
