data_PCOD8176865
_publ_section_title
;
Structure prediction by ZEFSAII (Michael W. Deem and Ramdas Pophale) SiO2 
 PCOD8176865
Probable space group: C C C 2
;
_chemical_formula_sum "Si O2"
_cell_formula_units_Z 60
_cell_length_a 11.897416
_cell_length_b 10.941452
_cell_length_c 21.922770
_cell_angle_alpha 90.000000
_cell_angle_beta 90.000000
_cell_angle_gamma 90.000000
_cell_volume 2853.796718
_symmetry_space_group_name_H-M "C C C 2"
_symmetry_group_IT_number 37
_symmetry_cell_setting 'orthorhombic'
loop_
_space_group_symop_operation_xyz
x,y,z
-x,-y,z
-x,y,1/2+z
x,-y,1/2+z
1/2+x,1/2+y,z
1/2-x,1/2-y,z
1/2-x,1/2+y,1/2+z
1/2+x,1/2-y,1/2+z
loop_
_atom_site_type_symbol
_atom_site_label
_atom_site_fract_x
_atom_site_fract_y
_atom_site_fract_z
Si Si1 0.000000 0.500000 0.588610
Si Si2 0.978979 0.863194 0.360490
Si Si3 0.436105 0.126354 0.292735
Si Si4 0.629140 0.194580 0.660094
Si Si5 0.769746 0.401456 0.899321
Si Si6 0.135274 0.703793 0.017610
Si Si7 0.461976 0.370274 0.068992
Si Si8 0.325738 0.363965 0.955850
O O1 0.095829 0.566138 0.628975
O O2 0.074137 0.411916 0.546865
O O3 0.008149 0.743700 0.318328
O O4 0.848449 0.843943 0.377864
O O5 0.057469 0.858981 0.419642
O O6 0.000000 0.000000 0.330062
O O7 0.380238 0.180311 0.232053
O O8 0.342137 0.079378 0.339114
O O9 0.500000 0.000000 0.277222
O O10 0.750000 0.250000 0.643002
O O11 0.543109 0.291630 0.630738
O O12 0.751441 0.525431 0.935240
O O13 0.838850 0.316793 0.946320
O O14 0.250000 0.750000 0.051154
O O15 0.052810 0.818568 0.021463
O O16 0.500000 0.500000 0.093139
O O17 0.347878 0.375254 0.028606
O O18 0.250000 0.250000 0.940503
#
# Coordination Sequence:
#
# PCOD8176865 Si02
#       8
#     4   8   8   8   8   8   8   8
#     4  10  26  44  64 102 132 172 238 282 336 416
#     4  10  22  41  63  96 135 170 221 279 347 425
#     4  12  24  43  69  96 133 176 236 283 343 419
#     4  11  25  45  68  90 130 182 226 283 338 418
#     4  11  23  38  67  99 131 176 218 278 353 416
#     4  11  23  39  67  97 137 170 212 286 347 407
#     4  11  24  40  63  96 129 173 225 277 346 424
#     4  11  22  37  62 100 136 168 216 283 355 417
#
# _framework density 21.024622000000001
#
# number of rings (size 3 to 8) (size 9 to 14) (size 15 to 20)
#    0.000    1.067    0.667    6.800    8.400    0.533 
#    0.000    0.000    0.000    0.000    0.000    0.000 
#    0.000    0.000    0.000    0.000    0.000    0.000 
#
# Total GULP energy -371703.533965 kJ/mol
# GULP energy per Si atom -12390.117799 kJ/mol
# Density = 2.097677 g / cm^3
# Si number density = 21.024622 Si / 1000 Ang^3
#
#
#
# Elastic Constant Matrix: (Units=GPa)
#
#
# Indices 1 2 3 4 5 6 
#
# 1 93.1944 27.9087 35.6124 0.0000 0.0000 0.0000
# 2 27.9087 125.1368 28.9800 0.0000 0.0000 0.0000
# 3 35.6124 28.9800 97.3895 0.0000 0.0000 0.0000
# 4 0.0000 0.0000 0.0000 22.6265 0.0000 0.0000
# 5 0.0000 0.0000 0.0000 0.0000 22.6782 0.0000
# 6 0.0000 0.0000 0.0000 0.0000 0.0000 39.1020
#
#
#
# Elastic Compliance Matrix: (Units=1/GPa)
#
#
# Indices 1 2 3 4 5 6 
#
# 1 0.012887 -0.001915 -0.004142 0.000000 0.000000 0.000000
# 2 -0.001915 0.008867 -0.001938 0.000000 0.000000 0.000000
# 3 -0.004142 -0.001938 0.012360 0.000000 0.000000 0.000000
# 4 0.000000 0.000000 0.000000 0.044196 0.000000 0.000000
# 5 0.000000 0.000000 0.000000 0.000000 0.044095 0.000000
# 6 0.000000 0.000000 0.000000 0.000000 0.000000 0.025574
#
#
# Mechanical properties :
#
#
# Convention : Reuss Voigt Hill
#
# Bulk Modulus (GPa) = 55.18095 55.63586 55.40841
# Shear Modulus (GPa) = 29.40989 31.76264 30.58627
#
# Velocity S-wave (km/s) = 3.74415 3.89103 3.81830
# Velocity P-wave (km/s) = 6.70779 6.83422 6.77130
#
# Compressibility (1/GPa) = 0.01812220
#
# Stress axis : x y z
#
# Youngs Moduli (GPa) = 77.59984 112.77518 80.90842
#
# Poissons Ratio (x) = 0.21593 0.33516
# Poissons Ratio (y) = 0.14858 0.15684
# Poissons Ratio (z) = 0.32146 0.21861
#
# Static dielectric constant tensor:
#      x y z
#    x 3.802840 0.000000 0.000000 
#    y 0.000000 4.169830 0.000000 
#    z 0.000000 0.000000 3.584720 
# 
# 
# High freq. dielectric constant tensor:
#      x y z
#    x 1.821650 0.000000 0.000000 
#    y 0.000000 1.853100 0.000000 
#    z 0.000000 0.000000 1.807590 
# 
# From -- ./inp_files/16924.got.cif
#   From: 2010.03.12/outbox.cif.g09.slc.cpg/sg37_9_cif.got.tgz:16924.got - 2010.04.14 02:25:27.
