data_PCOD8176249
_publ_section_title
;
Structure prediction by ZEFSAII (Michael W. Deem and Ramdas Pophale) SiO2 
 PCOD8176249
Probable space group: C M C 21
;
_chemical_formula_sum "Si O2"
_cell_formula_units_Z 48
_cell_length_a 17.217402
_cell_length_b 14.801350
_cell_length_c 8.334806
_cell_angle_alpha 90.000000
_cell_angle_beta 90.000000
_cell_angle_gamma 90.000000
_cell_volume 2124.048571
_symmetry_space_group_name_H-M "C M C 21"
_symmetry_group_IT_number 36
_symmetry_cell_setting 'orthorhombic'
loop_
_space_group_symop_operation_xyz
x,y,z
-x,-y,1/2+z
x,-y,1/2+z
-x,y,z
1/2+x,1/2+y,z
1/2-x,1/2-y,1/2+z
1/2+x,1/2-y,1/2+z
1/2-x,1/2+y,z
loop_
_atom_site_type_symbol
_atom_site_label
_atom_site_fract_x
_atom_site_fract_y
_atom_site_fract_z
Si Si1 0.587471 0.454472 0.231620
Si Si2 0.695121 0.233670 0.715735
Si Si3 0.173466 0.094833 0.425431
Si Si4 0.914072 0.409082 0.793505
Si Si5 0.354268 0.718124 0.861764
Si Si6 0.836268 0.447802 0.098449
O O1 0.500000 0.493479 0.234788
O O2 0.651288 0.529859 0.276772
O O3 0.593350 0.371521 0.357046
O O4 0.605469 0.416633 0.054812
O O5 0.672222 0.302668 0.857419
O O6 0.679206 0.274433 0.540620
O O7 0.785666 0.208793 0.731454
O O8 0.652471 0.135597 0.725348
O O9 0.256517 0.065848 0.498241
O O10 0.904149 0.301968 0.800051
O O11 0.845538 0.456466 0.688338
O O12 0.000000 0.432398 0.728410
O O13 0.906927 0.445446 0.973955
#
# Coordination Sequence:
#
# PCOD8176249 Si02
#       6
#     8   8   8   8   8   8
#     4  12  26  44  67 102 141 184 230 287 355 412
#     4  11  22  42  69 106 129 179 237 285 335 408
#     4  12  24  45  70 101 135 183 232 290 339 415
#     4  11  24  43  66 100 139 180 223 277 344 406
#     4  11  23  41  69  97 143 177 231 282 342 405
#     4  11  24  43  69 100 134 179 227 281 334 406
#
# _framework density 22.598352999999999
#
# number of rings (size 3 to 8) (size 9 to 14) (size 15 to 20)
#    0.000    0.667    5.000    3.500    2.333    1.333 
#    0.000   10.833    0.000    0.000    0.000    0.000 
#    0.000    0.000    0.000    0.000    0.000    0.000 
#
# Total GULP energy -297498.608444 kJ/mol
# GULP energy per Si atom -12395.775352 kJ/mol
# Density = 2.254692 g / cm^3
# Si number density = 22.598353 Si / 1000 Ang^3
#
#
#
# Elastic Constant Matrix: (Units=GPa)
#
#
# Indices 1 2 3 4 5 6 
#
# 1 105.6586 33.7851 40.6338 0.0000 0.0000 0.0000
# 2 33.7851 87.7955 17.7163 0.0000 0.0000 0.0000
# 3 40.6338 17.7163 67.3337 0.0000 0.0000 0.0000
# 4 0.0000 0.0000 0.0000 42.7899 0.0000 0.0000
# 5 0.0000 0.0000 0.0000 0.0000 31.9281 0.0000
# 6 0.0000 0.0000 0.0000 0.0000 0.0000 23.6075
#
#
#
# Elastic Compliance Matrix: (Units=1/GPa)
#
#
# Indices 1 2 3 4 5 6 
#
# 1 0.013383 -0.003718 -0.007098 0.000000 0.000000 0.000000
# 2 -0.003718 0.013061 -0.001193 0.000000 0.000000 0.000000
# 3 -0.007098 -0.001193 0.019449 0.000000 0.000000 0.000000
# 4 0.000000 0.000000 0.000000 0.023370 0.000000 0.000000
# 5 0.000000 0.000000 0.000000 0.000000 0.031320 0.000000
# 6 0.000000 0.000000 0.000000 0.000000 0.000000 0.042359
#
#
# Mechanical properties :
#
#
# Convention : Reuss Voigt Hill
#
# Bulk Modulus (GPa) = 45.71316 49.45092 47.58204
# Shear Modulus (GPa) = 28.69400 30.90860 29.80130
#
# Velocity S-wave (km/s) = 3.56720 3.70231 3.63538
# Velocity P-wave (km/s) = 6.10238 6.34083 6.22275
#
# Compressibility (1/GPa) = 0.02187554
#
# Stress axis : x y z
#
# Youngs Moduli (GPa) = 74.72207 76.56094 51.41711
#
# Poissons Ratio (x) = 0.28463 0.36496
# Poissons Ratio (y) = 0.27779 0.06135
# Poissons Ratio (z) = 0.53038 0.09135
#
# Static dielectric constant tensor:
#      x y z
#    x 3.811690 0.000000 0.000000 
#    y 0.000000 4.264430 0.000000 
#    z 0.000000 0.000000 4.151840 
# 
# 
# High freq. dielectric constant tensor:
#      x y z
#    x 1.875250 0.000000 0.000000 
#    y 0.000000 1.900030 0.000000 
#    z 0.000000 0.000000 1.895350 
# 
# From -- ./inp_files/4643.got.cif
#   From: 2010.03.12/outbox.cif.g09.slc.cpg/sg36_3_cif.got.tgz:4643.got - 2010.04.14 02:13:53.
