data_PCOD8176653
_publ_section_title
;
Structure prediction by ZEFSAII (Michael W. Deem and Ramdas Pophale) SiO2 
 PCOD8176653
Probable space group: C C C 2
;
_chemical_formula_sum "Si O2"
_cell_formula_units_Z 56
_cell_length_a 14.911550
_cell_length_b 13.481526
_cell_length_c 12.531545
_cell_angle_alpha 90.000000
_cell_angle_beta 90.000000
_cell_angle_gamma 90.000000
_cell_volume 2519.222118
_symmetry_space_group_name_H-M "C C C 2"
_symmetry_group_IT_number 37
_symmetry_cell_setting 'orthorhombic'
loop_
_space_group_symop_operation_xyz
x,y,z
-x,-y,z
-x,y,1/2+z
x,-y,1/2+z
1/2+x,1/2+y,z
1/2-x,1/2-y,z
1/2-x,1/2+y,1/2+z
1/2+x,1/2-y,1/2+z
loop_
_atom_site_type_symbol
_atom_site_label
_atom_site_fract_x
_atom_site_fract_y
_atom_site_fract_z
Si Si1 0.832002 0.962478 0.189850
Si Si2 0.403703 0.652183 0.285358
Si Si3 0.318904 0.064695 0.560994
Si Si4 0.553171 0.199692 0.709326
Si Si5 0.778967 0.648424 0.352759
Si Si6 0.149558 0.797408 0.524137
Si Si7 0.500000 0.000000 0.634473
Si Si8 0.250000 0.250000 0.656865
O O1 0.801655 0.880390 0.274599
O O2 0.864624 0.900699 0.087729
O O3 0.905388 0.035615 0.246769
O O4 0.744431 0.018834 0.149625
O O5 0.494251 0.706143 0.246539
O O6 0.393318 0.674945 0.410640
O O7 0.313546 0.687372 0.231476
O O8 0.287800 0.058430 0.437500
O O9 0.412311 0.006445 0.561227
O O10 0.318363 0.182244 0.587185
O O11 0.630238 0.173193 0.791835
O O12 0.590898 0.217362 0.589484
O O13 0.494696 0.099204 0.706064
O O14 0.750000 0.750000 0.411264
O O15 0.250000 0.750000 0.515335
#
# Coordination Sequence:
#
# PCOD8176653 Si02
#       8
#     8   8   8   8   8   8   4   4
#     4  11  23  47  71 102 137 188 246 292 346 440
#     4  11  26  42  73 106 142 191 236 295 361 431
#     4  11  23  40  69  98 136 183 229 294 354 429
#     4  12  26  45  68 105 147 180 238 309 356 423
#     4  12  23  45  71  97 139 192 239 291 367 431
#     4  12  23  49  75 102 142 197 243 294 366 442
#     4  12  24  44  62 104 142 176 226 302 360 416
#     4  10  20  42  64  94 142 178 232 274 350 430
#
# _framework density 22.229084
#
# number of rings (size 3 to 8) (size 9 to 14) (size 15 to 20)
#    0.000    0.571    7.143    0.857    2.000    1.143 
#    2.571    1.429    0.000    0.000    0.000    0.000 
#    0.000    0.000    0.000    0.000    0.000    0.000 
#
# Total GULP energy -346876.133826 kJ/mol
# GULP energy per Si atom -12388.433351 kJ/mol
# Density = 2.217849 g / cm^3
# Si number density = 22.229084 Si / 1000 Ang^3
#
#
#
# Elastic Constant Matrix: (Units=GPa)
#
#
# Indices 1 2 3 4 5 6 
#
# 1 67.9898 23.2821 23.7223 0.0000 0.0000 0.0000
# 2 23.2821 108.6595 19.4578 0.0000 0.0000 0.0000
# 3 23.7223 19.4578 100.8824 0.0000 0.0000 0.0000
# 4 0.0000 0.0000 0.0000 13.8327 0.0000 0.0000
# 5 0.0000 0.0000 0.0000 0.0000 27.4250 0.0000
# 6 0.0000 0.0000 0.0000 0.0000 0.0000 41.6887
#
#
#
# Elastic Compliance Matrix: (Units=1/GPa)
#
#
# Indices 1 2 3 4 5 6 
#
# 1 0.016927 -0.003018 -0.003398 0.000000 0.000000 0.000000
# 2 -0.003018 0.010071 -0.001233 0.000000 0.000000 0.000000
# 3 -0.003398 -0.001233 0.010949 0.000000 0.000000 0.000000
# 4 0.000000 0.000000 0.000000 0.072292 0.000000 0.000000
# 5 0.000000 0.000000 0.000000 0.000000 0.036463 0.000000
# 6 0.000000 0.000000 0.000000 0.000000 0.000000 0.023987
#
#
# Mechanical properties :
#
#
# Convention : Reuss Voigt Hill
#
# Bulk Modulus (GPa) = 44.15262 45.60624 44.87943
# Shear Modulus (GPa) = 25.83468 30.66058 28.24763
#
# Velocity S-wave (km/s) = 3.41281 3.71792 3.56863
# Velocity P-wave (km/s) = 5.95276 6.24433 6.10028
#
# Compressibility (1/GPa) = 0.02264871
#
# Stress axis : x y z
#
# Youngs Moduli (GPa) = 59.07585 99.29958 91.32958
#
# Poissons Ratio (x) = 0.29973 0.31036
# Poissons Ratio (y) = 0.17832 0.11257
# Poissons Ratio (z) = 0.20075 0.12239
#
# Static dielectric constant tensor:
#      x y z
#    x 3.862800 0.000000 0.000000 
#    y 0.000000 4.618880 0.000000 
#    z 0.000000 0.000000 4.005290 
# 
# 
# High freq. dielectric constant tensor:
#      x y z
#    x 1.864870 0.000000 0.000000 
#    y 0.000000 1.895320 0.000000 
#    z 0.000000 0.000000 1.874070 
# 
# From -- ./inp_files/7866.got.cif
#   From: 2010.03.12/outbox.cif.g09.slc.cpg/sg37_4_cif.got.tgz:7866.got - 2010.04.14 02:25:27.
