data_PCOD8176139
_publ_section_title
;
Structure prediction by ZEFSAII (Michael W. Deem and Ramdas Pophale) SiO2 
 PCOD8176139
Probable space group: C M C 21
;
_chemical_formula_sum "Si O2"
_cell_formula_units_Z 48
_cell_length_a 16.033405
_cell_length_b 11.809743
_cell_length_c 11.883006
_cell_angle_alpha 90.000000
_cell_angle_beta 90.000000
_cell_angle_gamma 90.000000
_cell_volume 2250.051850
_symmetry_space_group_name_H-M "C M C 21"
_symmetry_group_IT_number 36
_symmetry_cell_setting 'orthorhombic'
loop_
_space_group_symop_operation_xyz
x,y,z
-x,-y,1/2+z
x,-y,1/2+z
-x,y,z
1/2+x,1/2+y,z
1/2-x,1/2-y,1/2+z
1/2+x,1/2-y,1/2+z
1/2-x,1/2+y,z
loop_
_atom_site_type_symbol
_atom_site_label
_atom_site_fract_x
_atom_site_fract_y
_atom_site_fract_z
Si Si1 0.903260 0.427277 0.748660
Si Si2 0.402745 0.564507 0.679176
Si Si3 0.595912 0.715160 0.876257
Si Si4 0.097758 0.329921 0.317000
Si Si5 0.843192 0.174204 0.119965
Si Si6 0.843674 0.282059 0.559444
O O1 0.862151 0.332815 0.832453
O O2 0.864880 0.550582 0.772992
O O3 0.888103 0.388769 0.620018
O O4 0.000000 0.441275 0.771646
O O5 0.500000 0.527700 0.677292
O O6 0.371926 0.608477 0.802258
O O7 0.344380 0.459156 0.646788
O O8 0.389147 0.664994 0.589715
O O9 0.500000 0.727509 0.843235
O O10 0.605164 0.696281 0.007220
O O11 0.111874 0.237671 0.221218
O O12 0.151485 0.297517 0.426061
O O13 0.000000 0.333372 0.347998
O O14 0.751198 0.220873 0.100831
#
# Coordination Sequence:
#
# PCOD8176139 Si02
#       6
#     8   8   8   8   8   8
#     4   9  21  42  69  91 125 176 221 270 335 406
#     4  10  23  46  70  92 132 184 225 268 340 417
#     4   9  20  41  66  94 129 175 224 269 336 407
#     4  11  25  44  70 100 133 176 230 275 332 416
#     4  12  27  39  68 103 134 171 225 289 329 388
#     4  11  26  42  67  96 139 174 219 281 344 396
#
# _framework density 21.332841999999999
#
# number of rings (size 3 to 8) (size 9 to 14) (size 15 to 20)
#    0.000    1.667    0.000    4.000   11.667    0.000 
#    0.000    0.000    0.000    0.000    0.000    0.000 
#    0.000    0.000    0.000    0.000    0.000    0.000 
#
# Total GULP energy -297608.342258 kJ/mol
# GULP energy per Si atom -12400.347594 kJ/mol
# Density = 2.128429 g / cm^3
# Si number density = 21.332842 Si / 1000 Ang^3
#
#
#
# Elastic Constant Matrix: (Units=GPa)
#
#
# Indices 1 2 3 4 5 6 
#
# 1 49.6138 10.4540 4.1853 0.0000 0.0000 0.0000
# 2 10.4540 119.3234 60.4144 0.0000 0.0000 0.0000
# 3 4.1853 60.4144 158.7989 0.0000 0.0000 0.0000
# 4 0.0000 0.0000 0.0000 26.3668 0.0000 0.0000
# 5 0.0000 0.0000 0.0000 0.0000 23.2806 0.0000
# 6 0.0000 0.0000 0.0000 0.0000 0.0000 20.2325
#
#
#
# Elastic Compliance Matrix: (Units=1/GPa)
#
#
# Indices 1 2 3 4 5 6 
#
# 1 0.020539 -0.001889 0.000177 0.000000 0.000000 0.000000
# 2 -0.001889 0.010554 -0.003965 0.000000 0.000000 0.000000
# 3 0.000177 -0.003965 0.007801 0.000000 0.000000 0.000000
# 4 0.000000 0.000000 0.000000 0.037926 0.000000 0.000000
# 5 0.000000 0.000000 0.000000 0.000000 0.042954 0.000000
# 6 0.000000 0.000000 0.000000 0.000000 0.000000 0.049425
#
#
# Mechanical properties :
#
#
# Convention : Reuss Voigt Hill
#
# Bulk Modulus (GPa) = 36.31152 53.09369 44.70261
# Shear Modulus (GPa) = 26.35266 30.82146 28.58706
#
# Velocity S-wave (km/s) = 3.51851 3.80516 3.66464
# Velocity P-wave (km/s) = 5.79352 6.65191 6.23750
#
# Compressibility (1/GPa) = 0.02753947
#
# Stress axis : x y z
#
# Youngs Moduli (GPa) = 48.68832 94.75261 128.18539
#
# Poissons Ratio (x) = 0.17901 -0.02275
# Poissons Ratio (y) = 0.09198 0.50830
# Poissons Ratio (z) = -0.00864 0.37573
#
# Static dielectric constant tensor:
#      x y z
#    x 3.635390 0.000000 0.000000 
#    y 0.000000 4.013980 0.000000 
#    z 0.000000 0.000000 3.834520 
# 
# 
# High freq. dielectric constant tensor:
#      x y z
#    x 1.825200 0.000000 0.000000 
#    y 0.000000 1.845480 0.000000 
#    z 0.000000 0.000000 1.839770 
# 
# From -- ./inp_files/8879.got.cif
#   From: 2010.03.12/outbox.cif.g09.slc.cpg/sg36_5_cif.got.tgz:8879.got - 2010.04.14 02:13:53.
