data_PCOD8176935
_publ_section_title
;
Structure prediction by ZEFSAII (Michael W. Deem and Ramdas Pophale) SiO2 
 PCOD8176935
Probable space group: C C C 2
;
_chemical_formula_sum "Si O2"
_cell_formula_units_Z 44
_cell_length_a 15.441953
_cell_length_b 14.375768
_cell_length_c 8.800844
_cell_angle_alpha 90.000000
_cell_angle_beta 90.000000
_cell_angle_gamma 90.000000
_cell_volume 1953.698777
_symmetry_space_group_name_H-M "C C C 2"
_symmetry_group_IT_number 37
_symmetry_cell_setting 'orthorhombic'
loop_
_space_group_symop_operation_xyz
x,y,z
-x,-y,z
-x,y,1/2+z
x,-y,1/2+z
1/2+x,1/2+y,z
1/2-x,1/2-y,z
1/2-x,1/2+y,1/2+z
1/2+x,1/2-y,1/2+z
loop_
_atom_site_type_symbol
_atom_site_label
_atom_site_fract_x
_atom_site_fract_y
_atom_site_fract_z
Si Si1 0.719971 0.908360 0.815060
Si Si2 0.930527 0.720779 0.465182
Si Si3 0.975431 0.602799 0.740761
Si Si4 0.813998 0.033916 0.601967
Si Si5 0.750000 0.250000 0.096313
Si Si6 0.073326 0.077890 0.374077
O O1 0.616671 0.898176 0.828626
O O2 0.768232 0.833860 0.710258
O O3 0.741928 0.002413 0.724132
O O4 0.763669 0.900785 0.981503
O O5 0.973679 0.684593 0.618456
O O6 0.828016 0.729563 0.482353
O O7 0.968288 0.821721 0.416300
O O8 0.948450 0.636867 0.349767
O O9 0.000000 0.500000 0.677760
O O10 0.885613 0.087017 0.704454
O O11 0.857931 0.950410 0.504606
O O12 0.000000 0.000000 0.366970
#
# Coordination Sequence:
#
# PCOD8176935 Si02
#       6
#     8   8   8   8   4   8
#     4  10  23  44  71  97 137 182 229 290 344 420
#     4  11  26  46  71 104 140 190 229 294 355 414
#     4  11  27  45  73 101 140 181 242 295 350 411
#     4  10  23  42  72  99 139 185 228 275 369 407
#     4  10  22  48  70  96 146 176 240 288 344 424
#     4  11  24  42  71 107 147 179 230 290 350 435
#
# _framework density 22.521384999999999
#
# number of rings (size 3 to 8) (size 9 to 14) (size 15 to 20)
#    0.000    1.455    1.818    1.091   12.727    1.455 
#    0.000    0.000    0.000    0.000    0.000    0.000 
#    0.000    0.000    0.000    0.000    0.000    0.000 
#
# Total GULP energy -272656.498014 kJ/mol
# GULP energy per Si atom -12393.477182 kJ/mol
# Density = 2.247013 g / cm^3
# Si number density = 22.521385 Si / 1000 Ang^3
#
#
#
# Elastic Constant Matrix: (Units=GPa)
#
#
# Indices 1 2 3 4 5 6 
#
# 1 102.1155 59.1084 76.3488 0.0000 0.0000 0.0000
# 2 59.1084 132.9915 52.2311 0.0000 0.0000 0.0000
# 3 76.3488 52.2311 127.8838 0.0000 0.0000 0.0000
# 4 0.0000 0.0000 0.0000 17.5426 0.0000 0.0000
# 5 0.0000 0.0000 0.0000 0.0000 28.2989 0.0000
# 6 0.0000 0.0000 0.0000 0.0000 0.0000 32.1308
#
#
#
# Elastic Compliance Matrix: (Units=1/GPa)
#
#
# Indices 1 2 3 4 5 6 
#
# 1 0.020182 -0.005047 -0.009987 0.000000 0.000000 0.000000
# 2 -0.005047 0.010218 -0.001160 0.000000 0.000000 0.000000
# 3 -0.009987 -0.001160 0.014256 0.000000 0.000000 0.000000
# 4 0.000000 0.000000 0.000000 0.057004 0.000000 0.000000
# 5 0.000000 0.000000 0.000000 0.000000 0.035337 0.000000
# 6 0.000000 0.000000 0.000000 0.000000 0.000000 0.031123
#
#
# Mechanical properties :
#
#
# Convention : Reuss Voigt Hill
#
# Bulk Modulus (GPa) = 81.52331 82.04080 81.78206
# Shear Modulus (GPa) = 24.43816 27.28129 25.85972
#
# Velocity S-wave (km/s) = 3.29767 3.48422 3.39223
# Velocity P-wave (km/s) = 7.12575 7.25902 7.19270
#
# Compressibility (1/GPa) = 0.01226643
#
# Stress axis : x y z
#
# Youngs Moduli (GPa) = 49.54987 97.86477 70.14602
#
# Poissons Ratio (x) = 0.49396 0.70057
# Poissons Ratio (y) = 0.25010 0.08137
# Poissons Ratio (z) = 0.49487 0.11352
#
# Static dielectric constant tensor:
#      x y z
#    x 4.051460 0.000000 0.000000 
#    y 0.000000 4.083940 0.000000 
#    z 0.000000 0.000000 4.215200 
# 
# 
# High freq. dielectric constant tensor:
#      x y z
#    x 1.883160 0.000000 0.000000 
#    y 0.000000 1.881130 0.000000 
#    z 0.000000 0.000000 1.895260 
# 
# From -- ./inp_files/3950.got.cif
#   From: 2010.03.12/outbox.cif.g09.slc.cpg/sg37_2_cif.got.tgz:3950.got - 2010.04.14 02:25:27.
