data_PCOD8176327
_publ_section_title
;
Structure prediction by ZEFSAII (Michael W. Deem and Ramdas Pophale) SiO2 
 PCOD8176327
Probable space group: C M C 21
;
_chemical_formula_sum "Si O2"
_cell_formula_units_Z 64
_cell_length_a 8.583747
_cell_length_b 19.840880
_cell_length_c 19.498598
_cell_angle_alpha 90.000000
_cell_angle_beta 90.000000
_cell_angle_gamma 90.000000
_cell_volume 3320.788563
_symmetry_space_group_name_H-M "C M C 21"
_symmetry_group_IT_number 36
_symmetry_cell_setting 'orthorhombic'
loop_
_space_group_symop_operation_xyz
x,y,z
-x,-y,1/2+z
x,-y,1/2+z
-x,y,z
1/2+x,1/2+y,z
1/2-x,1/2-y,1/2+z
1/2+x,1/2-y,1/2+z
1/2-x,1/2+y,z
loop_
_atom_site_type_symbol
_atom_site_label
_atom_site_fract_x
_atom_site_fract_y
_atom_site_fract_z
Si Si1 0.180540 0.190724 0.679010
Si Si2 0.319210 0.200047 0.986493
Si Si3 0.819099 0.337907 0.641337
Si Si4 0.319571 0.347514 0.024016
Si Si5 0.679899 0.476090 0.652686
Si Si6 0.179760 0.514215 0.510219
Si Si7 0.320317 0.413916 0.403827
Si Si8 0.179660 0.575104 0.758867
O O1 0.232615 0.268862 0.678620
O O2 0.210278 0.158008 0.604988
O O3 0.282136 0.151162 0.734732
O O4 0.000000 0.184750 0.698921
O O5 0.500000 0.192762 0.967602
O O6 0.217970 0.161325 0.930142
O O7 0.287356 0.167374 0.060414
O O8 0.269247 0.278392 0.986694
O O9 0.717499 0.398664 0.671959
O O10 0.000000 0.352075 0.655253
O O11 0.500000 0.362924 0.010021
O O12 0.216566 0.407797 0.993471
O O13 0.500000 0.484327 0.632722
O O14 0.784962 0.499473 0.589378
O O15 0.715592 0.521863 0.718108
O O16 0.285271 0.467238 0.463174
O O17 0.000000 0.498651 0.495154
O O18 0.500000 0.417289 0.382932
O O19 0.215873 0.432126 0.338771
O O20 0.000000 0.558790 0.745654
#
# Coordination Sequence:
#
# PCOD8176327 Si02
#       8
#     8   8   8   8   8   8   8   8
#     4   9  18  35  59  87 119 153 191 240 292 348
#     4   9  18  35  59  87 119 153 191 240 292 348
#     4   9  18  34  59  89 120 152 191 242 295 342
#     4   9  18  34  59  89 120 152 191 242 295 342
#     4  12  23  37  59  89 122 157 200 249 298 353
#     4  12  23  37  59  89 122 157 200 249 298 353
#     4  12  25  41  61  86 119 160 201 247 300 361
#     4  12  25  41  61  86 119 160 201 247 300 361
#
# _framework density 19.27253
#
# number of rings (size 3 to 8) (size 9 to 14) (size 15 to 20)
#    0.000    1.500    2.500    6.000    0.000    1.000 
#    0.000    3.750    0.000    6.000    0.000    0.000 
#    0.000    0.000    0.000    0.000    0.000    0.000 
#
# Total GULP energy -396935.938284 kJ/mol
# GULP energy per Si atom -12404.248071 kJ/mol
# Density = 1.922866 g / cm^3
# Si number density = 19.272530 Si / 1000 Ang^3
#
#
#
# Elastic Constant Matrix: (Units=GPa)
#
#
# Indices 1 2 3 4 5 6 
#
# 1 77.9878 29.2244 10.7397 0.0000 0.0000 0.0000
# 2 29.2244 117.2754 27.0658 0.0000 0.0000 0.0000
# 3 10.7397 27.0658 62.5607 0.0000 0.0000 0.0000
# 4 0.0000 0.0000 0.0000 22.8374 0.0000 0.0000
# 5 0.0000 0.0000 0.0000 0.0000 25.6493 0.0000
# 6 0.0000 0.0000 0.0000 0.0000 0.0000 36.1549
#
#
#
# Elastic Compliance Matrix: (Units=1/GPa)
#
#
# Indices 1 2 3 4 5 6 
#
# 1 0.014200 -0.003306 -0.001007 0.000000 0.000000 0.000000
# 2 -0.003306 0.010242 -0.003864 0.000000 0.000000 0.000000
# 3 -0.001007 -0.003864 0.017829 0.000000 0.000000 0.000000
# 4 0.000000 0.000000 0.000000 0.043788 0.000000 0.000000
# 5 0.000000 0.000000 0.000000 0.000000 0.038987 0.000000
# 6 0.000000 0.000000 0.000000 0.000000 0.000000 0.027659
#
#
# Mechanical properties :
#
#
# Convention : Reuss Voigt Hill
#
# Bulk Modulus (GPa) = 38.58436 43.54266 41.06351
# Shear Modulus (GPa) = 28.13745 29.64791 28.89268
#
# Velocity S-wave (km/s) = 3.82511 3.92644 3.87610
# Velocity P-wave (km/s) = 6.29067 6.57252 6.43314
#
# Compressibility (1/GPa) = 0.02591723
#
# Stress axis : x y z
#
# Youngs Moduli (GPa) = 70.42180 97.63248 56.08851
#
# Poissons Ratio (x) = 0.32278 0.05650
# Poissons Ratio (y) = 0.23282 0.21671
# Poissons Ratio (z) = 0.07094 0.37722
#
# Static dielectric constant tensor:
#      x y z
#    x 3.376090 0.000000 0.000000 
#    y 0.000000 3.757710 0.000000 
#    z 0.000000 0.000000 3.191220 
# 
# 
# High freq. dielectric constant tensor:
#      x y z
#    x 1.746960 0.000000 0.000000 
#    y 0.000000 1.767160 0.000000 
#    z 0.000000 0.000000 1.718040 
# 
# From -- ./inp_files/13860.got.cif
#   From: 2010.03.12/outbox.cif.g09.slc.cpg/sg36_7_cif.got.tgz:13860.got - 2010.04.14 02:13:53.
