data_PCOD8176349
_publ_section_title
;
Structure prediction by ZEFSAII (Michael W. Deem and Ramdas Pophale) SiO2 
 PCOD8176349
Probable space group: C M C 21
;
_chemical_formula_sum "Si O2"
_cell_formula_units_Z 48
_cell_length_a 9.693640
_cell_length_b 18.376494
_cell_length_c 16.710197
_cell_angle_alpha 90.000000
_cell_angle_beta 90.000000
_cell_angle_gamma 90.000000
_cell_volume 2976.672903
_symmetry_space_group_name_H-M "C M C 21"
_symmetry_group_IT_number 36
_symmetry_cell_setting 'orthorhombic'
loop_
_space_group_symop_operation_xyz
x,y,z
-x,-y,1/2+z
x,-y,1/2+z
-x,y,z
1/2+x,1/2+y,z
1/2-x,1/2-y,1/2+z
1/2+x,1/2-y,1/2+z
1/2-x,1/2+y,z
loop_
_atom_site_type_symbol
_atom_site_label
_atom_site_fract_x
_atom_site_fract_y
_atom_site_fract_z
Si Si1 0.346821 0.303240 0.262330
Si Si2 0.661939 0.913713 0.182343
Si Si3 0.835972 0.423251 0.703036
Si Si4 0.163034 0.665407 0.350809
Si Si5 0.152952 0.709359 0.103282
Si Si6 0.660715 0.821580 0.028091
O O1 0.500000 0.333038 0.284409
O O2 0.240984 0.369825 0.251936
O O3 0.288195 0.247874 0.329819
O O4 0.356641 0.258543 0.181156
O O5 0.500000 0.908809 0.201035
O O6 0.696531 0.881968 0.094560
O O7 0.718965 0.995985 0.185178
O O8 0.775084 0.393809 0.788192
O O9 0.790464 0.370107 0.630189
O O10 0.000000 0.423683 0.706891
O O11 0.205621 0.646018 0.441723
O O12 0.000000 0.664542 0.339799
O O13 0.257741 0.746149 0.041139
O O14 0.000000 0.703177 0.064346
O O15 0.500000 0.801432 0.029538
#
# Coordination Sequence:
#
# PCOD8176349 Si02
#       6
#     8   8   8   8   8   8
#     4   8  14  26  43  58  74 104 141 165 188 236
#     4   9  16  26  42  64  86 104 129 170 210 240
#     4   8  14  26  43  61  82 110 140 164 194 244
#     4   8  14  26  43  59  78 109 143 168 195 240
#     4   8  14  26  43  59  77 105 137 164 193 237
#     4   9  16  26  42  63  83 104 134 173 210 237
#
# _framework density 16.125385999999999
#
# number of rings (size 3 to 8) (size 9 to 14) (size 15 to 20)
#    0.000    3.667    0.000    2.000    0.000    0.000 
#    0.000    3.333    0.000    7.000    0.000    0.000 
#    0.000    0.000    0.000    0.000    0.000    0.000 
#
# Total GULP energy -297363.853981 kJ/mol
# GULP energy per Si atom -12390.160583 kJ/mol
# Density = 1.608868 g / cm^3
# Si number density = 16.125386 Si / 1000 Ang^3
#
#
#
# Elastic Constant Matrix: (Units=GPa)
#
#
# Indices 1 2 3 4 5 6 
#
# 1 36.8092 36.2170 24.6374 0.0000 0.0000 0.0000
# 2 36.2170 132.7685 48.9609 0.0000 0.0000 0.0000
# 3 24.6374 48.9609 82.7451 0.0000 0.0000 0.0000
# 4 0.0000 0.0000 0.0000 17.6924 0.0000 0.0000
# 5 0.0000 0.0000 0.0000 0.0000 15.6025 0.0000
# 6 0.0000 0.0000 0.0000 0.0000 0.0000 20.7409
#
#
#
# Elastic Compliance Matrix: (Units=1/GPa)
#
#
# Indices 1 2 3 4 5 6 
#
# 1 0.040060 -0.008351 -0.006986 0.000000 0.000000 0.000000
# 2 -0.008351 0.011375 -0.004244 0.000000 0.000000 0.000000
# 3 -0.006986 -0.004244 0.016677 0.000000 0.000000 0.000000
# 4 0.000000 0.000000 0.000000 0.056522 0.000000 0.000000
# 5 0.000000 0.000000 0.000000 0.000000 0.064092 0.000000
# 6 0.000000 0.000000 0.000000 0.000000 0.000000 0.048214
#
#
# Mechanical properties :
#
#
# Convention : Reuss Voigt Hill
#
# Bulk Modulus (GPa) = 34.54417 52.43926 43.49171
# Shear Modulus (GPa) = 17.49759 20.30764 18.90261
#
# Velocity S-wave (km/s) = 3.29765 3.55259 3.42749
# Velocity P-wave (km/s) = 5.99734 7.02981 6.53400
#
# Compressibility (1/GPa) = 0.02894844
#
# Stress axis : x y z
#
# Youngs Moduli (GPa) = 24.96230 87.91113 59.96356
#
# Poissons Ratio (x) = 0.73418 0.41893
# Poissons Ratio (y) = 0.20847 0.25449
# Poissons Ratio (z) = 0.17440 0.37310
#
# Static dielectric constant tensor:
#      x y z
#    x 2.939480 0.000000 0.000000 
#    y 0.000000 3.330240 0.000000 
#    z 0.000000 0.000000 3.107030 
# 
# 
# High freq. dielectric constant tensor:
#      x y z
#    x 1.586520 0.000000 0.000000 
#    y 0.000000 1.612070 0.000000 
#    z 0.000000 0.000000 1.603720 
# 
# From -- ./inp_files/10474.got.cif
#   From: 2010.03.12/outbox.cif.g09.slc.cpg/sg36_6_cif.got.tgz:10474.got - 2010.04.14 02:13:53.
