data_PCOD8176002
_publ_section_title
;
Structure prediction by ZEFSAII (Michael W. Deem and Ramdas Pophale) SiO2 
 PCOD8176002
Probable space group: C M C 21
;
_chemical_formula_sum "Si O2"
_cell_formula_units_Z 48
_cell_length_a 8.904130
_cell_length_b 23.433181
_cell_length_c 11.924920
_cell_angle_alpha 90.000000
_cell_angle_beta 90.000000
_cell_angle_gamma 90.000000
_cell_volume 2488.159480
_symmetry_space_group_name_H-M "C M C 21"
_symmetry_group_IT_number 36
_symmetry_cell_setting 'orthorhombic'
loop_
_space_group_symop_operation_xyz
x,y,z
-x,-y,1/2+z
x,-y,1/2+z
-x,y,z
1/2+x,1/2+y,z
1/2-x,1/2-y,1/2+z
1/2+x,1/2-y,1/2+z
1/2-x,1/2+y,z
loop_
_atom_site_type_symbol
_atom_site_label
_atom_site_fract_x
_atom_site_fract_y
_atom_site_fract_z
Si Si1 0.326972 0.362629 0.575910
Si Si2 0.175057 0.166794 0.823124
Si Si3 0.676660 0.083666 0.649818
Si Si4 0.676469 0.043117 0.215315
Si Si5 0.674519 0.605306 0.414605
Si Si6 0.828867 0.782736 0.776726
O O1 0.500000 0.381571 0.587239
O O2 0.281749 0.346354 0.450821
O O3 0.226416 0.415530 0.614906
O O4 0.297161 0.307482 0.653047
O O5 0.273755 0.125764 0.747460
O O6 0.213459 0.232077 0.797293
O O7 0.000000 0.156592 0.799260
O O8 0.500000 0.088132 0.632745
O O9 0.754439 0.102472 0.536019
O O10 0.727122 0.020230 0.682534
O O11 0.500000 0.048044 0.232137
O O12 0.753154 0.058542 0.332867
O O13 0.500000 0.591059 0.422102
O O14 0.703560 0.668517 0.367966
O O15 0.000000 0.760607 0.786587
#
# Coordination Sequence:
#
# PCOD8176002 Si02
#       6
#     8   8   8   8   8   8
#     4   9  21  41  62  87 120 158 201 248 298 353
#     4  11  24  39  60  92 122 157 203 247 298 354
#     4  11  25  41  60  89 125 160 200 248 298 355
#     4  10  22  40  63  90 120 158 200 244 300 358
#     4  10  22  41  65  91 120 157 201 247 301 358
#     4   9  20  40  62  87 119 156 195 246 303 356
#
# _framework density 19.291367999999999
#
# number of rings (size 3 to 8) (size 9 to 14) (size 15 to 20)
#    0.000    2.000    0.000    3.000    4.667    7.333 
#    0.000    0.000    0.000    0.000    0.000    0.000 
#    0.000    0.000    0.000    0.000    0.000    0.000 
#
# Total GULP energy -297725.218029 kJ/mol
# GULP energy per Si atom -12405.217418 kJ/mol
# Density = 1.924746 g / cm^3
# Si number density = 19.291368 Si / 1000 Ang^3
#
#
#
# Elastic Constant Matrix: (Units=GPa)
#
#
# Indices 1 2 3 4 5 6 
#
# 1 62.0140 39.5849 38.1531 0.0000 0.0000 0.0000
# 2 39.5849 104.1099 56.2066 0.0000 0.0000 0.0000
# 3 38.1531 56.2066 146.3426 0.0000 0.0000 0.0000
# 4 0.0000 0.0000 0.0000 19.4535 0.0000 0.0000
# 5 0.0000 0.0000 0.0000 0.0000 34.2713 0.0000
# 6 0.0000 0.0000 0.0000 0.0000 0.0000 31.1173
#
#
#
# Elastic Compliance Matrix: (Units=1/GPa)
#
#
# Indices 1 2 3 4 5 6 
#
# 1 0.022454 -0.006784 -0.003249 0.000000 0.000000 0.000000
# 2 -0.006784 0.014167 -0.003673 0.000000 0.000000 0.000000
# 3 -0.003249 -0.003673 0.009091 0.000000 0.000000 0.000000
# 4 0.000000 0.000000 0.000000 0.051405 0.000000 0.000000
# 5 0.000000 0.000000 0.000000 0.000000 0.029179 0.000000
# 6 0.000000 0.000000 0.000000 0.000000 0.000000 0.032136
#
#
# Mechanical properties :
#
#
# Convention : Reuss Voigt Hill
#
# Bulk Modulus (GPa) = 54.63801 64.48398 59.56099
# Shear Modulus (GPa) = 26.04933 28.86988 27.45960
#
# Velocity S-wave (km/s) = 3.67864 3.87268 3.77691
# Velocity P-wave (km/s) = 6.81375 7.31408 7.06835
#
# Compressibility (1/GPa) = 0.01830228
#
# Stress axis : x y z
#
# Youngs Moduli (GPa) = 44.53497 70.58454 110.00090
#
# Poissons Ratio (x) = 0.47883 0.35735
# Poissons Ratio (y) = 0.30212 0.40401
# Poissons Ratio (z) = 0.14468 0.25924
#
# Static dielectric constant tensor:
#      x y z
#    x 3.553400 0.000000 0.000000 
#    y 0.000000 3.515230 0.000000 
#    z 0.000000 0.000000 3.666080 
# 
# 
# High freq. dielectric constant tensor:
#      x y z
#    x 1.758780 0.000000 0.000000 
#    y 0.000000 1.754400 0.000000 
#    z 0.000000 0.000000 1.762930 
# 
# From -- ./inp_files/6728.got.cif
#   From: 2010.03.12/outbox.cif.g09.slc.cpg/sg36_4_cif.got.tgz:6728.got - 2010.04.14 02:13:53.
