data_PCOD8176993
_publ_section_title
;
Structure prediction by ZEFSAII (Michael W. Deem and Ramdas Pophale) SiO2 
 PCOD8176993
Probable space group: C C C 2
;
_chemical_formula_sum "Si O2"
_cell_formula_units_Z 64
_cell_length_a 8.931754
_cell_length_b 28.511589
_cell_length_c 10.990044
_cell_angle_alpha 90.000000
_cell_angle_beta 90.000000
_cell_angle_gamma 90.000000
_cell_volume 2798.708110
_symmetry_space_group_name_H-M "C C C 2"
_symmetry_group_IT_number 37
_symmetry_cell_setting 'orthorhombic'
loop_
_space_group_symop_operation_xyz
x,y,z
-x,-y,z
-x,y,1/2+z
x,-y,1/2+z
1/2+x,1/2+y,z
1/2-x,1/2-y,z
1/2-x,1/2+y,1/2+z
1/2+x,1/2-y,1/2+z
loop_
_atom_site_type_symbol
_atom_site_label
_atom_site_fract_x
_atom_site_fract_y
_atom_site_fract_z
Si Si1 0.289392 0.077093 0.733500
Si Si2 0.033963 0.876361 0.083720
Si Si3 0.968720 0.951367 0.888905
Si Si4 0.966039 0.376361 0.866698
Si Si5 0.289392 0.422906 0.216918
Si Si6 0.918577 0.232398 0.102126
Si Si7 0.531281 0.951367 0.061513
Si Si8 0.081421 0.732399 0.848294
O O1 0.171978 0.095685 0.637950
O O2 0.381875 0.120833 0.789005
O O3 0.412878 0.043326 0.672976
O O4 0.203237 0.049945 0.842110
O O5 0.080628 0.822891 0.080348
O O6 0.881875 0.879166 0.161412
O O7 0.003902 0.902216 0.955387
O O8 0.087122 0.956673 0.777442
O O9 0.000000 0.000000 0.964641
O O10 0.828021 0.404312 0.812466
O O11 0.919381 0.322890 0.870075
O O12 0.996099 0.402217 0.995030
O O13 0.203237 0.450055 0.108310
O O14 0.750000 0.250000 0.112414
O O15 0.000000 0.249999 0.225210
O O16 0.994168 0.249999 0.975210
O O17 0.500000 0.000000 0.985776
O O18 0.250000 0.750000 0.838007
#
# Coordination Sequence:
#
# PCOD8176993 Si02
#       8
#     8   8   8   8   8   8   8   8
#     4  10  24  41  68  93 141 178 233 280 361 415
#     4  11  24  43  69  97 136 180 230 296 350 430
#     4  11  24  42  67 101 139 186 235 288 355 430
#     4  11  24  43  69  97 136 180 230 296 350 430
#     4  10  24  41  68  93 141 178 233 280 361 415
#     4  11  27  47  75 105 144 185 244 298 374 436
#     4  11  24  42  67 101 139 186 235 288 355 430
#     4  11  27  47  75 105 144 185 244 298 374 436
#
# _framework density 22.867692000000002
#
# number of rings (size 3 to 8) (size 9 to 14) (size 15 to 20)
#    0.000    1.250    0.000    3.750   14.000    8.500 
#    4.500    0.000    0.000    0.000    0.000    0.000 
#    0.000    0.000    0.000    0.000    0.000    0.000 
#
# Total GULP energy -396450.550562 kJ/mol
# GULP energy per Si atom -12389.079705 kJ/mol
# Density = 2.281564 g / cm^3
# Si number density = 22.867692 Si / 1000 Ang^3
#
#
#
# Elastic Constant Matrix: (Units=GPa)
#
#
# Indices 1 2 3 4 5 6 
#
# 1 120.0268 20.1194 30.0568 0.0000 0.0000 0.0000
# 2 20.1194 151.0761 25.0619 0.0000 0.0000 0.0000
# 3 30.0568 25.0619 119.3589 0.0000 0.0000 0.0000
# 4 0.0000 0.0000 0.0000 27.2116 0.0000 0.0000
# 5 0.0000 0.0000 0.0000 0.0000 16.1123 0.0000
# 6 0.0000 0.0000 0.0000 0.0000 0.0000 27.6234
#
#
#
# Elastic Compliance Matrix: (Units=1/GPa)
#
#
# Indices 1 2 3 4 5 6 
#
# 1 0.008997 -0.000852 -0.002087 0.000000 0.000000 0.000000
# 2 -0.000852 0.006939 -0.001242 0.000000 0.000000 0.000000
# 3 -0.002087 -0.001242 0.009164 0.000000 0.000000 0.000000
# 4 0.000000 0.000000 0.000000 0.036749 0.000000 0.000000
# 5 0.000000 0.000000 0.000000 0.000000 0.062064 0.000000
# 6 0.000000 0.000000 0.000000 0.000000 0.000000 0.036201
#
#
# Mechanical properties :
#
#
# Convention : Reuss Voigt Hill
#
# Bulk Modulus (GPa) = 59.74467 60.10421 59.92444
# Shear Modulus (GPa) = 28.72643 35.20440 31.96541
#
# Velocity S-wave (km/s) = 3.54814 3.92788 3.74283
# Velocity P-wave (km/s) = 6.55505 6.84920 6.70374
#
# Compressibility (1/GPa) = 0.01673789
#
# Stress axis : x y z
#
# Youngs Moduli (GPa) = 111.15026 144.11832 109.11766
#
# Poissons Ratio (x) = 0.12279 0.22769
# Poissons Ratio (y) = 0.09470 0.13557
# Poissons Ratio (z) = 0.23193 0.17905
#
# Static dielectric constant tensor:
#      x y z
#    x 3.649030 0.000000 0.000000 
#    y 0.000000 4.117990 0.000000 
#    z 0.000000 0.000000 4.387370 
# 
# 
# High freq. dielectric constant tensor:
#      x y z
#    x 1.922840 0.000000 0.000000 
#    y 0.000000 1.899740 0.000000 
#    z 0.000000 0.000000 1.906980 
# 
# From -- ./inp_files/6630.got.cif
#   From: 2010.03.12/outbox.cif.g09.slc.cpg/sg37_4_cif.got.tgz:6630.got - 2010.04.14 02:25:27.
