data_PCOD8176057
_publ_section_title
;
Structure prediction by ZEFSAII (Michael W. Deem and Ramdas Pophale) SiO2 
 PCOD8176057
Probable space group: C M C 21
;
_chemical_formula_sum "Si O2"
_cell_formula_units_Z 48
_cell_length_a 8.993132
_cell_length_b 27.015493
_cell_length_c 9.865920
_cell_angle_alpha 90.000000
_cell_angle_beta 90.000000
_cell_angle_gamma 90.000000
_cell_volume 2396.963688
_symmetry_space_group_name_H-M "C M C 21"
_symmetry_group_IT_number 36
_symmetry_cell_setting 'orthorhombic'
loop_
_space_group_symop_operation_xyz
x,y,z
-x,-y,1/2+z
x,-y,1/2+z
-x,y,z
1/2+x,1/2+y,z
1/2-x,1/2-y,1/2+z
1/2+x,1/2-y,1/2+z
1/2-x,1/2+y,z
loop_
_atom_site_type_symbol
_atom_site_label
_atom_site_fract_x
_atom_site_fract_y
_atom_site_fract_z
Si Si1 0.670840 0.893975 0.632950
Si Si2 0.669153 0.281570 0.999660
Si Si3 0.670977 0.066896 0.839994
Si Si4 0.175071 0.037262 0.339126
Si Si5 0.327975 0.392612 0.084913
Si Si6 0.671346 0.292441 0.692618
O O1 0.500000 0.896531 0.676693
O O2 0.690894 0.899543 0.472389
O O3 0.755293 0.938626 0.705783
O O4 0.733755 0.841562 0.677276
O O5 0.500000 0.268796 0.041701
O O6 0.704272 0.338844 0.024875
O O7 0.781166 0.248509 0.084908
O O8 0.695724 0.269915 0.841815
O O9 0.500000 0.051968 0.816703
O O10 0.727324 0.099989 0.716102
O O11 0.767403 0.017921 0.855849
O O12 0.220636 0.067776 0.472205
O O13 0.000000 0.036529 0.317827
O O14 0.500000 0.399444 0.124656
O O15 0.500000 0.306528 0.669152
#
# Coordination Sequence:
#
# PCOD8176057 Si02
#       6
#     8   8   8   8   8   8
#     4  11  24  42  64  92 128 165 206 258 310 364
#     4  10  23  44  65  93 127 158 205 258 308 368
#     4  11  25  40  59  93 129 164 206 255 306 367
#     4  11  22  41  66  92 122 163 211 257 307 367
#     4  10  22  42  65  90 123 163 207 258 306 363
#     4  11  24  43  67  94 125 163 207 254 309 371
#
# _framework density 20.025333
#
# number of rings (size 3 to 8) (size 9 to 14) (size 15 to 20)
#    0.000    1.333    1.667    3.000    2.333    8.667 
#    0.000    0.000    0.000    0.000    0.000    0.000 
#    0.000    0.000    0.000    0.000    0.000    0.000 
#
# Total GULP energy -297776.047262 kJ/mol
# GULP energy per Si atom -12407.335303 kJ/mol
# Density = 1.997975 g / cm^3
# Si number density = 20.025333 Si / 1000 Ang^3
#
#
#
# Elastic Constant Matrix: (Units=GPa)
#
#
# Indices 1 2 3 4 5 6 
#
# 1 97.8637 23.8551 58.6761 0.0000 0.0000 0.0000
# 2 23.8551 61.9375 19.1246 0.0000 0.0000 0.0000
# 3 58.6761 19.1246 103.0108 0.0000 0.0000 0.0000
# 4 0.0000 0.0000 0.0000 36.2469 0.0000 0.0000
# 5 0.0000 0.0000 0.0000 0.0000 36.5653 0.0000
# 6 0.0000 0.0000 0.0000 0.0000 0.0000 20.3689
#
#
#
# Elastic Compliance Matrix: (Units=1/GPa)
#
#
# Indices 1 2 3 4 5 6 
#
# 1 0.016243 -0.003606 -0.008583 0.000000 0.000000 0.000000
# 2 -0.003606 0.017928 -0.001274 0.000000 0.000000 0.000000
# 3 -0.008583 -0.001274 0.014833 0.000000 0.000000 0.000000
# 4 0.000000 0.000000 0.000000 0.027589 0.000000 0.000000
# 5 0.000000 0.000000 0.000000 0.000000 0.027348 0.000000
# 6 0.000000 0.000000 0.000000 0.000000 0.000000 0.049094
#
#
# Mechanical properties :
#
#
# Convention : Reuss Voigt Hill
#
# Bulk Modulus (GPa) = 45.29454 51.79151 48.54302
# Shear Modulus (GPa) = 26.69210 29.37995 28.03603
#
# Velocity S-wave (km/s) = 3.65487 3.83448 3.74575
# Velocity P-wave (km/s) = 6.36227 6.74711 6.55751
#
# Compressibility (1/GPa) = 0.02207772
#
# Stress axis : x y z
#
# Youngs Moduli (GPa) = 61.56379 55.77985 67.41610
#
# Poissons Ratio (x) = 0.20114 0.57863
# Poissons Ratio (y) = 0.22199 0.08592
# Poissons Ratio (z) = 0.52840 0.07109
#
# Static dielectric constant tensor:
#      x y z
#    x 3.831700 0.000000 0.000000 
#    y 0.000000 3.663910 0.000000 
#    z 0.000000 0.000000 3.878570 
# 
# 
# High freq. dielectric constant tensor:
#      x y z
#    x 1.790090 0.000000 0.000000 
#    y 0.000000 1.787260 0.000000 
#    z 0.000000 0.000000 1.794680 
# 
# From -- ./inp_files/2706.got.cif
#   From: 2010.03.12/outbox.cif.g09.slc.cpg/sg36_2_cif.got.tgz:2706.got - 2010.04.14 02:13:53.
