data_PCOD8176398
_publ_section_title
;
Structure prediction by ZEFSAII (Michael W. Deem and Ramdas Pophale) SiO2 
 PCOD8176398
Probable space group: C C C 2
;
_chemical_formula_sum "Si O2"
_cell_formula_units_Z 60
_cell_length_a 11.975914
_cell_length_b 22.287364
_cell_length_c 13.438958
_cell_angle_alpha 90.000000
_cell_angle_beta 90.000000
_cell_angle_gamma 90.000000
_cell_volume 3587.013171
_symmetry_space_group_name_H-M "C C C 2"
_symmetry_group_IT_number 37
_symmetry_cell_setting 'orthorhombic'
loop_
_space_group_symop_operation_xyz
x,y,z
-x,-y,z
-x,y,1/2+z
x,-y,1/2+z
1/2+x,1/2+y,z
1/2-x,1/2-y,z
1/2-x,1/2+y,1/2+z
1/2+x,1/2-y,1/2+z
loop_
_atom_site_type_symbol
_atom_site_label
_atom_site_fract_x
_atom_site_fract_y
_atom_site_fract_z
Si Si1 0.500000 0.500000 0.667120
Si Si2 0.092807 0.193392 0.030921
Si Si3 0.903681 0.096774 0.803992
Si Si4 0.238414 0.682348 0.701332
Si Si5 0.596319 0.403226 0.030249
Si Si6 0.500000 0.792639 0.667120
Si Si7 0.738414 0.817652 0.632909
Si Si8 0.592807 0.306608 0.303320
O O1 0.416582 0.538701 0.735269
O O2 0.416582 0.461299 0.598972
O O3 0.205257 0.180624 0.092286
O O4 0.027254 0.250883 0.072412
O O5 0.014348 0.136025 0.043754
O O6 0.125913 0.204974 0.917120
O O7 0.794633 0.134925 0.774715
O O8 0.014348 0.136025 0.790487
O O9 0.888355 0.075433 0.917120
O O10 0.250000 0.750000 0.745135
O O11 0.107126 0.665965 0.691662
O O12 0.705367 0.365075 0.059526
O O13 0.607126 0.834035 0.642579
O O14 0.527254 0.750883 0.761829
O O15 0.750000 0.750000 0.589106
O O16 0.794743 0.819376 0.741955
#
# Coordination Sequence:
#
# PCOD8176398 Si02
#       8
#     4   8   8   8   8   8   8   8
#     4  12  20  40  56  80 108 138 178 230 262 326
#     4  10  18  32  50  75 107 140 175 214 265 319
#     4  11  21  34  56  82 106 139 178 225 273 314
#     4  10  18  34  50  78 112 143 173 219 264 325
#     4  11  21  34  56  82 106 139 178 225 273 314
#     4  10  19  30  50  76 108 145 174 206 262 318
#     4  10  18  34  50  78 112 143 173 219 264 325
#     4  10  18  32  50  75 107 140 175 214 265 319
#
# _framework density 16.727008000000001
#
# number of rings (size 3 to 8) (size 9 to 14) (size 15 to 20)
#    0.000    1.600    8.000    0.400    0.000    6.400 
#    0.000    0.000    0.000    0.800    0.000    1.867 
#    0.000    0.000    0.000    0.000    0.000    0.000 
#
# Total GULP energy -371999.366680 kJ/mol
# GULP energy per Si atom -12399.978889 kJ/mol
# Density = 1.668894 g / cm^3
# Si number density = 16.727008 Si / 1000 Ang^3
#
#
#
# Elastic Constant Matrix: (Units=GPa)
#
#
# Indices 1 2 3 4 5 6 
#
# 1 135.1661 36.0112 45.4202 0.0000 0.0000 0.0000
# 2 36.0112 79.1952 46.0424 0.0000 0.0000 0.0000
# 3 45.4202 46.0424 115.4279 0.0000 0.0000 0.0000
# 4 0.0000 0.0000 0.0000 17.9233 0.0000 0.0000
# 5 0.0000 0.0000 0.0000 0.0000 19.0621 0.0000
# 6 0.0000 0.0000 0.0000 0.0000 0.0000 21.1660
#
#
#
# Elastic Compliance Matrix: (Units=1/GPa)
#
#
# Indices 1 2 3 4 5 6 
#
# 1 0.008926 -0.002626 -0.002465 0.000000 0.000000 0.000000
# 2 -0.002626 0.017212 -0.005832 0.000000 0.000000 0.000000
# 3 -0.002465 -0.005832 0.011960 0.000000 0.000000 0.000000
# 4 0.000000 0.000000 0.000000 0.055793 0.000000 0.000000
# 5 0.000000 0.000000 0.000000 0.000000 0.052460 0.000000
# 6 0.000000 0.000000 0.000000 0.000000 0.000000 0.047246
#
#
# Mechanical properties :
#
#
# Convention : Reuss Voigt Hill
#
# Bulk Modulus (GPa) = 61.53234 64.97074 63.25154
# Shear Modulus (GPa) = 22.63874 25.11796 23.87835
#
# Velocity S-wave (km/s) = 3.68288 3.87930 3.78237
# Velocity P-wave (km/s) = 7.41289 7.68059 7.54793
#
# Compressibility (1/GPa) = 0.01625162
#
# Stress axis : x y z
#
# Youngs Moduli (GPa) = 112.02986 58.09979 83.61336
#
# Poissons Ratio (x) = 0.15256 0.20611
# Poissons Ratio (y) = 0.29416 0.48766
# Poissons Ratio (z) = 0.27616 0.33886
#
# Static dielectric constant tensor:
#      x y z
#    x 3.312490 0.000000 0.000000 
#    y 0.000000 2.936720 0.000000 
#    z 0.000000 0.000000 3.282740 
# 
# 
# High freq. dielectric constant tensor:
#      x y z
#    x 1.640360 0.000000 0.000000 
#    y 0.000000 1.608830 0.000000 
#    z 0.000000 0.000000 1.652050 
# 
# From -- ./inp_files/11832.got.cif
#   From: 2010.03.12/outbox.cif.g09.slc.cpg/sg37_6_cif.got.tgz:11832.got - 2010.04.14 02:25:27.
