data_PCOD8176517
_publ_section_title
;
Structure prediction by ZEFSAII (Michael W. Deem and Ramdas Pophale) SiO2 
 PCOD8176517
Probable space group: C C C 2
;
_chemical_formula_sum "Si O2"
_cell_formula_units_Z 48
_cell_length_a 9.437017
_cell_length_b 17.017141
_cell_length_c 15.066696
_cell_angle_alpha 90.000000
_cell_angle_beta 90.000000
_cell_angle_gamma 90.000000
_cell_volume 2419.576514
_symmetry_space_group_name_H-M "C C C 2"
_symmetry_group_IT_number 37
_symmetry_cell_setting 'orthorhombic'
loop_
_space_group_symop_operation_xyz
x,y,z
-x,-y,z
-x,y,1/2+z
x,-y,1/2+z
1/2+x,1/2+y,z
1/2-x,1/2-y,z
1/2-x,1/2+y,1/2+z
1/2+x,1/2-y,1/2+z
loop_
_atom_site_type_symbol
_atom_site_label
_atom_site_fract_x
_atom_site_fract_y
_atom_site_fract_z
Si Si1 0.260396 0.930658 0.411210
Si Si2 0.832390 0.504299 0.594158
Si Si3 0.034936 0.854634 0.877414
Si Si4 0.715027 0.930647 0.280635
Si Si5 0.743894 0.163630 0.024975
Si Si6 0.986270 0.323948 0.872272
O O1 0.359829 0.855576 0.397938
O O2 0.101966 0.908960 0.383785
O O3 0.260905 0.959601 0.512229
O O4 0.318077 0.000142 0.349724
O O5 0.776087 0.462931 0.681840
O O6 0.783224 0.595759 0.597164
O O7 0.000000 0.500000 0.585945
O O8 0.135522 0.889801 0.801405
O O9 0.995381 0.766859 0.847317
O O10 0.110514 0.854091 0.973180
O O11 0.584437 0.869086 0.288567
O O12 0.750000 0.250000 0.071315
O O13 0.617173 0.163101 0.954790
#
# Coordination Sequence:
#
# PCOD8176517 Si02
#       6
#     8   8   8   8   8   8
#     4  12  21  40  64  97 126 163 219 272 315 380
#     4  12  22  39  68  99 125 169 227 271 312 388
#     4  10  22  40  62  93 129 166 206 261 333 378
#     4  11  23  40  64  92 126 173 216 262 319 386
#     4   9  19  38  64  89 123 167 203 256 327 382
#     4  10  19  41  67  87 124 171 212 259 317 385
#
# _framework density 19.838180999999999
#
# number of rings (size 3 to 8) (size 9 to 14) (size 15 to 20)
#    0.000    1.333    5.000    4.000    0.000    0.000 
#    6.000    6.667    0.000    0.000    0.000    0.000 
#    0.000    0.000    0.000    0.000    0.000    0.000 
#
# Total GULP energy -297672.918761 kJ/mol
# GULP energy per Si atom -12403.038282 kJ/mol
# Density = 1.979303 g / cm^3
# Si number density = 19.838181 Si / 1000 Ang^3
#
#
#
# Elastic Constant Matrix: (Units=GPa)
#
#
# Indices 1 2 3 4 5 6 
#
# 1 85.2619 36.0303 11.0352 0.0000 0.0000 0.0000
# 2 36.0303 149.1849 54.8635 0.0000 0.0000 0.0000
# 3 11.0352 54.8635 109.3275 0.0000 0.0000 0.0000
# 4 0.0000 0.0000 0.0000 32.7762 0.0000 0.0000
# 5 0.0000 0.0000 0.0000 0.0000 14.7492 0.0000
# 6 0.0000 0.0000 0.0000 0.0000 0.0000 37.7687
#
#
#
# Elastic Compliance Matrix: (Units=1/GPa)
#
#
# Indices 1 2 3 4 5 6 
#
# 1 0.013071 -0.003276 0.000325 0.000000 0.000000 0.000000
# 2 -0.003276 0.009041 -0.004206 0.000000 0.000000 0.000000
# 3 0.000325 -0.004206 0.011225 0.000000 0.000000 0.000000
# 4 0.000000 0.000000 0.000000 0.030510 0.000000 0.000000
# 5 0.000000 0.000000 0.000000 0.000000 0.067800 0.000000
# 6 0.000000 0.000000 0.000000 0.000000 0.000000 0.026477
#
#
# Mechanical properties :
#
#
# Convention : Reuss Voigt Hill
#
# Bulk Modulus (GPa) = 52.57251 60.84804 56.71027
# Shear Modulus (GPa) = 27.96723 33.18186 30.57454
#
# Velocity S-wave (km/s) = 3.75876 4.09421 3.93007
# Velocity P-wave (km/s) = 6.73765 7.28621 7.01729
#
# Compressibility (1/GPa) = 0.01902135
#
# Stress axis : x y z
#
# Youngs Moduli (GPa) = 76.50498 110.60339 89.08712
#
# Poissons Ratio (x) = 0.36237 -0.02893
# Poissons Ratio (y) = 0.25065 0.37474
# Poissons Ratio (z) = -0.02485 0.46525
#
# Static dielectric constant tensor:
#      x y z
#    x 3.608530 0.000000 0.000000 
#    y 0.000000 4.019180 0.000000 
#    z 0.000000 0.000000 3.410730 
# 
# 
# High freq. dielectric constant tensor:
#      x y z
#    x 1.779070 0.000000 0.000000 
#    y 0.000000 1.795590 0.000000 
#    z 0.000000 0.000000 1.738800 
# 
# From -- ./inp_files/10579.got.cif
#   From: 2010.03.12/outbox.cif.g09.slc.cpg/sg37_6_cif.got.tgz:10579.got - 2010.04.14 02:25:27.
