data_PCOD8176470
_publ_section_title
;
Structure prediction by ZEFSAII (Michael W. Deem and Ramdas Pophale) SiO2 
 PCOD8176470
Probable space group: C C C 2
;
_chemical_formula_sum "Si O2"
_cell_formula_units_Z 64
_cell_length_a 22.705017
_cell_length_b 9.572995
_cell_length_c 14.373863
_cell_angle_alpha 90.000000
_cell_angle_beta 90.000000
_cell_angle_gamma 90.000000
_cell_volume 3124.231197
_symmetry_space_group_name_H-M "C C C 2"
_symmetry_group_IT_number 37
_symmetry_cell_setting 'orthorhombic'
loop_
_space_group_symop_operation_xyz
x,y,z
-x,-y,z
-x,y,1/2+z
x,-y,1/2+z
1/2+x,1/2+y,z
1/2-x,1/2-y,z
1/2-x,1/2+y,1/2+z
1/2+x,1/2-y,1/2+z
loop_
_atom_site_type_symbol
_atom_site_label
_atom_site_fract_x
_atom_site_fract_y
_atom_site_fract_z
Si Si1 0.661317 0.183599 0.323370
Si Si2 0.758087 0.401315 0.498289
Si Si3 0.062559 0.522856 0.856385
Si Si4 0.838878 0.595448 0.616833
Si Si5 0.447865 0.905603 0.652299
Si Si6 0.901500 0.238120 0.970204
Si Si7 0.135417 0.051579 0.922850
Si Si8 0.975559 0.854923 0.040131
O O1 0.707164 0.124450 0.400049
O O2 0.682957 0.144874 0.219290
O O3 0.652050 0.351814 0.333600
O O4 0.596239 0.121250 0.338840
O O5 0.750000 0.250000 0.548475
O O6 0.786122 0.520969 0.562312
O O7 0.692538 0.457191 0.486712
O O8 0.046445 0.603731 0.762460
O O9 0.106930 0.618494 0.914544
O O10 0.000000 0.500000 0.908999
O O11 0.887220 0.473932 0.620743
O O12 0.864087 0.734580 0.564937
O O13 0.452225 0.746068 0.620259
O O14 0.500000 0.000000 0.609505
O O15 0.878385 0.111544 0.904954
O O16 0.970716 0.216740 0.986448
O O17 0.079264 0.119933 0.972617
O O18 0.000000 0.000000 0.084035
#
# Coordination Sequence:
#
# PCOD8176470 Si02
#       8
#     8   8   8   8   8   8   8   8
#     4  10  21  42  65  92 125 171 217 266 329 393
#     4  10  21  43  66  90 129 172 215 272 326 391
#     4  10  21  35  60  89 120 162 213 258 322 384
#     4  11  22  38  69  98 126 172 231 268 329 406
#     4  10  19  35  58  91 120 158 212 266 312 386
#     4  11  22  39  61  94 125 167 212 271 331 391
#     4  10  23  42  61  89 131 164 213 269 332 392
#     4  10  21  38  60  91 129 168 212 264 340 396
#
# _framework density 20.485040000000001
#
# number of rings (size 3 to 8) (size 9 to 14) (size 15 to 20)
#    0.000    1.750    2.500    2.250    1.750    0.500 
#   11.250    3.125    0.000    0.000    0.000    0.000 
#    0.000    0.000    0.000    0.000    0.000    0.000 
#
# Total GULP energy -396513.557764 kJ/mol
# GULP energy per Si atom -12391.048680 kJ/mol
# Density = 2.043842 g / cm^3
# Si number density = 20.485040 Si / 1000 Ang^3
#
#
#
# Elastic Constant Matrix: (Units=GPa)
#
#
# Indices 1 2 3 4 5 6 
#
# 1 94.9699 28.9831 20.6683 0.0000 0.0000 0.0000
# 2 28.9831 123.2372 59.0823 0.0000 0.0000 0.0000
# 3 20.6683 59.0823 85.5172 0.0000 0.0000 0.0000
# 4 0.0000 0.0000 0.0000 32.8004 0.0000 0.0000
# 5 0.0000 0.0000 0.0000 0.0000 20.4472 0.0000
# 6 0.0000 0.0000 0.0000 0.0000 0.0000 33.7713
#
#
#
# Elastic Compliance Matrix: (Units=1/GPa)
#
#
# Indices 1 2 3 4 5 6 
#
# 1 0.011448 -0.002042 -0.001356 0.000000 0.000000 0.000000
# 2 -0.002042 0.012498 -0.008141 0.000000 0.000000 0.000000
# 3 -0.001356 -0.008141 0.017646 0.000000 0.000000 0.000000
# 4 0.000000 0.000000 0.000000 0.030487 0.000000 0.000000
# 5 0.000000 0.000000 0.000000 0.000000 0.048906 0.000000
# 6 0.000000 0.000000 0.000000 0.000000 0.000000 0.029611
#
#
# Mechanical properties :
#
#
# Convention : Reuss Voigt Hill
#
# Bulk Modulus (GPa) = 54.01518 57.91020 55.96269
# Shear Modulus (GPa) = 27.80174 30.40316 29.10245
#
# Velocity S-wave (km/s) = 3.68798 3.85666 3.77326
# Velocity P-wave (km/s) = 6.67535 6.93993 6.80893
#
# Compressibility (1/GPa) = 0.01851331
#
# Stress axis : x y z
#
# Youngs Moduli (GPa) = 87.35149 80.01538 56.67160
#
# Poissons Ratio (x) = 0.16342 0.07683
# Poissons Ratio (y) = 0.17840 0.46135
# Poissons Ratio (z) = 0.11843 0.65139
#
# Static dielectric constant tensor:
#      x y z
#    x 3.889570 0.000000 0.000000 
#    y 0.000000 3.914530 0.000000 
#    z 0.000000 0.000000 3.510650 
# 
# 
# High freq. dielectric constant tensor:
#      x y z
#    x 1.813890 0.000000 0.000000 
#    y 0.000000 1.807810 0.000000 
#    z 0.000000 0.000000 1.772240 
# 
# From -- ./inp_files/10965.got.cif
#   From: 2010.03.12/outbox.cif.g09.slc.cpg/sg37_6_cif.got.tgz:10965.got - 2010.04.14 02:25:27.
