data_PCOD8176740
_publ_section_title
;
Structure prediction by ZEFSAII (Michael W. Deem and Ramdas Pophale) SiO2 
 PCOD8176740
Probable space group: C C C 2
;
_chemical_formula_sum "Si O2"
_cell_formula_units_Z 48
_cell_length_a 26.937223
_cell_length_b 8.385472
_cell_length_c 9.570177
_cell_angle_alpha 90.000000
_cell_angle_beta 90.000000
_cell_angle_gamma 90.000000
_cell_volume 2161.724302
_symmetry_space_group_name_H-M "C C C 2"
_symmetry_group_IT_number 37
_symmetry_cell_setting 'orthorhombic'
loop_
_space_group_symop_operation_xyz
x,y,z
-x,-y,z
-x,y,1/2+z
x,-y,1/2+z
1/2+x,1/2+y,z
1/2-x,1/2-y,z
1/2-x,1/2+y,1/2+z
1/2+x,1/2-y,1/2+z
loop_
_atom_site_type_symbol
_atom_site_label
_atom_site_fract_x
_atom_site_fract_y
_atom_site_fract_z
Si Si1 0.610262 0.804467 0.566750
Si Si2 0.108003 0.144050 0.161946
Si Si3 0.744202 0.935253 0.279800
Si Si4 0.804881 0.941938 0.552634
Si Si5 0.629626 0.029341 0.800652
Si Si6 0.556476 0.475448 0.934703
O O1 0.664003 0.721277 0.546369
O O2 0.606591 0.949581 0.454974
O O3 0.566152 0.678838 0.535483
O O4 0.607097 0.872329 0.724648
O O5 0.112460 0.326078 0.202745
O O6 0.089933 0.039371 0.295703
O O7 0.161121 0.085046 0.108917
O O8 0.070990 0.127558 0.029689
O O9 0.750000 0.750000 0.236741
O O10 0.783269 0.975572 0.400896
O O11 0.688460 0.980045 0.319673
O O12 0.757799 0.058224 0.155736
O O13 0.500000 0.500000 0.888670
#
# Coordination Sequence:
#
# PCOD8176740 Si02
#       6
#     8   8   8   8   8   8
#     4  10  23  40  61  89 130 165 206 266 324 381
#     4  10  21  39  64  90 128 165 208 265 326 382
#     4  12  22  38  59  87 128 172 228 270 295 370
#     4  11  22  41  59  87 125 175 224 259 306 371
#     4  11  22  39  57  90 130 168 205 264 322 364
#     4  10  21  41  69  97 120 162 216 266 324 405
#
# _framework density 22.204495000000001
#
# number of rings (size 3 to 8) (size 9 to 14) (size 15 to 20)
#    0.000    1.333    3.333    3.500    0.000    4.000 
#    3.000    0.833    0.000    4.000    0.000    0.000 
#    0.000    0.000    0.000    0.000    0.000    0.000 
#
# Total GULP energy -297484.358820 kJ/mol
# GULP energy per Si atom -12395.181617 kJ/mol
# Density = 2.215396 g / cm^3
# Si number density = 22.204495 Si / 1000 Ang^3
#
#
#
# Elastic Constant Matrix: (Units=GPa)
#
#
# Indices 1 2 3 4 5 6 
#
# 1 89.2137 21.4566 16.3791 0.0000 0.0000 0.0000
# 2 21.4566 41.3200 27.6603 0.0000 0.0000 0.0000
# 3 16.3791 27.6603 93.3671 0.0000 0.0000 0.0000
# 4 0.0000 0.0000 0.0000 47.3628 0.0000 0.0000
# 5 0.0000 0.0000 0.0000 0.0000 29.3709 0.0000
# 6 0.0000 0.0000 0.0000 0.0000 0.0000 22.0457
#
#
#
# Elastic Compliance Matrix: (Units=1/GPa)
#
#
# Indices 1 2 3 4 5 6 
#
# 1 0.012818 -0.006425 -0.000345 0.000000 0.000000 0.000000
# 2 -0.006425 0.033409 -0.008770 0.000000 0.000000 0.000000
# 3 -0.000345 -0.008770 0.013369 0.000000 0.000000 0.000000
# 4 0.000000 0.000000 0.000000 0.021114 0.000000 0.000000
# 5 0.000000 0.000000 0.000000 0.000000 0.034047 0.000000
# 6 0.000000 0.000000 0.000000 0.000000 0.000000 0.045360
#
#
# Mechanical properties :
#
#
# Convention : Reuss Voigt Hill
#
# Bulk Modulus (GPa) = 35.06953 39.43253 37.25103
# Shear Modulus (GPa) = 24.91253 30.31622 27.61438
#
# Velocity S-wave (km/s) = 3.35320 3.69903 3.53035
# Velocity P-wave (km/s) = 5.55159 6.00343 5.78192
#
# Compressibility (1/GPa) = 0.02851478
#
# Stress axis : x y z
#
# Youngs Moduli (GPa) = 78.01751 29.93236 74.79877
#
# Poissons Ratio (x) = 0.19231 0.02582
# Poissons Ratio (y) = 0.50125 0.65601
# Poissons Ratio (z) = 0.02693 0.26252
#
# Static dielectric constant tensor:
#      x y z
#    x 3.830560 0.000000 0.000000 
#    y 0.000000 3.847690 0.000000 
#    z 0.000000 0.000000 4.207770 
# 
# 
# High freq. dielectric constant tensor:
#      x y z
#    x 1.853070 0.000000 0.000000 
#    y 0.000000 1.855320 0.000000 
#    z 0.000000 0.000000 1.891370 
# 
# From -- ./inp_files/2381.got.cif
#   From: 2010.03.12/outbox.cif.g09.slc.cpg/sg37_2_cif.got.tgz:2381.got - 2010.04.14 02:25:27.
