data_PCOD8176510
_publ_section_title
;
Structure prediction by ZEFSAII (Michael W. Deem and Ramdas Pophale) SiO2 
 PCOD8176510
Probable space group: C C C 2
;
_chemical_formula_sum "Si O2"
_cell_formula_units_Z 36
_cell_length_a 7.948984
_cell_length_b 13.405520
_cell_length_c 14.545552
_cell_angle_alpha 90.000000
_cell_angle_beta 90.000000
_cell_angle_gamma 90.000000
_cell_volume 1549.977861
_symmetry_space_group_name_H-M "C C C 2"
_symmetry_group_IT_number 37
_symmetry_cell_setting 'orthorhombic'
loop_
_space_group_symop_operation_xyz
x,y,z
-x,-y,z
-x,y,1/2+z
x,-y,1/2+z
1/2+x,1/2+y,z
1/2-x,1/2-y,z
1/2-x,1/2+y,1/2+z
1/2+x,1/2-y,1/2+z
loop_
_atom_site_type_symbol
_atom_site_label
_atom_site_fract_x
_atom_site_fract_y
_atom_site_fract_z
Si Si1 0.250000 0.750000 0.239990
Si Si2 0.592169 0.136280 0.991111
Si Si3 0.038779 0.388346 0.285336
Si Si4 0.417373 0.350409 0.577667
Si Si5 0.778724 0.362624 0.598280
O O1 0.133741 0.675108 0.298271
O O2 0.382210 0.686823 0.180502
O O3 0.625905 0.115399 0.884431
O O4 0.576956 0.254474 0.010041
O O5 0.754021 0.086809 0.043859
O O6 0.421073 0.086092 0.032852
O O7 0.000000 0.500000 0.257021
O O8 0.163275 0.353517 0.204520
O O9 0.593198 0.413205 0.582650
O O10 0.750000 0.250000 0.564478
#
# Coordination Sequence:
#
# PCOD8176510 Si02
#       5
#     4   8   8   8   8
#     4  10  20  42  66  92 130 172 232 270 338 416
#     4   9  20  37  60  97 131 164 225 269 337 408
#     4  12  25  40  69 101 140 178 222 296 351 405
#     4   9  18  38  67  94 120 181 224 269 335 401
#     4  10  19  40  68  92 125 181 219 271 345 399
#
# _framework density 23.226139
#
# number of rings (size 3 to 8) (size 9 to 14) (size 15 to 20)
#    0.000    2.222    6.667    0.000    7.778    0.889 
#    0.000    1.111    0.000    0.000    0.000    0.000 
#    0.000    0.000    0.000    0.000    0.000    0.000 
#
# Total GULP energy -222986.801164 kJ/mol
# GULP energy per Si atom -12388.155620 kJ/mol
# Density = 2.317328 g / cm^3
# Si number density = 23.226139 Si / 1000 Ang^3
#
#
#
# Elastic Constant Matrix: (Units=GPa)
#
#
# Indices 1 2 3 4 5 6 
#
# 1 245.4875 33.7733 59.9636 0.0000 0.0000 0.0000
# 2 33.7733 15.6619 -12.8348 0.0000 0.0000 0.0000
# 3 59.9636 -12.8348 113.1736 0.0000 0.0000 0.0000
# 4 0.0000 0.0000 0.0000 100.8114 0.0000 0.0000
# 5 0.0000 0.0000 0.0000 0.0000 24.5218 0.0000
# 6 0.0000 0.0000 0.0000 0.0000 0.0000 34.1228
#
#
#
# Elastic Compliance Matrix: (Units=1/GPa)
#
#
# Indices 1 2 3 4 5 6 
#
# 1 0.010221 -0.029192 -0.008726 0.000000 0.000000 0.000000
# 2 -0.029192 0.153763 0.032905 0.000000 0.000000 0.000000
# 3 -0.008726 0.032905 0.017191 0.000000 0.000000 0.000000
# 4 0.000000 0.000000 0.000000 0.009920 0.000000 0.000000
# 5 0.000000 0.000000 0.000000 0.000000 0.040780 0.000000
# 6 0.000000 0.000000 0.000000 0.000000 0.000000 0.029306
#
#
# Mechanical properties :
#
#
# Convention : Reuss Voigt Hill
#
# Bulk Modulus (GPa) = 5.84284 59.56971 32.70627
# Shear Modulus (GPa) = 15.23197 51.45258 33.34227
#
# Velocity S-wave (km/s) = 2.56366 4.71179 3.79298
# Velocity P-wave (km/s) = 3.35920 7.43671 5.77013
#
# Compressibility (1/GPa) = 0.17114973
#
# Stress axis : x y z
#
# Youngs Moduli (GPa) = 97.83693 6.50350 58.16971
#
# Poissons Ratio (x) = 0.18985 0.50759
# Poissons Ratio (y) = 2.85603 -1.91407
# Poissons Ratio (z) = 0.85373 -0.21400
#
# Static dielectric constant tensor:
#      x y z
#    x 5.761270 0.000000 0.000000 
#    y 0.000000 2.827960 0.000000 
#    z 0.000000 0.000000 3.791510 
# 
# 
# High freq. dielectric constant tensor:
#      x y z
#    x 1.943150 0.000000 0.000000 
#    y 0.000000 1.898260 0.000000 
#    z 0.000000 0.000000 1.894040 
# 
# From -- ./inp_files/10275.got.cif
#   From: 2010.03.12/outbox.cif.g09.slc.cpg/sg37_6_cif.got.tgz:10275.got - 2010.04.14 02:25:27.
