data_PCOD8176146
_publ_section_title
;
Structure prediction by ZEFSAII (Michael W. Deem and Ramdas Pophale) SiO2 
 PCOD8176146
Probable space group: C M C 21
;
_chemical_formula_sum "Si O2"
_cell_formula_units_Z 64
_cell_length_a 18.359877
_cell_length_b 15.115843
_cell_length_c 11.639249
_cell_angle_alpha 90.000000
_cell_angle_beta 90.000000
_cell_angle_gamma 90.000000
_cell_volume 3230.182791
_symmetry_space_group_name_H-M "C M C 21"
_symmetry_group_IT_number 36
_symmetry_cell_setting 'orthorhombic'
loop_
_space_group_symop_operation_xyz
x,y,z
-x,-y,1/2+z
x,-y,1/2+z
-x,y,z
1/2+x,1/2+y,z
1/2-x,1/2-y,1/2+z
1/2+x,1/2-y,1/2+z
1/2-x,1/2+y,z
loop_
_atom_site_type_symbol
_atom_site_label
_atom_site_fract_x
_atom_site_fract_y
_atom_site_fract_z
Si Si1 0.638640 0.097250 0.791240
Si Si2 0.083583 0.322409 0.072158
Si Si3 0.813904 0.088054 0.317756
Si Si4 0.699651 0.321169 0.588002
Si Si5 0.851289 0.599056 0.346657
Si Si6 0.415834 0.264722 0.928838
Si Si7 0.650757 0.244738 0.166857
Si Si8 0.803789 0.108819 0.832586
O O1 0.599945 0.103932 0.668043
O O2 0.610180 0.171033 0.879099
O O3 0.725038 0.105066 0.773156
O O4 0.619208 0.000533 0.838522
O O5 0.126914 0.234666 0.105502
O O6 0.000000 0.295453 0.072728
O O7 0.105097 0.356032 0.948046
O O8 0.804981 0.100826 0.181096
O O9 0.734842 0.102724 0.376182
O O10 0.870333 0.155247 0.374316
O O11 0.841321 0.987652 0.334826
O O12 0.769183 0.259193 0.610861
O O13 0.705915 0.360296 0.462235
O O14 0.868249 0.652382 0.229496
O O15 0.500000 0.280167 0.898303
O O16 0.406951 0.263409 0.066500
O O17 0.646536 0.323615 0.260460
#
# Coordination Sequence:
#
# PCOD8176146 Si02
#       8
#     8   8   8   8   8   8   8   8
#     4  11  23  40  65  96 123 165 214 267 324 387
#     4  12  24  39  62  88 128 175 210 256 320 389
#     4  10  24  40  69  98 122 166 219 269 318 375
#     4  11  21  42  65  93 126 164 215 273 318 373
#     4  10  24  41  64  96 128 160 217 274 322 379
#     4  12  25  43  63  92 135 177 211 257 325 394
#     4  11  22  41  66  94 125 167 211 271 321 377
#     4  11  22  40  72  97 124 158 219 275 317 368
#
# _framework density 19.813120999999999
#
# number of rings (size 3 to 8) (size 9 to 14) (size 15 to 20)
#    0.000    1.000    5.000    1.875    3.500    3.500 
#    0.000    1.250    0.000    0.000    0.000    0.000 
#    0.000    0.000    0.000    0.000    0.000    0.000 
#
# Total GULP energy -396932.223286 kJ/mol
# GULP energy per Si atom -12404.131978 kJ/mol
# Density = 1.976803 g / cm^3
# Si number density = 19.813121 Si / 1000 Ang^3
#
#
#
# Elastic Constant Matrix: (Units=GPa)
#
#
# Indices 1 2 3 4 5 6 
#
# 1 90.7069 39.9715 22.0589 0.0000 0.0000 0.0000
# 2 39.9715 127.9754 39.0739 0.0000 0.0000 0.0000
# 3 22.0589 39.0739 107.9878 0.0000 0.0000 0.0000
# 4 0.0000 0.0000 0.0000 25.0366 0.0000 0.0000
# 5 0.0000 0.0000 0.0000 0.0000 9.3591 0.0000
# 6 0.0000 0.0000 0.0000 0.0000 0.0000 12.9963
#
#
#
# Elastic Compliance Matrix: (Units=1/GPa)
#
#
# Indices 1 2 3 4 5 6 
#
# 1 0.012951 -0.003640 -0.001329 0.000000 0.000000 0.000000
# 2 -0.003640 0.009807 -0.002805 0.000000 0.000000 0.000000
# 3 -0.001329 -0.002805 0.010547 0.000000 0.000000 0.000000
# 4 0.000000 0.000000 0.000000 0.039942 0.000000 0.000000
# 5 0.000000 0.000000 0.000000 0.000000 0.106847 0.000000
# 6 0.000000 0.000000 0.000000 0.000000 0.000000 0.076945
#
#
# Mechanical properties :
#
#
# Convention : Reuss Voigt Hill
#
# Bulk Modulus (GPa) = 56.31064 58.76429 57.53747
# Shear Modulus (GPa) = 17.95293 24.51612 21.23453
#
# Velocity S-wave (km/s) = 3.01344 3.52144 3.27730
# Velocity P-wave (km/s) = 6.37105 6.80130 6.58969
#
# Compressibility (1/GPa) = 0.01775863
#
# Stress axis : x y z
#
# Youngs Moduli (GPa) = 77.21133 101.96538 94.81609
#
# Poissons Ratio (x) = 0.37111 0.12598
# Poissons Ratio (y) = 0.28101 0.26597
# Poissons Ratio (z) = 0.10259 0.28603
#
# Static dielectric constant tensor:
#      x y z
#    x 3.487430 0.000000 0.000000 
#    y 0.000000 3.770460 0.000000 
#    z 0.000000 0.000000 3.705900 
# 
# 
# High freq. dielectric constant tensor:
#      x y z
#    x 1.749890 0.000000 0.000000 
#    y 0.000000 1.776750 0.000000 
#    z 0.000000 0.000000 1.787510 
# 
# From -- ./inp_files/8983.got.cif
#   From: 2010.03.12/outbox.cif.g09.slc.cpg/sg36_5_cif.got.tgz:8983.got - 2010.04.14 02:13:53.
