data_PCOD8176612
_publ_section_title
;
Structure prediction by ZEFSAII (Michael W. Deem and Ramdas Pophale) SiO2 
 PCOD8176612
Probable space group: C C C 2
;
_chemical_formula_sum "Si O2"
_cell_formula_units_Z 64
_cell_length_a 11.221695
_cell_length_b 15.272346
_cell_length_c 16.369214
_cell_angle_alpha 90.000000
_cell_angle_beta 90.000000
_cell_angle_gamma 90.000000
_cell_volume 2805.382229
_symmetry_space_group_name_H-M "C C C 2"
_symmetry_group_IT_number 37
_symmetry_cell_setting 'orthorhombic'
loop_
_space_group_symop_operation_xyz
x,y,z
-x,-y,z
-x,y,1/2+z
x,-y,1/2+z
1/2+x,1/2+y,z
1/2-x,1/2-y,z
1/2-x,1/2+y,1/2+z
1/2+x,1/2-y,1/2+z
loop_
_atom_site_type_symbol
_atom_site_label
_atom_site_fract_x
_atom_site_fract_y
_atom_site_fract_z
Si Si1 0.309843 0.657470 0.563710
Si Si2 0.360637 0.007456 0.836921
Si Si3 0.708670 0.349645 0.273669
Si Si4 0.269389 0.344276 0.538065
Si Si5 0.362504 0.008135 0.029433
Si Si6 0.033409 0.900387 0.412566
Si Si7 0.780343 0.158045 0.856283
Si Si8 0.529755 0.601025 0.633839
O O1 0.250000 0.750000 0.557423
O O2 0.202584 0.588941 0.573431
O O3 0.399734 0.642332 0.489144
O O4 0.402101 0.650562 0.641165
O O5 0.325388 0.089240 0.779026
O O6 0.500000 0.000000 0.820859
O O7 0.284056 0.921793 0.808619
O O8 0.334843 0.021370 0.933365
O O9 0.750000 0.250000 0.289208
O O10 0.629668 0.394547 0.342149
O O11 0.633335 0.358421 0.190378
O O12 0.250000 0.250000 0.582619
O O13 0.188571 0.421592 0.574082
O O14 0.221266 0.335832 0.445951
O O15 0.407431 0.379500 0.544526
O O16 0.500000 0.000000 0.049130
O O17 0.921087 0.850465 0.372541
O O18 0.000000 0.000000 0.433163
O O19 0.750000 0.250000 0.810242
O O20 0.500000 0.500000 0.649133
#
# Coordination Sequence:
#
# PCOD8176612 Si02
#       8
#     8   8   8   8   8   8   8   8
#     4  12  25  41  70 108 137 178 230 296 353 418
#     4  10  22  41  65  99 143 176 220 283 352 418
#     4  12  27  45  68  99 136 192 235 286 354 423
#     4  10  20  38  63  94 133 177 223 270 340 411
#     4  10  21  38  63 104 142 169 212 288 357 412
#     4  12  21  42  71 104 141 176 236 291 344 420
#     4  10  21  35  64 105 135 173 216 283 352 403
#     4  12  25  46  68  93 137 183 240 291 340 417
#
# _framework density 22.813291
#
# number of rings (size 3 to 8) (size 9 to 14) (size 15 to 20)
#    0.000    1.000    5.000    2.250    3.500    1.000 
#    0.000    2.500    0.000    0.000    0.000    0.000 
#    0.000    0.000    0.000    0.000    0.000    0.000 
#
# Total GULP energy -396447.440963 kJ/mol
# GULP energy per Si atom -12388.982530 kJ/mol
# Density = 2.276137 g / cm^3
# Si number density = 22.813291 Si / 1000 Ang^3
#
#
#
# Elastic Constant Matrix: (Units=GPa)
#
#
# Indices 1 2 3 4 5 6 
#
# 1 175.0798 93.9949 25.6273 0.0000 0.0000 0.0000
# 2 93.9949 218.7417 25.3542 0.0000 0.0000 0.0000
# 3 25.6273 25.3542 28.0577 0.0000 0.0000 0.0000
# 4 0.0000 0.0000 0.0000 5.9199 0.0000 0.0000
# 5 0.0000 0.0000 0.0000 0.0000 20.7162 0.0000
# 6 0.0000 0.0000 0.0000 0.0000 0.0000 46.0070
#
#
#
# Elastic Compliance Matrix: (Units=1/GPa)
#
#
# Indices 1 2 3 4 5 6 
#
# 1 0.007933 -0.002870 -0.004653 0.000000 0.000000 0.000000
# 2 -0.002870 0.006145 -0.002931 0.000000 0.000000 0.000000
# 3 -0.004653 -0.002931 0.042540 0.000000 0.000000 0.000000
# 4 0.000000 0.000000 0.000000 0.168923 0.000000 0.000000
# 5 0.000000 0.000000 0.000000 0.000000 0.048271 0.000000
# 6 0.000000 0.000000 0.000000 0.000000 0.000000 0.021736
#
#
# Mechanical properties :
#
#
# Convention : Reuss Voigt Hill
#
# Bulk Modulus (GPa) = 28.00378 79.09245 53.54812
# Shear Modulus (GPa) = 15.22724 32.98882 24.10803
#
# Velocity S-wave (km/s) = 2.58635 3.80680 3.25430
# Velocity P-wave (km/s) = 4.60660 7.35303 6.13546
#
# Compressibility (1/GPa) = 0.03570946
#
# Stress axis : x y z
#
# Youngs Moduli (GPa) = 126.04886 162.74699 23.50750
#
# Poissons Ratio (x) = 0.46704 0.10938
# Poissons Ratio (y) = 0.36173 0.06891
# Poissons Ratio (z) = 0.58651 0.47706
#
# Static dielectric constant tensor:
#      x y z
#    x 4.599950 0.000000 0.000000 
#    y 0.000000 4.369750 0.000000 
#    z 0.000000 0.000000 4.195060 
# 
# 
# High freq. dielectric constant tensor:
#      x y z
#    x 1.922680 0.000000 0.000000 
#    y 0.000000 1.905470 0.000000 
#    z 0.000000 0.000000 1.870470 
# 
# From -- ./inp_files/15084.got.cif
#   From: 2010.03.12/outbox.cif.g09.slc.cpg/sg37_8_cif.got.tgz:15084.got - 2010.04.14 02:25:27.
