data_PCOD8176514
_publ_section_title
;
Structure prediction by ZEFSAII (Michael W. Deem and Ramdas Pophale) SiO2 
 PCOD8176514
Probable space group: C C C 2
;
_chemical_formula_sum "Si O2"
_cell_formula_units_Z 52
_cell_length_a 8.098174
_cell_length_b 16.762290
_cell_length_c 18.059715
_cell_angle_alpha 90.000000
_cell_angle_beta 90.000000
_cell_angle_gamma 90.000000
_cell_volume 2451.496888
_symmetry_space_group_name_H-M "C C C 2"
_symmetry_group_IT_number 37
_symmetry_cell_setting 'orthorhombic'
loop_
_space_group_symop_operation_xyz
x,y,z
-x,-y,z
-x,y,1/2+z
x,-y,1/2+z
1/2+x,1/2+y,z
1/2-x,1/2-y,z
1/2-x,1/2+y,1/2+z
1/2+x,1/2-y,1/2+z
loop_
_atom_site_type_symbol
_atom_site_label
_atom_site_fract_x
_atom_site_fract_y
_atom_site_fract_z
Si Si1 0.750000 0.250000 0.189050
Si Si2 0.596381 0.921299 0.026656
Si Si3 0.632610 0.410175 0.132248
Si Si4 0.410161 0.801954 0.765533
Si Si5 0.661778 0.531993 0.464306
Si Si6 0.355195 0.176243 0.430816
Si Si7 0.263704 0.424496 0.172217
O O1 0.728001 0.326898 0.136995
O O2 0.583272 0.233060 0.235837
O O3 0.691353 0.885800 0.096660
O O4 0.500000 0.000000 0.054957
O O5 0.486210 0.850634 0.992900
O O6 0.719150 0.955110 0.964206
O O7 0.456663 0.399869 0.173143
O O8 0.740806 0.478678 0.173604
O O9 0.616170 0.435897 0.046676
O O10 0.250000 0.750000 0.742847
O O11 0.440269 0.801665 0.853622
O O12 0.354288 0.889925 0.736969
O O13 0.500000 0.500000 0.423350
O O14 0.733771 0.602296 0.414531
O O15 0.250000 0.250000 0.462849
#
# Coordination Sequence:
#
# PCOD8176514 Si02
#       7
#     4   8   8   8   8   8   8
#     4  12  26  42  68  96 136 174 218 272 344 394
#     4   9  19  38  62  92 127 162 210 271 315 387
#     4  10  21  40  69 101 126 171 215 279 336 391
#     4  11  25  47  63  95 139 178 219 284 324 396
#     4  10  19  41  65  93 128 164 215 271 325 394
#     4  10  24  44  61  89 134 174 219 269 332 392
#     4  10  20  42  67  95 131 166 224 274 329 391
#
# _framework density 21.211531999999998
#
# number of rings (size 3 to 8) (size 9 to 14) (size 15 to 20)
#    0.000    1.846    4.615    0.000    7.538    0.000 
#   16.615    0.000    0.000    0.000    0.000    0.000 
#    0.000    0.000    0.000    0.000    0.000    0.000 
#
# Total GULP energy -322157.788143 kJ/mol
# GULP energy per Si atom -12390.684159 kJ/mol
# Density = 2.116325 g / cm^3
# Si number density = 21.211532 Si / 1000 Ang^3
#
#
#
# Elastic Constant Matrix: (Units=GPa)
#
#
# Indices 1 2 3 4 5 6 
#
# 1 133.5935 49.8852 26.6414 0.0000 0.0000 0.0000
# 2 49.8852 121.5922 35.6507 0.0000 0.0000 0.0000
# 3 26.6414 35.6507 47.4882 0.0000 0.0000 0.0000
# 4 0.0000 0.0000 0.0000 110.2223 0.0000 0.0000
# 5 0.0000 0.0000 0.0000 0.0000 60.4222 0.0000
# 6 0.0000 0.0000 0.0000 0.0000 0.0000 36.3303
#
#
#
# Elastic Compliance Matrix: (Units=1/GPa)
#
#
# Indices 1 2 3 4 5 6 
#
# 1 0.009155 -0.002885 -0.002970 0.000000 0.000000 0.000000
# 2 -0.002885 0.011455 -0.006981 0.000000 0.000000 0.000000
# 3 -0.002970 -0.006981 0.027965 0.000000 0.000000 0.000000
# 4 0.000000 0.000000 0.000000 0.009073 0.000000 0.000000
# 5 0.000000 0.000000 0.000000 0.000000 0.016550 0.000000
# 6 0.000000 0.000000 0.000000 0.000000 0.000000 0.027525
#
#
# Mechanical properties :
#
#
# Convention : Reuss Voigt Hill
#
# Bulk Modulus (GPa) = 43.66345 58.55872 51.11108
# Shear Modulus (GPa) = 37.02926 54.09476 45.56201
#
# Velocity S-wave (km/s) = 4.18271 5.05548 4.63966
# Velocity P-wave (km/s) = 6.62994 7.85774 7.26981
#
# Compressibility (1/GPa) = 0.02290245
#
# Stress axis : x y z
#
# Youngs Moduli (GPa) = 109.22935 87.30094 35.75942
#
# Poissons Ratio (x) = 0.25188 0.10621
# Poissons Ratio (y) = 0.31515 0.24962
# Poissons Ratio (z) = 0.32442 0.60942
#
# Static dielectric constant tensor:
#      x y z
#    x 2.789860 0.000000 0.000000 
#    y 0.000000 3.710210 0.000000 
#    z 0.000000 0.000000 3.355680 
# 
# 
# High freq. dielectric constant tensor:
#      x y z
#    x 1.847680 0.000000 0.000000 
#    y 0.000000 1.831250 0.000000 
#    z 0.000000 0.000000 1.794640 
# 
# From -- ./inp_files/14660.got.cif
#   From: 2010.03.12/outbox.cif.g09.slc.cpg/sg37_8_cif.got.tgz:14660.got - 2010.04.14 02:25:27.
