data_PCOD8176378
_publ_section_title
;
Structure prediction by ZEFSAII (Michael W. Deem and Ramdas Pophale) SiO2 
 PCOD8176378
Probable space group: C C C 2
;
_chemical_formula_sum "Si O2"
_cell_formula_units_Z 48
_cell_length_a 15.670962
_cell_length_b 22.825215
_cell_length_c 8.036689
_cell_angle_alpha 90.000000
_cell_angle_beta 90.000000
_cell_angle_gamma 90.000000
_cell_volume 2874.668017
_symmetry_space_group_name_H-M "C C C 2"
_symmetry_group_IT_number 37
_symmetry_cell_setting 'orthorhombic'
loop_
_space_group_symop_operation_xyz
x,y,z
-x,-y,z
-x,y,1/2+z
x,-y,1/2+z
1/2+x,1/2+y,z
1/2-x,1/2-y,z
1/2-x,1/2+y,1/2+z
1/2+x,1/2-y,1/2+z
loop_
_atom_site_type_symbol
_atom_site_label
_atom_site_fract_x
_atom_site_fract_y
_atom_site_fract_z
Si Si1 0.704473 0.168399 0.816620
Si Si2 0.917408 0.564796 0.806247
Si Si3 0.376837 0.282748 0.222593
Si Si4 0.901425 0.316993 0.123555
Si Si5 0.967682 0.250220 0.421434
Si Si6 0.891987 0.442284 0.694302
O O1 0.658755 0.216369 0.700642
O O2 0.805706 0.170904 0.781482
O O3 0.673011 0.102953 0.779728
O O4 0.680924 0.190182 0.004022
O O5 0.888661 0.619234 0.697851
O O6 0.865422 0.509674 0.727888
O O7 0.018942 0.561729 0.790666
O O8 0.895611 0.571595 0.999789
O O9 0.453152 0.287642 0.354418
O O10 0.414661 0.294194 0.038692
O O11 0.904097 0.270959 0.275366
O O12 0.990273 0.306709 0.019316
#
# Coordination Sequence:
#
# PCOD8176378 Si02
#       6
#     8   8   8   8   8   8
#     4  10  19  31  44  67  98 126 154 199 236 268
#     4  11  19  29  44  64  91 131 160 183 225 281
#     4   9  18  32  48  66  93 125 159 196 237 277
#     4  10  17  28  47  68  93 122 156 191 233 279
#     4   9  17  31  50  67  90 127 163 193 230 283
#     4  11  20  29  43  64  93 126 162 193 221 270
#
# _framework density 16.697581
#
# number of rings (size 3 to 8) (size 9 to 14) (size 15 to 20)
#    0.000    2.000    0.000    9.000    0.000    0.000 
#    0.000   18.333    0.000    0.000    0.000    0.000 
#    0.000   16.000    0.000    0.000    0.000    0.000 
#
# Total GULP energy -297380.504429 kJ/mol
# GULP energy per Si atom -12390.854351 kJ/mol
# Density = 1.665958 g / cm^3
# Si number density = 16.697581 Si / 1000 Ang^3
#
#
#
# Elastic Constant Matrix: (Units=GPa)
#
#
# Indices 1 2 3 4 5 6 
#
# 1 96.0715 44.1898 55.6857 0.0000 0.0000 0.0000
# 2 44.1898 64.5125 26.9715 0.0000 0.0000 0.0000
# 3 55.6857 26.9715 124.5115 0.0000 0.0000 0.0000
# 4 0.0000 0.0000 0.0000 17.6615 0.0000 0.0000
# 5 0.0000 0.0000 0.0000 0.0000 25.8131 0.0000
# 6 0.0000 0.0000 0.0000 0.0000 0.0000 23.2934
#
#
#
# Elastic Compliance Matrix: (Units=1/GPa)
#
#
# Indices 1 2 3 4 5 6 
#
# 1 0.018666 -0.010221 -0.006134 0.000000 0.000000 0.000000
# 2 -0.010221 0.022642 -0.000333 0.000000 0.000000 0.000000
# 3 -0.006134 -0.000333 0.010847 0.000000 0.000000 0.000000
# 4 0.000000 0.000000 0.000000 0.056620 0.000000 0.000000
# 5 0.000000 0.000000 0.000000 0.000000 0.038740 0.000000
# 6 0.000000 0.000000 0.000000 0.000000 0.000000 0.042931
#
#
# Mechanical properties :
#
#
# Convention : Reuss Voigt Hill
#
# Bulk Modulus (GPa) = 53.25551 59.86551 56.56051
# Shear Modulus (GPa) = 21.73149 23.90349 22.81749
#
# Velocity S-wave (km/s) = 3.61151 3.78769 3.70065
# Velocity P-wave (km/s) = 7.02524 7.42021 7.22542
#
# Compressibility (1/GPa) = 0.01877740
#
# Stress axis : x y z
#
# Youngs Moduli (GPa) = 53.57437 44.16668 92.19271
#
# Poissons Ratio (x) = 0.45143 0.56549
# Poissons Ratio (y) = 0.54759 0.03073
# Poissons Ratio (z) = 0.32862 0.01472
#
# Static dielectric constant tensor:
#      x y z
#    x 2.883580 0.000000 0.000000 
#    y 0.000000 3.115690 0.000000 
#    z 0.000000 0.000000 3.380510 
# 
# 
# High freq. dielectric constant tensor:
#      x y z
#    x 1.601130 0.000000 0.000000 
#    y 0.000000 1.608200 0.000000 
#    z 0.000000 0.000000 1.666520 
# 
# From -- ./inp_files/3566.got.cif
#   From: 2010.03.12/outbox.cif.g09.slc.cpg/sg37_2_cif.got.tgz:3566.got - 2010.04.14 02:25:27.
