data_PCOD8176115
_publ_section_title
;
Structure prediction by ZEFSAII (Michael W. Deem and Ramdas Pophale) SiO2 
 PCOD8176115
Probable space group: C M C 21
;
_chemical_formula_sum "Si O2"
_cell_formula_units_Z 64
_cell_length_a 8.984287
_cell_length_b 19.347876
_cell_length_c 18.076869
_cell_angle_alpha 90.000000
_cell_angle_beta 90.000000
_cell_angle_gamma 90.000000
_cell_volume 3142.245573
_symmetry_space_group_name_H-M "C M C 21"
_symmetry_group_IT_number 36
_symmetry_cell_setting 'orthorhombic'
loop_
_space_group_symop_operation_xyz
x,y,z
-x,-y,1/2+z
x,-y,1/2+z
-x,y,z
1/2+x,1/2+y,z
1/2-x,1/2-y,1/2+z
1/2+x,1/2-y,1/2+z
1/2-x,1/2+y,z
loop_
_atom_site_type_symbol
_atom_site_label
_atom_site_fract_x
_atom_site_fract_y
_atom_site_fract_z
Si Si1 0.827288 0.630452 0.832580
Si Si2 0.828805 0.731475 0.371933
Si Si3 0.328051 0.476803 0.234440
Si Si4 0.171875 0.384081 0.753245
Si Si5 0.328376 0.549957 0.564838
Si Si6 0.173290 0.427508 0.492860
Si Si7 0.669797 0.189042 0.534047
Si Si8 0.170615 0.831145 0.609404
O O1 0.770156 0.708448 0.837254
O O2 0.744019 0.592835 0.765668
O O3 0.000000 0.632852 0.812995
O O4 0.795787 0.588851 0.907631
O O5 0.805779 0.662039 0.325534
O O6 0.773688 0.716139 0.454768
O O7 0.000000 0.755961 0.371692
O O8 0.500000 0.477383 0.256308
O O9 0.249862 0.543256 0.270185
O O10 0.304433 0.480360 0.146567
O O11 0.242063 0.345074 0.684051
O O12 0.000000 0.398067 0.735860
O O13 0.500000 0.546879 0.541403
O O14 0.232249 0.504562 0.508031
O O15 0.274909 0.628482 0.562280
O O16 0.262441 0.372683 0.541115
O O17 0.000000 0.422704 0.512813
O O18 0.500000 0.162525 0.527598
O O19 0.683083 0.249966 0.593595
O O20 0.000000 0.854884 0.619124
#
# Coordination Sequence:
#
# PCOD8176115 Si02
#       8
#     8   8   8   8   8   8   8   8
#     4  11  25  42  65  95 126 164 211 259 316 377
#     4  10  23  44  65  91 126 166 209 255 313 375
#     4  11  25  44  64  91 128 168 212 259 310 373
#     4  11  24  41  65  93 127 167 209 260 313 373
#     4  11  25  42  64  94 126 163 211 262 313 373
#     4  11  23  41  66  93 123 162 208 259 312 372
#     4  10  23  42  65  92 127 166 206 259 316 373
#     4  11  22  40  66  93 123 162 208 255 311 374
#
# _framework density 20.367599999999999
#
# number of rings (size 3 to 8) (size 9 to 14) (size 15 to 20)
#    0.000    1.250    2.500    2.250    3.500    5.500 
#    0.000    0.000    0.000    0.000    0.000    0.000 
#    0.000    0.000    0.000    0.000    0.000    0.000 
#
# Total GULP energy -397063.237292 kJ/mol
# GULP energy per Si atom -12408.226165 kJ/mol
# Density = 2.032124 g / cm^3
# Si number density = 20.367600 Si / 1000 Ang^3
#
#
#
# Elastic Constant Matrix: (Units=GPa)
#
#
# Indices 1 2 3 4 5 6 
#
# 1 115.4515 47.5040 32.0780 0.0000 0.0000 0.0000
# 2 47.5040 103.0059 10.7669 0.0000 0.0000 0.0000
# 3 32.0780 10.7669 41.7640 0.0000 0.0000 0.0000
# 4 0.0000 0.0000 0.0000 35.2041 0.0000 0.0000
# 5 0.0000 0.0000 0.0000 0.0000 28.4993 0.0000
# 6 0.0000 0.0000 0.0000 0.0000 0.0000 40.2156
#
#
#
# Elastic Compliance Matrix: (Units=1/GPa)
#
#
# Indices 1 2 3 4 5 6 
#
# 1 0.013253 -0.005188 -0.008842 0.000000 0.000000 0.000000
# 2 -0.005188 0.012008 0.000889 0.000000 0.000000 0.000000
# 3 -0.008842 0.000889 0.030506 0.000000 0.000000 0.000000
# 4 0.000000 0.000000 0.000000 0.028406 0.000000 0.000000
# 5 0.000000 0.000000 0.000000 0.000000 0.035089 0.000000
# 6 0.000000 0.000000 0.000000 0.000000 0.000000 0.024866
#
#
# Mechanical properties :
#
#
# Convention : Reuss Voigt Hill
#
# Bulk Modulus (GPa) = 33.91497 48.99102 41.45299
# Shear Modulus (GPa) = 27.74130 32.10865 29.92497
#
# Velocity S-wave (km/s) = 3.69457 3.97477 3.83723
# Velocity P-wave (km/s) = 5.90656 6.72091 6.32685
#
# Compressibility (1/GPa) = 0.02948551
#
# Stress axis : x y z
#
# Youngs Moduli (GPa) = 75.45528 83.27969 32.78031
#
# Poissons Ratio (x) = 0.43203 0.28984
# Poissons Ratio (y) = 0.39144 -0.02914
# Poissons Ratio (z) = 0.66716 -0.07403
#
# Static dielectric constant tensor:
#      x y z
#    x 3.816870 0.000000 0.000000 
#    y 0.000000 3.671320 0.000000 
#    z 0.000000 0.000000 3.686150 
# 
# 
# High freq. dielectric constant tensor:
#      x y z
#    x 1.805760 0.000000 0.000000 
#    y 0.000000 1.807100 0.000000 
#    z 0.000000 0.000000 1.797910 
# 
# From -- ./inp_files/13835.got.cif
#   From: 2010.03.12/outbox.cif.g09.slc.cpg/sg36_7_cif.got.tgz:13835.got - 2010.04.14 02:13:53.
