data_PCOD8176204
_publ_section_title
;
Structure prediction by ZEFSAII (Michael W. Deem and Ramdas Pophale) SiO2 
 PCOD8176204
Probable space group: C M C 21
;
_chemical_formula_sum "Si O2"
_cell_formula_units_Z 48
_cell_length_a 8.554427
_cell_length_b 19.709137
_cell_length_c 15.676414
_cell_angle_alpha 90.000000
_cell_angle_beta 90.000000
_cell_angle_gamma 90.000000
_cell_volume 2643.049259
_symmetry_space_group_name_H-M "C M C 21"
_symmetry_group_IT_number 36
_symmetry_cell_setting 'orthorhombic'
loop_
_space_group_symop_operation_xyz
x,y,z
-x,-y,1/2+z
x,-y,1/2+z
-x,y,z
1/2+x,1/2+y,z
1/2-x,1/2-y,1/2+z
1/2+x,1/2-y,1/2+z
1/2-x,1/2+y,z
loop_
_atom_site_type_symbol
_atom_site_label
_atom_site_fract_x
_atom_site_fract_y
_atom_site_fract_z
Si Si1 0.683568 0.707364 0.072410
Si Si2 0.183396 0.803552 0.215221
Si Si3 0.827383 0.293519 0.393478
Si Si4 0.687009 0.950784 0.216205
Si Si5 0.829670 0.545950 0.897586
Si Si6 0.812051 0.559111 0.078566
O O1 0.500000 0.716184 0.084708
O O2 0.773410 0.754762 0.138116
O O3 0.733020 0.630967 0.095490
O O4 0.728002 0.729635 0.975976
O O5 0.247072 0.772509 0.304308
O O6 0.250943 0.877187 0.191439
O O7 0.000000 0.809908 0.224610
O O8 0.845479 0.373512 0.395551
O O9 0.000000 0.259956 0.397878
O O10 0.500000 0.946473 0.220617
O O11 0.756077 0.974829 0.309265
O O12 0.744938 0.006516 0.149478
O O13 0.000000 0.511230 0.897670
O O14 0.748260 0.527988 0.987855
O O15 0.000000 0.568125 0.075869
#
# Coordination Sequence:
#
# PCOD8176204 Si02
#       6
#     8   8   8   8   8   8
#     4  11  21  34  53  77 105 138 176 214 256 306
#     4  11  21  34  53  77 105 138 176 214 256 306
#     4   9  17  33  54  75 100 131 171 215 259 309
#     4   9  17  31  51  73  99 132 169 209 255 304
#     4   7  12  25  46  69  92 123 161 199 241 295
#     4   9  17  31  51  73  99 132 169 209 255 304
#
# _framework density 18.160841999999999
#
# number of rings (size 3 to 8) (size 9 to 14) (size 15 to 20)
#    0.000    2.667    0.000    5.500    0.000    0.667 
#    0.000    1.667    0.000    4.000    0.000    0.000 
#    0.000    0.000    0.000    0.000    0.000    0.000 
#
# Total GULP energy -297337.693144 kJ/mol
# GULP energy per Si atom -12389.070548 kJ/mol
# Density = 1.811951 g / cm^3
# Si number density = 18.160842 Si / 1000 Ang^3
#
#
#
# Elastic Constant Matrix: (Units=GPa)
#
#
# Indices 1 2 3 4 5 6 
#
# 1 52.7735 -4.6938 -17.9298 0.0000 0.0000 0.0000
# 2 -4.6938 107.3532 167.0256 0.0000 0.0000 0.0000
# 3 -17.9298 167.0256 413.3683 0.0000 0.0000 0.0000
# 4 0.0000 0.0000 0.0000 30.1491 0.0000 0.0000
# 5 0.0000 0.0000 0.0000 0.0000 25.1731 0.0000
# 6 0.0000 0.0000 0.0000 0.0000 0.0000 21.6760
#
#
#
# Elastic Compliance Matrix: (Units=1/GPa)
#
#
# Indices 1 2 3 4 5 6 
#
# 1 0.019293 -0.001235 0.001336 0.000000 0.000000 0.000000
# 2 -0.001235 0.025164 -0.010221 0.000000 0.000000 0.000000
# 3 0.001336 -0.010221 0.006607 0.000000 0.000000 0.000000
# 4 0.000000 0.000000 0.000000 0.033169 0.000000 0.000000
# 5 0.000000 0.000000 0.000000 0.000000 0.039725 0.000000
# 6 0.000000 0.000000 0.000000 0.000000 0.000000 0.046134
#
#
# Mechanical properties :
#
#
# Convention : Reuss Voigt Hill
#
# Bulk Modulus (GPa) = 32.44278 95.81102 64.12690
# Shear Modulus (GPa) = 24.92450 44.00584 34.46517
#
# Velocity S-wave (km/s) = 3.70865 4.92786 4.36107
# Velocity P-wave (km/s) = 6.02011 9.23308 7.79396
#
# Compressibility (1/GPa) = 0.03082350
#
# Stress axis : x y z
#
# Youngs Moduli (GPa) = 51.83261 39.73964 151.35287
#
# Poissons Ratio (x) = 0.04906 -0.20216
# Poissons Ratio (y) = 0.06399 1.54701
# Poissons Ratio (z) = -0.06923 0.40619
#
# Static dielectric constant tensor:
#      x y z
#    x 3.241680 0.000000 0.000000 
#    y 0.000000 2.957040 0.000000 
#    z 0.000000 0.000000 3.837190 
# 
# 
# High freq. dielectric constant tensor:
#      x y z
#    x 1.689990 0.000000 0.000000 
#    y 0.000000 1.658810 0.000000 
#    z 0.000000 0.000000 1.730530 
# 
# From -- ./inp_files/10405.got.cif
#   From: 2010.03.12/outbox.cif.g09.slc.cpg/sg36_6_cif.got.tgz:10405.got - 2010.04.14 02:13:53.
