data_PCOD8176802
_publ_section_title
;
Structure prediction by ZEFSAII (Michael W. Deem and Ramdas Pophale) SiO2 
 PCOD8176802
Probable space group: C C C 2
;
_chemical_formula_sum "Si O2"
_cell_formula_units_Z 56
_cell_length_a 18.949699
_cell_length_b 9.136491
_cell_length_c 14.678761
_cell_angle_alpha 90.000000
_cell_angle_beta 90.000000
_cell_angle_gamma 90.000000
_cell_volume 2541.389001
_symmetry_space_group_name_H-M "C C C 2"
_symmetry_group_IT_number 37
_symmetry_cell_setting 'orthorhombic'
loop_
_space_group_symop_operation_xyz
x,y,z
-x,-y,z
-x,y,1/2+z
x,-y,1/2+z
1/2+x,1/2+y,z
1/2-x,1/2-y,z
1/2-x,1/2+y,1/2+z
1/2+x,1/2-y,1/2+z
loop_
_atom_site_type_symbol
_atom_site_label
_atom_site_fract_x
_atom_site_fract_y
_atom_site_fract_z
Si Si1 0.502056 0.168372 0.650590
Si Si2 0.569597 0.187349 0.844343
Si Si3 0.179781 0.502805 0.434105
Si Si4 0.357657 0.686752 0.198322
Si Si5 0.750000 0.750000 0.551795
Si Si6 0.250000 0.250000 0.841981
Si Si7 0.562553 0.774934 0.966325
Si Si8 0.918662 0.995034 0.842065
O O1 0.550517 0.192381 0.738273
O O2 0.422737 0.215298 0.669511
O O3 0.531188 0.263274 0.565654
O O4 0.500000 0.000000 0.620327
O O5 0.631218 0.068822 0.855517
O O6 0.602671 0.343686 0.877024
O O7 0.498792 0.153873 0.902861
O O8 0.208993 0.372692 0.495732
O O9 0.247344 0.597702 0.399287
O O10 0.127100 0.614095 0.485562
O O11 0.305838 0.660949 0.113663
O O12 0.319200 0.770967 0.280830
O O13 0.380200 0.534284 0.245337
O O14 0.594229 0.627859 0.919807
O O15 0.000000 0.000000 0.815602
#
# Coordination Sequence:
#
# PCOD8176802 Si02
#       8
#     8   8   8   8   4   4   8   8
#     4  12  22  39  73 109 138 175 233 298 359 413
#     4  11  23  43  71 106 137 178 233 299 358 411
#     4  12  25  46  66 102 139 186 241 290 339 420
#     4  11  22  47  66  97 137 188 221 276 354 420
#     4  11  28  42  72  97 138 190 241 278 340 421
#     4  11  24  44  76  81 140 198 227 270 344 413
#     4  11  22  43  73 103 140 176 230 297 359 411
#     4  10  21  44  67 104 138 176 224 286 365 412
#
# _framework density 22.035195000000002
#
# number of rings (size 3 to 8) (size 9 to 14) (size 15 to 20)
#    0.000    0.857    4.286    4.714    2.000    1.143 
#   12.857    0.000    0.000    0.000    0.000    0.000 
#    0.000    0.000    0.000    0.000    0.000    0.000 
#
# Total GULP energy -347054.353394 kJ/mol
# GULP energy per Si atom -12394.798335 kJ/mol
# Density = 2.198504 g / cm^3
# Si number density = 22.035195 Si / 1000 Ang^3
#
#
#
# Elastic Constant Matrix: (Units=GPa)
#
#
# Indices 1 2 3 4 5 6 
#
# 1 107.2669 54.8596 55.8281 0.0000 0.0000 0.0000
# 2 54.8596 111.5431 35.2668 0.0000 0.0000 0.0000
# 3 55.8281 35.2668 139.8678 0.0000 0.0000 0.0000
# 4 0.0000 0.0000 0.0000 21.5854 0.0000 0.0000
# 5 0.0000 0.0000 0.0000 0.0000 31.5371 0.0000
# 6 0.0000 0.0000 0.0000 0.0000 0.0000 51.6479
#
#
#
# Elastic Compliance Matrix: (Units=1/GPa)
#
#
# Indices 1 2 3 4 5 6 
#
# 1 0.014539 -0.005776 -0.004347 0.000000 0.000000 0.000000
# 2 -0.005776 0.012037 -0.000729 0.000000 0.000000 0.000000
# 3 -0.004347 -0.000729 0.009069 0.000000 0.000000 0.000000
# 4 0.000000 0.000000 0.000000 0.046328 0.000000 0.000000
# 5 0.000000 0.000000 0.000000 0.000000 0.031709 0.000000
# 6 0.000000 0.000000 0.000000 0.000000 0.000000 0.019362
#
#
# Mechanical properties :
#
#
# Convention : Reuss Voigt Hill
#
# Bulk Modulus (GPa) = 71.73952 72.28744 72.01348
# Shear Modulus (GPa) = 31.36885 35.13564 33.25224
#
# Velocity S-wave (km/s) = 3.77713 3.99748 3.88887
# Velocity P-wave (km/s) = 7.18677 7.36092 7.27437
#
# Compressibility (1/GPa) = 0.01393932
#
# Stress axis : x y z
#
# Youngs Moduli (GPa) = 68.78027 83.07936 110.27145
#
# Poissons Ratio (x) = 0.47989 0.47933
# Poissons Ratio (y) = 0.39730 0.08043
# Poissons Ratio (z) = 0.29897 0.06059
#
# Static dielectric constant tensor:
#      x y z
#    x 4.262850 0.000000 0.000000 
#    y 0.000000 5.411090 0.000000 
#    z 0.000000 0.000000 3.970100 
# 
# 
# High freq. dielectric constant tensor:
#      x y z
#    x 1.873340 0.000000 0.000000 
#    y 0.000000 1.865760 0.000000 
#    z 0.000000 0.000000 1.860420 
# 
# From -- ./inp_files/12975.got.cif
#   From: 2010.03.12/outbox.cif.g09.slc.cpg/sg37_7_cif.got.tgz:12975.got - 2010.04.14 02:25:27.
