data_PCOD8176547
_publ_section_title
;
Structure prediction by ZEFSAII (Michael W. Deem and Ramdas Pophale) SiO2 
 PCOD8176547
Probable space group: C C C 2
;
_chemical_formula_sum "Si O2"
_cell_formula_units_Z 48
_cell_length_a 8.579433
_cell_length_b 17.853419
_cell_length_c 14.901419
_cell_angle_alpha 90.000000
_cell_angle_beta 90.000000
_cell_angle_gamma 90.000000
_cell_volume 2282.483312
_symmetry_space_group_name_H-M "C C C 2"
_symmetry_group_IT_number 37
_symmetry_cell_setting 'orthorhombic'
loop_
_space_group_symop_operation_xyz
x,y,z
-x,-y,z
-x,y,1/2+z
x,-y,1/2+z
1/2+x,1/2+y,z
1/2-x,1/2-y,z
1/2-x,1/2+y,1/2+z
1/2+x,1/2-y,1/2+z
loop_
_atom_site_type_symbol
_atom_site_label
_atom_site_fract_x
_atom_site_fract_y
_atom_site_fract_z
Si Si1 0.544960 0.576826 0.478310
Si Si2 0.591894 0.715080 0.233561
Si Si3 0.353880 0.954343 0.070372
Si Si4 0.429554 0.732148 0.409909
Si Si5 0.880475 0.944781 0.166481
Si Si6 0.914957 0.289884 0.078683
O O1 0.500000 0.500000 0.426783
O O2 0.731780 0.572833 0.494048
O O3 0.485399 0.646963 0.423400
O O4 0.457836 0.580528 0.573290
O O5 0.750000 0.750000 0.268271
O O6 0.461598 0.742554 0.304372
O O7 0.634750 0.626956 0.229736
O O8 0.542182 0.744926 0.136261
O O9 0.411942 0.875723 0.113126
O O10 0.500000 0.000000 0.028033
O O11 0.279468 0.009611 0.145815
O O12 0.250000 0.750000 0.429504
O O13 0.530416 0.785793 0.474742
O O14 0.000000 0.000000 0.217313
O O15 0.750000 0.250000 0.091115
#
# Coordination Sequence:
#
# PCOD8176547 Si02
#       6
#     8   8   8   8   8   8
#     4   9  20  39  61  91 125 166 219 261 327 405
#     4  12  25  41  65  96 132 171 225 274 333 414
#     4  10  20  34  67  97 124 166 216 267 338 393
#     4  12  26  41  65  97 132 180 228 276 351 408
#     4   9  19  40  63  91 122 172 217 260 327 405
#     4  12  22  42  68  97 134 170 216 287 335 403
#
# _framework density 21.029726
#
# number of rings (size 3 to 8) (size 9 to 14) (size 15 to 20)
#    0.000    1.667    3.333    3.500    4.667    0.667 
#    0.000    0.000    0.000    0.000    0.000    0.000 
#    0.000    0.000    0.000    0.000    0.000    0.000 
#
# Total GULP energy -297411.395763 kJ/mol
# GULP energy per Si atom -12392.141490 kJ/mol
# Density = 2.098186 g / cm^3
# Si number density = 21.029726 Si / 1000 Ang^3
#
#
#
# Elastic Constant Matrix: (Units=GPa)
#
#
# Indices 1 2 3 4 5 6 
#
# 1 121.3726 69.3975 17.7520 0.0000 0.0000 0.0000
# 2 69.3975 143.9562 29.2597 0.0000 0.0000 0.0000
# 3 17.7520 29.2597 64.4920 0.0000 0.0000 0.0000
# 4 0.0000 0.0000 0.0000 -38.7379 0.0000 0.0000
# 5 0.0000 0.0000 0.0000 0.0000 54.8624 0.0000
# 6 0.0000 0.0000 0.0000 0.0000 0.0000 39.9145
#
#
#
# Elastic Compliance Matrix: (Units=1/GPa)
#
#
# Indices 1 2 3 4 5 6 
#
# 1 0.011404 -0.005353 -0.000710 0.000000 0.000000 0.000000
# 2 -0.005353 0.010165 -0.003138 0.000000 0.000000 0.000000
# 3 -0.000710 -0.003138 0.017125 0.000000 0.000000 0.000000
# 4 0.000000 0.000000 0.000000 -0.025815 0.000000 0.000000
# 5 0.000000 0.000000 0.000000 0.000000 0.018227 0.000000
# 6 0.000000 0.000000 0.000000 0.000000 0.000000 0.025054
#
#
# Mechanical properties :
#
#
# Convention : Reuss Voigt Hill
#
# Bulk Modulus (GPa) = 49.28422 62.51546 55.89984
# Shear Modulus (GPa) = 61.48003 25.43525 43.45764
#
# Velocity S-wave (km/s) = 5.41279 3.48155 4.55079
# Velocity P-wave (km/s) = 7.90890 6.77888 7.36560
#
# Compressibility (1/GPa) = 0.02029047
#
# Stress axis : x y z
#
# Youngs Moduli (GPa) = 87.69072 98.37672 58.39357
#
# Poissons Ratio (x) = 0.52662 0.04148
# Poissons Ratio (y) = 0.46941 0.18326
# Poissons Ratio (z) = 0.06229 0.30874
#
# Static dielectric constant tensor:
#      x y z
#    x 3.408200 0.000000 0.000000 
#    y 0.000000 4.345700 0.000000 
#    z 0.000000 0.000000 3.337160 
# 
# 
# High freq. dielectric constant tensor:
#      x y z
#    x 1.831240 0.000000 0.000000 
#    y 0.000000 1.845120 0.000000 
#    z 0.000000 0.000000 1.781800 
# 
# From -- ./inp_files/10572.got.cif
#   From: 2010.03.12/outbox.cif.g09.slc.cpg/sg37_6_cif.got.tgz:10572.got - 2010.04.14 02:25:27.
