data_PCOD8176316
_publ_section_title
;
Structure prediction by ZEFSAII (Michael W. Deem and Ramdas Pophale) SiO2 
 PCOD8176316
Probable space group: C M C 21
;
_chemical_formula_sum "Si O2"
_cell_formula_units_Z 48
_cell_length_a 9.981155
_cell_length_b 26.920912
_cell_length_c 8.176275
_cell_angle_alpha 90.000000
_cell_angle_beta 90.000000
_cell_angle_gamma 90.000000
_cell_volume 2196.979772
_symmetry_space_group_name_H-M "C M C 21"
_symmetry_group_IT_number 36
_symmetry_cell_setting 'orthorhombic'
loop_
_space_group_symop_operation_xyz
x,y,z
-x,-y,1/2+z
x,-y,1/2+z
-x,y,z
1/2+x,1/2+y,z
1/2-x,1/2-y,1/2+z
1/2+x,1/2-y,1/2+z
1/2-x,1/2+y,z
loop_
_atom_site_type_symbol
_atom_site_label
_atom_site_fract_x
_atom_site_fract_y
_atom_site_fract_z
Si Si1 0.756941 0.876379 0.617710
Si Si2 0.152522 0.195323 0.622043
Si Si3 0.500000 0.530025 0.617526
Si Si4 0.655821 0.276277 0.497238
Si Si5 0.230824 0.907633 0.989624
Si Si6 0.000000 0.545892 0.615608
Si Si7 0.000000 0.071090 0.978236
Si Si8 0.000000 0.565997 0.999172
O O1 0.763424 0.816608 0.606525
O O2 0.781027 0.891381 0.803152
O O3 0.623116 0.900155 0.549952
O O4 0.872346 0.894419 0.496662
O O5 0.262411 0.225293 0.517887
O O6 0.163986 0.209160 0.809744
O O7 0.189056 0.137541 0.606297
O O8 0.000000 0.204788 0.558544
O O9 0.369022 0.547230 0.520993
O O10 0.500000 0.470590 0.618551
O O11 0.500000 0.546576 0.802647
O O12 0.500000 0.270164 0.553158
O O13 0.376539 0.927982 0.028397
O O14 0.000000 0.486479 0.593048
O O15 0.000000 0.556102 0.807279
#
# Coordination Sequence:
#
# PCOD8176316 Si02
#       8
#     8   8   4   8   8   4   4   4
#     4  12  25  44  69  99 135 176 223 276 334 398
#     4  11  25  45  70 100 136 177 224 275 335 401
#     4  12  24  42  67  98 133 174 222 272 332 396
#     4  11  25  45  70 100 136 177 224 275 335 401
#     4  12  25  44  69  99 135 176 223 276 334 398
#     4  12  26  46  69  98 137 180 226 278 334 398
#     4  12  24  42  67  98 133 174 222 272 332 396
#     4  12  26  46  69  98 137 180 226 278 334 398
#
# _framework density 21.848175000000001
#
# number of rings (size 3 to 8) (size 9 to 14) (size 15 to 20)
#    0.000    0.333    1.667    8.000    2.333    2.000 
#    0.000    0.000    0.000    0.000    0.000    0.000 
#    0.000    0.000    0.000    0.000    0.000    0.000 
#
# Total GULP energy -297731.755714 kJ/mol
# GULP energy per Si atom -12405.489821 kJ/mol
# Density = 2.179845 g / cm^3
# Si number density = 21.848175 Si / 1000 Ang^3
#
#
#
# Elastic Constant Matrix: (Units=GPa)
#
#
# Indices 1 2 3 4 5 6 
#
# 1 163.0939 38.1884 19.2812 0.0000 0.0000 0.0000
# 2 38.1884 84.3149 -7.3725 0.0000 0.0000 0.0000
# 3 19.2812 -7.3725 64.7441 0.0000 0.0000 0.0000
# 4 0.0000 0.0000 0.0000 42.4022 0.0000 0.0000
# 5 0.0000 0.0000 0.0000 0.0000 51.9358 0.0000
# 6 0.0000 0.0000 0.0000 0.0000 0.0000 37.5122
#
#
#
# Elastic Compliance Matrix: (Units=1/GPa)
#
#
# Indices 1 2 3 4 5 6 
#
# 1 0.007256 -0.003510 -0.002561 0.000000 0.000000 0.000000
# 2 -0.003510 0.013678 0.002603 0.000000 0.000000 0.000000
# 3 -0.002561 0.002603 0.016504 0.000000 0.000000 0.000000
# 4 0.000000 0.000000 0.000000 0.023584 0.000000 0.000000
# 5 0.000000 0.000000 0.000000 0.000000 0.019255 0.000000
# 6 0.000000 0.000000 0.000000 0.000000 0.000000 0.026658
#
#
# Mechanical properties :
#
#
# Convention : Reuss Voigt Hill
#
# Bulk Modulus (GPa) = 32.78455 45.81631 39.30043
# Shear Modulus (GPa) = 40.31017 43.84043 42.07530
#
# Velocity S-wave (km/s) = 4.30002 4.48436 4.39316
# Velocity P-wave (km/s) = 6.30014 6.91582 6.61515
#
# Compressibility (1/GPa) = 0.03050218
#
# Stress axis : x y z
#
# Youngs Moduli (GPa) = 137.81479 73.11089 60.58992
#
# Poissons Ratio (x) = 0.25665 0.15515
# Poissons Ratio (y) = 0.48378 -0.15771
# Poissons Ratio (z) = 0.35289 -0.19030
#
# Static dielectric constant tensor:
#      x y z
#    x 4.024310 0.000000 0.000000 
#    y 0.000000 4.379680 0.000000 
#    z 0.000000 0.000000 3.977410 
# 
# 
# High freq. dielectric constant tensor:
#      x y z
#    x 1.872700 0.000000 0.000000 
#    y 0.000000 1.872920 0.000000 
#    z 0.000000 0.000000 1.873420 
# 
# From -- ./inp_files/2782.got.cif
#   From: 2010.03.12/outbox.cif.g09.slc.cpg/sg36_2_cif.got.tgz:2782.got - 2010.04.14 02:13:53.
