data_PCOD8176632
_publ_section_title
;
Structure prediction by ZEFSAII (Michael W. Deem and Ramdas Pophale) SiO2 
 PCOD8176632
Probable space group: C C C 2
;
_chemical_formula_sum "Si O2"
_cell_formula_units_Z 40
_cell_length_a 5.423854
_cell_length_b 13.834785
_cell_length_c 24.195313
_cell_angle_alpha 90.000000
_cell_angle_beta 90.000000
_cell_angle_gamma 90.000000
_cell_volume 1815.564363
_symmetry_space_group_name_H-M "C C C 2"
_symmetry_group_IT_number 37
_symmetry_cell_setting 'orthorhombic'
loop_
_space_group_symop_operation_xyz
x,y,z
-x,-y,z
-x,y,1/2+z
x,-y,1/2+z
1/2+x,1/2+y,z
1/2-x,1/2-y,z
1/2-x,1/2+y,1/2+z
1/2+x,1/2-y,1/2+z
loop_
_atom_site_type_symbol
_atom_site_label
_atom_site_fract_x
_atom_site_fract_y
_atom_site_fract_z
Si Si1 0.118894 0.650099 0.363870
Si Si2 0.000000 0.500000 0.955708
Si Si3 0.250000 0.250000 0.291877
Si Si4 0.880554 0.899862 0.758087
Si Si5 0.000000 0.000000 0.525223
Si Si6 0.498297 0.704486 0.075446
Si Si7 0.250000 0.750000 0.181309
O O1 0.250000 0.750000 0.380812
O O2 0.052373 0.593352 0.418583
O O3 0.286170 0.587299 0.321057
O O4 0.869845 0.670172 0.331367
O O5 0.749892 0.485308 0.989960
O O6 0.431897 0.309553 0.253270
O O7 0.681445 0.850110 0.716414
O O8 0.000000 0.000000 0.737174
O O9 0.019306 0.908929 0.564988
O O10 0.750000 0.750000 0.050986
O O11 0.481862 0.724953 0.141252
O O12 0.250000 0.750000 0.046383
#
# Coordination Sequence:
#
# PCOD8176632 Si02
#       7
#     8   4   4   8   4   8   4
#     4  10  23  41  64 100 145 184 227 285 340 429
#     4  12  28  44  74 106 136 192 238 286 366 418
#     4  10  20  40  63  94 152 179 232 270 334 410
#     4  11  22  40  67 101 142 182 226 285 341 429
#     4  12  28  50  74 104 136 184 250 298 360 408
#     4  10  25  48  74 100 141 173 239 305 350 421
#     4  10  24  42  69 106 132 189 234 276 376 416
#
# _framework density 22.031718000000001
#
# number of rings (size 3 to 8) (size 9 to 14) (size 15 to 20)
#    0.600    0.800    3.000    2.400    9.800    2.400 
#    0.000    2.000    0.000    0.000    0.000    0.000 
#    0.000    0.000    0.000    0.000    0.000    0.000 
#
# Total GULP energy -247771.690693 kJ/mol
# GULP energy per Si atom -12388.584535 kJ/mol
# Density = 2.198157 g / cm^3
# Si number density = 22.031718 Si / 1000 Ang^3
#
#
#
# Elastic Constant Matrix: (Units=GPa)
#
#
# Indices 1 2 3 4 5 6 
#
# 1 128.6257 49.4661 38.1541 0.0000 0.0000 0.0000
# 2 49.4661 175.1163 61.6344 0.0000 0.0000 0.0000
# 3 38.1541 61.6344 94.7333 0.0000 0.0000 0.0000
# 4 0.0000 0.0000 0.0000 34.3575 0.0000 0.0000
# 5 0.0000 0.0000 0.0000 0.0000 11.5147 0.0000
# 6 0.0000 0.0000 0.0000 0.0000 0.0000 30.4417
#
#
#
# Elastic Compliance Matrix: (Units=1/GPa)
#
#
# Indices 1 2 3 4 5 6 
#
# 1 0.009194 -0.001678 -0.002611 0.000000 0.000000 0.000000
# 2 -0.001678 0.007713 -0.004342 0.000000 0.000000 0.000000
# 3 -0.002611 -0.004342 0.014433 0.000000 0.000000 0.000000
# 4 0.000000 0.000000 0.000000 0.029106 0.000000 0.000000
# 5 0.000000 0.000000 0.000000 0.000000 0.086846 0.000000
# 6 0.000000 0.000000 0.000000 0.000000 0.000000 0.032850
#
#
# Mechanical properties :
#
#
# Convention : Reuss Voigt Hill
#
# Bulk Modulus (GPa) = 71.03880 77.44273 74.24076
# Shear Modulus (GPa) = 24.74067 31.87749 28.30908
#
# Velocity S-wave (km/s) = 3.35469 3.80793 3.58847
# Velocity P-wave (km/s) = 6.87889 7.38652 7.13722
#
# Compressibility (1/GPa) = 0.01407681
#
# Stress axis : x y z
#
# Youngs Moduli (GPa) = 108.76138 129.65464 69.28716
#
# Poissons Ratio (x) = 0.21758 0.18093
# Poissons Ratio (y) = 0.18252 0.30085
# Poissons Ratio (z) = 0.28401 0.56298
#
# Static dielectric constant tensor:
#      x y z
#    x 4.257970 0.000000 0.000000 
#    y 0.000000 3.935090 0.000000 
#    z 0.000000 0.000000 3.722550 
# 
# 
# High freq. dielectric constant tensor:
#      x y z
#    x 1.872590 0.000000 0.000000 
#    y 0.000000 1.870940 0.000000 
#    z 0.000000 0.000000 1.851390 
# 
# From -- ./inp_files/17911.got.cif
#   From: 2010.03.12/outbox.cif.g09.slc.cpg/sg37_9_cif.got.tgz:17911.got - 2010.04.14 02:25:27.
