data_PCOD8176933
_publ_section_title
;
Structure prediction by ZEFSAII (Michael W. Deem and Ramdas Pophale) SiO2 
 PCOD8176933
Probable space group: C C C 2
;
_chemical_formula_sum "Si O2"
_cell_formula_units_Z 40
_cell_length_a 6.141136
_cell_length_b 14.005290
_cell_length_c 19.905686
_cell_angle_alpha 90.000000
_cell_angle_beta 90.000000
_cell_angle_gamma 90.000000
_cell_volume 1712.056017
_symmetry_space_group_name_H-M "C C C 2"
_symmetry_group_IT_number 37
_symmetry_cell_setting 'orthorhombic'
loop_
_space_group_symop_operation_xyz
x,y,z
-x,-y,z
-x,y,1/2+z
x,-y,1/2+z
1/2+x,1/2+y,z
1/2-x,1/2-y,z
1/2-x,1/2+y,1/2+z
1/2+x,1/2-y,1/2+z
loop_
_atom_site_type_symbol
_atom_site_label
_atom_site_fract_x
_atom_site_fract_y
_atom_site_fract_z
Si Si1 0.750000 0.250000 0.344610
Si Si2 0.664437 0.856982 0.571839
Si Si3 0.110209 0.899707 0.810078
Si Si4 0.393547 0.842735 0.925912
Si Si5 0.000000 0.000000 0.610256
Si Si6 0.692793 0.143541 0.677982
O O1 0.572847 0.314361 0.303693
O O2 0.622450 0.173944 0.389980
O O3 0.750000 0.750000 0.581226
O O4 0.539123 0.874998 0.501270
O O5 0.850759 0.935537 0.563171
O O6 0.526536 0.884977 0.638381
O O7 0.234490 0.911133 0.881747
O O8 0.308291 0.869833 0.758906
O O9 0.000000 0.000000 0.792352
O O10 0.250000 0.750000 0.935636
O O11 0.116233 0.926204 0.658350
O O12 0.750000 0.250000 0.655060
#
# Coordination Sequence:
#
# PCOD8176933 Si02
#       6
#     4   8   8   8   4   8
#     4  10  22  46  76 100 142 188 234 302 364 426
#     4  11  25  47  75 106 147 195 241 300 363 433
#     4  11  25  47  71 107 142 187 244 296 361 434
#     4   9  22  44  73 105 139 185 240 297 357 431
#     4  12  26  46  68 104 142 198 242 294 360 436
#     4  12  25  47  73 103 148 190 243 301 362 431
#
# _framework density 23.363721000000002
#
# number of rings (size 3 to 8) (size 9 to 14) (size 15 to 20)
#    0.000    1.200    3.000    2.400    2.800    5.600 
#   12.600    0.000    0.000    0.000    0.000    0.000 
#    0.000    0.000    0.000    0.000    0.000    0.000 
#
# Total GULP energy -247788.318132 kJ/mol
# GULP energy per Si atom -12389.415907 kJ/mol
# Density = 2.331054 g / cm^3
# Si number density = 23.363721 Si / 1000 Ang^3
#
#
#
# Elastic Constant Matrix: (Units=GPa)
#
#
# Indices 1 2 3 4 5 6 
#
# 1 104.5662 41.5772 61.1050 0.0000 0.0000 0.0000
# 2 41.5772 136.8458 36.7285 0.0000 0.0000 0.0000
# 3 61.1050 36.7285 150.9469 0.0000 0.0000 0.0000
# 4 0.0000 0.0000 0.0000 904.8238 0.0000 0.0000
# 5 0.0000 0.0000 0.0000 0.0000 128.5785 0.0000
# 6 0.0000 0.0000 0.0000 0.0000 0.0000 40.6660
#
#
#
# Elastic Compliance Matrix: (Units=1/GPa)
#
#
# Indices 1 2 3 4 5 6 
#
# 1 0.013467 -0.002812 -0.004768 0.000000 0.000000 0.000000
# 2 -0.002812 0.008405 -0.000907 0.000000 0.000000 0.000000
# 3 -0.004768 -0.000907 0.008775 0.000000 0.000000 0.000000
# 4 0.000000 0.000000 0.000000 0.001105 0.000000 0.000000
# 5 0.000000 0.000000 0.000000 0.000000 0.007777 0.000000
# 6 0.000000 0.000000 0.000000 0.000000 0.000000 0.024591
#
#
# Mechanical properties :
#
#
# Convention : Reuss Voigt Hill
#
# Bulk Modulus (GPa) = 73.12499 74.57561 73.85030
# Shear Modulus (GPa) = 58.37533 231.67687 145.02610
#
# Velocity S-wave (km/s) = 5.00397 9.96876 7.88720
# Velocity P-wave (km/s) = 8.04691 12.82538 10.70614
#
# Compressibility (1/GPa) = 0.01367521
#
# Stress axis : x y z
#
# Youngs Moduli (GPa) = 74.25301 118.97282 113.95457
#
# Poissons Ratio (x) = 0.33457 0.54328
# Poissons Ratio (y) = 0.20881 0.10333
# Poissons Ratio (z) = 0.35400 0.10788
#
# Static dielectric constant tensor:
#      x y z
#    x 3.388140 0.000000 0.000000 
#    y 0.000000 2.440560 0.000000 
#    z 0.000000 0.000000 4.593210 
# 
# 
# High freq. dielectric constant tensor:
#      x y z
#    x 1.915320 0.000000 0.000000 
#    y 0.000000 1.930320 0.000000 
#    z 0.000000 0.000000 1.927920 
# 
# From -- ./inp_files/17892.got.cif
#   From: 2010.03.12/outbox.cif.g09.slc.cpg/sg37_9_cif.got.tgz:17892.got - 2010.04.14 02:25:27.
