data_PCOD8176021
_publ_section_title
;
Structure prediction by ZEFSAII (Michael W. Deem and Ramdas Pophale) SiO2 
 PCOD8176021
Probable space group: C M C 21
;
_chemical_formula_sum "Si O2"
_cell_formula_units_Z 40
_cell_length_a 9.481679
_cell_length_b 14.348638
_cell_length_c 14.403889
_cell_angle_alpha 90.000000
_cell_angle_beta 90.000000
_cell_angle_gamma 90.000000
_cell_volume 1959.637282
_symmetry_space_group_name_H-M "C M C 21"
_symmetry_group_IT_number 36
_symmetry_cell_setting 'orthorhombic'
loop_
_space_group_symop_operation_xyz
x,y,z
-x,-y,1/2+z
x,-y,1/2+z
-x,y,z
1/2+x,1/2+y,z
1/2-x,1/2-y,1/2+z
1/2+x,1/2-y,1/2+z
1/2-x,1/2+y,z
loop_
_atom_site_type_symbol
_atom_site_label
_atom_site_fract_x
_atom_site_fract_y
_atom_site_fract_z
Si Si1 0.703008 0.093504 0.439940
Si Si2 0.243074 0.834854 0.747866
Si Si3 0.000000 0.091278 0.519851
Si Si4 0.000000 0.701310 0.564377
Si Si5 0.500000 0.592563 0.137422
Si Si6 0.000000 0.715975 0.117253
Si Si7 0.000000 0.308134 0.270654
Si Si8 0.000000 0.571448 0.949600
O O1 0.672099 0.120257 0.333469
O O2 0.638516 0.171352 0.508024
O O3 0.869070 0.093128 0.451234
O O4 0.637676 0.992782 0.463000
O O5 0.358774 0.800673 0.675030
O O6 0.141515 0.911064 0.699570
O O7 0.143479 0.750977 0.783788
O O8 0.000000 0.176078 0.590896
O O9 0.000000 0.995888 0.574060
O O10 0.000000 0.812468 0.576848
O O11 0.000000 0.651113 0.665485
O O12 0.000000 0.653006 0.024876
O O13 0.000000 0.389505 0.345428
#
# Coordination Sequence:
#
# PCOD8176021 Si02
#       8
#     8   8   4   4   4   4   4   4
#     4  11  23  39  62  92 122 159 203 249 298 362
#     4  10  22  41  62  87 122 160 201 250 302 359
#     4  12  23  38  62  93 120 156 206 256 301 349
#     4   9  21  43  62  82 119 164 198 241 303 367
#     4  10  22  41  61  86 122 162 199 252 307 357
#     4  12  23  40  63  90 122 161 201 248 303 360
#     4  10  22  41  63  86 119 163 201 248 304 357
#     4  11  25  41  63  89 124 166 201 241 302 372
#
# _framework density 20.411942
#
# number of rings (size 3 to 8) (size 9 to 14) (size 15 to 20)
#    0.000    1.600    0.000    7.200    0.000    8.000 
#    0.000    3.000    0.000    0.000    0.000    0.000 
#    0.000    0.000    0.000    0.000    0.000    0.000 
#
# Total GULP energy -248024.590692 kJ/mol
# GULP energy per Si atom -12401.229535 kJ/mol
# Density = 2.036548 g / cm^3
# Si number density = 20.411942 Si / 1000 Ang^3
#
#
#
# Elastic Constant Matrix: (Units=GPa)
#
#
# Indices 1 2 3 4 5 6 
#
# 1 132.8149 31.4727 41.6164 0.0000 0.0000 0.0000
# 2 31.4727 101.3621 70.4188 0.0000 0.0000 0.0000
# 3 41.6164 70.4188 133.6518 0.0000 0.0000 0.0000
# 4 0.0000 0.0000 0.0000 38.8640 0.0000 0.0000
# 5 0.0000 0.0000 0.0000 0.0000 30.8142 0.0000
# 6 0.0000 0.0000 0.0000 0.0000 0.0000 55.1166
#
#
#
# Elastic Compliance Matrix: (Units=1/GPa)
#
#
# Indices 1 2 3 4 5 6 
#
# 1 0.008443 -0.001254 -0.001968 0.000000 0.000000 0.000000
# 2 -0.001254 0.015748 -0.007907 0.000000 0.000000 0.000000
# 3 -0.001968 -0.007907 0.012261 0.000000 0.000000 0.000000
# 4 0.000000 0.000000 0.000000 0.025731 0.000000 0.000000
# 5 0.000000 0.000000 0.000000 0.000000 0.032453 0.000000
# 6 0.000000 0.000000 0.000000 0.000000 0.000000 0.018143
#
#
# Mechanical properties :
#
#
# Convention : Reuss Voigt Hill
#
# Bulk Modulus (GPa) = 70.45376 72.76051 71.60714
# Shear Modulus (GPa) = 35.77331 39.91368 37.84350
#
# Velocity S-wave (km/s) = 4.19091 4.42680 4.31047
# Velocity P-wave (km/s) = 7.61638 7.86461 7.74149
#
# Compressibility (1/GPa) = 0.01419371
#
# Stress axis : x y z
#
# Youngs Moduli (GPa) = 118.43836 63.49941 81.55942
#
# Poissons Ratio (x) = 0.07964 0.16053
# Poissons Ratio (y) = 0.14855 0.64488
# Poissons Ratio (z) = 0.23311 0.50208
#
# Static dielectric constant tensor:
#      x y z
#    x 4.044100 0.000000 0.000000 
#    y 0.000000 3.539380 0.000000 
#    z 0.000000 0.000000 3.763190 
# 
# 
# High freq. dielectric constant tensor:
#      x y z
#    x 1.816630 0.000000 0.000000 
#    y 0.000000 1.785290 0.000000 
#    z 0.000000 0.000000 1.810820 
# 
# From -- ./inp_files/10166.got.cif
#   From: 2010.03.12/outbox.cif.g09.slc.cpg/sg36_6_cif.got.tgz:10166.got - 2010.04.14 02:13:53.
