data_PCOD8176956
_publ_section_title
;
Structure prediction by ZEFSAII (Michael W. Deem and Ramdas Pophale) SiO2 
 PCOD8176956
Probable space group: C C C 2
;
_chemical_formula_sum "Si O2"
_cell_formula_units_Z 64
_cell_length_a 22.005510
_cell_length_b 14.795707
_cell_length_c 9.770540
_cell_angle_alpha 90.000000
_cell_angle_beta 90.000000
_cell_angle_gamma 90.000000
_cell_volume 3181.161572
_symmetry_space_group_name_H-M "C C C 2"
_symmetry_group_IT_number 37
_symmetry_cell_setting 'orthorhombic'
loop_
_space_group_symop_operation_xyz
x,y,z
-x,-y,z
-x,y,1/2+z
x,-y,1/2+z
1/2+x,1/2+y,z
1/2-x,1/2-y,z
1/2-x,1/2+y,1/2+z
1/2+x,1/2-y,1/2+z
loop_
_atom_site_type_symbol
_atom_site_label
_atom_site_fract_x
_atom_site_fract_y
_atom_site_fract_z
Si Si1 0.677452 0.499185 0.359460
Si Si2 0.601599 0.088089 0.246426
Si Si3 0.493480 0.649595 0.586363
Si Si4 0.263690 0.148118 0.426573
Si Si5 0.404347 0.514152 0.109642
Si Si6 0.398905 0.085743 0.427367
Si Si7 0.499426 0.774526 0.834908
Si Si8 0.237293 0.352177 0.745663
O O1 0.720508 0.585659 0.333593
O O2 0.618389 0.498804 0.264062
O O3 0.654305 0.505639 0.514281
O O4 0.717262 0.410012 0.338085
O O5 0.556092 0.168539 0.280910
O O6 0.668645 0.122162 0.282361
O O7 0.585358 0.002298 0.339113
O O8 0.594954 0.060989 0.087362
O O9 0.563096 0.612361 0.593605
O O10 0.450770 0.563971 0.574620
O O11 0.475641 0.709478 0.716128
O O12 0.479617 0.710644 0.456583
O O13 0.250000 0.250000 0.382841
O O14 0.332678 0.123363 0.391769
O O15 0.249159 0.131798 0.586055
O O16 0.445497 0.163020 0.386979
O O17 0.250000 0.250000 0.787895
#
# Coordination Sequence:
#
# PCOD8176956 Si02
#       8
#     8   8   8   8   8   8   8   8
#     4  12  22  43  70 103 128 180 218 282 338 406
#     4  11  25  44  67  96 135 177 221 279 333 394
#     4  11  26  46  63 102 132 178 219 286 322 407
#     4  10  23  42  67  97 134 177 224 272 335 400
#     4  11  26  42  70  94 142 169 224 272 348 393
#     4  11  25  44  67  96 135 177 221 279 333 394
#     4  12  25  43  72  94 132 178 234 267 335 392
#     4  10  23  42  67  97 134 177 224 272 335 400
#
# _framework density 20.118438000000001
#
# number of rings (size 3 to 8) (size 9 to 14) (size 15 to 20)
#    0.000    1.000    3.750    1.875    8.750    3.000 
#    0.000    0.625    0.000    0.000    0.000    0.000 
#    0.000    0.000    0.000    0.000    0.000    0.000 
#
# Total GULP energy -396972.415294 kJ/mol
# GULP energy per Si atom -12405.387978 kJ/mol
# Density = 2.007265 g / cm^3
# Si number density = 20.118438 Si / 1000 Ang^3
#
#
#
# Elastic Constant Matrix: (Units=GPa)
#
#
# Indices 1 2 3 4 5 6 
#
# 1 93.6938 37.6547 21.9534 0.0000 0.0000 0.0000
# 2 37.6547 122.0212 33.7416 0.0000 0.0000 0.0000
# 3 21.9534 33.7416 85.3916 0.0000 0.0000 0.0000
# 4 0.0000 0.0000 0.0000 31.2073 0.0000 0.0000
# 5 0.0000 0.0000 0.0000 0.0000 -19.9315 0.0000
# 6 0.0000 0.0000 0.0000 0.0000 0.0000 24.6753
#
#
#
# Elastic Compliance Matrix: (Units=1/GPa)
#
#
# Indices 1 2 3 4 5 6 
#
# 1 0.012450 -0.003320 -0.001889 0.000000 0.000000 0.000000
# 2 -0.003320 0.010086 -0.003132 0.000000 0.000000 0.000000
# 3 -0.001889 -0.003132 0.013434 0.000000 0.000000 0.000000
# 4 0.000000 0.000000 0.000000 0.032044 0.000000 0.000000
# 5 0.000000 0.000000 0.000000 0.000000 -0.050172 0.000000
# 6 0.000000 0.000000 0.000000 0.000000 0.000000 0.040526
#
#
# Mechanical properties :
#
#
# Convention : Reuss Voigt Hill
#
# Bulk Modulus (GPa) = 51.84418 54.20068 53.02243
# Shear Modulus (GPa) = 61.36610 21.04065 41.20338
#
# Velocity S-wave (km/s) = 5.52889 3.23745 4.53044
# Velocity P-wave (km/s) = 8.15988 6.40110 7.33341
#
# Compressibility (1/GPa) = 0.01928857
#
# Stress axis : x y z
#
# Youngs Moduli (GPa) = 80.32270 99.15020 74.43835
#
# Poissons Ratio (x) = 0.32913 0.14062
# Poissons Ratio (y) = 0.26663 0.23313
# Poissons Ratio (z) = 0.15173 0.31052
#
# Static dielectric constant tensor:
#      x y z
#    x 4.214610 0.000000 0.000000 
#    y 0.000000 3.835780 0.000000 
#    z 0.000000 0.000000 3.616540 
# 
# 
# High freq. dielectric constant tensor:
#      x y z
#    x 1.798840 0.000000 0.000000 
#    y 0.000000 1.799940 0.000000 
#    z 0.000000 0.000000 1.782350 
# 
# From -- ./inp_files/3770.got.cif
#   From: 2010.03.12/outbox.cif.g09.slc.cpg/sg37_2_cif.got.tgz:3770.got - 2010.04.14 02:25:27.
