data_PCOD8176087
_publ_section_title
;
Structure prediction by ZEFSAII (Michael W. Deem and Ramdas Pophale) SiO2 
 PCOD8176087
Probable space group: C M C 21
;
_chemical_formula_sum "Si O2"
_cell_formula_units_Z 64
_cell_length_a 26.451441
_cell_length_b 9.998688
_cell_length_c 11.472260
_cell_angle_alpha 90.000000
_cell_angle_beta 90.000000
_cell_angle_gamma 90.000000
_cell_volume 3034.179949
_symmetry_space_group_name_H-M "C M C 21"
_symmetry_group_IT_number 36
_symmetry_cell_setting 'orthorhombic'
loop_
_space_group_symop_operation_xyz
x,y,z
-x,-y,1/2+z
x,-y,1/2+z
-x,y,z
1/2+x,1/2+y,z
1/2-x,1/2-y,1/2+z
1/2+x,1/2-y,1/2+z
1/2-x,1/2+y,z
loop_
_atom_site_type_symbol
_atom_site_label
_atom_site_fract_x
_atom_site_fract_y
_atom_site_fract_z
Si Si1 0.056828 0.359231 0.799290
Si Si2 0.763369 0.263889 0.681016
Si Si3 0.943485 0.946023 0.315608
Si Si4 0.607650 0.539122 0.557030
Si Si5 0.750373 0.512092 0.809578
Si Si6 0.810543 0.841935 0.495832
Si Si7 0.369490 0.174662 0.106527
Si Si8 0.350554 0.053775 0.433815
O O1 0.056932 0.209620 0.848747
O O2 0.076933 0.351203 0.667656
O O3 0.095376 0.454239 0.869100
O O4 0.000000 0.420111 0.802212
O O5 0.736193 0.359676 0.776526
O O6 0.748121 0.109587 0.697104
O O7 0.742595 0.304689 0.555174
O O8 0.823154 0.294565 0.695612
O O9 0.920652 0.009369 0.434406
O O10 0.000000 0.002433 0.303555
O O11 0.919285 0.971664 0.185589
O O12 0.654034 0.436365 0.574025
O O13 0.625934 0.690555 0.530661
O O14 0.805865 0.516798 0.863489
O O15 0.704423 0.571760 0.883801
O O16 0.839765 0.707404 0.463775
O O17 0.355997 0.037026 0.046077
#
# Coordination Sequence:
#
# PCOD8176087 Si02
#       8
#     8   8   8   8   8   8   8   8
#     4  10  22  45  70  92 131 182 227 282 352 414
#     4  12  25  41  64  95 133 182 217 276 342 415
#     4  10  22  46  74 103 136 181 231 294 353 407
#     4  11  25  42  72 106 137 176 233 287 342 422
#     4  12  25  40  65  93 136 172 226 271 338 412
#     4  12  26  41  64  99 135 177 223 277 341 413
#     4  11  24  43  66  98 136 175 227 285 348 413
#     4  12  24  44  64  98 133 173 227 280 344 414
#
# _framework density 21.093014
#
# number of rings (size 3 to 8) (size 9 to 14) (size 15 to 20)
#    0.000    0.750    5.000    1.875    7.000    1.000 
#    0.000    0.000    0.000    0.000    0.000    0.000 
#    0.000    0.000    0.000    0.000    0.000    0.000 
#
# Total GULP energy -396422.555245 kJ/mol
# GULP energy per Si atom -12388.204851 kJ/mol
# Density = 2.104501 g / cm^3
# Si number density = 21.093014 Si / 1000 Ang^3
#
#
#
# Elastic Constant Matrix: (Units=GPa)
#
#
# Indices 1 2 3 4 5 6 
#
# 1 120.5371 35.8716 29.2103 0.0000 0.0000 0.0000
# 2 35.8716 77.2418 22.3897 0.0000 0.0000 0.0000
# 3 29.2103 22.3897 89.3344 0.0000 0.0000 0.0000
# 4 0.0000 0.0000 0.0000 26.6278 0.0000 0.0000
# 5 0.0000 0.0000 0.0000 0.0000 34.2046 0.0000
# 6 0.0000 0.0000 0.0000 0.0000 0.0000 28.1955
#
#
#
# Elastic Compliance Matrix: (Units=1/GPa)
#
#
# Indices 1 2 3 4 5 6 
#
# 1 0.010040 -0.004002 -0.002280 0.000000 0.000000 0.000000
# 2 -0.004002 0.015556 -0.002590 0.000000 0.000000 0.000000
# 3 -0.002280 -0.002590 0.012589 0.000000 0.000000 0.000000
# 4 0.000000 0.000000 0.000000 0.037555 0.000000 0.000000
# 5 0.000000 0.000000 0.000000 0.000000 0.029236 0.000000
# 6 0.000000 0.000000 0.000000 0.000000 0.000000 0.035467
#
#
# Mechanical properties :
#
#
# Convention : Reuss Voigt Hill
#
# Bulk Modulus (GPa) = 48.92277 51.33961 50.13119
# Shear Modulus (GPa) = 30.30349 31.11503 30.70926
#
# Velocity S-wave (km/s) = 3.79444 3.84491 3.81976
# Velocity P-wave (km/s) = 6.51469 6.64106 6.57818
#
# Compressibility (1/GPa) = 0.02044038
#
# Stress axis : x y z
#
# Youngs Moduli (GPa) = 99.60610 64.28572 79.43749
#
# Poissons Ratio (x) = 0.25725 0.18110
# Poissons Ratio (y) = 0.39858 0.20576
# Poissons Ratio (z) = 0.22708 0.16651
#
# Static dielectric constant tensor:
#      x y z
#    x 4.105590 0.000000 0.000000 
#    y 0.000000 3.980340 0.000000 
#    z 0.000000 0.000000 3.788460 
# 
# 
# High freq. dielectric constant tensor:
#      x y z
#    x 1.829700 0.000000 0.000000 
#    y 0.000000 1.829610 0.000000 
#    z 0.000000 0.000000 1.825550 
# 
# From -- ./inp_files/9749.got.cif
#   From: 2010.03.12/outbox.cif.g09.slc.cpg/sg36_5_cif.got.tgz:9749.got - 2010.04.14 02:13:53.
