data_PCOD8176845
_publ_section_title
;
Structure prediction by ZEFSAII (Michael W. Deem and Ramdas Pophale) SiO2 
 PCOD8176845
Probable space group: C C C 2
;
_chemical_formula_sum "Si O2"
_cell_formula_units_Z 64
_cell_length_a 9.429304
_cell_length_b 24.685363
_cell_length_c 13.853993
_cell_angle_alpha 90.000000
_cell_angle_beta 90.000000
_cell_angle_gamma 90.000000
_cell_volume 3224.735654
_symmetry_space_group_name_H-M "C C C 2"
_symmetry_group_IT_number 37
_symmetry_cell_setting 'orthorhombic'
loop_
_space_group_symop_operation_xyz
x,y,z
-x,-y,z
-x,y,1/2+z
x,-y,1/2+z
1/2+x,1/2+y,z
1/2-x,1/2-y,z
1/2-x,1/2+y,1/2+z
1/2+x,1/2-y,1/2+z
loop_
_atom_site_type_symbol
_atom_site_label
_atom_site_fract_x
_atom_site_fract_y
_atom_site_fract_z
Si Si1 0.668756 0.498302 0.607440
Si Si2 0.224702 0.412698 0.746310
Si Si3 0.416768 0.744215 0.618750
Si Si4 0.477910 0.661831 0.262124
Si Si5 0.775299 0.087302 0.769509
Si Si6 0.583232 0.244215 0.397068
Si Si7 0.022090 0.338170 0.253694
Si Si8 0.331244 0.001698 0.908378
O O1 0.500000 0.500000 0.591548
O O2 0.716958 0.554389 0.655334
O O3 0.719323 0.448804 0.673649
O O4 0.750001 0.490663 0.507909
O O5 0.316891 0.358533 0.760257
O O6 0.219324 0.448804 0.842170
O O7 0.067510 0.391215 0.724315
O O8 0.250000 0.750000 0.635526
O O9 0.472451 0.686382 0.658788
O O10 0.459111 0.750000 0.507909
O O11 0.498420 0.792113 0.673626
O O12 0.567509 0.608785 0.291503
O O13 0.498421 0.707887 0.342191
O O14 0.683109 0.141467 0.755561
O O15 0.716959 0.054389 0.860485
O O16 0.750000 0.250000 0.380292
O O17 0.527549 0.186382 0.357030
O O18 0.500000 0.000000 0.924269
#
# Coordination Sequence:
#
# PCOD8176845 Si02
#       8
#     8   8   8   8   8   8   8   8
#     4  11  26  42  64  96 127 163 210 261 311 370
#     4  11  24  43  64  88 130 167 209 252 313 375
#     4  10  22  39  63  93 124 160 210 260 308 369
#     4  11  22  41  64  91 124 168 204 257 311 368
#     4  11  24  43  64  88 130 167 209 252 313 375
#     4  10  22  39  63  93 124 160 210 260 308 369
#     4  11  22  41  64  91 124 168 204 257 311 368
#     4  11  26  42  64  96 127 163 210 261 311 370
#
# _framework density 19.846588000000001
#
# number of rings (size 3 to 8) (size 9 to 14) (size 15 to 20)
#    0.000    1.250    5.000    0.000    3.500    4.000 
#    0.000    1.250    0.000    0.000    0.000    0.000 
#    0.000    0.000    0.000    0.000    0.000    0.000 
#
# Total GULP energy -396927.852932 kJ/mol
# GULP energy per Si atom -12403.995404 kJ/mol
# Density = 1.980142 g / cm^3
# Si number density = 19.846588 Si / 1000 Ang^3
#
#
#
# Elastic Constant Matrix: (Units=GPa)
#
#
# Indices 1 2 3 4 5 6 
#
# 1 63.5390 17.6232 44.2610 0.0000 0.0000 0.0000
# 2 17.6232 89.9970 39.6325 0.0000 0.0000 0.0000
# 3 44.2610 39.6325 129.6103 0.0000 0.0000 0.0000
# 4 0.0000 0.0000 0.0000 14.3142 0.0000 0.0000
# 5 0.0000 0.0000 0.0000 0.0000 28.0126 0.0000
# 6 0.0000 0.0000 0.0000 0.0000 0.0000 46.5405
#
#
#
# Elastic Compliance Matrix: (Units=1/GPa)
#
#
# Indices 1 2 3 4 5 6 
#
# 1 0.020743 -0.001089 -0.006750 0.000000 0.000000 0.000000
# 2 -0.001089 0.012898 -0.003572 0.000000 0.000000 0.000000
# 3 -0.006750 -0.003572 0.011113 0.000000 0.000000 0.000000
# 4 0.000000 0.000000 0.000000 0.069861 0.000000 0.000000
# 5 0.000000 0.000000 0.000000 0.000000 0.035698 0.000000
# 6 0.000000 0.000000 0.000000 0.000000 0.000000 0.021487
#
#
# Mechanical properties :
#
#
# Convention : Reuss Voigt Hill
#
# Bulk Modulus (GPa) = 45.59891 54.01996 49.80943
# Shear Modulus (GPa) = 24.76075 29.88209 27.32142
#
# Velocity S-wave (km/s) = 3.53598 3.88449 3.71432
# Velocity P-wave (km/s) = 6.30051 6.88453 6.59899
#
# Compressibility (1/GPa) = 0.02193035
#
# Stress axis : x y z
#
# Youngs Moduli (GPa) = 48.20948 77.53281 89.98533
#
# Poissons Ratio (x) = 0.08444 0.60744
# Poissons Ratio (y) = 0.05251 0.32143
# Poissons Ratio (z) = 0.32544 0.27695
#
# Static dielectric constant tensor:
#      x y z
#    x 3.605220 0.000000 0.000000 
#    y 0.000000 3.702220 0.000000 
#    z 0.000000 0.000000 3.509240 
# 
# 
# High freq. dielectric constant tensor:
#      x y z
#    x 1.784120 0.000000 0.000000 
#    y 0.000000 1.787440 0.000000 
#    z 0.000000 0.000000 1.764860 
# 
# From -- ./inp_files/11001.got.cif
#   From: 2010.03.12/outbox.cif.g09.slc.cpg/sg37_6_cif.got.tgz:11001.got - 2010.04.14 02:25:27.
