data_PCOD8176260
_publ_section_title
;
Structure prediction by ZEFSAII (Michael W. Deem and Ramdas Pophale) SiO2 
 PCOD8176260
Probable space group: C M C 21
;
_chemical_formula_sum "Si O2"
_cell_formula_units_Z 48
_cell_length_a 8.831308
_cell_length_b 23.803090
_cell_length_c 11.752720
_cell_angle_alpha 90.000000
_cell_angle_beta 90.000000
_cell_angle_gamma 90.000000
_cell_volume 2470.567703
_symmetry_space_group_name_H-M "C M C 21"
_symmetry_group_IT_number 36
_symmetry_cell_setting 'orthorhombic'
loop_
_space_group_symop_operation_xyz
x,y,z
-x,-y,1/2+z
x,-y,1/2+z
-x,y,z
1/2+x,1/2+y,z
1/2-x,1/2-y,1/2+z
1/2+x,1/2-y,1/2+z
1/2-x,1/2+y,z
loop_
_atom_site_type_symbol
_atom_site_label
_atom_site_fract_x
_atom_site_fract_y
_atom_site_fract_z
Si Si1 0.172683 0.356940 0.871340
Si Si2 0.678094 0.390278 0.223028
Si Si3 0.825576 0.708820 0.594239
Si Si4 0.676597 0.664100 0.138848
Si Si5 0.176113 0.459333 0.030451
Si Si6 0.178321 0.417201 0.461559
O O1 0.289903 0.347460 0.770471
O O2 0.209292 0.417078 0.927059
O O3 0.000000 0.355327 0.826146
O O4 0.200405 0.308019 0.963316
O O5 0.500000 0.393357 0.227003
O O6 0.726364 0.329482 0.177035
O O7 0.739678 0.396865 0.349112
O O8 0.737324 0.440555 0.143802
O O9 0.774520 0.772724 0.608639
O O10 0.000000 0.699472 0.628727
O O11 0.500000 0.653890 0.114063
O O12 0.778132 0.623067 0.064559
O O13 0.233759 0.520303 0.993186
O O14 0.000000 0.459264 0.062432
O O15 0.000000 0.415813 0.441232
#
# Coordination Sequence:
#
# PCOD8176260 Si02
#       6
#     8   8   8   8   8   8
#     4   9  19  39  63  86 114 158 206 245 293 357
#     4  11  23  39  63  93 123 154 197 253 305 349
#     4   9  21  42  63  85 120 163 203 242 295 363
#     4  11  24  39  59  93 126 154 198 254 302 346
#     4   9  21  42  65  86 116 162 207 241 290 362
#     4  11  24  41  63  89 121 163 205 241 293 363
#
# _framework density 19.428733999999999
#
# number of rings (size 3 to 8) (size 9 to 14) (size 15 to 20)
#    0.000    2.000    0.000    3.500    4.667    5.333 
#    0.000    0.000    0.000    0.000    0.000    0.000 
#    0.000    0.000    0.000    0.000    0.000    0.000 
#
# Total GULP energy -297725.463496 kJ/mol
# GULP energy per Si atom -12405.227646 kJ/mol
# Density = 1.938451 g / cm^3
# Si number density = 19.428734 Si / 1000 Ang^3
#
#
#
# Elastic Constant Matrix: (Units=GPa)
#
#
# Indices 1 2 3 4 5 6 
#
# 1 71.1495 34.6482 37.2848 0.0000 0.0000 0.0000
# 2 34.6482 130.3821 56.0286 0.0000 0.0000 0.0000
# 3 37.2848 56.0286 112.3927 0.0000 0.0000 0.0000
# 4 0.0000 0.0000 0.0000 18.6866 0.0000 0.0000
# 5 0.0000 0.0000 0.0000 0.0000 37.1239 0.0000
# 6 0.0000 0.0000 0.0000 0.0000 0.0000 9.4583
#
#
#
# Elastic Compliance Matrix: (Units=1/GPa)
#
#
# Indices 1 2 3 4 5 6 
#
# 1 0.017774 -0.002786 -0.004507 0.000000 0.000000 0.000000
# 2 -0.002786 0.010198 -0.004159 0.000000 0.000000 0.000000
# 3 -0.004507 -0.004159 0.012466 0.000000 0.000000 0.000000
# 4 0.000000 0.000000 0.000000 0.053514 0.000000 0.000000
# 5 0.000000 0.000000 0.000000 0.000000 0.026937 0.000000
# 6 0.000000 0.000000 0.000000 0.000000 0.000000 0.105727
#
#
# Mechanical properties :
#
#
# Convention : Reuss Voigt Hill
#
# Bulk Modulus (GPa) = 57.03949 63.31638 60.17794
# Shear Modulus (GPa) = 19.57982 25.45127 22.51554
#
# Velocity S-wave (km/s) = 3.17799 3.62329 3.40792
# Velocity P-wave (km/s) = 6.54891 7.08266 6.82101
#
# Compressibility (1/GPa) = 0.01753171
#
# Stress axis : x y z
#
# Youngs Moduli (GPa) = 56.26275 98.06276 80.21840
#
# Poissons Ratio (x) = 0.27324 0.36156
# Poissons Ratio (y) = 0.15677 0.33364
# Poissons Ratio (z) = 0.25359 0.40786
#
# Static dielectric constant tensor:
#      x y z
#    x 3.463640 0.000000 0.000000 
#    y 0.000000 3.819580 0.000000 
#    z 0.000000 0.000000 3.484600 
# 
# 
# High freq. dielectric constant tensor:
#      x y z
#    x 1.754640 0.000000 0.000000 
#    y 0.000000 1.766870 0.000000 
#    z 0.000000 0.000000 1.762010 
# 
# From -- ./inp_files/6716.got.cif
#   From: 2010.03.12/outbox.cif.g09.slc.cpg/sg36_4_cif.got.tgz:6716.got - 2010.04.14 02:13:53.
