data_PCOD8176533
_publ_section_title
;
Structure prediction by ZEFSAII (Michael W. Deem and Ramdas Pophale) SiO2 
 PCOD8176533
Probable space group: C C C 2
;
_chemical_formula_sum "Si O2"
_cell_formula_units_Z 44
_cell_length_a 20.124823
_cell_length_b 14.767310
_cell_length_c 8.393496
_cell_angle_alpha 90.000000
_cell_angle_beta 90.000000
_cell_angle_gamma 90.000000
_cell_volume 2494.458879
_symmetry_space_group_name_H-M "C C C 2"
_symmetry_group_IT_number 37
_symmetry_cell_setting 'orthorhombic'
loop_
_space_group_symop_operation_xyz
x,y,z
-x,-y,z
-x,y,1/2+z
x,-y,1/2+z
1/2+x,1/2+y,z
1/2-x,1/2-y,z
1/2-x,1/2+y,1/2+z
1/2+x,1/2-y,1/2+z
loop_
_atom_site_type_symbol
_atom_site_label
_atom_site_fract_x
_atom_site_fract_y
_atom_site_fract_z
Si Si1 0.341228 0.260826 0.887460
Si Si2 0.264303 0.414904 0.386693
Si Si3 0.750000 0.250000 0.674253
Si Si4 0.951490 0.116595 0.466218
Si Si5 0.736223 0.891177 0.745357
Si Si6 0.917129 0.928609 0.330142
O O1 0.418121 0.290572 0.900225
O O2 0.329757 0.161023 0.811723
O O3 0.301431 0.333129 0.781990
O O4 0.314347 0.267218 0.067050
O O5 0.232754 0.337631 0.277918
O O6 0.231636 0.402968 0.557874
O O7 0.241552 0.512104 0.326710
O O8 0.343723 0.401964 0.386192
O O9 0.930663 0.095883 0.646746
O O10 0.031021 0.125420 0.444595
O O11 0.926421 0.035814 0.351996
#
# Coordination Sequence:
#
# PCOD8176533 Si02
#       6
#     8   8   4   8   8   8
#     4  10  20  36  50  78 109 147 181 222 266 330
#     4  12  20  36  53  82 110 141 182 224 277 330
#     4  10  20  34  52  76 108 138 184 224 284 322
#     4  11  21  36  50  78 112 148 191 211 267 328
#     4  10  21  32  55  76 110 147 171 227 273 319
#     4  11  22  32  54  74 110 153 177 223 264 322
#
# _framework density 17.639095999999999
#
# number of rings (size 3 to 8) (size 9 to 14) (size 15 to 20)
#    0.000    1.455    3.636    6.545    2.545    0.000 
#    0.000    0.000    0.000    0.000    0.000    1.273 
#    0.000    0.000    0.000    0.000    0.000    0.000 
#
# Total GULP energy -272724.465929 kJ/mol
# GULP energy per Si atom -12396.566633 kJ/mol
# Density = 1.759895 g / cm^3
# Si number density = 17.639096 Si / 1000 Ang^3
#
#
#
# Elastic Constant Matrix: (Units=GPa)
#
#
# Indices 1 2 3 4 5 6 
#
# 1 70.1435 29.0994 18.2492 0.0000 0.0000 0.0000
# 2 29.0994 105.9232 44.3482 0.0000 0.0000 0.0000
# 3 18.2492 44.3482 119.6443 0.0000 0.0000 0.0000
# 4 0.0000 0.0000 0.0000 32.0653 0.0000 0.0000
# 5 0.0000 0.0000 0.0000 0.0000 13.2533 0.0000
# 6 0.0000 0.0000 0.0000 0.0000 0.0000 34.5172
#
#
#
# Elastic Compliance Matrix: (Units=1/GPa)
#
#
# Indices 1 2 3 4 5 6 
#
# 1 0.016185 -0.004040 -0.000971 0.000000 0.000000 0.000000
# 2 -0.004040 0.012183 -0.003900 0.000000 0.000000 0.000000
# 3 -0.000971 -0.003900 0.009952 0.000000 0.000000 0.000000
# 4 0.000000 0.000000 0.000000 0.031186 0.000000 0.000000
# 5 0.000000 0.000000 0.000000 0.000000 0.075453 0.000000
# 6 0.000000 0.000000 0.000000 0.000000 0.000000 0.028971
#
#
# Mechanical properties :
#
#
# Convention : Reuss Voigt Hill
#
# Bulk Modulus (GPa) = 48.78380 53.23383 51.00882
# Shear Modulus (GPa) = 25.17809 29.56809 27.37309
#
# Velocity S-wave (km/s) = 3.78220 4.09868 3.94362
# Velocity P-wave (km/s) = 6.84032 7.25561 7.05103
#
# Compressibility (1/GPa) = 0.02049861
#
# Stress axis : x y z
#
# Youngs Moduli (GPa) = 61.78525 82.07901 100.48446
#
# Poissons Ratio (x) = 0.33158 0.09760
# Poissons Ratio (y) = 0.24960 0.39187
# Poissons Ratio (z) = 0.06001 0.32009
#
# Static dielectric constant tensor:
#      x y z
#    x 3.223680 0.000000 0.000000 
#    y 0.000000 3.326400 0.000000 
#    z 0.000000 0.000000 3.406930 
# 
# 
# High freq. dielectric constant tensor:
#      x y z
#    x 1.649400 0.000000 0.000000 
#    y 0.000000 1.668960 0.000000 
#    z 0.000000 0.000000 1.703060 
# 
# From -- ./inp_files/4562.got.cif
#   From: 2010.03.12/outbox.cif.g09.slc.cpg/sg37_3_cif.got.tgz:4562.got - 2010.04.14 02:25:27.
