data_PCOD8176680
_publ_section_title
;
Structure prediction by ZEFSAII (Michael W. Deem and Ramdas Pophale) SiO2 
 PCOD8176680
Probable space group: C C C 2
;
_chemical_formula_sum "Si O2"
_cell_formula_units_Z 56
_cell_length_a 12.763022
_cell_length_b 13.733781
_cell_length_c 15.454431
_cell_angle_alpha 90.000000
_cell_angle_beta 90.000000
_cell_angle_gamma 90.000000
_cell_volume 2708.922969
_symmetry_space_group_name_H-M "C C C 2"
_symmetry_group_IT_number 37
_symmetry_cell_setting 'orthorhombic'
loop_
_space_group_symop_operation_xyz
x,y,z
-x,-y,z
-x,y,1/2+z
x,-y,1/2+z
1/2+x,1/2+y,z
1/2-x,1/2-y,z
1/2-x,1/2+y,1/2+z
1/2+x,1/2-y,1/2+z
loop_
_atom_site_type_symbol
_atom_site_label
_atom_site_fract_x
_atom_site_fract_y
_atom_site_fract_z
Si Si1 0.372036 0.231076 0.740410
Si Si2 0.313331 0.976244 0.198504
Si Si3 0.828458 0.167111 0.979889
Si Si4 0.095200 0.922502 0.148440
Si Si5 0.162678 0.560488 0.881710
Si Si6 0.486521 0.209705 0.919600
Si Si7 0.898088 0.563741 0.031899
O O1 0.250000 0.250000 0.748887
O O2 0.380131 0.125447 0.692224
O O3 0.433703 0.313514 0.683732
O O4 0.416081 0.235293 0.837546
O O5 0.188583 0.961321 0.208639
O O6 0.348653 0.027994 0.284627
O O7 0.332293 0.050942 0.119604
O O8 0.750000 0.250000 0.020262
O O9 0.766848 0.124072 0.897550
O O10 0.940521 0.200552 0.944845
O O11 0.853857 0.087646 0.053059
O O12 0.000000 0.000000 0.149766
O O13 0.055970 0.617144 0.897027
O O14 0.169109 0.472657 0.949609
O O15 0.421564 0.176767 0.006107
O O16 0.000000 0.500000 0.048223
#
# Coordination Sequence:
#
# PCOD8176680 Si02
#       7
#     8   8   8   8   8   8   8
#     4  10  23  41  63  89 128 169 215 264 328 393
#     4  11  22  40  67  93 128 171 214 276 325 385
#     4  10  21  43  67  90 130 175 214 265 330 399
#     4  11  25  43  62  92 124 173 226 263 327 405
#     4  10  21  38  65  95 128 163 217 264 325 384
#     4  10  22  39  62  99 130 163 214 267 325 393
#     4  10  21  35  64 100 127 159 211 268 317 380
#
# _framework density 20.672423999999999
#
# number of rings (size 3 to 8) (size 9 to 14) (size 15 to 20)
#    0.000    1.714    2.857    1.286    8.000    0.000 
#    7.714    0.000    0.000    0.000    0.000    0.000 
#    0.000    0.000    0.000    0.000    0.000    0.000 
#
# Total GULP energy -346984.213974 kJ/mol
# GULP energy per Si atom -12392.293356 kJ/mol
# Density = 2.062537 g / cm^3
# Si number density = 20.672424 Si / 1000 Ang^3
#
#
#
# Elastic Constant Matrix: (Units=GPa)
#
#
# Indices 1 2 3 4 5 6 
#
# 1 58.3174 36.0897 21.2912 0.0000 0.0000 0.0000
# 2 36.0897 82.9839 34.7656 0.0000 0.0000 0.0000
# 3 21.2912 34.7656 119.9129 0.0000 0.0000 0.0000
# 4 0.0000 0.0000 0.0000 25.2638 0.0000 0.0000
# 5 0.0000 0.0000 0.0000 0.0000 28.9220 0.0000
# 6 0.0000 0.0000 0.0000 0.0000 0.0000 34.8379
#
#
#
# Elastic Compliance Matrix: (Units=1/GPa)
#
#
# Indices 1 2 3 4 5 6 
#
# 1 0.023663 -0.009710 -0.001386 0.000000 0.000000 0.000000
# 2 -0.009710 0.017701 -0.003408 0.000000 0.000000 0.000000
# 3 -0.001386 -0.003408 0.009574 0.000000 0.000000 0.000000
# 4 0.000000 0.000000 0.000000 0.039582 0.000000 0.000000
# 5 0.000000 0.000000 0.000000 0.000000 0.034576 0.000000
# 6 0.000000 0.000000 0.000000 0.000000 0.000000 0.028704
#
#
# Mechanical properties :
#
#
# Convention : Reuss Voigt Hill
#
# Bulk Modulus (GPa) = 45.60197 49.50081 47.55139
# Shear Modulus (GPa) = 26.29940 29.07590 27.68765
#
# Velocity S-wave (km/s) = 3.57066 3.75441 3.66369
# Velocity P-wave (km/s) = 6.25353 6.54152 6.39915
#
# Compressibility (1/GPa) = 0.02192888
#
# Stress axis : x y z
#
# Youngs Moduli (GPa) = 42.26048 56.49331 104.45438
#
# Poissons Ratio (x) = 0.54856 0.14480
# Poissons Ratio (y) = 0.41036 0.35597
# Poissons Ratio (z) = 0.05858 0.19252
#
# Static dielectric constant tensor:
#      x y z
#    x 3.694490 0.000000 0.000000 
#    y 0.000000 3.872940 0.000000 
#    z 0.000000 0.000000 3.683730 
# 
# 
# High freq. dielectric constant tensor:
#      x y z
#    x 1.798600 0.000000 0.000000 
#    y 0.000000 1.792260 0.000000 
#    z 0.000000 0.000000 1.811620 
# 
# From -- ./inp_files/11571.got.cif
#   From: 2010.03.12/outbox.cif.g09.slc.cpg/sg37_6_cif.got.tgz:11571.got - 2010.04.14 02:25:27.
