data_PCOD8176432
_publ_section_title
;
Structure prediction by ZEFSAII (Michael W. Deem and Ramdas Pophale) SiO2 
 PCOD8176432
Probable space group: C C C 2
;
_chemical_formula_sum "Si O2"
_cell_formula_units_Z 64
_cell_length_a 25.969806
_cell_length_b 18.440616
_cell_length_c 8.946689
_cell_angle_alpha 90.000000
_cell_angle_beta 90.000000
_cell_angle_gamma 90.000000
_cell_volume 4284.562384
_symmetry_space_group_name_H-M "C C C 2"
_symmetry_group_IT_number 37
_symmetry_cell_setting 'orthorhombic'
loop_
_space_group_symop_operation_xyz
x,y,z
-x,-y,z
-x,y,1/2+z
x,-y,1/2+z
1/2+x,1/2+y,z
1/2-x,1/2-y,z
1/2-x,1/2+y,1/2+z
1/2+x,1/2-y,1/2+z
loop_
_atom_site_type_symbol
_atom_site_label
_atom_site_fract_x
_atom_site_fract_y
_atom_site_fract_z
Si Si1 0.253292 0.076110 0.846200
Si Si2 0.447866 0.924432 0.848423
Si Si3 0.845293 0.341977 0.195825
Si Si4 0.805034 0.212640 0.358743
Si Si5 0.947866 0.424432 0.197942
Si Si6 0.845293 0.658023 0.350540
Si Si7 0.753292 0.423890 0.700165
Si Si8 0.194966 0.212640 0.187622
O O1 0.307660 0.105577 0.786903
O O2 0.206110 0.130449 0.803658
O O3 0.239310 1.000000 0.773183
O O4 0.258641 0.067907 0.023183
O O5 0.500000 0.894283 0.773183
O O6 0.403579 0.865782 0.819791
O O7 0.431436 1.000000 0.773182
O O8 0.457223 0.937773 0.023183
O O9 0.840987 0.257758 0.245992
O O10 0.903579 0.365782 0.226574
O O11 0.830157 0.348315 0.023183
O O12 0.750000 0.250000 0.369508
O O13 0.830978 0.212602 0.523183
O O14 0.807660 0.605577 0.259462
O O15 0.840987 0.742242 0.300373
O O16 0.706110 0.369551 0.742707
O O17 0.250000 0.250000 0.176857
#
# Coordination Sequence:
#
# PCOD8176432 Si02
#       8
#     8   8   8   8   8   8   8   8
#     4  10  19  29  42  61  84 111 141 170 203 242
#     4  10  20  31  43  60  81 107 139 173 207 241
#     4  10  19  29  43  62  82 108 141 172 205 244
#     4   8  16  29  42  58  81 108 137 168 202 241
#     4  10  20  31  43  60  81 107 139 173 207 241
#     4  10  19  29  43  62  82 108 141 172 205 244
#     4  10  19  29  42  61  84 111 141 170 203 242
#     4   8  16  29  42  58  81 108 137 168 202 241
#
# _framework density 14.937348999999999
#
# number of rings (size 3 to 8) (size 9 to 14) (size 15 to 20)
#    0.000    2.500    0.000    5.250    0.000   11.500 
#    0.000    0.000    0.000    0.000    0.000    0.000 
#    0.000    1.000    0.000   11.000    0.000    8.000 
#
# Total GULP energy -396678.751131 kJ/mol
# GULP energy per Si atom -12396.210973 kJ/mol
# Density = 1.490335 g / cm^3
# Si number density = 14.937349 Si / 1000 Ang^3
#
#
#
# Elastic Constant Matrix: (Units=GPa)
#
#
# Indices 1 2 3 4 5 6 
#
# 1 70.0379 51.6065 49.4768 0.0000 0.0000 0.0000
# 2 51.6065 121.4215 59.2325 0.0000 0.0000 0.0000
# 3 49.4768 59.2325 101.7017 0.0000 0.0000 0.0000
# 4 0.0000 0.0000 0.0000 26.7276 0.0000 0.0000
# 5 0.0000 0.0000 0.0000 0.0000 18.3363 0.0000
# 6 0.0000 0.0000 0.0000 0.0000 0.0000 23.5585
#
#
#
# Elastic Compliance Matrix: (Units=1/GPa)
#
#
# Indices 1 2 3 4 5 6 
#
# 1 0.025005 -0.006556 -0.008346 0.000000 0.000000 0.000000
# 2 -0.006556 0.013223 -0.004512 0.000000 0.000000 0.000000
# 3 -0.008346 -0.004512 0.016521 0.000000 0.000000 0.000000
# 4 0.000000 0.000000 0.000000 0.037415 0.000000 0.000000
# 5 0.000000 0.000000 0.000000 0.000000 0.054537 0.000000
# 6 0.000000 0.000000 0.000000 0.000000 0.000000 0.042447
#
#
# Mechanical properties :
#
#
# Convention : Reuss Voigt Hill
#
# Bulk Modulus (GPa) = 62.81238 68.19917 65.50578
# Shear Modulus (GPa) = 21.43321 22.58082 22.00702
#
# Velocity S-wave (km/s) = 3.79208 3.89228 3.84251
# Velocity P-wave (km/s) = 7.83039 8.12131 7.97718
#
# Compressibility (1/GPa) = 0.01592043
#
# Stress axis : x y z
#
# Youngs Moduli (GPa) = 39.99249 75.62428 60.52950
#
# Poissons Ratio (x) = 0.49579 0.50519
# Poissons Ratio (y) = 0.26219 0.27311
# Poissons Ratio (z) = 0.33379 0.34122
#
# Static dielectric constant tensor:
#      x y z
#    x 2.666870 0.000000 0.000000 
#    y 0.000000 3.212790 0.000000 
#    z 0.000000 0.000000 3.054700 
# 
# 
# High freq. dielectric constant tensor:
#      x y z
#    x 1.532790 0.000000 0.000000 
#    y 0.000000 1.564640 0.000000 
#    z 0.000000 0.000000 1.589790 
# 
# From -- ./inp_files/4199.got.cif
#   From: 2010.03.12/outbox.cif.g09.slc.cpg/sg37_3_cif.got.tgz:4199.got - 2010.04.14 02:25:27.
