data_PCOD8176467
_publ_section_title
;
Structure prediction by ZEFSAII (Michael W. Deem and Ramdas Pophale) SiO2 
 PCOD8176467
Probable space group: C C C 2
;
_chemical_formula_sum "Si O2"
_cell_formula_units_Z 56
_cell_length_a 4.893684
_cell_length_b 26.881376
_cell_length_c 21.953137
_cell_angle_alpha 90.000000
_cell_angle_beta 90.000000
_cell_angle_gamma 90.000000
_cell_volume 2887.912333
_symmetry_space_group_name_H-M "C C C 2"
_symmetry_group_IT_number 37
_symmetry_cell_setting 'orthorhombic'
loop_
_space_group_symop_operation_xyz
x,y,z
-x,-y,z
-x,y,1/2+z
x,-y,1/2+z
1/2+x,1/2+y,z
1/2-x,1/2-y,z
1/2-x,1/2+y,1/2+z
1/2+x,1/2-y,1/2+z
loop_
_atom_site_type_symbol
_atom_site_label
_atom_site_fract_x
_atom_site_fract_y
_atom_site_fract_z
Si Si1 0.167877 0.651761 0.299310
Si Si2 0.003067 0.943519 0.668211
Si Si3 0.683931 0.307309 0.733055
Si Si4 0.005465 0.284046 0.411650
Si Si5 0.996582 0.556505 0.749083
Si Si6 0.692848 0.806757 0.542380
Si Si7 0.173912 0.849476 0.604383
O O1 0.466792 0.672338 0.282714
O O2 0.073928 0.674675 0.362843
O O3 0.123630 0.591822 0.303042
O O4 0.970496 0.665583 0.243343
O O5 0.694394 0.933310 0.689859
O O6 0.194027 0.932943 0.727386
O O7 0.115349 0.908054 0.614645
O O8 0.000000 0.000000 0.643899
O O9 0.750000 0.250000 0.743577
O O10 0.583611 0.319167 0.664970
O O11 0.750000 0.250000 0.428878
O O12 0.250000 0.250000 0.385036
O O13 0.100670 0.311650 0.472700
O O14 0.000000 0.500000 0.773342
O O15 0.750000 0.750000 0.562117
O O16 0.482048 0.834996 0.586888
O O17 0.982866 0.833781 0.548346
#
# Coordination Sequence:
#
# PCOD8176467 Si02
#       7
#     8   8   8   8   8   8   8
#     4  12  21  37  56  82 114 146 185 232 280 336
#     4  10  20  36  56  81 112 145 182 223 278 345
#     4  12  23  33  52  85 118 146 174 227 294 341
#     4  11  23  40  58  78 109 153 197 227 262 324
#     4  10  19  35  56  81 112 145 182 224 277 344
#     4  11  23  38  56  79 110 153 196 227 266 329
#     4  12  21  37  57  82 114 146 184 232 280 337
#
# _framework density 19.391169000000001
#
# number of rings (size 3 to 8) (size 9 to 14) (size 15 to 20)
#    0.000    0.857    2.857    7.286    0.000    0.000 
#    0.000    0.000    0.000    1.714    0.000    0.000 
#    0.000    0.000    0.000    0.000    0.000    0.000 
#
# Total GULP energy -347105.594659 kJ/mol
# GULP energy per Si atom -12396.628381 kJ/mol
# Density = 1.934703 g / cm^3
# Si number density = 19.391169 Si / 1000 Ang^3
#
#
#
# Elastic Constant Matrix: (Units=GPa)
#
#
# Indices 1 2 3 4 5 6 
#
# 1 79.4568 21.7294 7.2018 0.0000 0.0000 0.0000
# 2 21.7294 131.0724 34.8578 0.0000 0.0000 0.0000
# 3 7.2018 34.8578 73.9553 0.0000 0.0000 0.0000
# 4 0.0000 0.0000 0.0000 14.8369 0.0000 0.0000
# 5 0.0000 0.0000 0.0000 0.0000 22.6355 0.0000
# 6 0.0000 0.0000 0.0000 0.0000 0.0000 34.9658
#
#
#
# Elastic Compliance Matrix: (Units=1/GPa)
#
#
# Indices 1 2 3 4 5 6 
#
# 1 0.013189 -0.002109 -0.000290 0.000000 0.000000 0.000000
# 2 -0.002109 0.009060 -0.004065 0.000000 0.000000 0.000000
# 3 -0.000290 -0.004065 0.015466 0.000000 0.000000 0.000000
# 4 0.000000 0.000000 0.000000 0.067400 0.000000 0.000000
# 5 0.000000 0.000000 0.000000 0.000000 0.044178 0.000000
# 6 0.000000 0.000000 0.000000 0.000000 0.000000 0.028599
#
#
# Mechanical properties :
#
#
# Convention : Reuss Voigt Hill
#
# Bulk Modulus (GPa) = 40.34557 45.78471 43.06514
# Shear Modulus (GPa) = 25.11522 29.20068 27.15795
#
# Velocity S-wave (km/s) = 3.60278 3.88477 3.74643
# Velocity P-wave (km/s) = 6.17722 6.61697 6.40087
#
# Compressibility (1/GPa) = 0.02478587
#
# Stress axis : x y z
#
# Youngs Moduli (GPa) = 75.82320 110.37413 64.65846
#
# Poissons Ratio (x) = 0.23281 0.01876
# Poissons Ratio (y) = 0.15993 0.26283
# Poissons Ratio (z) = 0.02200 0.44866
#
# Static dielectric constant tensor:
#      x y z
#    x 3.819830 0.000000 0.000000 
#    y 0.000000 4.460390 0.000000 
#    z 0.000000 0.000000 3.145750 
# 
# 
# High freq. dielectric constant tensor:
#      x y z
#    x 1.782240 0.000000 0.000000 
#    y 0.000000 1.756270 0.000000 
#    z 0.000000 0.000000 1.714330 
# 
# From -- ./inp_files/15997.got.cif
#   From: 2010.03.12/outbox.cif.g09.slc.cpg/sg37_8_cif.got.tgz:15997.got - 2010.04.14 02:25:27.
