data_PCOD8176314
_publ_section_title
;
Structure prediction by ZEFSAII (Michael W. Deem and Ramdas Pophale) SiO2 
 PCOD8176314
Probable space group: C M C 21
;
_chemical_formula_sum "Si O2"
_cell_formula_units_Z 48
_cell_length_a 18.615262
_cell_length_b 9.049028
_cell_length_c 13.429705
_cell_angle_alpha 90.000000
_cell_angle_beta 90.000000
_cell_angle_gamma 90.000000
_cell_volume 2262.234171
_symmetry_space_group_name_H-M "C M C 21"
_symmetry_group_IT_number 36
_symmetry_cell_setting 'orthorhombic'
loop_
_space_group_symop_operation_xyz
x,y,z
-x,-y,1/2+z
x,-y,1/2+z
-x,y,z
1/2+x,1/2+y,z
1/2-x,1/2-y,1/2+z
1/2+x,1/2-y,1/2+z
1/2-x,1/2+y,z
loop_
_atom_site_type_symbol
_atom_site_label
_atom_site_fract_x
_atom_site_fract_y
_atom_site_fract_z
Si Si1 0.083309 0.381624 0.399400
Si Si2 0.827033 0.798899 0.256853
Si Si3 0.415746 0.360581 0.065391
Si Si4 0.179411 0.097435 0.970473
Si Si5 0.822861 0.426684 0.014783
Si Si6 0.817449 0.465404 0.233773
O O1 0.103573 0.253459 0.477328
O O2 0.107648 0.537928 0.446808
O O3 0.128379 0.361959 0.297383
O O4 0.000000 0.385414 0.372078
O O5 0.888413 0.807512 0.173163
O O6 0.851286 0.878687 0.359004
O O7 0.808837 0.628085 0.282336
O O8 0.757353 0.882653 0.217554
O O9 0.500000 0.384813 0.074542
O O10 0.379372 0.514964 0.036785
O O11 0.194277 0.254121 0.022175
O O12 0.254891 0.011961 0.967046
O O13 0.846103 0.487873 0.122423
#
# Coordination Sequence:
#
# PCOD8176314 Si02
#       6
#     8   8   8   8   8   8
#     4  11  25  45  67  98 140 179 223 283 350 408
#     4  12  24  42  72 100 135 177 233 283 346 414
#     4  11  27  47  67  99 143 183 225 291 354 406
#     4  12  24  42  71 102 134 181 228 285 335 416
#     4  12  23  43  69 101 135 174 231 279 340 402
#     4  12  25  41  72 104 129 182 230 285 339 416
#
# _framework density 21.217962
#
# number of rings (size 3 to 8) (size 9 to 14) (size 15 to 20)
#    0.000    0.333    6.667    2.000    2.333    2.667 
#    0.000    1.667    0.000    0.000    0.000    0.000 
#    0.000    0.000    0.000    0.000    0.000    0.000 
#
# Total GULP energy -297667.865110 kJ/mol
# GULP energy per Si atom -12402.827713 kJ/mol
# Density = 2.116967 g / cm^3
# Si number density = 21.217962 Si / 1000 Ang^3
#
#
#
# Elastic Constant Matrix: (Units=GPa)
#
#
# Indices 1 2 3 4 5 6 
#
# 1 97.1898 36.7913 34.4561 0.0000 0.0000 0.0000
# 2 36.7913 125.6455 20.4597 0.0000 0.0000 0.0000
# 3 34.4561 20.4597 114.5420 0.0000 0.0000 0.0000
# 4 0.0000 0.0000 0.0000 36.6485 0.0000 0.0000
# 5 0.0000 0.0000 0.0000 0.0000 39.6120 0.0000
# 6 0.0000 0.0000 0.0000 0.0000 0.0000 27.0636
#
#
#
# Elastic Compliance Matrix: (Units=1/GPa)
#
#
# Indices 1 2 3 4 5 6 
#
# 1 0.012637 -0.003174 -0.003235 0.000000 0.000000 0.000000
# 2 -0.003174 0.008994 -0.000652 0.000000 0.000000 0.000000
# 3 -0.003235 -0.000652 0.009820 0.000000 0.000000 0.000000
# 4 0.000000 0.000000 0.000000 0.027286 0.000000 0.000000
# 5 0.000000 0.000000 0.000000 0.000000 0.025245 0.000000
# 6 0.000000 0.000000 0.000000 0.000000 0.000000 0.036950
#
#
# Mechanical properties :
#
#
# Convention : Reuss Voigt Hill
#
# Bulk Modulus (GPa) = 57.69963 57.86572 57.78268
# Shear Modulus (GPa) = 35.50375 37.04283 36.27329
#
# Velocity S-wave (km/s) = 4.09502 4.18284 4.13916
# Velocity P-wave (km/s) = 7.04356 7.11754 7.08065
#
# Compressibility (1/GPa) = 0.01733113
#
# Stress axis : x y z
#
# Youngs Moduli (GPa) = 79.13082 111.18060 101.83411
#
# Poissons Ratio (x) = 0.35286 0.32939
# Poissons Ratio (y) = 0.25114 0.06638
# Poissons Ratio (z) = 0.25596 0.07248
#
# Static dielectric constant tensor:
#      x y z
#    x 3.591310 0.000000 0.000000 
#    y 0.000000 3.891890 0.000000 
#    z 0.000000 0.000000 4.066270 
# 
# 
# High freq. dielectric constant tensor:
#      x y z
#    x 1.812190 0.000000 0.000000 
#    y 0.000000 1.836440 0.000000 
#    z 0.000000 0.000000 1.856450 
# 
# From -- ./inp_files/12487.got.cif
#   From: 2010.03.12/outbox.cif.g09.slc.cpg/sg36_7_cif.got.tgz:12487.got - 2010.04.14 02:13:53.
