data_PCOD8176670
_publ_section_title
;
Structure prediction by ZEFSAII (Michael W. Deem and Ramdas Pophale) SiO2 
 PCOD8176670
Probable space group: C C C 2
;
_chemical_formula_sum "Si O2"
_cell_formula_units_Z 56
_cell_length_a 15.750139
_cell_length_b 11.558918
_cell_length_c 14.762799
_cell_angle_alpha 90.000000
_cell_angle_beta 90.000000
_cell_angle_gamma 90.000000
_cell_volume 2687.634953
_symmetry_space_group_name_H-M "C C C 2"
_symmetry_group_IT_number 37
_symmetry_cell_setting 'orthorhombic'
loop_
_space_group_symop_operation_xyz
x,y,z
-x,-y,z
-x,y,1/2+z
x,-y,1/2+z
1/2+x,1/2+y,z
1/2-x,1/2-y,z
1/2-x,1/2+y,1/2+z
1/2+x,1/2-y,1/2+z
loop_
_atom_site_type_symbol
_atom_site_label
_atom_site_fract_x
_atom_site_fract_y
_atom_site_fract_z
Si Si1 0.000000 0.000000 0.500000
Si Si2 0.322392 0.168029 0.357340
Si Si3 0.005186 0.244124 0.915269
Si Si4 0.420695 0.215536 0.731655
Si Si5 0.953850 0.615643 0.093417
Si Si6 0.811855 0.497586 0.698172
Si Si7 0.750000 0.250000 0.022978
Si Si8 0.140644 0.081339 0.630769
O O1 0.081720 0.005966 0.565604
O O2 0.992294 0.107787 0.432947
O O3 0.250000 0.250000 0.309457
O O4 0.413487 0.226489 0.373367
O O5 0.328221 0.051945 0.298806
O O6 0.287959 0.145658 0.459890
O O7 0.071670 0.287608 0.840106
O O8 0.036332 0.300372 0.008745
O O9 0.506242 0.172262 0.683208
O O10 0.409159 0.352192 0.710305
O O11 0.344669 0.130124 0.699722
O O12 0.857968 0.582445 0.122770
O O13 0.000000 0.500000 0.062856
O O14 0.713029 0.498642 0.671519
O O15 0.825094 0.193955 0.078615
#
# Coordination Sequence:
#
# PCOD8176670 Si02
#       8
#     4   8   8   8   8   8   4   8
#     4  12  26  46  72 104 138 196 238 284 364 426
#     4  10  23  39  66  97 137 179 239 279 350 420
#     4  12  25  44  68 105 141 182 238 292 350 425
#     4  11  23  43  70 100 142 181 232 290 357 416
#     4  10  23  40  69 104 138 179 229 286 350 414
#     4  11  24  42  70 107 135 187 234 294 353 419
#     4  10  20  44  68  90 136 188 226 286 348 424
#     4  12  24  45  71  98 147 183 234 289 356 428
#
# _framework density 20.836161000000001
#
# number of rings (size 3 to 8) (size 9 to 14) (size 15 to 20)
#    0.429    0.571    5.714    0.000    4.000    5.143 
#    0.000    1.429    0.000    0.000    0.000    0.000 
#    0.000    0.000    0.000    0.000    0.000    0.000 
#
# Total GULP energy -346971.338801 kJ/mol
# GULP energy per Si atom -12391.833529 kJ/mol
# Density = 2.078874 g / cm^3
# Si number density = 20.836161 Si / 1000 Ang^3
#
#
#
# Elastic Constant Matrix: (Units=GPa)
#
#
# Indices 1 2 3 4 5 6 
#
# 1 91.6255 34.4666 16.4480 0.0000 0.0000 0.0000
# 2 34.4666 96.9891 40.8903 0.0000 0.0000 0.0000
# 3 16.4480 40.8903 103.4633 0.0000 0.0000 0.0000
# 4 0.0000 0.0000 0.0000 30.1136 0.0000 0.0000
# 5 0.0000 0.0000 0.0000 0.0000 22.9817 0.0000
# 6 0.0000 0.0000 0.0000 0.0000 0.0000 29.4476
#
#
#
# Elastic Compliance Matrix: (Units=1/GPa)
#
#
# Indices 1 2 3 4 5 6 
#
# 1 0.012605 -0.004361 -0.000280 0.000000 0.000000 0.000000
# 2 -0.004361 0.013881 -0.004793 0.000000 0.000000 0.000000
# 3 -0.000280 -0.004793 0.011604 0.000000 0.000000 0.000000
# 4 0.000000 0.000000 0.000000 0.033208 0.000000 0.000000
# 5 0.000000 0.000000 0.000000 0.000000 0.043513 0.000000
# 6 0.000000 0.000000 0.000000 0.000000 0.000000 0.033959
#
#
# Mechanical properties :
#
#
# Convention : Reuss Voigt Hill
#
# Bulk Modulus (GPa) = 52.02499 52.85419 52.43959
# Shear Modulus (GPa) = 28.72838 29.86011 29.29424
#
# Velocity S-wave (km/s) = 3.71721 3.78973 3.75364
# Velocity P-wave (km/s) = 6.59139 6.67615 6.63390
#
# Compressibility (1/GPa) = 0.01922153
#
# Stress axis : x y z
#
# Youngs Moduli (GPa) = 79.33464 72.04195 86.17776
#
# Poissons Ratio (x) = 0.31419 0.02415
# Poissons Ratio (y) = 0.34599 0.41301
# Poissons Ratio (z) = 0.02223 0.34527
#
# Static dielectric constant tensor:
#      x y z
#    x 3.859390 0.000000 0.000000 
#    y 0.000000 4.009650 0.000000 
#    z 0.000000 0.000000 3.769000 
# 
# 
# High freq. dielectric constant tensor:
#      x y z
#    x 1.814690 0.000000 0.000000 
#    y 0.000000 1.803060 0.000000 
#    z 0.000000 0.000000 1.823010 
# 
# From -- ./inp_files/12185.got.cif
#   From: 2010.03.12/outbox.cif.g09.slc.cpg/sg37_7_cif.got.tgz:12185.got - 2010.04.14 02:25:27.
