data_PCOD8176503
_publ_section_title
;
Structure prediction by ZEFSAII (Michael W. Deem and Ramdas Pophale) SiO2 
 PCOD8176503
Probable space group: C C C 2
;
_chemical_formula_sum "Si O2"
_cell_formula_units_Z 52
_cell_length_a 9.736387
_cell_length_b 24.873627
_cell_length_c 9.597164
_cell_angle_alpha 90.000000
_cell_angle_beta 90.000000
_cell_angle_gamma 90.000000
_cell_volume 2324.234062
_symmetry_space_group_name_H-M "C C C 2"
_symmetry_group_IT_number 37
_symmetry_cell_setting 'orthorhombic'
loop_
_space_group_symop_operation_xyz
x,y,z
-x,-y,z
-x,y,1/2+z
x,-y,1/2+z
1/2+x,1/2+y,z
1/2-x,1/2-y,z
1/2-x,1/2+y,1/2+z
1/2+x,1/2-y,1/2+z
loop_
_atom_site_type_symbol
_atom_site_label
_atom_site_fract_x
_atom_site_fract_y
_atom_site_fract_z
Si Si1 0.250000 0.250000 0.978971
Si Si2 0.033923 0.258798 0.351954
Si Si3 0.105016 0.145873 0.301531
Si Si4 0.643830 0.360785 0.120872
Si Si5 0.250000 0.750000 0.076696
Si Si6 0.130414 0.345238 0.159470
Si Si7 0.409177 0.930556 0.115677
Si Si8 0.000000 0.500000 0.370092
O O1 0.117605 0.237330 0.885494
O O2 0.210748 0.305232 0.057004
O O3 0.110060 0.210375 0.269847
O O4 0.124007 0.274480 0.486871
O O5 0.026209 0.311332 0.256195
O O6 0.083826 0.138392 0.465252
O O7 0.252298 0.123617 0.249534
O O8 0.978066 0.118785 0.221139
O O9 0.766564 0.401440 0.133601
O O10 0.691680 0.300224 0.164932
O O11 0.037795 0.390469 0.085928
O O12 0.421421 0.960163 0.264912
O O13 0.399407 0.968509 0.978496
#
# Coordination Sequence:
#
# PCOD8176503 Si02
#       8
#     4   8   8   8   4   8   8   4
#     4  12  25  35  58 100 148 186 238 270 334 426
#     4  11  22  37  54  90 145 196 222 272 312 413
#     4  11  23  40  59  97 151 177 228 271 328 419
#     4  11  24  41  66 100 138 194 219 286 346 434
#     4  10  19  39  60  90 148 186 236 260 332 428
#     4  12  22  41  65  99 139 197 231 284 348 427
#     4  11  26  46  82  98 137 179 247 301 372 411
#     4  10  26  52  72 112 126 170 250 338 350 408
#
# _framework density 22.372962999999999
#
# number of rings (size 3 to 8) (size 9 to 14) (size 15 to 20)
#    0.000    0.923    4.615    3.692    6.462    1.231 
#    0.000    0.000    0.000   15.692    0.000    0.000 
#    0.000    0.000    0.000    0.000    0.000    0.000 
#
# Total GULP energy -322286.882964 kJ/mol
# GULP energy per Si atom -12395.649345 kJ/mol
# Density = 2.232204 g / cm^3
# Si number density = 22.372963 Si / 1000 Ang^3
#
#
#
# Elastic Constant Matrix: (Units=GPa)
#
#
# Indices 1 2 3 4 5 6 
#
# 1 144.7092 41.4417 57.9784 0.0000 0.0000 0.0000
# 2 41.4417 85.4360 48.3934 0.0000 0.0000 0.0000
# 3 57.9784 48.3934 118.2718 0.0000 0.0000 0.0000
# 4 0.0000 0.0000 0.0000 25.1766 0.0000 0.0000
# 5 0.0000 0.0000 0.0000 0.0000 41.4180 0.0000
# 6 0.0000 0.0000 0.0000 0.0000 0.0000 23.0828
#
#
#
# Elastic Compliance Matrix: (Units=1/GPa)
#
#
# Indices 1 2 3 4 5 6 
#
# 1 0.008968 -0.002421 -0.003406 0.000000 0.000000 0.000000
# 2 -0.002421 0.015889 -0.005315 0.000000 0.000000 0.000000
# 3 -0.003406 -0.005315 0.012299 0.000000 0.000000 0.000000
# 4 0.000000 0.000000 0.000000 0.039719 0.000000 0.000000
# 5 0.000000 0.000000 0.000000 0.000000 0.024144 0.000000
# 6 0.000000 0.000000 0.000000 0.000000 0.000000 0.043322
#
#
# Mechanical properties :
#
#
# Convention : Reuss Voigt Hill
#
# Bulk Modulus (GPa) = 67.23130 71.56045 69.39587
# Shear Modulus (GPa) = 29.14030 31.30904 30.22467
#
# Velocity S-wave (km/s) = 3.61290 3.74493 3.67951
# Velocity P-wave (km/s) = 6.89344 7.12419 7.00976
#
# Compressibility (1/GPa) = 0.01487402
#
# Stress axis : x y z
#
# Youngs Moduli (GPa) = 111.50414 62.93503 81.30580
#
# Poissons Ratio (x) = 0.15237 0.27691
# Poissons Ratio (y) = 0.26996 0.43211
# Poissons Ratio (z) = 0.37975 0.33448
#
# Static dielectric constant tensor:
#      x y z
#    x 4.088880 0.000000 0.000000 
#    y 0.000000 3.810230 0.000000 
#    z 0.000000 0.000000 4.181860 
# 
# 
# High freq. dielectric constant tensor:
#      x y z
#    x 1.891360 0.000000 0.000000 
#    y 0.000000 1.838160 0.000000 
#    z 0.000000 0.000000 1.895240 
# 
# From -- ./inp_files/6518.got.cif
#   From: 2010.03.12/outbox.cif.g09.slc.cpg/sg37_4_cif.got.tgz:6518.got - 2010.04.14 02:25:27.
