data_PCOD8176074
_publ_section_title
;
Structure prediction by ZEFSAII (Michael W. Deem and Ramdas Pophale) SiO2 
 PCOD8176074
Probable space group: C M C 21
;
_chemical_formula_sum "Si O2"
_cell_formula_units_Z 56
_cell_length_a 16.120240
_cell_length_b 14.666190
_cell_length_c 10.116401
_cell_angle_alpha 90.000000
_cell_angle_beta 90.000000
_cell_angle_gamma 90.000000
_cell_volume 2391.744843
_symmetry_space_group_name_H-M "C M C 21"
_symmetry_group_IT_number 36
_symmetry_cell_setting 'orthorhombic'
loop_
_space_group_symop_operation_xyz
x,y,z
-x,-y,1/2+z
x,-y,1/2+z
-x,y,z
1/2+x,1/2+y,z
1/2-x,1/2-y,1/2+z
1/2+x,1/2-y,1/2+z
1/2-x,1/2+y,z
loop_
_atom_site_type_symbol
_atom_site_label
_atom_site_fract_x
_atom_site_fract_y
_atom_site_fract_z
Si Si1 0.908276 0.170568 0.707940
Si Si2 0.747450 0.576072 0.332690
Si Si3 0.592370 0.106425 0.878332
Si Si4 0.809204 0.108747 0.940862
Si Si5 0.093866 0.549271 0.175249
Si Si6 0.409518 0.538366 0.158481
Si Si7 0.304825 0.747405 0.486687
O O1 0.840877 0.172515 0.822802
O O2 0.876104 0.239025 0.596084
O O3 0.000000 0.203231 0.752214
O O4 0.911897 0.069491 0.651405
O O5 0.753790 0.473276 0.395499
O O6 0.829891 0.602813 0.248639
O O7 0.662702 0.577636 0.249297
O O8 0.735307 0.651344 0.446580
O O9 0.500000 0.145516 0.885803
O O10 0.608357 0.048063 0.016514
O O11 0.653220 0.194276 0.866780
O O12 0.602379 0.050350 0.742172
O O13 0.890535 0.066425 0.007910
O O14 0.764756 0.181030 0.039080
O O15 0.000000 0.586791 0.208809
O O16 0.500000 0.576696 0.201765
#
# Coordination Sequence:
#
# PCOD8176074 Si02
#       7
#     8   8   8   8   8   8   8
#     4  10  23  42  68  99 134 177 227 281 345 415
#     4  11  24  42  68  99 138 176 228 282 345 409
#     4  10  22  42  70 100 136 179 233 286 347 416
#     4  11  23  41  65 100 139 177 223 280 342 412
#     4  10  22  43  70 102 141 185 230 285 346 418
#     4  10  22  43  69  96 135 179 222 282 346 403
#     4  12  24  41  68 100 131 181 230 284 336 413
#
# _framework density 23.413868999999998
#
# number of rings (size 3 to 8) (size 9 to 14) (size 15 to 20)
#    0.000    1.429    2.857    1.714    4.000    1.714 
#    0.000    0.714    0.000    0.000    0.000    0.000 
#    0.000    0.000    0.000    0.000    0.000    0.000 
#
# Total GULP energy -346867.833722 kJ/mol
# GULP energy per Si atom -12388.136919 kJ/mol
# Density = 2.336058 g / cm^3
# Si number density = 23.413869 Si / 1000 Ang^3
#
#
#
# Elastic Constant Matrix: (Units=GPa)
#
#
# Indices 1 2 3 4 5 6 
#
# 1 162.4804 23.5598 25.8522 0.0000 0.0000 0.0000
# 2 23.5598 75.2899 20.5217 0.0000 0.0000 0.0000
# 3 25.8522 20.5217 51.2812 0.0000 0.0000 0.0000
# 4 0.0000 0.0000 0.0000 30.9426 0.0000 0.0000
# 5 0.0000 0.0000 0.0000 0.0000 35.5229 0.0000
# 6 0.0000 0.0000 0.0000 0.0000 0.0000 27.1157
#
#
#
# Elastic Compliance Matrix: (Units=1/GPa)
#
#
# Indices 1 2 3 4 5 6 
#
# 1 0.006810 -0.001342 -0.002896 0.000000 0.000000 0.000000
# 2 -0.001342 0.015172 -0.005395 0.000000 0.000000 0.000000
# 3 -0.002896 -0.005395 0.023120 0.000000 0.000000 0.000000
# 4 0.000000 0.000000 0.000000 0.032318 0.000000 0.000000
# 5 0.000000 0.000000 0.000000 0.000000 0.028151 0.000000
# 6 0.000000 0.000000 0.000000 0.000000 0.000000 0.036879
#
#
# Mechanical properties :
#
#
# Convention : Reuss Voigt Hill
#
# Bulk Modulus (GPa) = 38.70630 47.65762 43.18196
# Shear Modulus (GPa) = 29.35519 33.32410 31.33964
#
# Velocity S-wave (km/s) = 3.54468 3.77671 3.66253
# Velocity P-wave (km/s) = 5.77237 6.27827 6.03063
#
# Compressibility (1/GPa) = 0.02583559
#
# Stress axis : x y z
#
# Youngs Moduli (GPa) = 146.84440 65.90912 43.25353
#
# Poissons Ratio (x) = 0.08842 0.12527
# Poissons Ratio (y) = 0.19700 0.23337
# Poissons Ratio (z) = 0.42529 0.35560
#
# Static dielectric constant tensor:
#      x y z
#    x 4.868990 0.000000 0.000000 
#    y 0.000000 4.017280 0.000000 
#    z 0.000000 0.000000 3.997890 
# 
# 
# High freq. dielectric constant tensor:
#      x y z
#    x 1.956750 0.000000 0.000000 
#    y 0.000000 1.912580 0.000000 
#    z 0.000000 0.000000 1.904000 
# 
# From -- ./inp_files/8482.got.cif
#   From: 2010.03.12/outbox.cif.g09.slc.cpg/sg36_5_cif.got.tgz:8482.got - 2010.04.14 02:13:53.
