data_PCOD8176075
_publ_section_title
;
Structure prediction by ZEFSAII (Michael W. Deem and Ramdas Pophale) SiO2 
 PCOD8176075
Probable space group: C M C 21
;
_chemical_formula_sum "Si O2"
_cell_formula_units_Z 20
_cell_length_a 14.219660
_cell_length_b 11.213370
_cell_length_c 4.708951
_cell_angle_alpha 90.000000
_cell_angle_beta 90.000000
_cell_angle_gamma 90.000000
_cell_volume 750.843691
_symmetry_space_group_name_H-M "C M C 21"
_symmetry_group_IT_number 36
_symmetry_cell_setting 'orthorhombic'
loop_
_space_group_symop_operation_xyz
x,y,z
-x,-y,1/2+z
x,-y,1/2+z
-x,y,z
1/2+x,1/2+y,z
1/2-x,1/2-y,1/2+z
1/2+x,1/2-y,1/2+z
1/2-x,1/2+y,z
loop_
_atom_site_type_symbol
_atom_site_label
_atom_site_fract_x
_atom_site_fract_y
_atom_site_fract_z
Si Si1 0.395109 0.243963 0.832090
Si Si2 0.238547 0.585430 0.185554
Si Si3 0.500000 0.079071 0.470846
O O1 0.500000 0.283420 0.942245
O O2 0.341736 0.354449 0.685768
O O3 0.336500 0.187166 0.092906
O O4 0.406798 0.147774 0.574156
O O5 0.226771 0.466660 0.999778
O O6 0.500000 0.052102 0.133049
#
# Coordination Sequence:
#
# PCOD8176075 Si02
#       3
#     8   8   4
#     4  10  26  49  75 116 156 208 269 328 395 491
#     4  12  26  47  76 112 158 209 261 329 403 475
#     4  10  22  42  72 104 140 196 254 316 378 452
#
# _framework density 26.636702
#
# number of rings (size 3 to 8) (size 9 to 14) (size 15 to 20)
#    1.200    0.000    0.000    4.800    0.000    8.000 
#    0.000    0.000    0.000    0.000    0.000    0.000 
#    0.000    0.000    0.000    0.000    0.000    0.000 
#
# Total GULP energy -123888.593942 kJ/mol
# GULP energy per Si atom -12388.859394 kJ/mol
# Density = 2.657608 g / cm^3
# Si number density = 26.636702 Si / 1000 Ang^3
#
#
#
# Elastic Constant Matrix: (Units=GPa)
#
#
# Indices 1 2 3 4 5 6 
#
# 1 220.0203 64.2743 62.4168 0.0000 0.0000 0.0000
# 2 64.2743 86.9449 40.2187 0.0000 0.0000 0.0000
# 3 62.4168 40.2187 50.4111 0.0000 0.0000 0.0000
# 4 0.0000 0.0000 0.0000 24.2040 0.0000 0.0000
# 5 0.0000 0.0000 0.0000 0.0000 39.1574 0.0000
# 6 0.0000 0.0000 0.0000 0.0000 0.0000 70.2143
#
#
#
# Elastic Compliance Matrix: (Units=1/GPa)
#
#
# Indices 1 2 3 4 5 6 
#
# 1 0.007198 -0.001900 -0.007397 0.000000 0.000000 0.000000
# 2 -0.001900 0.018730 -0.012591 0.000000 0.000000 0.000000
# 3 -0.007397 -0.012591 0.039041 0.000000 0.000000 0.000000
# 4 0.000000 0.000000 0.000000 0.041316 0.000000 0.000000
# 5 0.000000 0.000000 0.000000 0.000000 0.025538 0.000000
# 6 0.000000 0.000000 0.000000 0.000000 0.000000 0.014242
#
#
# Mechanical properties :
#
#
# Convention : Reuss Voigt Hill
#
# Bulk Modulus (GPa) = 47.18355 76.79955 61.99155
# Shear Modulus (GPa) = 25.39273 39.41289 32.40281
#
# Velocity S-wave (km/s) = 3.09090 3.85079 3.49158
# Velocity P-wave (km/s) = 5.52181 6.97612 6.29113
#
# Compressibility (1/GPa) = 0.02119383
#
# Stress axis : x y z
#
# Youngs Moduli (GPa) = 138.91784 53.38939 25.61387
#
# Poissons Ratio (x) = 0.10142 0.18947
# Poissons Ratio (y) = 0.26390 0.32251
# Poissons Ratio (z) = 1.02761 0.67224
#
# Static dielectric constant tensor:
#      x y z
#    x 5.132920 0.000000 0.000000 
#    y 0.000000 4.607670 0.000000 
#    z 0.000000 0.000000 4.532630 
# 
# 
# High freq. dielectric constant tensor:
#      x y z
#    x 2.088090 0.000000 0.000000 
#    y 0.000000 2.046640 0.000000 
#    z 0.000000 0.000000 2.076950 
# 
# From -- ./inp_files/292.got.cif
#   From: 2010.03.12/outbox.cif.g09.slc.cpg/sg36_1_cif.got.tgz:292.got - 2010.04.14 02:13:53.
