data_PCOD8176475
_publ_section_title
;
Structure prediction by ZEFSAII (Michael W. Deem and Ramdas Pophale) SiO2 
 PCOD8176475
Probable space group: C C C 2
;
_chemical_formula_sum "Si O2"
_cell_formula_units_Z 36
_cell_length_a 17.159954
_cell_length_b 10.158484
_cell_length_c 10.187668
_cell_angle_alpha 90.000000
_cell_angle_beta 90.000000
_cell_angle_gamma 90.000000
_cell_volume 1775.905302
_symmetry_space_group_name_H-M "C C C 2"
_symmetry_group_IT_number 37
_symmetry_cell_setting 'orthorhombic'
loop_
_space_group_symop_operation_xyz
x,y,z
-x,-y,z
-x,y,1/2+z
x,-y,1/2+z
1/2+x,1/2+y,z
1/2-x,1/2-y,z
1/2-x,1/2+y,1/2+z
1/2+x,1/2-y,1/2+z
loop_
_atom_site_type_symbol
_atom_site_label
_atom_site_fract_x
_atom_site_fract_y
_atom_site_fract_z
Si Si1 0.323780 0.953849 0.616720
Si Si2 0.695971 0.362811 0.183430
Si Si3 0.069918 0.294000 0.564252
Si Si4 0.750000 0.750000 0.933451
Si Si5 0.955215 0.369519 0.787132
O O1 0.312119 0.837058 0.513066
O O2 0.365603 0.898390 0.747250
O O3 0.235237 0.997082 0.652269
O O4 0.377101 0.073689 0.564637
O O5 0.750000 0.250000 0.118921
O O6 0.694612 0.341878 0.341548
O O7 0.612341 0.339079 0.115934
O O8 0.043564 0.272428 0.413265
O O9 0.995923 0.308526 0.658986
O O10 0.000000 0.500000 0.833583
#
# Coordination Sequence:
#
# PCOD8176475 Si02
#       5
#     8   8   8   4   8
#     4  10  19  36  57  86 114 152 197 243 300 348
#     4   8  19  35  53  80 123 150 184 245 298 344
#     4  10  20  34  56  86 118 152 187 253 297 355
#     4  10  20  36  58  82 122 156 190 248 292 358
#     4  10  20  32  56  87 116 146 203 247 295 352
#
# _framework density 20.271352
#
# number of rings (size 3 to 8) (size 9 to 14) (size 15 to 20)
#    0.667    1.778    0.000    3.333    6.222    0.000 
#   10.000    0.000    0.000    1.333    0.000    0.000 
#    0.000    0.000    0.000    0.000    0.000    0.000 
#
# Total GULP energy -222991.138719 kJ/mol
# GULP energy per Si atom -12388.396595 kJ/mol
# Density = 2.022521 g / cm^3
# Si number density = 20.271352 Si / 1000 Ang^3
#
#
#
# Elastic Constant Matrix: (Units=GPa)
#
#
# Indices 1 2 3 4 5 6 
#
# 1 86.9045 38.7109 54.9311 0.0000 0.0000 0.0000
# 2 38.7109 37.4061 34.3842 0.0000 0.0000 0.0000
# 3 54.9311 34.3842 158.5788 0.0000 0.0000 0.0000
# 4 0.0000 0.0000 0.0000 13.1771 0.0000 0.0000
# 5 0.0000 0.0000 0.0000 0.0000 28.5848 0.0000
# 6 0.0000 0.0000 0.0000 0.0000 0.0000 29.8142
#
#
#
# Elastic Compliance Matrix: (Units=1/GPa)
#
#
# Indices 1 2 3 4 5 6 
#
# 1 0.022782 -0.020385 -0.003471 0.000000 0.000000 0.000000
# 2 -0.020385 0.051629 -0.004133 0.000000 0.000000 0.000000
# 3 -0.003471 -0.004133 0.008405 0.000000 0.000000 0.000000
# 4 0.000000 0.000000 0.000000 0.075889 0.000000 0.000000
# 5 0.000000 0.000000 0.000000 0.000000 0.034984 0.000000
# 6 0.000000 0.000000 0.000000 0.000000 0.000000 0.033541
#
#
# Mechanical properties :
#
#
# Convention : Reuss Voigt Hill
#
# Bulk Modulus (GPa) = 37.26375 59.88243 48.57309
# Shear Modulus (GPa) = 17.11422 24.63942 20.87682
#
# Velocity S-wave (km/s) = 2.90876 3.49016 3.21264
# Velocity P-wave (km/s) = 5.45010 6.77098 6.14613
#
# Compressibility (1/GPa) = 0.02683573
#
# Stress axis : x y z
#
# Youngs Moduli (GPa) = 43.89514 19.36885 118.98134
#
# Poissons Ratio (x) = 0.39484 0.41303
# Poissons Ratio (y) = 0.89482 0.49178
# Poissons Ratio (z) = 0.15238 0.08006
#
# Static dielectric constant tensor:
#      x y z
#    x 3.597510 0.000000 0.000000 
#    y 0.000000 3.260920 0.000000 
#    z 0.000000 0.000000 3.568220 
# 
# 
# High freq. dielectric constant tensor:
#      x y z
#    x 1.778420 0.000000 0.000000 
#    y 0.000000 1.735380 0.000000 
#    z 0.000000 0.000000 1.796930 
# 
# From -- ./inp_files/4288.got.cif
#   From: 2010.03.12/outbox.cif.g09.slc.cpg/sg37_3_cif.got.tgz:4288.got - 2010.04.14 02:25:27.
