data_PCOD8176458
_publ_section_title
;
Structure prediction by ZEFSAII (Michael W. Deem and Ramdas Pophale) SiO2 
 PCOD8176458
Probable space group: C C C 2
;
_chemical_formula_sum "Si O2"
_cell_formula_units_Z 48
_cell_length_a 8.953558
_cell_length_b 15.599069
_cell_length_c 18.709751
_cell_angle_alpha 90.000000
_cell_angle_beta 90.000000
_cell_angle_gamma 90.000000
_cell_volume 2613.137956
_symmetry_space_group_name_H-M "C C C 2"
_symmetry_group_IT_number 37
_symmetry_cell_setting 'orthorhombic'
loop_
_space_group_symop_operation_xyz
x,y,z
-x,-y,z
-x,y,1/2+z
x,-y,1/2+z
1/2+x,1/2+y,z
1/2-x,1/2-y,z
1/2-x,1/2+y,1/2+z
1/2+x,1/2-y,1/2+z
loop_
_atom_site_type_symbol
_atom_site_label
_atom_site_fract_x
_atom_site_fract_y
_atom_site_fract_z
Si Si1 0.426397 0.743237 0.747540
Si Si2 0.429916 0.411554 0.996963
Si Si3 0.145286 0.333186 0.846009
Si Si4 0.073080 0.748444 0.583731
Si Si5 0.918810 0.591007 0.993069
Si Si6 0.940084 0.909923 0.831528
O O1 0.250000 0.750000 0.756607
O O2 0.517427 0.818368 0.787383
O O3 0.477475 0.746786 0.665563
O O4 0.471284 0.654543 0.782136
O O5 0.500000 0.500000 0.025155
O O6 0.254535 0.424152 0.007253
O O7 0.475151 0.393095 0.914971
O O8 0.492720 0.331464 0.042655
O O9 0.250000 0.250000 0.863493
O O10 0.058531 0.365778 0.915711
O O11 0.261220 0.405188 0.817926
O O12 0.250000 0.750000 0.575160
O O13 0.013162 0.659052 0.550041
O O14 0.000000 0.500000 0.999288
O O15 0.000000 0.000000 0.805477
#
# Coordination Sequence:
#
# PCOD8176458 Si02
#       6
#     8   8   8   8   8   8
#     4  10  20  33  52  76 103 137 172 208 252 305
#     4   9  18  35  57  77  99 132 172 210 253 303
#     4   9  18  35  55  72 100 139 171 206 259 311
#     4   9  18  35  53  72 105 140 166 202 257 309
#     4  10  19  34  55  77 100 131 171 213 256 300
#     4   9  18  34  54  76 101 131 169 213 257 306
#
# _framework density 18.368718999999999
#
# number of rings (size 3 to 8) (size 9 to 14) (size 15 to 20)
#    0.000    2.667    0.000    3.500    0.000    4.667 
#    0.000   11.667    0.000    0.000    0.000    0.000 
#    0.000    0.000    0.000    0.000    0.000    0.000 
#
# Total GULP energy -297505.924888 kJ/mol
# GULP energy per Si atom -12396.080204 kJ/mol
# Density = 1.832691 g / cm^3
# Si number density = 18.368719 Si / 1000 Ang^3
#
#
#
# Elastic Constant Matrix: (Units=GPa)
#
#
# Indices 1 2 3 4 5 6 
#
# 1 62.1405 47.8674 54.3347 0.0000 0.0000 0.0000
# 2 47.8674 148.0299 88.4211 0.0000 0.0000 0.0000
# 3 54.3347 88.4211 135.3920 0.0000 0.0000 0.0000
# 4 0.0000 0.0000 0.0000 5.6434 0.0000 0.0000
# 5 0.0000 0.0000 0.0000 0.0000 23.5692 0.0000
# 6 0.0000 0.0000 0.0000 0.0000 0.0000 38.3966
#
#
#
# Elastic Compliance Matrix: (Units=1/GPa)
#
#
# Indices 1 2 3 4 5 6 
#
# 1 0.025882 -0.003550 -0.008069 0.000000 0.000000 0.000000
# 2 -0.003550 0.011563 -0.006127 0.000000 0.000000 0.000000
# 3 -0.008069 -0.006127 0.014625 0.000000 0.000000 0.000000
# 4 0.000000 0.000000 0.000000 0.177198 0.000000 0.000000
# 5 0.000000 0.000000 0.000000 0.000000 0.042428 0.000000
# 6 0.000000 0.000000 0.000000 0.000000 0.000000 0.026044
#
#
# Mechanical properties :
#
#
# Convention : Reuss Voigt Hill
#
# Bulk Modulus (GPa) = 60.31430 80.75654 70.53542
# Shear Modulus (GPa) = 14.75982 23.85112 19.30547
#
# Velocity S-wave (km/s) = 2.83774 3.60733 3.24543
# Velocity P-wave (km/s) = 6.60633 7.83646 7.24754
#
# Compressibility (1/GPa) = 0.01657982
#
# Stress axis : x y z
#
# Youngs Moduli (GPa) = 38.63694 86.48274 68.37465
#
# Poissons Ratio (x) = 0.30700 0.55168
# Poissons Ratio (y) = 0.13715 0.41893
# Poissons Ratio (z) = 0.31174 0.52987
#
# Static dielectric constant tensor:
#      x y z
#    x 3.260110 0.000000 0.000000 
#    y 0.000000 3.611280 0.000000 
#    z 0.000000 0.000000 3.410100 
# 
# 
# High freq. dielectric constant tensor:
#      x y z
#    x 1.692690 0.000000 0.000000 
#    y 0.000000 1.718740 0.000000 
#    z 0.000000 0.000000 1.707740 
# 
# From -- ./inp_files/12551.got.cif
#   From: 2010.03.12/outbox.cif.g09.slc.cpg/sg37_7_cif.got.tgz:12551.got - 2010.04.14 02:25:27.
