data_PCOD8176350
_publ_section_title
;
Structure prediction by ZEFSAII (Michael W. Deem and Ramdas Pophale) SiO2 
 PCOD8176350
Probable space group: C M C 21
;
_chemical_formula_sum "Si O2"
_cell_formula_units_Z 64
_cell_length_a 9.459706
_cell_length_b 27.902718
_cell_length_c 14.102867
_cell_angle_alpha 90.000000
_cell_angle_beta 90.000000
_cell_angle_gamma 90.000000
_cell_volume 3722.473024
_symmetry_space_group_name_H-M "C M C 21"
_symmetry_group_IT_number 36
_symmetry_cell_setting 'orthorhombic'
loop_
_space_group_symop_operation_xyz
x,y,z
-x,-y,1/2+z
x,-y,1/2+z
-x,y,z
1/2+x,1/2+y,z
1/2-x,1/2-y,1/2+z
1/2+x,1/2-y,1/2+z
1/2-x,1/2+y,z
loop_
_atom_site_type_symbol
_atom_site_label
_atom_site_fract_x
_atom_site_fract_y
_atom_site_fract_z
Si Si1 0.166389 0.817762 0.408770
Si Si2 0.660833 0.129423 0.646331
Si Si3 0.333711 0.316149 0.621711
Si Si4 0.339514 0.482462 0.866736
Si Si5 0.659626 0.609796 0.270393
Si Si6 0.835088 0.596669 0.439783
Si Si7 0.164637 0.727562 0.745863
Si Si8 0.335433 0.414736 0.303245
O O1 0.228822 0.813037 0.515465
O O2 0.247609 0.779749 0.342600
O O3 0.199127 0.872013 0.375959
O O4 0.000000 0.806610 0.402340
O O5 0.500000 0.115242 0.668489
O O6 0.695057 0.124984 0.535853
O O7 0.692798 0.183749 0.674945
O O8 0.757764 0.092913 0.704034
O O9 0.500000 0.310999 0.609675
O O10 0.292049 0.367179 0.670224
O O11 0.277338 0.274116 0.690441
O O12 0.500000 0.485327 0.906068
O O13 0.335592 0.448755 0.770735
O O14 0.239119 0.456175 0.944175
O O15 0.279903 0.535283 0.846679
O O16 0.500000 0.627819 0.292672
O O17 0.762908 0.627861 0.355271
O O18 0.000000 0.590090 0.419027
O O19 0.000000 0.732450 0.772680
O O20 0.500000 0.418523 0.280370
#
# Coordination Sequence:
#
# PCOD8176350 Si02
#       8
#     8   8   8   8   8   8   8   8
#     4   9  18  33  52  74  98 125 163 204 243 287
#     4   9  18  31  47  69  96 128 161 196 238 289
#     4   9  17  32  53  73  96 131 165 198 242 294
#     4   8  16  31  47  68  97 126 159 197 240 285
#     4   8  16  31  47  67  97 126 158 196 237 281
#     4   9  17  30  47  69  97 126 158 195 237 283
#     4   9  18  33  51  70  96 129 164 198 241 291
#     4   9  17  31  50  72  97 125 160 202 242 284
#
# _framework density 17.192871
#
# number of rings (size 3 to 8) (size 9 to 14) (size 15 to 20)
#    0.750    2.500    0.000    0.000    0.000    2.500 
#    2.250    3.125    0.000    0.000    0.000    0.000 
#    0.000    0.000    0.000    0.000    0.000    0.000 
#
# Total GULP energy -396486.397976 kJ/mol
# GULP energy per Si atom -12390.199937 kJ/mol
# Density = 1.715374 g / cm^3
# Si number density = 17.192871 Si / 1000 Ang^3
#
#
#
# Elastic Constant Matrix: (Units=GPa)
#
#
# Indices 1 2 3 4 5 6 
#
# 1 50.4498 22.0714 41.7713 0.0000 0.0000 0.0000
# 2 22.0714 76.6591 41.9473 0.0000 0.0000 0.0000
# 3 41.7713 41.9473 121.5999 0.0000 0.0000 0.0000
# 4 0.0000 0.0000 0.0000 21.2683 0.0000 0.0000
# 5 0.0000 0.0000 0.0000 0.0000 26.8245 0.0000
# 6 0.0000 0.0000 0.0000 0.0000 0.0000 19.5526
#
#
#
# Elastic Compliance Matrix: (Units=1/GPa)
#
#
# Indices 1 2 3 4 5 6 
#
# 1 0.028444 -0.003504 -0.008562 0.000000 0.000000 0.000000
# 2 -0.003504 0.016512 -0.004492 0.000000 0.000000 0.000000
# 3 -0.008562 -0.004492 0.012714 0.000000 0.000000 0.000000
# 4 0.000000 0.000000 0.000000 0.047018 0.000000 0.000000
# 5 0.000000 0.000000 0.000000 0.000000 0.037279 0.000000
# 6 0.000000 0.000000 0.000000 0.000000 0.000000 0.051144
#
#
# Mechanical properties :
#
#
# Convention : Reuss Voigt Hill
#
# Bulk Modulus (GPa) = 40.72796 51.14320 45.93558
# Shear Modulus (GPa) = 21.32982 23.05700 22.19341
#
# Velocity S-wave (km/s) = 3.52606 3.66605 3.59674
# Velocity P-wave (km/s) = 6.34963 6.90878 6.63510
#
# Compressibility (1/GPa) = 0.02455315
#
# Stress axis : x y z
#
# Youngs Moduli (GPa) = 35.15673 60.56278 78.65046
#
# Poissons Ratio (x) = 0.21224 0.67341
# Poissons Ratio (y) = 0.12320 0.35331
# Poissons Ratio (z) = 0.30101 0.27205
#
# Static dielectric constant tensor:
#      x y z
#    x 3.087040 0.000000 0.000000 
#    y 0.000000 3.208690 0.000000 
#    z 0.000000 0.000000 3.159670 
# 
# 
# High freq. dielectric constant tensor:
#      x y z
#    x 1.648510 0.000000 0.000000 
#    y 0.000000 1.657480 0.000000 
#    z 0.000000 0.000000 1.650310 
# 
# From -- ./inp_files/11175.got.cif
#   From: 2010.03.12/outbox.cif.g09.slc.cpg/sg36_6_cif.got.tgz:11175.got - 2010.04.14 02:13:53.
