data_PCOD8176916
_publ_section_title
;
Structure prediction by ZEFSAII (Michael W. Deem and Ramdas Pophale) SiO2 
 PCOD8176916
Probable space group: C C C 2
;
_chemical_formula_sum "Si O2"
_cell_formula_units_Z 48
_cell_length_a 5.597465
_cell_length_b 13.934927
_cell_length_c 26.131587
_cell_angle_alpha 90.000000
_cell_angle_beta 90.000000
_cell_angle_gamma 90.000000
_cell_volume 2038.270741
_symmetry_space_group_name_H-M "C C C 2"
_symmetry_group_IT_number 37
_symmetry_cell_setting 'orthorhombic'
loop_
_space_group_symop_operation_xyz
x,y,z
-x,-y,z
-x,y,1/2+z
x,-y,1/2+z
1/2+x,1/2+y,z
1/2-x,1/2-y,z
1/2-x,1/2+y,1/2+z
1/2+x,1/2-y,1/2+z
loop_
_atom_site_type_symbol
_atom_site_label
_atom_site_fract_x
_atom_site_fract_y
_atom_site_fract_z
Si Si1 0.000000 0.000000 0.555501
Si Si2 0.416368 0.395353 0.270520
Si Si3 0.131172 0.650074 0.081562
Si Si4 0.750000 0.250000 0.843024
Si Si5 0.591621 0.104633 0.680130
Si Si6 0.366575 0.095538 0.985528
Si Si7 0.750000 0.750000 0.903422
Si Si8 0.250000 0.250000 0.734083
O O1 0.864509 0.073578 0.518878
O O2 0.179081 0.063114 0.590542
O O3 0.500000 0.500000 0.288808
O O4 0.218572 0.347581 0.308265
O O5 0.341853 0.390366 0.210243
O O6 0.637065 0.323774 0.274317
O O7 0.250000 0.750000 0.097041
O O8 0.904013 0.622712 0.118615
O O9 0.046089 0.654327 0.022824
O O10 0.502602 0.261586 0.874121
O O11 0.426708 0.190934 0.698585
O O12 0.500000 0.000000 0.695791
O O13 0.500000 0.000000 0.965737
O O14 0.282370 0.155584 0.937404
#
# Coordination Sequence:
#
# PCOD8176916 Si02
#       8
#     4   8   8   4   8   8   4   4
#     4  10  22  44  72 100 154 194 254 302 376 458
#     4  12  27  50  76 104 152 198 251 322 390 457
#     4  11  24  43  68 109 151 200 251 303 371 456
#     4  12  30  50  82 112 149 191 264 334 390 474
#     4  12  24  43  74 108 152 201 250 305 376 453
#     4  10  24  45  75 106 151 191 247 312 384 459
#     4  12  29  50  81 112 147 194 260 321 404 462
#     4  12  23  46  71 104 144 199 246 309 372 456
#
# _framework density 23.549375000000001
#
# number of rings (size 3 to 8) (size 9 to 14) (size 15 to 20)
#    0.000    0.667    4.167    3.000    5.833    4.000 
#   10.500    0.000    0.000    0.000    0.000    0.000 
#    0.000    0.000    0.000    0.000    0.000    0.000 
#
# Total GULP energy -297435.960416 kJ/mol
# GULP energy per Si atom -12393.165017 kJ/mol
# Density = 2.349578 g / cm^3
# Si number density = 23.549375 Si / 1000 Ang^3
#
#
#
# Elastic Constant Matrix: (Units=GPa)
#
#
# Indices 1 2 3 4 5 6 
#
# 1 101.5683 41.1427 48.8085 0.0000 0.0000 0.0000
# 2 41.1427 172.7193 58.6287 0.0000 0.0000 0.0000
# 3 48.8085 58.6287 118.4480 0.0000 0.0000 0.0000
# 4 0.0000 0.0000 0.0000 19.6097 0.0000 0.0000
# 5 0.0000 0.0000 0.0000 0.0000 26.2427 0.0000
# 6 0.0000 0.0000 0.0000 0.0000 0.0000 37.3979
#
#
#
# Elastic Compliance Matrix: (Units=1/GPa)
#
#
# Indices 1 2 3 4 5 6 
#
# 1 0.012587 -0.001488 -0.004450 0.000000 0.000000 0.000000
# 2 -0.001488 0.007135 -0.002919 0.000000 0.000000 0.000000
# 3 -0.004450 -0.002919 0.011721 0.000000 0.000000 0.000000
# 4 0.000000 0.000000 0.000000 0.050995 0.000000 0.000000
# 5 0.000000 0.000000 0.000000 0.000000 0.038106 0.000000
# 6 0.000000 0.000000 0.000000 0.000000 0.000000 0.026739
#
#
# Mechanical properties :
#
#
# Convention : Reuss Voigt Hill
#
# Bulk Modulus (GPa) = 72.83509 76.65505 74.74507
# Shear Modulus (GPa) = 29.48597 32.92712 31.20655
#
# Velocity S-wave (km/s) = 3.54233 3.74333 3.64422
# Velocity P-wave (km/s) = 6.90844 7.16274 7.03674
#
# Compressibility (1/GPa) = 0.01372965
#
# Stress axis : x y z
#
# Youngs Moduli (GPa) = 79.44867 140.15842 85.31755
#
# Poissons Ratio (x) = 0.20850 0.37968
# Poissons Ratio (y) = 0.11819 0.24900
# Poissons Ratio (z) = 0.35357 0.40906
#
# Static dielectric constant tensor:
#      x y z
#    x 4.313250 0.000000 0.000000 
#    y 0.000000 4.939860 0.000000 
#    z 0.000000 0.000000 4.262790 
# 
# 
# High freq. dielectric constant tensor:
#      x y z
#    x 1.931860 0.000000 0.000000 
#    y 0.000000 1.951690 0.000000 
#    z 0.000000 0.000000 1.921820 
# 
# From -- ./inp_files/19421.got.cif
#   From: 2010.03.12/outbox.cif.g09.slc.cpg/sg37_10_cif.got.tgz:19421.got - 2010.04.14 02:25:27.
