data_PCOD8176589
_publ_section_title
;
Structure prediction by ZEFSAII (Michael W. Deem and Ramdas Pophale) SiO2 
 PCOD8176589
Probable space group: C C C 2
;
_chemical_formula_sum "Si O2"
_cell_formula_units_Z 60
_cell_length_a 29.422179
_cell_length_b 8.389393
_cell_length_c 12.166375
_cell_angle_alpha 90.000000
_cell_angle_beta 90.000000
_cell_angle_gamma 90.000000
_cell_volume 3003.077714
_symmetry_space_group_name_H-M "C C C 2"
_symmetry_group_IT_number 37
_symmetry_cell_setting 'orthorhombic'
loop_
_space_group_symop_operation_xyz
x,y,z
-x,-y,z
-x,y,1/2+z
x,-y,1/2+z
1/2+x,1/2+y,z
1/2-x,1/2-y,z
1/2-x,1/2+y,1/2+z
1/2+x,1/2-y,1/2+z
loop_
_atom_site_type_symbol
_atom_site_label
_atom_site_fract_x
_atom_site_fract_y
_atom_site_fract_z
Si Si1 0.334557 0.166049 0.179570
Si Si2 0.431389 0.713630 0.423738
Si Si3 0.500000 0.500000 0.046027
Si Si4 0.673394 0.681129 0.944577
Si Si5 0.472689 0.221960 0.690953
Si Si6 0.715085 0.372061 0.859560
Si Si7 0.065930 0.589101 0.630295
Si Si8 0.779743 0.614351 0.752138
O O1 0.320118 0.269533 0.285572
O O2 0.388798 0.156366 0.186028
O O3 0.317633 0.979826 0.181188
O O4 0.318548 0.249808 0.066551
O O5 0.460309 0.569603 0.471862
O O6 0.378946 0.667667 0.410151
O O7 0.453006 0.757800 0.310074
O O8 0.436187 0.865345 0.502619
O O9 0.528428 0.382516 0.122634
O O10 0.691246 0.497376 0.942234
O O11 0.699229 0.798578 0.859989
O O12 0.524447 0.161655 0.700097
O O13 0.438728 0.100810 0.629519
O O14 0.750000 0.250000 0.922149
O O15 0.745199 0.473155 0.776812
O O16 0.750000 0.750000 0.687499
#
# Coordination Sequence:
#
# PCOD8176589 Si02
#       8
#     8   8   4   8   8   8   8   8
#     4  10  20  39  60  84 118 151 190 244 291 342
#     4  10  21  37  57  84 114 152 192 233 284 334
#     4  10  22  36  54  86 116 148 198 230 274 350
#     4  10  21  38  60  84 117 152 191 242 291 348
#     4  10  20  37  58  80 118 155 181 239 288 324
#     4   9  20  37  58  84 112 145 190 236 289 356
#     4   9  21  37  58  85 111 149 200 231 275 347
#     4   9  19  37  58  84 111 144 190 236 291 356
#
# _framework density 19.979502
#
# number of rings (size 3 to 8) (size 9 to 14) (size 15 to 20)
#    0.000    2.400    0.000    1.200    0.000   13.333 
#    0.000   14.667    0.000    0.000    0.000    0.000 
#    0.000    0.000    0.000    0.000    0.000    0.000 
#
# Total GULP energy -371744.694171 kJ/mol
# GULP energy per Si atom -12391.489806 kJ/mol
# Density = 1.993403 g / cm^3
# Si number density = 19.979502 Si / 1000 Ang^3
#
#
#
# Elastic Constant Matrix: (Units=GPa)
#
#
# Indices 1 2 3 4 5 6 
#
# 1 113.2540 57.8384 48.5481 0.0000 0.0000 0.0000
# 2 57.8384 152.5371 58.5635 0.0000 0.0000 0.0000
# 3 48.5481 58.5635 71.4518 0.0000 0.0000 0.0000
# 4 0.0000 0.0000 0.0000 21.6446 0.0000 0.0000
# 5 0.0000 0.0000 0.0000 0.0000 20.7639 0.0000
# 6 0.0000 0.0000 0.0000 0.0000 0.0000 37.5844
#
#
#
# Elastic Compliance Matrix: (Units=1/GPa)
#
#
# Indices 1 2 3 4 5 6 
#
# 1 0.012961 -0.002238 -0.006973 0.000000 0.000000 0.000000
# 2 -0.002238 0.009952 -0.006637 0.000000 0.000000 0.000000
# 3 -0.006973 -0.006637 0.024173 0.000000 0.000000 0.000000
# 4 0.000000 0.000000 0.000000 0.046201 0.000000 0.000000
# 5 0.000000 0.000000 0.000000 0.000000 0.048161 0.000000
# 6 0.000000 0.000000 0.000000 0.000000 0.000000 0.026607
#
#
# Mechanical properties :
#
#
# Convention : Reuss Voigt Hill
#
# Bulk Modulus (GPa) = 64.96757 74.12697 69.54727
# Shear Modulus (GPa) = 24.40460 27.48476 25.94468
#
# Velocity S-wave (km/s) = 3.49876 3.71300 3.60747
# Velocity P-wave (km/s) = 6.99353 7.45412 7.22749
#
# Compressibility (1/GPa) = 0.01539230
#
# Stress axis : x y z
#
# Youngs Moduli (GPa) = 77.15218 100.47938 41.36905
#
# Poissons Ratio (x) = 0.22484 0.28845
# Poissons Ratio (y) = 0.17264 0.27456
# Poissons Ratio (z) = 0.53795 0.66686
#
# Static dielectric constant tensor:
#      x y z
#    x 6.422960 0.000000 0.000000 
#    y 0.000000 4.105050 0.000000 
#    z 0.000000 0.000000 3.374250 
# 
# 
# High freq. dielectric constant tensor:
#      x y z
#    x 1.795480 0.000000 0.000000 
#    y 0.000000 1.794250 0.000000 
#    z 0.000000 0.000000 1.755540 
# 
# From -- ./inp_files/9198.got.cif
#   From: 2010.03.12/outbox.cif.g09.slc.cpg/sg37_5_cif.got.tgz:9198.got - 2010.04.14 02:25:27.
