data_PCOD8176486
_publ_section_title
;
Structure prediction by ZEFSAII (Michael W. Deem and Ramdas Pophale) SiO2 
 PCOD8176486
Probable space group: C C C 2
;
_chemical_formula_sum "Si O2"
_cell_formula_units_Z 64
_cell_length_a 23.517764
_cell_length_b 8.738285
_cell_length_c 15.165653
_cell_angle_alpha 90.000000
_cell_angle_beta 90.000000
_cell_angle_gamma 90.000000
_cell_volume 3116.616373
_symmetry_space_group_name_H-M "C C C 2"
_symmetry_group_IT_number 37
_symmetry_cell_setting 'orthorhombic'
loop_
_space_group_symop_operation_xyz
x,y,z
-x,-y,z
-x,y,1/2+z
x,-y,1/2+z
1/2+x,1/2+y,z
1/2-x,1/2-y,z
1/2-x,1/2+y,1/2+z
1/2+x,1/2-y,1/2+z
loop_
_atom_site_type_symbol
_atom_site_label
_atom_site_fract_x
_atom_site_fract_y
_atom_site_fract_z
Si Si1 0.882289 0.679883 0.514760
Si Si2 0.873282 0.667629 0.012063
Si Si3 0.310495 0.321914 0.856655
Si Si4 0.389994 0.179526 0.711695
Si Si5 0.003002 0.674020 0.445911
Si Si6 0.190214 0.820075 0.867630
Si Si7 0.122093 0.675379 0.712878
Si Si8 0.504747 0.321323 0.761686
O O1 0.863795 0.509293 0.486051
O O2 0.863434 0.711806 0.615248
O O3 0.853287 0.797508 0.448178
O O4 0.950352 0.700726 0.511455
O O5 0.856037 0.697133 0.113157
O O6 0.832259 0.770563 0.952562
O O7 0.939442 0.709915 0.998842
O O8 0.250000 0.250000 0.834328
O O9 0.355655 0.274030 0.783442
O O10 0.303455 0.501813 0.851560
O O11 0.455135 0.231561 0.711641
O O12 0.388166 0.001354 0.736042
O O13 0.000000 0.500000 0.409521
O O14 0.998739 0.790679 0.365560
O O15 0.250000 0.750000 0.896428
O O16 0.169659 0.739726 0.778208
O O17 0.064275 0.767111 0.723593
O O18 0.500000 0.500000 0.743474
#
# Coordination Sequence:
#
# PCOD8176486 Si02
#       8
#     8   8   8   8   8   8   8   8
#     4  10  22  41  67  96 126 166 210 256 312 375
#     4  10  22  41  67  96 126 166 210 256 312 375
#     4  12  26  44  66  92 125 166 212 263 316 371
#     4  11  23  42  67  95 128 167 210 258 315 374
#     4  10  19  36  64  93 127 167 205 249 309 378
#     4  12  26  44  66  92 125 166 212 263 316 371
#     4  11  23  42  67  95 128 167 210 258 315 374
#     4  12  23  36  60  97 133 169 207 253 313 374
#
# _framework density 20.535091000000001
#
# number of rings (size 3 to 8) (size 9 to 14) (size 15 to 20)
#    0.000    1.000    2.500    4.875    0.000    5.000 
#    0.000    1.250    0.000    0.000    0.000    0.000 
#    0.000    0.000    0.000    0.000    0.000    0.000 
#
# Total GULP energy -396989.971053 kJ/mol
# GULP energy per Si atom -12405.936595 kJ/mol
# Density = 2.048835 g / cm^3
# Si number density = 20.535091 Si / 1000 Ang^3
#
#
#
# Elastic Constant Matrix: (Units=GPa)
#
#
# Indices 1 2 3 4 5 6 
#
# 1 68.4157 13.9163 7.8890 0.0000 0.0000 0.0000
# 2 13.9163 121.2427 28.7881 0.0000 0.0000 0.0000
# 3 7.8890 28.7881 99.0560 0.0000 0.0000 0.0000
# 4 0.0000 0.0000 0.0000 17.0209 0.0000 0.0000
# 5 0.0000 0.0000 0.0000 0.0000 8.2268 0.0000
# 6 0.0000 0.0000 0.0000 0.0000 0.0000 36.5534
#
#
#
# Elastic Compliance Matrix: (Units=1/GPa)
#
#
# Indices 1 2 3 4 5 6 
#
# 1 0.015017 -0.001546 -0.000747 0.000000 0.000000 0.000000
# 2 -0.001546 0.009019 -0.002498 0.000000 0.000000 0.000000
# 3 -0.000747 -0.002498 0.010881 0.000000 0.000000 0.000000
# 4 0.000000 0.000000 0.000000 0.058751 0.000000 0.000000
# 5 0.000000 0.000000 0.000000 0.000000 0.121554 0.000000
# 6 0.000000 0.000000 0.000000 0.000000 0.000000 0.027357
#
#
# Mechanical properties :
#
#
# Convention : Reuss Voigt Hill
#
# Bulk Modulus (GPa) = 39.47154 43.32238 41.39696
# Shear Modulus (GPa) = 19.18609 28.23496 23.71052
#
# Velocity S-wave (km/s) = 3.05996 3.71207 3.40168
# Velocity P-wave (km/s) = 5.63451 6.28611 5.96921
#
# Compressibility (1/GPa) = 0.02533471
#
# Stress axis : x y z
#
# Youngs Moduli (GPa) = 66.59047 110.88311 91.90595
#
# Poissons Ratio (x) = 0.17147 0.06861
# Poissons Ratio (y) = 0.10298 0.22957
# Poissons Ratio (z) = 0.04971 0.27697
#
# Static dielectric constant tensor:
#      x y z
#    x 3.706820 0.000000 0.000000 
#    y 0.000000 3.736370 0.000000 
#    z 0.000000 0.000000 3.749460 
# 
# 
# High freq. dielectric constant tensor:
#      x y z
#    x 1.802560 0.000000 0.000000 
#    y 0.000000 1.804410 0.000000 
#    z 0.000000 0.000000 1.811020 
# 
# From -- ./inp_files/13163.got.cif
#   From: 2010.03.12/outbox.cif.g09.slc.cpg/sg37_7_cif.got.tgz:13163.got - 2010.04.14 02:25:27.
