data_PCOD8176054
_publ_section_title
;
Structure prediction by ZEFSAII (Michael W. Deem and Ramdas Pophale) SiO2 
 PCOD8176054
Probable space group: C M C 21
;
_chemical_formula_sum "Si O2"
_cell_formula_units_Z 48
_cell_length_a 28.840914
_cell_length_b 4.907898
_cell_length_c 15.390523
_cell_angle_alpha 90.000000
_cell_angle_beta 90.000000
_cell_angle_gamma 90.000000
_cell_volume 2178.501815
_symmetry_space_group_name_H-M "C M C 21"
_symmetry_group_IT_number 36
_symmetry_cell_setting 'orthorhombic'
loop_
_space_group_symop_operation_xyz
x,y,z
-x,-y,1/2+z
x,-y,1/2+z
-x,y,z
1/2+x,1/2+y,z
1/2-x,1/2-y,1/2+z
1/2+x,1/2-y,1/2+z
1/2-x,1/2+y,z
loop_
_atom_site_type_symbol
_atom_site_label
_atom_site_fract_x
_atom_site_fract_y
_atom_site_fract_z
Si Si1 0.589467 0.086523 0.640280
Si Si2 0.500000 0.718364 0.435820
Si Si3 0.910139 0.367070 0.331045
Si Si4 0.000000 0.299754 0.042877
Si Si5 0.349026 0.356713 0.325874
Si Si6 0.218828 0.025466 0.977232
Si Si7 0.849822 0.903262 0.131279
O O1 0.573564 0.015575 0.737980
O O2 0.547318 0.244785 0.594681
O O3 0.632052 0.292406 0.639927
O O4 0.609854 0.806891 0.598245
O O5 0.454765 0.836077 0.389965
O O6 0.500000 0.395962 0.457165
O O7 0.500000 0.876620 0.526454
O O8 0.871064 0.579008 0.367363
O O9 0.890959 0.066139 0.319683
O O10 0.310486 0.489710 0.388088
O O11 0.330302 0.306724 0.226697
O O12 0.235834 0.336571 0.977679
O O13 0.190354 0.923531 0.060411
#
# Coordination Sequence:
#
# PCOD8176054 Si02
#       7
#     8   4   8   4   8   8   8
#     4  10  22  42  63  89 127 174 214 259 311 372
#     4  12  25  36  59 100 130 167 215 262 313 366
#     4  10  22  42  63  89 127 174 214 259 311 372
#     4  12  25  36  59 100 130 167 215 262 313 366
#     4  10  23  42  67  92 125 170 214 262 322 385
#     4  12  26  42  66  97 126 163 206 272 338 392
#     4  10  23  42  67  92 125 170 214 262 322 385
#
# _framework density 22.033491999999999
#
# number of rings (size 3 to 8) (size 9 to 14) (size 15 to 20)
#    0.000    1.333    0.000    4.500    7.000    1.333 
#    0.000    6.667    0.000    0.000    0.000    0.000 
#    0.000    0.000    0.000    0.000    0.000    0.000 
#
# Total GULP energy -297445.389927 kJ/mol
# GULP energy per Si atom -12393.557914 kJ/mol
# Density = 2.198334 g / cm^3
# Si number density = 22.033492 Si / 1000 Ang^3
#
#
#
# Elastic Constant Matrix: (Units=GPa)
#
#
# Indices 1 2 3 4 5 6 
#
# 1 95.5928 20.6209 64.0662 0.0000 0.0000 0.0000
# 2 20.6209 102.9475 22.5224 0.0000 0.0000 0.0000
# 3 64.0662 22.5224 106.3322 0.0000 0.0000 0.0000
# 4 0.0000 0.0000 0.0000 33.8568 0.0000 0.0000
# 5 0.0000 0.0000 0.0000 0.0000 -6.7328 0.0000
# 6 0.0000 0.0000 0.0000 0.0000 0.0000 49.4703
#
#
#
# Elastic Compliance Matrix: (Units=1/GPa)
#
#
# Indices 1 2 3 4 5 6 
#
# 1 0.017704 -0.001271 -0.010397 0.000000 0.000000 0.000000
# 2 -0.001271 0.010277 -0.001411 0.000000 0.000000 0.000000
# 3 -0.010397 -0.001411 0.015968 0.000000 0.000000 0.000000
# 4 0.000000 0.000000 0.000000 0.029536 0.000000 0.000000
# 5 0.000000 0.000000 0.000000 0.000000 -0.148526 0.000000
# 6 0.000000 0.000000 0.000000 0.000000 0.000000 0.020214
#
#
# Mechanical properties :
#
#
# Convention : Reuss Voigt Hill
#
# Bulk Modulus (GPa) = 56.21313 57.69904 56.95609
# Shear Modulus (GPa) = -219.89268 28.49638 -95.69815
#
# Velocity S-wave (km/s) = -10.00080 3.60018 -6.59752
# Velocity P-wave (km/s) = 10.38203 6.59739 5.66838
#
# Compressibility (1/GPa) = 0.01778944
#
# Stress axis : x y z
#
# Youngs Moduli (GPa) = 56.48592 97.30465 62.62627
#
# Poissons Ratio (x) = 0.12372 0.65114
# Poissons Ratio (y) = 0.07182 0.08835
# Poissons Ratio (z) = 0.58730 0.13727
#
# Static dielectric constant tensor:
#      x y z
#    x 3.787980 0.000000 0.000000 
#    y 0.000000 4.042940 0.000000 
#    z 0.000000 0.000000 4.153120 
# 
# 
# High freq. dielectric constant tensor:
#      x y z
#    x 1.852840 0.000000 0.000000 
#    y 0.000000 1.885550 0.000000 
#    z 0.000000 0.000000 1.865850 
# 
# From -- ./inp_files/13062.got.cif
#   From: 2010.03.12/outbox.cif.g09.slc.cpg/sg36_7_cif.got.tgz:13062.got - 2010.04.14 02:13:53.
