data_PCOD8176504
_publ_section_title
;
Structure prediction by ZEFSAII (Michael W. Deem and Ramdas Pophale) SiO2 
 PCOD8176504
Probable space group: C C C 2
;
_chemical_formula_sum "Si O2"
_cell_formula_units_Z 60
_cell_length_a 15.140389
_cell_length_b 13.827886
_cell_length_c 14.397198
_cell_angle_alpha 90.000000
_cell_angle_beta 90.000000
_cell_angle_gamma 90.000000
_cell_volume 3014.191227
_symmetry_space_group_name_H-M "C C C 2"
_symmetry_group_IT_number 37
_symmetry_cell_setting 'orthorhombic'
loop_
_space_group_symop_operation_xyz
x,y,z
-x,-y,z
-x,y,1/2+z
x,-y,1/2+z
1/2+x,1/2+y,z
1/2-x,1/2-y,z
1/2-x,1/2+y,1/2+z
1/2+x,1/2-y,1/2+z
loop_
_atom_site_type_symbol
_atom_site_label
_atom_site_fract_x
_atom_site_fract_y
_atom_site_fract_z
Si Si1 0.324194 0.584111 0.239290
Si Si2 0.681344 0.135833 0.377001
Si Si3 0.908771 0.452483 0.940792
Si Si4 0.705934 0.368385 0.717178
Si Si5 0.930301 0.742141 0.724285
Si Si6 0.383844 0.192102 0.285007
Si Si7 0.750000 0.750000 0.045648
Si Si8 0.196316 0.661398 0.082392
O O1 0.279219 0.616422 0.336400
O O2 0.342502 0.470311 0.229137
O O3 0.417262 0.640901 0.228919
O O4 0.258633 0.614489 0.158091
O O5 0.623934 0.203995 0.312085
O O6 0.688040 0.184213 0.479306
O O7 0.633674 0.033302 0.376633
O O8 0.921026 0.354342 0.880306
O O9 0.000000 0.500000 0.979769
O O10 0.836616 0.425397 0.017778
O O11 0.662922 0.297296 0.795262
O O12 0.811662 0.378878 0.736760
O O13 0.693047 0.320880 0.614133
O O14 0.891649 0.703779 0.628191
O O15 0.031318 0.709540 0.720483
O O16 0.250000 0.750000 0.032136
#
# Coordination Sequence:
#
# PCOD8176504 Si02
#       8
#     8   8   8   8   8   8   4   8
#     4  10  19  39  61  86 112 165 207 242 314 378
#     4  11  19  34  59  87 118 150 197 253 303 372
#     4  12  23  35  57  93 122 160 204 250 319 368
#     4  10  23  39  61  85 123 167 206 250 321 377
#     4  10  20  39  60  84 120 153 202 258 307 364
#     4  10  22  39  56  86 121 160 199 258 309 379
#     4  10  20  36  58  92 116 150 204 268 296 364
#     4   9  22  37  58  85 121 161 200 254 312 377
#
# _framework density 19.905836999999998
#
# number of rings (size 3 to 8) (size 9 to 14) (size 15 to 20)
#    0.000    1.867    4.000    1.600    1.867    3.733 
#    0.000    0.000    0.000    0.000    6.933    0.000 
#    0.000    0.000    0.000    0.000    0.000    0.000 
#
# Total GULP energy -371687.213834 kJ/mol
# GULP energy per Si atom -12389.573794 kJ/mol
# Density = 1.986053 g / cm^3
# Si number density = 19.905837 Si / 1000 Ang^3
#
#
#
# Elastic Constant Matrix: (Units=GPa)
#
#
# Indices 1 2 3 4 5 6 
#
# 1 50.1709 13.7168 2.1596 0.0000 0.0000 0.0000
# 2 13.7168 122.6372 22.0980 0.0000 0.0000 0.0000
# 3 2.1596 22.0980 58.1766 0.0000 0.0000 0.0000
# 4 0.0000 0.0000 0.0000 23.9113 0.0000 0.0000
# 5 0.0000 0.0000 0.0000 0.0000 14.4675 0.0000
# 6 0.0000 0.0000 0.0000 0.0000 0.0000 24.5876
#
#
#
# Elastic Compliance Matrix: (Units=1/GPa)
#
#
# Indices 1 2 3 4 5 6 
#
# 1 0.020561 -0.002321 0.000118 0.000000 0.000000 0.000000
# 2 -0.002321 0.009015 -0.003338 0.000000 0.000000 0.000000
# 3 0.000118 -0.003338 0.018453 0.000000 0.000000 0.000000
# 4 0.000000 0.000000 0.000000 0.041821 0.000000 0.000000
# 5 0.000000 0.000000 0.000000 0.000000 0.069120 0.000000
# 6 0.000000 0.000000 0.000000 0.000000 0.000000 0.040671
#
#
# Mechanical properties :
#
#
# Convention : Reuss Voigt Hill
#
# Bulk Modulus (GPa) = 27.06551 34.10372 30.58461
# Shear Modulus (GPa) = 22.41756 25.46064 23.93910
#
# Velocity S-wave (km/s) = 3.35950 3.58027 3.47164
# Velocity P-wave (km/s) = 5.35487 5.85327 5.60961
#
# Compressibility (1/GPa) = 0.03694740
#
# Stress axis : x y z
#
# Youngs Moduli (GPa) = 48.63494 110.92306 54.19280
#
# Poissons Ratio (x) = 0.25746 -0.00642
# Poissons Ratio (y) = 0.11289 0.18091
# Poissons Ratio (z) = -0.00576 0.37029
#
# Static dielectric constant tensor:
#      x y z
#    x 3.536870 0.000000 0.000000 
#    y 0.000000 3.881330 0.000000 
#    z 0.000000 0.000000 3.414730 
# 
# 
# High freq. dielectric constant tensor:
#      x y z
#    x 1.758450 0.000000 0.000000 
#    y 0.000000 1.789520 0.000000 
#    z 0.000000 0.000000 1.756500 
# 
# From -- ./inp_files/12263.got.cif
#   From: 2010.03.12/outbox.cif.g09.slc.cpg/sg37_7_cif.got.tgz:12263.got - 2010.04.14 02:25:27.
