data_PCOD8176619
_publ_section_title
;
Structure prediction by ZEFSAII (Michael W. Deem and Ramdas Pophale) SiO2 
 PCOD8176619
Probable space group: C C C 2
;
_chemical_formula_sum "Si O2"
_cell_formula_units_Z 64
_cell_length_a 10.180789
_cell_length_b 10.187868
_cell_length_c 30.913165
_cell_angle_alpha 90.000000
_cell_angle_beta 90.000000
_cell_angle_gamma 90.000000
_cell_volume 3206.329996
_symmetry_space_group_name_H-M "C C C 2"
_symmetry_group_IT_number 37
_symmetry_cell_setting 'orthorhombic'
loop_
_space_group_symop_operation_xyz
x,y,z
-x,-y,z
-x,y,1/2+z
x,-y,1/2+z
1/2+x,1/2+y,z
1/2-x,1/2-y,z
1/2-x,1/2+y,1/2+z
1/2+x,1/2-y,1/2+z
loop_
_atom_site_type_symbol
_atom_site_label
_atom_site_fract_x
_atom_site_fract_y
_atom_site_fract_z
Si Si1 0.525469 0.201078 0.287760
Si Si2 0.596212 0.380746 0.724894
Si Si3 0.100836 0.106679 0.954226
Si Si4 0.891636 0.394542 0.588568
Si Si5 0.108385 0.605319 0.486205
Si Si6 0.646600 0.364802 0.357887
Si Si7 0.389093 0.388653 0.125653
Si Si8 0.791916 0.475363 0.795179
O O1 0.481365 0.252388 0.240868
O O2 0.543108 0.319107 0.321578
O O3 0.658531 0.119144 0.279459
O O4 0.413693 0.112399 0.309469
O O5 0.500000 0.500000 0.729593
O O6 0.639633 0.360070 0.675864
O O7 0.720596 0.403818 0.755629
O O8 0.063118 0.249971 0.971935
O O9 0.250713 0.068521 0.965726
O O10 0.077704 0.102700 0.902786
O O11 0.000000 0.000000 0.974687
O O12 0.879088 0.395770 0.537386
O O13 0.749184 0.437494 0.606403
O O14 0.933463 0.248472 0.603877
O O15 0.000000 0.500000 0.604544
O O16 0.000000 0.500000 0.470167
O O17 0.750000 0.250000 0.367560
O O18 0.707706 0.499388 0.338521
O O19 0.500000 0.500000 0.118113
#
# Coordination Sequence:
#
# PCOD8176619 Si02
#       8
#     8   8   8   8   8   8   8   8
#     4  10  22  37  56  81 111 156 205 253 301 353
#     4  11  22  38  59  82 123 163 202 255 304 357
#     4  11  23  39  65  95 125 170 207 259 318 380
#     4  10  23  43  68  95 129 166 207 263 326 389
#     4  10  23  45  66  95 131 164 207 265 324 389
#     4  10  20  39  58  83 124 161 201 256 308 364
#     4  10  23  40  62  96 128 166 210 260 314 381
#     4  10  22  37  56  81 111 156 205 253 301 353
#
# _framework density 19.960515000000001
#
# number of rings (size 3 to 8) (size 9 to 14) (size 15 to 20)
#    0.000    1.750    2.500    1.875    5.250    5.000 
#    0.000    5.000    0.000    0.000    0.000    0.000 
#    0.000    0.000    0.000    0.000    0.000    0.000 
#
# Total GULP energy -396742.200625 kJ/mol
# GULP energy per Si atom -12398.193770 kJ/mol
# Density = 1.991508 g / cm^3
# Si number density = 19.960515 Si / 1000 Ang^3
#
#
#
# Elastic Constant Matrix: (Units=GPa)
#
#
# Indices 1 2 3 4 5 6 
#
# 1 96.7411 59.5087 30.2607 0.0000 0.0000 0.0000
# 2 59.5087 102.3105 26.0518 0.0000 0.0000 0.0000
# 3 30.2607 26.0518 96.9043 0.0000 0.0000 0.0000
# 4 0.0000 0.0000 0.0000 22.3757 0.0000 0.0000
# 5 0.0000 0.0000 0.0000 0.0000 23.0149 0.0000
# 6 0.0000 0.0000 0.0000 0.0000 0.0000 44.8292
#
#
#
# Elastic Compliance Matrix: (Units=1/GPa)
#
#
# Indices 1 2 3 4 5 6 
#
# 1 0.016779 -0.009044 -0.002808 0.000000 0.000000 0.000000
# 2 -0.009044 0.015368 -0.001307 0.000000 0.000000 0.000000
# 3 -0.002808 -0.001307 0.011548 0.000000 0.000000 0.000000
# 4 0.000000 0.000000 0.000000 0.044691 0.000000 0.000000
# 5 0.000000 0.000000 0.000000 0.000000 0.043450 0.000000
# 6 0.000000 0.000000 0.000000 0.000000 0.000000 0.022307
#
#
# Mechanical properties :
#
#
# Convention : Reuss Voigt Hill
#
# Bulk Modulus (GPa) = 57.55373 58.62203 58.08788
# Shear Modulus (GPa) = 26.84524 30.05296 28.44910
#
# Velocity S-wave (km/s) = 3.67129 3.88444 3.77937
# Velocity P-wave (km/s) = 6.84599 7.03927 6.94330
#
# Compressibility (1/GPa) = 0.01737507
#
# Stress axis : x y z
#
# Youngs Moduli (GPa) = 59.59958 65.07214 86.59685
#
# Poissons Ratio (x) = 0.58853 0.24317
# Poissons Ratio (y) = 0.53903 0.11319
# Poissons Ratio (z) = 0.16736 0.08506
#
# Static dielectric constant tensor:
#      x y z
#    x 3.702550 0.000000 0.000000 
#    y 0.000000 3.814890 0.000000 
#    z 0.000000 0.000000 3.715060 
# 
# 
# High freq. dielectric constant tensor:
#      x y z
#    x 1.784000 0.000000 0.000000 
#    y 0.000000 1.787080 0.000000 
#    z 0.000000 0.000000 1.775400 
# 
# From -- ./inp_files/20420.got.cif
#   From: 2010.03.12/outbox.cif.g09.slc.cpg/sg37_11_cif.got.tgz:20420.got - 2010.04.14 02:25:27.
