data_PCOD8176356
_publ_section_title
;
Structure prediction by ZEFSAII (Michael W. Deem and Ramdas Pophale) SiO2 
 PCOD8176356
Probable space group: C C C 2
;
_chemical_formula_sum "Si O2"
_cell_formula_units_Z 32
_cell_length_a 35.908852
_cell_length_b 6.985174
_cell_length_c 5.308819
_cell_angle_alpha 90.000000
_cell_angle_beta 90.000000
_cell_angle_gamma 90.000000
_cell_volume 1331.608837
_symmetry_space_group_name_H-M "C C C 2"
_symmetry_group_IT_number 37
_symmetry_cell_setting 'orthorhombic'
loop_
_space_group_symop_operation_xyz
x,y,z
-x,-y,z
-x,y,1/2+z
x,-y,1/2+z
1/2+x,1/2+y,z
1/2-x,1/2-y,z
1/2-x,1/2+y,1/2+z
1/2+x,1/2-y,1/2+z
loop_
_atom_site_type_symbol
_atom_site_label
_atom_site_fract_x
_atom_site_fract_y
_atom_site_fract_z
Si Si1 0.786390 0.875801 0.033660
Si Si2 0.603198 0.210616 0.985399
Si Si3 0.134557 0.283444 0.985307
Si Si4 0.515615 0.788474 0.476162
O O1 0.750000 0.750000 0.002989
O O2 0.787357 0.970982 0.308773
O O3 0.821178 0.732144 0.010728
O O4 0.614297 0.317347 0.725138
O O5 0.559313 0.201042 0.020730
O O6 0.621613 0.001938 0.957728
O O7 0.620951 0.319788 0.226363
O O8 0.495562 0.682816 0.713357
O O9 0.500000 0.000000 0.430025
#
# Coordination Sequence:
#
# PCOD8176356 Si02
#       4
#     8   8   8   8
#     4  12  28  46  70  96 128 164 215 267 327 385
#     4  10  19  32  57  87 122 169 200 258 321 362
#     4  10  20  35  57  81 121 153 210 241 314 373
#     4  10  16  25  43  77 127 158 196 250 312 363
#
# _framework density 24.031079999999999
#
# number of rings (size 3 to 8) (size 9 to 14) (size 15 to 20)
#    0.000    1.500    0.000    9.750    7.000    0.000 
#    0.000    0.000    0.000    0.000    0.000    0.000 
#    0.000  244.000    0.000    0.000    0.000    0.000 
#
# Total GULP energy -198298.756174 kJ/mol
# GULP energy per Si atom -12393.672261 kJ/mol
# Density = 2.397638 g / cm^3
# Si number density = 24.031080 Si / 1000 Ang^3
#
#
#
# Elastic Constant Matrix: (Units=GPa)
#
#
# Indices 1 2 3 4 5 6 
#
# 1 173.5370 11.7739 11.4126 0.0000 0.0000 0.0000
# 2 11.7739 40.1907 -18.4705 0.0000 0.0000 0.0000
# 3 11.4126 -18.4705 221.2334 0.0000 0.0000 0.0000
# 4 0.0000 0.0000 0.0000 1.1101 0.0000 0.0000
# 5 0.0000 0.0000 0.0000 0.0000 45.1722 0.0000
# 6 0.0000 0.0000 0.0000 0.0000 0.0000 -286.5190
#
#
#
# Elastic Compliance Matrix: (Units=1/GPa)
#
#
# Indices 1 2 3 4 5 6 
#
# 1 0.005926 -0.001951 -0.000469 0.000000 0.000000 0.000000
# 2 -0.001951 0.026517 0.002315 0.000000 0.000000 0.000000
# 3 -0.000469 0.002315 0.004738 0.000000 0.000000 0.000000
# 4 0.000000 0.000000 0.000000 0.900801 0.000000 0.000000
# 5 0.000000 0.000000 0.000000 0.000000 0.022138 0.000000
# 6 0.000000 0.000000 0.000000 0.000000 0.000000 -0.003490
#
#
# Mechanical properties :
#
#
# Convention : Reuss Voigt Hill
#
# Bulk Modulus (GPa) = 27.04956 49.37698 38.21327
# Shear Modulus (GPa) = 5.15909 -19.36433 -7.10262
#
# Velocity S-wave (km/s) = 1.46680 -2.84175 -1.72105
# Velocity P-wave (km/s) = 3.76154 3.13438 3.46219
#
# Compressibility (1/GPa) = 0.03696918
#
# Stress axis : x y z
#
# Youngs Moduli (GPa) = 168.75744 37.71207 211.08085
#
# Poissons Ratio (x) = 0.07359 0.09891
# Poissons Ratio (y) = 0.32929 -0.48855
# Poissons Ratio (z) = 0.07908 -0.08729
#
# Static dielectric constant tensor:
#      x y z
#    x 4.272600 0.000000 0.000000 
#    y 0.000000 3.624910 0.000000 
#    z 0.000000 0.000000 6.999730 
# 
# 
# High freq. dielectric constant tensor:
#      x y z
#    x 1.959020 0.000000 0.000000 
#    y 0.000000 1.917150 0.000000 
#    z 0.000000 0.000000 2.003520 
# 
# From -- ./inp_files/164.got.cif
#   From: 2010.03.12/outbox.cif.g09.slc.cpg/sg37_1_cif.got.tgz:164.got - 2010.04.14 02:25:27.
