data_PCOD8176424
_publ_section_title
;
Structure prediction by ZEFSAII (Michael W. Deem and Ramdas Pophale) SiO2 
 PCOD8176424
Probable space group: C C C 2
;
_chemical_formula_sum "Si O2"
_cell_formula_units_Z 48
_cell_length_a 6.829568
_cell_length_b 21.360768
_cell_length_c 15.477524
_cell_angle_alpha 90.000000
_cell_angle_beta 90.000000
_cell_angle_gamma 90.000000
_cell_volume 2257.935765
_symmetry_space_group_name_H-M "C C C 2"
_symmetry_group_IT_number 37
_symmetry_cell_setting 'orthorhombic'
loop_
_space_group_symop_operation_xyz
x,y,z
-x,-y,z
-x,y,1/2+z
x,-y,1/2+z
1/2+x,1/2+y,z
1/2-x,1/2-y,z
1/2-x,1/2+y,1/2+z
1/2+x,1/2-y,1/2+z
loop_
_atom_site_type_symbol
_atom_site_label
_atom_site_fract_x
_atom_site_fract_y
_atom_site_fract_z
Si Si1 0.500000 0.500000 0.772120
Si Si2 0.623339 0.621365 0.872536
Si Si3 0.750000 0.750000 0.624878
Si Si4 0.545140 0.930675 0.977688
Si Si5 0.825843 0.084585 0.640027
Si Si6 0.582162 0.705600 0.238804
Si Si7 0.345018 0.371612 0.527270
O O1 0.576637 0.553449 0.835079
O O2 0.328118 0.529293 0.711496
O O3 0.580228 0.675071 0.802534
O O4 0.846322 0.613210 0.906486
O O5 0.499011 0.644465 0.953473
O O6 0.548272 0.750083 0.678436
O O7 0.754507 0.689344 0.565958
O O8 0.657923 0.929155 0.069849
O O9 0.326251 0.908749 0.984158
O O10 0.500000 0.000000 0.943407
O O11 0.799452 0.152277 0.685707
O O12 0.043617 0.085818 0.597974
O O13 0.750000 0.750000 0.282250
#
# Coordination Sequence:
#
# PCOD8176424 Si02
#       7
#     4   8   4   8   8   8   8
#     4  10  18  38  58  78 126 158 188 258 306 364
#     4  10  23  38  57  91 123 158 201 250 318 366
#     4  10  22  40  64  88 116 162 214 252 306 378
#     4  11  21  37  61  89 119 158 203 252 307 380
#     4   9  20  37  59  86 113 159 207 250 307 369
#     4  10  21  39  61  86 123 160 205 261 310 369
#     4  10  21  39  60  86 121 157 206 253 307 370
#
# _framework density 21.258355000000002
#
# number of rings (size 3 to 8) (size 9 to 14) (size 15 to 20)
#    0.000    2.000    0.000    3.000    1.167    4.000 
#    0.000   15.833    0.000    0.000    0.000    0.000 
#    0.000    0.000    0.000    0.000    0.000    0.000 
#
# Total GULP energy -297379.533489 kJ/mol
# GULP energy per Si atom -12390.813895 kJ/mol
# Density = 2.120997 g / cm^3
# Si number density = 21.258355 Si / 1000 Ang^3
#
#
#
# Elastic Constant Matrix: (Units=GPa)
#
#
# Indices 1 2 3 4 5 6 
#
# 1 73.3644 38.7521 8.5344 0.0000 0.0000 0.0000
# 2 38.7521 89.3709 26.8242 0.0000 0.0000 0.0000
# 3 8.5344 26.8242 72.6247 0.0000 0.0000 0.0000
# 4 0.0000 0.0000 0.0000 -13.3807 0.0000 0.0000
# 5 0.0000 0.0000 0.0000 0.0000 102.2999 0.0000
# 6 0.0000 0.0000 0.0000 0.0000 0.0000 28.6357
#
#
#
# Elastic Compliance Matrix: (Units=1/GPa)
#
#
# Indices 1 2 3 4 5 6 
#
# 1 0.017727 -0.007942 0.000850 0.000000 0.000000 0.000000
# 2 -0.007942 0.016142 -0.005029 0.000000 0.000000 0.000000
# 3 0.000850 -0.005029 0.015527 0.000000 0.000000 0.000000
# 4 0.000000 0.000000 0.000000 -0.074735 0.000000 0.000000
# 5 0.000000 0.000000 0.000000 0.000000 0.009775 0.000000
# 6 0.000000 0.000000 0.000000 0.000000 0.000000 0.034921
#
#
# Mechanical properties :
#
#
# Convention : Reuss Voigt Hill
#
# Bulk Modulus (GPa) = 39.75351 42.62016 41.18684
# Shear Modulus (GPa) = 96.18452 34.26096 65.22274
#
# Velocity S-wave (km/s) = 6.73378 4.01889 5.54505
# Velocity P-wave (km/s) = 8.89939 6.45193 7.77260
#
# Compressibility (1/GPa) = 0.02515501
#
# Stress axis : x y z
#
# Youngs Moduli (GPa) = 56.41260 61.94911 64.40401
#
# Poissons Ratio (x) = 0.49197 -0.05475
# Poissons Ratio (y) = 0.44800 0.32389
# Poissons Ratio (z) = -0.04796 0.31154
#
# Static dielectric constant tensor:
#      x y z
#    x 3.691650 0.000000 0.000000 
#    y 0.000000 4.022750 0.000000 
#    z 0.000000 0.000000 4.047930 
# 
# 
# High freq. dielectric constant tensor:
#      x y z
#    x 1.824950 0.000000 0.000000 
#    y 0.000000 1.837590 0.000000 
#    z 0.000000 0.000000 1.835590 
# 
# From -- ./inp_files/13936.got.cif
#   From: 2010.03.12/outbox.cif.g09.slc.cpg/sg37_7_cif.got.tgz:13936.got - 2010.04.14 02:25:27.
