data_PCOD8176239
_publ_section_title
;
Structure prediction by ZEFSAII (Michael W. Deem and Ramdas Pophale) SiO2 
 PCOD8176239
Probable space group: C M C 21
;
_chemical_formula_sum "Si O2"
_cell_formula_units_Z 48
_cell_length_a 8.664527
_cell_length_b 30.422292
_cell_length_c 9.259428
_cell_angle_alpha 90.000000
_cell_angle_beta 90.000000
_cell_angle_gamma 90.000000
_cell_volume 2440.736798
_symmetry_space_group_name_H-M "C M C 21"
_symmetry_group_IT_number 36
_symmetry_cell_setting 'orthorhombic'
loop_
_space_group_symop_operation_xyz
x,y,z
-x,-y,1/2+z
x,-y,1/2+z
-x,y,z
1/2+x,1/2+y,z
1/2-x,1/2-y,1/2+z
1/2+x,1/2-y,1/2+z
1/2-x,1/2+y,z
loop_
_atom_site_type_symbol
_atom_site_label
_atom_site_fract_x
_atom_site_fract_y
_atom_site_fract_z
Si Si1 0.183084 0.609152 0.505760
Si Si2 0.318094 0.204308 0.546026
Si Si3 0.179602 0.279716 0.729358
Si Si4 0.818700 0.046626 0.007602
Si Si5 0.816331 0.471487 0.195947
Si Si6 0.180770 0.621696 0.179053
O O1 0.242426 0.654760 0.578876
O O2 0.248570 0.568826 0.599155
O O3 0.237583 0.606915 0.338913
O O4 0.000000 0.607705 0.508006
O O5 0.500000 0.202232 0.536992
O O6 0.268237 0.239131 0.662557
O O7 0.254420 0.218726 0.390781
O O8 0.213344 0.326510 0.653128
O O9 0.000000 0.268971 0.723301
O O10 0.776751 0.095966 0.057423
O O11 0.000000 0.042147 0.981550
O O12 0.762562 0.015229 0.136345
O O13 0.729875 0.034938 0.861392
O O14 0.000000 0.476229 0.185926
O O15 0.000000 0.611363 0.160558
#
# Coordination Sequence:
#
# PCOD8176239 Si02
#       6
#     8   8   8   8   8   8
#     4   8  17  35  59  81 102 137 187 233 267 317
#     4   9  18  34  54  78 109 142 179 227 279 324
#     4   9  19  34  53  79 109 143 185 229 271 325
#     4  12  25  39  56  85 119 144 176 230 288 329
#     4  11  22  39  62  84 108 147 193 226 267 335
#     4   9  18  37  60  79 105 145 190 229 270 328
#
# _framework density 19.666194999999998
#
# number of rings (size 3 to 8) (size 9 to 14) (size 15 to 20)
#    0.000    2.333    0.000    5.000    0.000    4.000 
#    0.000   10.000    0.000    0.000    0.000    0.000 
#    0.000    0.000    0.000    0.000    0.000    0.000 
#
# Total GULP energy -297545.528706 kJ/mol
# GULP energy per Si atom -12397.730363 kJ/mol
# Density = 1.962143 g / cm^3
# Si number density = 19.666195 Si / 1000 Ang^3
#
#
#
# Elastic Constant Matrix: (Units=GPa)
#
#
# Indices 1 2 3 4 5 6 
#
# 1 35.8292 14.9209 7.1380 0.0000 0.0000 0.0000
# 2 14.9209 69.3227 5.2086 0.0000 0.0000 0.0000
# 3 7.1380 5.2086 39.1574 0.0000 0.0000 0.0000
# 4 0.0000 0.0000 0.0000 34.5407 0.0000 0.0000
# 5 0.0000 0.0000 0.0000 0.0000 27.0771 0.0000
# 6 0.0000 0.0000 0.0000 0.0000 0.0000 27.7836
#
#
#
# Elastic Compliance Matrix: (Units=1/GPa)
#
#
# Indices 1 2 3 4 5 6 
#
# 1 0.031562 -0.006425 -0.004899 0.000000 0.000000 0.000000
# 2 -0.006425 0.015879 -0.000941 0.000000 0.000000 0.000000
# 3 -0.004899 -0.000941 0.026556 0.000000 0.000000 0.000000
# 4 0.000000 0.000000 0.000000 0.028951 0.000000 0.000000
# 5 0.000000 0.000000 0.000000 0.000000 0.036932 0.000000
# 6 0.000000 0.000000 0.000000 0.000000 0.000000 0.035992
#
#
# Mechanical properties :
#
#
# Convention : Reuss Voigt Hill
#
# Bulk Modulus (GPa) = 20.21544 22.09380 21.15462
# Shear Modulus (GPa) = 23.05303 25.68307 24.36805
#
# Velocity S-wave (km/s) = 3.42748 3.61771 3.52388
# Velocity P-wave (km/s) = 5.09559 5.35810 5.22850
#
# Compressibility (1/GPa) = 0.04946713
#
# Stress axis : x y z
#
# Youngs Moduli (GPa) = 31.68379 62.97645 37.65610
#
# Poissons Ratio (x) = 0.40464 0.18447
# Poissons Ratio (y) = 0.20358 0.03543
# Poissons Ratio (z) = 0.15521 0.05925
#
# Static dielectric constant tensor:
#      x y z
#    x 3.262090 0.000000 0.000000 
#    y 0.000000 3.945550 0.000000 
#    z 0.000000 0.000000 3.696590 
# 
# 
# High freq. dielectric constant tensor:
#      x y z
#    x 1.739900 0.000000 0.000000 
#    y 0.000000 1.783710 0.000000 
#    z 0.000000 0.000000 1.762970 
# 
# From -- ./inp_files/2650.got.cif
#   From: 2010.03.12/outbox.cif.g09.slc.cpg/sg36_2_cif.got.tgz:2650.got - 2010.04.14 02:13:53.
