data_PCOD8176055
_publ_section_title
;
Structure prediction by ZEFSAII (Michael W. Deem and Ramdas Pophale) SiO2 
 PCOD8176055
Probable space group: C M C 21
;
_chemical_formula_sum "Si O2"
_cell_formula_units_Z 64
_cell_length_a 21.971071
_cell_length_b 9.068668
_cell_length_c 15.566355
_cell_angle_alpha 90.000000
_cell_angle_beta 90.000000
_cell_angle_gamma 90.000000
_cell_volume 3101.570526
_symmetry_space_group_name_H-M "C M C 21"
_symmetry_group_IT_number 36
_symmetry_cell_setting 'orthorhombic'
loop_
_space_group_symop_operation_xyz
x,y,z
-x,-y,1/2+z
x,-y,1/2+z
-x,y,z
1/2+x,1/2+y,z
1/2-x,1/2-y,1/2+z
1/2+x,1/2-y,1/2+z
1/2-x,1/2+y,z
loop_
_atom_site_type_symbol
_atom_site_label
_atom_site_fract_x
_atom_site_fract_y
_atom_site_fract_z
Si Si1 0.070084 0.690904 0.319170
Si Si2 0.347889 0.958702 0.399563
Si Si3 0.759911 0.277372 0.682669
Si Si4 0.871795 0.081087 0.932058
Si Si5 0.227489 0.026027 0.802991
Si Si6 0.886095 0.389065 0.633199
Si Si7 0.429607 0.719672 0.472708
Si Si8 0.837139 0.651704 0.553154
O O1 0.097618 0.568827 0.380643
O O2 0.095381 0.849759 0.348533
O O3 0.082970 0.646656 0.222263
O O4 0.000000 0.692826 0.337703
O O5 0.299290 0.951738 0.323121
O O6 0.380430 0.800911 0.411508
O O7 0.314986 0.028419 0.483711
O O8 0.793666 0.166453 0.748092
O O9 0.718858 0.384832 0.741798
O O10 0.813568 0.358856 0.632222
O O11 0.718778 0.192108 0.614406
O O12 0.808893 0.015751 0.892800
O O13 0.912617 0.952708 0.972807
O O14 0.860958 0.199265 0.007962
O O15 0.922174 0.285837 0.567346
O O16 0.890047 0.564430 0.607738
O O17 0.500000 0.738792 0.442924
#
# Coordination Sequence:
#
# PCOD8176055 Si02
#       8
#     8   8   8   8   8   8   8   8
#     4  11  21  42  66  88 123 167 216 262 308 369
#     4  10  22  42  63  93 124 165 218 259 311 383
#     4  12  22  39  59  93 128 165 198 259 321 384
#     4  11  25  40  65  96 128 164 208 268 326 375
#     4  12  23  39  63  94 129 158 208 258 325 382
#     4  11  23  41  61  91 126 172 214 256 314 386
#     4  11  25  42  63  92 127 172 217 262 315 376
#     4  10  24  39  62  93 129 165 208 256 328 381
#
# _framework density 20.634708
#
# number of rings (size 3 to 8) (size 9 to 14) (size 15 to 20)
#    0.000    1.000    3.750    2.625    7.000    0.000 
#    0.000    1.875    0.000    0.000    0.000    0.000 
#    0.000    0.000    0.000    0.000    0.000    0.000 
#
# Total GULP energy -396684.672380 kJ/mol
# GULP energy per Si atom -12396.396012 kJ/mol
# Density = 2.058774 g / cm^3
# Si number density = 20.634708 Si / 1000 Ang^3
#
#
#
# Elastic Constant Matrix: (Units=GPa)
#
#
# Indices 1 2 3 4 5 6 
#
# 1 92.6996 31.1886 23.6309 0.0000 0.0000 0.0000
# 2 31.1886 112.2330 30.1623 0.0000 0.0000 0.0000
# 3 23.6309 30.1623 69.4405 0.0000 0.0000 0.0000
# 4 0.0000 0.0000 0.0000 17.8433 0.0000 0.0000
# 5 0.0000 0.0000 0.0000 0.0000 18.5343 0.0000
# 6 0.0000 0.0000 0.0000 0.0000 0.0000 21.3890
#
#
#
# Elastic Compliance Matrix: (Units=1/GPa)
#
#
# Indices 1 2 3 4 5 6 
#
# 1 0.012462 -0.002631 -0.003098 0.000000 0.000000 0.000000
# 2 -0.002631 0.010643 -0.003728 0.000000 0.000000 0.000000
# 3 -0.003098 -0.003728 0.017074 0.000000 0.000000 0.000000
# 4 0.000000 0.000000 0.000000 0.056043 0.000000 0.000000
# 5 0.000000 0.000000 0.000000 0.000000 0.053954 0.000000
# 6 0.000000 0.000000 0.000000 0.000000 0.000000 0.046753
#
#
# Mechanical properties :
#
#
# Convention : Reuss Voigt Hill
#
# Bulk Modulus (GPa) = 47.02245 49.37073 48.19659
# Shear Modulus (GPa) = 22.42836 24.17941 23.30388
#
# Velocity S-wave (km/s) = 3.30043 3.42685 3.36423
# Velocity P-wave (km/s) = 6.11239 6.29569 6.20472
#
# Compressibility (1/GPa) = 0.02126644
#
# Stress axis : x y z
#
# Youngs Moduli (GPa) = 80.24128 93.96003 58.56729
#
# Poissons Ratio (x) = 0.24716 0.18147
# Poissons Ratio (y) = 0.21107 0.21832
# Poissons Ratio (z) = 0.24862 0.35025
#
# Static dielectric constant tensor:
#      x y z
#    x 3.595320 0.000000 0.000000 
#    y 0.000000 3.891430 0.000000 
#    z 0.000000 0.000000 3.875340 
# 
# 
# High freq. dielectric constant tensor:
#      x y z
#    x 1.789150 0.000000 0.000000 
#    y 0.000000 1.816830 0.000000 
#    z 0.000000 0.000000 1.816140 
# 
# From -- ./inp_files/12978.got.cif
#   From: 2010.03.12/outbox.cif.g09.slc.cpg/sg36_7_cif.got.tgz:12978.got - 2010.04.14 02:13:53.
