data_PCOD8176113
_publ_section_title
;
Structure prediction by ZEFSAII (Michael W. Deem and Ramdas Pophale) SiO2 
 PCOD8176113
Probable space group: C M C 21
;
_chemical_formula_sum "Si O2"
_cell_formula_units_Z 40
_cell_length_a 13.447630
_cell_length_b 13.657482
_cell_length_c 9.288169
_cell_angle_alpha 90.000000
_cell_angle_beta 90.000000
_cell_angle_gamma 90.000000
_cell_volume 1705.872221
_symmetry_space_group_name_H-M "C M C 21"
_symmetry_group_IT_number 36
_symmetry_cell_setting 'orthorhombic'
loop_
_space_group_symop_operation_xyz
x,y,z
-x,-y,1/2+z
x,-y,1/2+z
-x,y,z
1/2+x,1/2+y,z
1/2-x,1/2-y,1/2+z
1/2+x,1/2-y,1/2+z
1/2-x,1/2+y,z
loop_
_atom_site_type_symbol
_atom_site_label
_atom_site_fract_x
_atom_site_fract_y
_atom_site_fract_z
Si Si1 0.614536 0.388615 0.011190
Si Si2 0.614535 0.111388 0.675658
Si Si3 0.615172 0.081385 0.342956
Si Si4 0.884828 0.081389 0.843894
Si Si5 0.247035 0.750002 0.843423
O O1 0.500000 0.361562 0.988536
O O2 0.636834 0.420243 0.173706
O O3 0.647476 0.477155 0.907335
O O4 0.678386 0.293625 0.969955
O O5 0.500000 0.138445 0.698307
O O6 0.636834 0.079756 0.513144
O O7 0.678387 0.206377 0.716890
O O8 0.647473 0.022851 0.779517
O O9 0.500000 0.102984 0.306910
O O10 0.681461 0.167264 0.272774
O O11 0.818540 0.167270 0.914074
O O12 0.000000 0.102986 0.879940
#
# Coordination Sequence:
#
# PCOD8176113 Si02
#       5
#     8   8   8   8   8
#     4  10  23  42  63  90 125 164 206 254 309 368
#     4  10  23  42  63  90 125 164 206 254 309 368
#     4  10  23  42  63  90 125 164 206 254 309 368
#     4  10  23  42  63  90 125 164 206 254 309 368
#     4  12  22  36  62  94 124 160 202 252 304 366
#
# _framework density 23.448415000000001
#
# number of rings (size 3 to 8) (size 9 to 14) (size 15 to 20)
#    0.000    1.600    0.000    3.600    0.000    6.400 
#    0.000    8.000    0.000    0.000    0.000    0.000 
#    0.000    0.000    0.000    0.000    0.000    0.000 
#
# Total GULP energy -248103.257688 kJ/mol
# GULP energy per Si atom -12405.162884 kJ/mol
# Density = 2.339505 g / cm^3
# Si number density = 23.448415 Si / 1000 Ang^3
#
#
#
# Elastic Constant Matrix: (Units=GPa)
#
#
# Indices 1 2 3 4 5 6 
#
# 1 108.2878 93.0043 68.8445 0.0000 0.0000 0.0000
# 2 93.0043 148.1026 77.3362 0.0000 0.0000 0.0000
# 3 68.8445 77.3362 98.9061 0.0000 0.0000 0.0000
# 4 0.0000 0.0000 0.0000 29.4719 0.0000 0.0000
# 5 0.0000 0.0000 0.0000 0.0000 32.1298 0.0000
# 6 0.0000 0.0000 0.0000 0.0000 0.0000 61.5490
#
#
#
# Elastic Compliance Matrix: (Units=1/GPa)
#
#
# Indices 1 2 3 4 5 6 
#
# 1 0.023334 -0.010431 -0.008086 0.000000 0.000000 0.000000
# 2 -0.010431 0.016074 -0.005308 0.000000 0.000000 0.000000
# 3 -0.008086 -0.005308 0.019889 0.000000 0.000000 0.000000
# 4 0.000000 0.000000 0.000000 0.033931 0.000000 0.000000
# 5 0.000000 0.000000 0.000000 0.000000 0.031124 0.000000
# 6 0.000000 0.000000 0.000000 0.000000 0.000000 0.016247
#
#
# Mechanical properties :
#
#
# Convention : Reuss Voigt Hill
#
# Bulk Modulus (GPa) = 85.85257 92.62961 89.24109
# Shear Modulus (GPa) = 26.02395 32.37090 29.19742
#
# Velocity S-wave (km/s) = 3.33504 3.71956 3.53253
# Velocity P-wave (km/s) = 7.17794 7.61815 7.40132
#
# Compressibility (1/GPa) = 0.01164787
#
# Stress axis : x y z
#
# Youngs Moduli (GPa) = 42.85640 62.21180 50.27833
#
# Poissons Ratio (x) = 0.64892 0.40654
# Poissons Ratio (y) = 0.44702 0.26689
# Poissons Ratio (z) = 0.34652 0.33023
#
# Static dielectric constant tensor:
#      x y z
#    x 4.698100 0.000000 0.000000 
#    y 0.000000 4.410050 0.000000 
#    z 0.000000 0.000000 3.932840 
# 
# 
# High freq. dielectric constant tensor:
#      x y z
#    x 1.966060 0.000000 0.000000 
#    y 0.000000 1.925210 0.000000 
#    z 0.000000 0.000000 1.910290 
# 
# From -- ./inp_files/3800.got.cif
#   From: 2010.03.12/outbox.cif.g09.slc.cpg/sg36_2_cif.got.tgz:3800.got - 2010.04.14 02:13:53.
