data_PCOD8176310
_publ_section_title
;
Structure prediction by ZEFSAII (Michael W. Deem and Ramdas Pophale) SiO2 
 PCOD8176310
Probable space group: C M C 21
;
_chemical_formula_sum "Si O2"
_cell_formula_units_Z 40
_cell_length_a 13.504718
_cell_length_b 9.749707
_cell_length_c 13.604584
_cell_angle_alpha 90.000000
_cell_angle_beta 90.000000
_cell_angle_gamma 90.000000
_cell_volume 1791.275355
_symmetry_space_group_name_H-M "C M C 21"
_symmetry_group_IT_number 36
_symmetry_cell_setting 'orthorhombic'
loop_
_space_group_symop_operation_xyz
x,y,z
-x,-y,1/2+z
x,-y,1/2+z
-x,y,z
1/2+x,1/2+y,z
1/2-x,1/2-y,1/2+z
1/2+x,1/2-y,1/2+z
1/2-x,1/2+y,z
loop_
_atom_site_type_symbol
_atom_site_label
_atom_site_fract_x
_atom_site_fract_y
_atom_site_fract_z
Si Si1 0.000000 0.685138 0.862761
Si Si2 0.661573 0.379000 0.788379
Si Si3 0.500000 0.131117 0.401867
Si Si4 0.286618 0.847705 0.595687
Si Si5 0.000000 0.276986 0.593768
Si Si6 0.500000 0.602195 0.768189
Si Si7 0.789688 0.393355 0.974298
O O1 0.903632 0.743181 0.807056
O O2 0.000000 0.520842 0.853316
O O3 0.000000 0.740314 0.975481
O O4 0.710365 0.375041 0.682146
O O5 0.596686 0.516551 0.798646
O O6 0.750464 0.380634 0.864578
O O7 0.500000 0.250001 0.320569
O O8 0.594602 0.146202 0.472856
O O9 0.401516 0.857995 0.629420
O O10 0.268507 0.697645 0.552491
O O11 0.270028 0.951963 0.506996
O O12 0.000000 0.129878 0.650327
#
# Coordination Sequence:
#
# PCOD8176310 Si02
#       7
#     4   8   4   8   4   4   8
#     4  11  24  49  73 100 153 186 243 300 364 428
#     4  11  26  47  70 107 141 191 237 306 362 437
#     4  12  24  44  71 106 140 193 236 304 363 428
#     4  12  26  43  75 102 144 190 239 296 367 429
#     4  12  22  48  69 107 139 193 234 304 352 434
#     4  11  26  43  75 103 142 184 245 296 365 440
#     4  12  24  45  69 104 144 186 243 297 362 431
#
# _framework density 22.330458
#
# number of rings (size 3 to 8) (size 9 to 14) (size 15 to 20)
#    0.000    0.400    4.000    3.600    0.000    8.000 
#    0.000    0.000    0.000    0.000    0.000    0.000 
#    0.000    0.000    0.000    0.000    0.000    0.000 
#
# Total GULP energy -248068.138931 kJ/mol
# GULP energy per Si atom -12403.406947 kJ/mol
# Density = 2.227963 g / cm^3
# Si number density = 22.330458 Si / 1000 Ang^3
#
#
#
# Elastic Constant Matrix: (Units=GPa)
#
#
# Indices 1 2 3 4 5 6 
#
# 1 143.6774 44.3962 47.9463 0.0000 0.0000 0.0000
# 2 44.3962 124.6126 21.1564 0.0000 0.0000 0.0000
# 3 47.9463 21.1564 86.7273 0.0000 0.0000 0.0000
# 4 0.0000 0.0000 0.0000 32.1742 0.0000 0.0000
# 5 0.0000 0.0000 0.0000 0.0000 40.6545 0.0000
# 6 0.0000 0.0000 0.0000 0.0000 0.0000 17.4630
#
#
#
# Elastic Compliance Matrix: (Units=1/GPa)
#
#
# Indices 1 2 3 4 5 6 
#
# 1 0.009241 -0.002530 -0.004491 0.000000 0.000000 0.000000
# 2 -0.002530 0.009064 -0.000813 0.000000 0.000000 0.000000
# 3 -0.004491 -0.000813 0.014212 0.000000 0.000000 0.000000
# 4 0.000000 0.000000 0.000000 0.031081 0.000000 0.000000
# 5 0.000000 0.000000 0.000000 0.000000 0.024598 0.000000
# 6 0.000000 0.000000 0.000000 0.000000 0.000000 0.057264
#
#
# Mechanical properties :
#
#
# Convention : Reuss Voigt Hill
#
# Bulk Modulus (GPa) = 59.35112 64.66836 62.00974
# Shear Modulus (GPa) = 29.98638 34.15955 32.07296
#
# Velocity S-wave (km/s) = 3.66846 3.91542 3.79395
# Velocity P-wave (km/s) = 6.67681 7.03301 6.85722
#
# Compressibility (1/GPa) = 0.01684888
#
# Stress axis : x y z
#
# Youngs Moduli (GPa) = 108.21899 110.32563 70.36463
#
# Poissons Ratio (x) = 0.27908 0.31604
# Poissons Ratio (y) = 0.27375 0.05718
# Poissons Ratio (z) = 0.48606 0.08965
#
# Static dielectric constant tensor:
#      x y z
#    x 4.298660 0.000000 0.000000 
#    y 0.000000 4.019580 0.000000 
#    z 0.000000 0.000000 3.896880 
# 
# 
# High freq. dielectric constant tensor:
#      x y z
#    x 1.903070 0.000000 0.000000 
#    y 0.000000 1.879740 0.000000 
#    z 0.000000 0.000000 1.876230 
# 
# From -- ./inp_files/11975.got.cif
#   From: 2010.03.12/outbox.cif.g09.slc.cpg/sg36_6_cif.got.tgz:11975.got - 2010.04.14 02:13:53.
