data_PCOD8176582
_publ_section_title
;
Structure prediction by ZEFSAII (Michael W. Deem and Ramdas Pophale) SiO2 
 PCOD8176582
Probable space group: C C C 2
;
_chemical_formula_sum "Si O2"
_cell_formula_units_Z 52
_cell_length_a 25.123834
_cell_length_b 11.612748
_cell_length_c 8.525097
_cell_angle_alpha 90.000000
_cell_angle_beta 90.000000
_cell_angle_gamma 90.000000
_cell_volume 2487.254620
_symmetry_space_group_name_H-M "C C C 2"
_symmetry_group_IT_number 37
_symmetry_cell_setting 'orthorhombic'
loop_
_space_group_symop_operation_xyz
x,y,z
-x,-y,z
-x,y,1/2+z
x,-y,1/2+z
1/2+x,1/2+y,z
1/2-x,1/2-y,z
1/2-x,1/2+y,1/2+z
1/2+x,1/2-y,1/2+z
loop_
_atom_site_type_symbol
_atom_site_label
_atom_site_fract_x
_atom_site_fract_y
_atom_site_fract_z
Si Si1 0.181029 0.639958 0.483030
Si Si2 0.059122 0.128786 0.830155
Si Si3 0.559142 0.869681 0.975902
Si Si4 0.000000 0.500000 0.229585
Si Si5 0.500000 0.500000 0.077179
Si Si6 0.750000 0.250000 0.020464
Si Si7 0.767541 0.456512 0.790990
Si Si8 0.181595 0.855527 0.281074
O O1 0.119890 0.630180 0.534138
O O2 0.219526 0.599180 0.622937
O O3 0.189788 0.555222 0.334679
O O4 0.194406 0.771519 0.430023
O O5 0.042297 0.249769 0.901280
O O6 0.119277 0.121321 0.770335
O O7 0.020445 0.105042 0.683854
O O8 0.049769 0.036975 0.969089
O O9 0.549571 0.962298 0.837928
O O10 0.521340 0.895150 0.123571
O O11 0.799879 0.210446 0.124841
O O12 0.769897 0.355724 0.917177
O O13 0.710239 0.520417 0.793555
#
# Coordination Sequence:
#
# PCOD8176582 Si02
#       8
#     8   8   8   4   4   4   8   8
#     4  11  22  41  65  90 131 171 212 267 322 379
#     4  10  23  41  67  92 131 164 216 262 320 375
#     4  10  21  38  62  93 123 166 206 261 315 377
#     4  10  20  36  64  92 126 162 208 254 322 376
#     4  10  22  44  64  98 126 170 208 270 316 376
#     4  12  26  40  64  96 128 172 212 268 332 372
#     4  12  24  41  63  92 133 166 217 264 316 396
#     4  11  24  45  65  95 131 176 214 270 319 389
#
# _framework density 20.906583999999999
#
# number of rings (size 3 to 8) (size 9 to 14) (size 15 to 20)
#    0.000    1.231    3.077    1.846    4.308    1.231 
#    2.769    1.538    0.000    0.000    0.000    0.000 
#    0.000    0.000    0.000    0.000    0.000    0.000 
#
# Total GULP energy -322378.092198 kJ/mol
# GULP energy per Si atom -12399.157392 kJ/mol
# Density = 2.085900 g / cm^3
# Si number density = 20.906584 Si / 1000 Ang^3
#
#
#
# Elastic Constant Matrix: (Units=GPa)
#
#
# Indices 1 2 3 4 5 6 
#
# 1 103.1008 37.8872 46.6810 0.0000 0.0000 0.0000
# 2 37.8872 96.1764 41.6825 0.0000 0.0000 0.0000
# 3 46.6810 41.6825 111.9010 0.0000 0.0000 0.0000
# 4 0.0000 0.0000 0.0000 38.5419 0.0000 0.0000
# 5 0.0000 0.0000 0.0000 0.0000 -14.1575 0.0000
# 6 0.0000 0.0000 0.0000 0.0000 0.0000 33.3712
#
#
#
# Elastic Compliance Matrix: (Units=1/GPa)
#
#
# Indices 1 2 3 4 5 6 
#
# 1 0.012752 -0.003241 -0.004112 0.000000 0.000000 0.000000
# 2 -0.003241 0.013223 -0.003573 0.000000 0.000000 0.000000
# 3 -0.004112 -0.003573 0.011983 0.000000 0.000000 0.000000
# 4 0.000000 0.000000 0.000000 0.025946 0.000000 0.000000
# 5 0.000000 0.000000 0.000000 0.000000 -0.070634 0.000000
# 6 0.000000 0.000000 0.000000 0.000000 0.000000 0.029966
#
#
# Mechanical properties :
#
#
# Convention : Reuss Voigt Hill
#
# Bulk Modulus (GPa) = 62.09513 62.63105 62.36309
# Shear Modulus (GPa) = 99.09102 23.87963 61.48533
#
# Velocity S-wave (km/s) = 6.89202 3.38332 5.42894
# Velocity P-wave (km/s) = 9.64878 6.72942 8.31817
#
# Compressibility (1/GPa) = 0.01610432
#
# Stress axis : x y z
#
# Youngs Moduli (GPa) = 78.41707 75.62523 83.45079
#
# Poissons Ratio (x) = 0.24512 0.34319
# Poissons Ratio (y) = 0.25417 0.29820
# Poissons Ratio (z) = 0.32249 0.27024
#
# Static dielectric constant tensor:
#      x y z
#    x 3.642810 0.000000 0.000000 
#    y 0.000000 3.985130 0.000000 
#    z 0.000000 0.000000 3.884560 
# 
# 
# High freq. dielectric constant tensor:
#      x y z
#    x 1.810520 0.000000 0.000000 
#    y 0.000000 1.826850 0.000000 
#    z 0.000000 0.000000 1.827190 
# 
# From -- ./inp_files/3023.got.cif
#   From: 2010.03.12/outbox.cif.g09.slc.cpg/sg37_2_cif.got.tgz:3023.got - 2010.04.14 02:25:27.
