data_PCOD8176315
_publ_section_title
;
Structure prediction by ZEFSAII (Michael W. Deem and Ramdas Pophale) SiO2 
 PCOD8176315
Probable space group: C M C 21
;
_chemical_formula_sum "Si O2"
_cell_formula_units_Z 56
_cell_length_a 22.175414
_cell_length_b 8.326190
_cell_length_c 14.308781
_cell_angle_alpha 90.000000
_cell_angle_beta 90.000000
_cell_angle_gamma 90.000000
_cell_volume 2641.926252
_symmetry_space_group_name_H-M "C M C 21"
_symmetry_group_IT_number 36
_symmetry_cell_setting 'orthorhombic'
loop_
_space_group_symop_operation_xyz
x,y,z
-x,-y,1/2+z
x,-y,1/2+z
-x,y,z
1/2+x,1/2+y,z
1/2-x,1/2-y,1/2+z
1/2+x,1/2-y,1/2+z
1/2-x,1/2+y,z
loop_
_atom_site_type_symbol
_atom_site_label
_atom_site_fract_x
_atom_site_fract_y
_atom_site_fract_z
Si Si1 0.672826 0.961099 0.700460
Si Si2 0.373935 0.500000 0.593903
Si Si3 0.294943 0.310543 0.741547
Si Si4 0.068149 0.765584 0.447603
Si Si5 0.568149 0.265584 0.240202
Si Si6 0.672826 0.038901 0.487345
Si Si7 0.705057 0.310543 0.946258
O O1 0.724452 0.827350 0.716028
O O2 0.610333 0.891167 0.738691
O O3 0.690725 0.123083 0.753184
O O4 0.663920 0.000000 0.593903
O O5 0.333054 0.389446 0.659246
O O6 0.415227 0.392391 0.527576
O O7 0.415227 0.607609 0.660229
O O8 0.333054 0.610554 0.528559
O O9 0.308000 0.388879 0.843903
O O10 0.073220 0.844517 0.343903
O O11 0.110333 0.608833 0.449114
O O12 0.000000 0.707414 0.466445
O O13 0.500000 0.207414 0.221360
O O14 0.724452 0.172650 0.471777
O O15 0.690725 0.876917 0.434621
#
# Coordination Sequence:
#
# PCOD8176315 Si02
#       7
#     8   8   8   8   8   8   8
#     4  12  23  45  66  96 134 168 215 268 326 387
#     4  12  23  44  66  98 133 164 218 270 320 388
#     4  12  24  40  68  98 130 169 209 267 331 389
#     4  11  25  45  68  94 130 176 220 266 320 380
#     4  11  25  45  68  94 130 176 220 266 320 380
#     4  12  23  45  66  96 134 168 215 268 326 387
#     4  12  24  40  68  98 130 169 209 267 331 389
#
# _framework density 21.196656999999998
#
# number of rings (size 3 to 8) (size 9 to 14) (size 15 to 20)
#    0.000    0.286    4.286    6.429    0.000    0.571 
#    0.000    0.000    0.000    5.143    0.000    0.000 
#    0.000    0.000    0.000    0.000    0.000    0.000 
#
# Total GULP energy -347227.356063 kJ/mol
# GULP energy per Si atom -12400.977002 kJ/mol
# Density = 2.114841 g / cm^3
# Si number density = 21.196657 Si / 1000 Ang^3
#
#
#
# Elastic Constant Matrix: (Units=GPa)
#
#
# Indices 1 2 3 4 5 6 
#
# 1 189.1291 79.3329 70.0074 0.0000 0.0000 0.0000
# 2 79.3329 110.7233 28.6951 0.0000 0.0000 0.0000
# 3 70.0074 28.6951 163.0218 0.0000 0.0000 0.0000
# 4 0.0000 0.0000 0.0000 21.9641 0.0000 0.0000
# 5 0.0000 0.0000 0.0000 0.0000 22.8704 0.0000
# 6 0.0000 0.0000 0.0000 0.0000 0.0000 26.5953
#
#
#
# Elastic Compliance Matrix: (Units=1/GPa)
#
#
# Indices 1 2 3 4 5 6 
#
# 1 0.008578 -0.005440 -0.002726 0.000000 0.000000 0.000000
# 2 -0.005440 0.012913 0.000063 0.000000 0.000000 0.000000
# 3 -0.002726 0.000063 0.007294 0.000000 0.000000 0.000000
# 4 0.000000 0.000000 0.000000 0.045529 0.000000 0.000000
# 5 0.000000 0.000000 0.000000 0.000000 0.043725 0.000000
# 6 0.000000 0.000000 0.000000 0.000000 0.000000 0.037601
#
#
# Mechanical properties :
#
#
# Convention : Reuss Voigt Hill
#
# Bulk Modulus (GPa) = 79.49800 90.99389 85.24594
# Shear Modulus (GPa) = 28.40295 33.27521 30.83908
#
# Velocity S-wave (km/s) = 3.66454 3.96641 3.81846
# Velocity P-wave (km/s) = 7.44926 7.99988 7.72948
#
# Compressibility (1/GPa) = 0.01257893
#
# Stress axis : x y z
#
# Youngs Moduli (GPa) = 116.57216 77.44275 137.10228
#
# Poissons Ratio (x) = 0.42127 0.37379
# Poissons Ratio (y) = 0.63413 -0.00866
# Poissons Ratio (z) = 0.31782 -0.00489
#
# Static dielectric constant tensor:
#      x y z
#    x 3.817700 0.000000 0.000000 
#    y 0.000000 4.036830 0.000000 
#    z 0.000000 0.000000 4.347100 
# 
# 
# High freq. dielectric constant tensor:
#      x y z
#    x 1.825590 0.000000 0.000000 
#    y 0.000000 1.820560 0.000000 
#    z 0.000000 0.000000 1.868550 
# 
# From -- ./inp_files/12822.got.cif
#   From: 2010.03.12/outbox.cif.g09.slc.cpg/sg36_7_cif.got.tgz:12822.got - 2010.04.14 02:13:53.
