data_PCOD8176078
_publ_section_title
;
Structure prediction by ZEFSAII (Michael W. Deem and Ramdas Pophale) SiO2 
 PCOD8176078
Probable space group: C M C 21
;
_chemical_formula_sum "Si O2"
_cell_formula_units_Z 48
_cell_length_a 8.445558
_cell_length_b 23.641338
_cell_length_c 11.715629
_cell_angle_alpha 90.000000
_cell_angle_beta 90.000000
_cell_angle_gamma 90.000000
_cell_volume 2339.192761
_symmetry_space_group_name_H-M "C M C 21"
_symmetry_group_IT_number 36
_symmetry_cell_setting 'orthorhombic'
loop_
_space_group_symop_operation_xyz
x,y,z
-x,-y,1/2+z
x,-y,1/2+z
-x,y,z
1/2+x,1/2+y,z
1/2-x,1/2-y,1/2+z
1/2+x,1/2-y,1/2+z
1/2-x,1/2+y,z
loop_
_atom_site_type_symbol
_atom_site_label
_atom_site_fract_x
_atom_site_fract_y
_atom_site_fract_z
Si Si1 0.182616 0.036764 0.435620
Si Si2 0.318854 0.915547 0.476024
Si Si3 0.815706 0.359981 0.073641
Si Si4 0.318641 0.325409 0.312359
Si Si5 0.319648 0.608116 0.214010
Si Si6 0.183055 0.792317 0.874769
O O1 0.255635 0.080975 0.523990
O O2 0.200830 0.059013 0.307217
O O3 0.000000 0.026589 0.468021
O O4 0.278844 0.979393 0.444269
O O5 0.500000 0.903329 0.444060
O O6 0.207662 0.874048 0.404862
O O7 0.295457 0.905146 0.610063
O O8 0.720828 0.348837 0.188483
O O9 0.000000 0.363679 0.102062
O O10 0.785170 0.308845 0.985415
O O11 0.500000 0.305864 0.316504
O O12 0.209016 0.272246 0.341942
O O13 0.500000 0.610244 0.169759
O O14 0.268656 0.668231 0.267989
O O15 0.000000 0.803601 0.905203
#
# Coordination Sequence:
#
# PCOD8176078 Si02
#       6
#     8   8   8   8   8   8
#     4  10  22  43  68  93 126 168 213 259 315 377
#     4  12  26  41  63  95 131 166 212 265 315 374
#     4  11  23  42  67  96 129 166 211 261 318 378
#     4  12  26  43  65  93 129 170 214 263 316 373
#     4   9  21  42  67  92 124 165 209 258 318 378
#     4  10  22  43  68  95 127 165 213 262 316 378
#
# _framework density 20.519901000000001
#
# number of rings (size 3 to 8) (size 9 to 14) (size 15 to 20)
#    0.000    1.333    0.000    6.500    4.667    4.000 
#    0.000    0.000    0.000    0.000    0.000    0.000 
#    0.000    0.000    0.000    0.000    0.000    0.000 
#
# Total GULP energy -297780.399100 kJ/mol
# GULP energy per Si atom -12407.516629 kJ/mol
# Density = 2.047320 g / cm^3
# Si number density = 20.519901 Si / 1000 Ang^3
#
#
#
# Elastic Constant Matrix: (Units=GPa)
#
#
# Indices 1 2 3 4 5 6 
#
# 1 86.8496 10.4625 20.9857 0.0000 0.0000 0.0000
# 2 10.4625 110.0092 53.0067 0.0000 0.0000 0.0000
# 3 20.9857 53.0067 96.1797 0.0000 0.0000 0.0000
# 4 0.0000 0.0000 0.0000 19.2263 0.0000 0.0000
# 5 0.0000 0.0000 0.0000 0.0000 30.3914 0.0000
# 6 0.0000 0.0000 0.0000 0.0000 0.0000 33.2302
#
#
#
# Elastic Compliance Matrix: (Units=1/GPa)
#
#
# Indices 1 2 3 4 5 6 
#
# 1 0.012157 0.000166 -0.002744 0.000000 0.000000 0.000000
# 2 0.000166 0.012379 -0.006859 0.000000 0.000000 0.000000
# 3 -0.002744 -0.006859 0.014776 0.000000 0.000000 0.000000
# 4 0.000000 0.000000 0.000000 0.052012 0.000000 0.000000
# 5 0.000000 0.000000 0.000000 0.000000 0.032904 0.000000
# 6 0.000000 0.000000 0.000000 0.000000 0.000000 0.030093
#
#
# Mechanical properties :
#
#
# Convention : Reuss Voigt Hill
#
# Bulk Modulus (GPa) = 48.92664 51.32761 50.12712
# Shear Modulus (GPa) = 27.77658 30.47517 29.12588
#
# Velocity S-wave (km/s) = 3.68318 3.85795 3.77158
# Velocity P-wave (km/s) = 6.47943 6.70171 6.59151
#
# Compressibility (1/GPa) = 0.02043876
#
# Stress axis : x y z
#
# Youngs Moduli (GPa) = 82.25565 80.78136 67.67796
#
# Poissons Ratio (x) = -0.01341 0.18571
# Poissons Ratio (y) = -0.01365 0.46418
# Poissons Ratio (z) = 0.22572 0.55405
#
# Static dielectric constant tensor:
#      x y z
#    x 3.769620 0.000000 0.000000 
#    y 0.000000 3.706820 0.000000 
#    z 0.000000 0.000000 3.712030 
# 
# 
# High freq. dielectric constant tensor:
#      x y z
#    x 1.811100 0.000000 0.000000 
#    y 0.000000 1.810170 0.000000 
#    z 0.000000 0.000000 1.808060 
# 
# From -- ./inp_files/6749.got.cif
#   From: 2010.03.12/outbox.cif.g09.slc.cpg/sg36_4_cif.got.tgz:6749.got - 2010.04.14 02:13:53.
