data_PCOD8176389
_publ_section_title
;
Structure prediction by ZEFSAII (Michael W. Deem and Ramdas Pophale) SiO2 
 PCOD8176389
Probable space group: C C C 2
;
_chemical_formula_sum "Si O2"
_cell_formula_units_Z 52
_cell_length_a 14.695809
_cell_length_b 19.721272
_cell_length_c 9.786328
_cell_angle_alpha 90.000000
_cell_angle_beta 90.000000
_cell_angle_gamma 90.000000
_cell_volume 2836.274037
_symmetry_space_group_name_H-M "C C C 2"
_symmetry_group_IT_number 37
_symmetry_cell_setting 'orthorhombic'
loop_
_space_group_symop_operation_xyz
x,y,z
-x,-y,z
-x,y,1/2+z
x,-y,1/2+z
1/2+x,1/2+y,z
1/2-x,1/2-y,z
1/2-x,1/2+y,1/2+z
1/2+x,1/2-y,1/2+z
loop_
_atom_site_type_symbol
_atom_site_label
_atom_site_fract_x
_atom_site_fract_y
_atom_site_fract_z
Si Si1 0.490942 0.798828 0.298850
Si Si2 0.751984 0.854516 0.011347
Si Si3 0.399640 0.252262 0.051467
Si Si4 0.178900 0.616249 0.231198
Si Si5 0.130419 0.386939 0.443844
Si Si6 0.176107 0.460124 0.194923
Si Si7 0.000000 0.500000 0.568190
O O1 0.521851 0.757024 0.164891
O O2 0.439342 0.746984 0.398402
O O3 0.425650 0.862992 0.264298
O O4 0.577228 0.823452 0.384399
O O5 0.670128 0.809646 0.071654
O O6 0.847617 0.824275 0.063343
O O7 0.737602 0.930622 0.070103
O O8 0.746810 0.852254 0.844273
O O9 0.198407 0.536656 0.232332
O O10 0.191815 0.638840 0.072652
O O11 0.197906 0.414967 0.327873
O O12 0.061763 0.448565 0.481334
O O13 0.068639 0.453919 0.157834
#
# Coordination Sequence:
#
# PCOD8176389 Si02
#       7
#     8   8   8   8   8   8   4
#     4  11  18  34  51  80  98 145 189 225 263 315
#     4  10  21  37  50  77 114 154 175 215 291 321
#     4  10  21  36  57  71 112 147 187 229 266 336
#     4  10  20  30  49  78 111 141 177 218 270 328
#     4  11  17  26  44  72 106 136 179 214 244 312
#     4  11  19  29  48  77 112 146 177 210 268 327
#     4  10  18  26  42  78 112 150 166 212 256 322
#
# _framework density 18.333914
#
# number of rings (size 3 to 8) (size 9 to 14) (size 15 to 20)
#    0.000    1.538    3.077    6.923    0.000    0.000 
#    0.000    1.538    3.385    0.000    0.000    3.231 
#    0.000    0.000    0.000    0.000    0.000    0.000 
#
# Total GULP energy -322146.926317 kJ/mol
# GULP energy per Si atom -12390.266397 kJ/mol
# Density = 1.829218 g / cm^3
# Si number density = 18.333914 Si / 1000 Ang^3
#
#
#
# Elastic Constant Matrix: (Units=GPa)
#
#
# Indices 1 2 3 4 5 6 
#
# 1 38.7495 35.3377 28.4295 0.0000 0.0000 0.0000
# 2 35.3377 66.0535 29.2594 0.0000 0.0000 0.0000
# 3 28.4295 29.2594 120.7018 0.0000 0.0000 0.0000
# 4 0.0000 0.0000 0.0000 20.6999 0.0000 0.0000
# 5 0.0000 0.0000 0.0000 0.0000 13.4695 0.0000
# 6 0.0000 0.0000 0.0000 0.0000 0.0000 21.7740
#
#
#
# Elastic Compliance Matrix: (Units=1/GPa)
#
#
# Indices 1 2 3 4 5 6 
#
# 1 0.054558 -0.026322 -0.006470 0.000000 0.000000 0.000000
# 2 -0.026322 0.029660 -0.000990 0.000000 0.000000 0.000000
# 3 -0.006470 -0.000990 0.010049 0.000000 0.000000 0.000000
# 4 0.000000 0.000000 0.000000 0.048309 0.000000 0.000000
# 5 0.000000 0.000000 0.000000 0.000000 0.074242 0.000000
# 6 0.000000 0.000000 0.000000 0.000000 0.000000 0.045926
#
#
# Mechanical properties :
#
#
# Convention : Reuss Voigt Hill
#
# Bulk Modulus (GPa) = 37.44890 45.72866 41.58878
# Shear Modulus (GPa) = 14.74024 20.02054 17.38039
#
# Velocity S-wave (km/s) = 2.83854 3.30812 3.08229
# Velocity P-wave (km/s) = 5.58690 6.29188 5.94984
#
# Compressibility (1/GPa) = 0.02670305
#
# Stress axis : x y z
#
# Youngs Moduli (GPa) = 18.32924 33.71583 99.51542
#
# Poissons Ratio (x) = 0.88746 0.64382
# Poissons Ratio (y) = 0.48246 0.09853
# Poissons Ratio (z) = 0.11858 0.03338
#
# Static dielectric constant tensor:
#      x y z
#    x 2.901680 0.000000 0.000000 
#    y 0.000000 3.092110 0.000000 
#    z 0.000000 0.000000 3.812380 
# 
# 
# High freq. dielectric constant tensor:
#      x y z
#    x 1.641700 0.000000 0.000000 
#    y 0.000000 1.682730 0.000000 
#    z 0.000000 0.000000 1.737820 
# 
# From -- ./inp_files/3599.got.cif
#   From: 2010.03.12/outbox.cif.g09.slc.cpg/sg37_2_cif.got.tgz:3599.got - 2010.04.14 02:25:27.
