data_PCOD8176140
_publ_section_title
;
Structure prediction by ZEFSAII (Michael W. Deem and Ramdas Pophale) SiO2 
 PCOD8176140
Probable space group: C M C 21
;
_chemical_formula_sum "Si O2"
_cell_formula_units_Z 64
_cell_length_a 26.431252
_cell_length_b 9.982228
_cell_length_c 10.606828
_cell_angle_alpha 90.000000
_cell_angle_beta 90.000000
_cell_angle_gamma 90.000000
_cell_volume 2798.535027
_symmetry_space_group_name_H-M "C M C 21"
_symmetry_group_IT_number 36
_symmetry_cell_setting 'orthorhombic'
loop_
_space_group_symop_operation_xyz
x,y,z
-x,-y,1/2+z
x,-y,1/2+z
-x,y,z
1/2+x,1/2+y,z
1/2-x,1/2-y,1/2+z
1/2+x,1/2-y,1/2+z
1/2-x,1/2+y,z
loop_
_atom_site_type_symbol
_atom_site_label
_atom_site_fract_x
_atom_site_fract_y
_atom_site_fract_z
Si Si1 0.941337 0.073099 0.375000
Si Si2 0.058815 0.230498 0.863396
Si Si3 0.610181 0.036615 0.489113
Si Si4 0.156953 0.828224 0.766913
Si Si5 0.797749 0.202220 0.513393
Si Si6 0.091860 0.263393 0.582514
Si Si7 0.240061 0.938445 0.609231
Si Si8 0.170659 0.474934 0.249437
O O1 0.903767 0.146143 0.273109
O O2 0.936038 0.140290 0.512905
O O3 0.000000 0.082968 0.329067
O O4 0.921296 0.920553 0.385171
O O5 0.072354 0.282688 0.723812
O O6 0.000000 0.226425 0.877252
O O7 0.076472 0.329786 0.975955
O O8 0.641156 0.036423 0.617571
O O9 0.579150 0.896152 0.497322
O O10 0.643273 0.049764 0.363039
O O11 0.183012 0.891101 0.643892
O O12 0.175099 0.677267 0.791822
O O13 0.183590 0.883807 0.892731
O O14 0.847743 0.241148 0.593494
O O15 0.763853 0.339044 0.502923
O O16 0.760837 0.094773 0.576685
O O17 0.277593 0.941235 0.730260
#
# Coordination Sequence:
#
# PCOD8176140 Si02
#       8
#     8   8   8   8   8   8   8   8
#     4  10  23  46  71 100 143 189 238 303 364 426
#     4  11  25  44  71 108 138 184 247 302 367 432
#     4  12  24  46  72  99 145 187 238 302 360 436
#     4  11  25  42  69 103 136 184 245 284 358 435
#     4  11  24  41  63  98 141 182 236 284 358 426
#     4  11  22  46  71 100 143 189 240 301 362 436
#     4  12  24  40  65  99 140 186 228 294 350 424
#     4  12  24  45  69 103 143 187 239 294 359 427
#
# _framework density 22.869109000000002
#
# number of rings (size 3 to 8) (size 9 to 14) (size 15 to 20)
#    0.000    0.750    6.250    1.125    3.500    4.000 
#    0.000    1.875    0.000    0.000    0.000    0.000 
#    0.000    0.000    0.000    0.000    0.000    0.000 
#
# Total GULP energy -396439.455779 kJ/mol
# GULP energy per Si atom -12388.732993 kJ/mol
# Density = 2.281706 g / cm^3
# Si number density = 22.869109 Si / 1000 Ang^3
#
#
#
# Elastic Constant Matrix: (Units=GPa)
#
#
# Indices 1 2 3 4 5 6 
#
# 1 84.3488 30.1411 20.6217 0.0000 0.0000 0.0000
# 2 30.1411 107.6718 -2.6433 0.0000 0.0000 0.0000
# 3 20.6217 -2.6433 64.9950 0.0000 0.0000 0.0000
# 4 0.0000 0.0000 0.0000 25.3160 0.0000 0.0000
# 5 0.0000 0.0000 0.0000 0.0000 28.1499 0.0000
# 6 0.0000 0.0000 0.0000 0.0000 0.0000 30.5770
#
#
#
# Elastic Compliance Matrix: (Units=1/GPa)
#
#
# Indices 1 2 3 4 5 6 
#
# 1 0.014517 -0.004181 -0.004776 0.000000 0.000000 0.000000
# 2 -0.004181 0.010501 0.001754 0.000000 0.000000 0.000000
# 3 -0.004776 0.001754 0.016973 0.000000 0.000000 0.000000
# 4 0.000000 0.000000 0.000000 0.039501 0.000000 0.000000
# 5 0.000000 0.000000 0.000000 0.000000 0.035524 0.000000
# 6 0.000000 0.000000 0.000000 0.000000 0.000000 0.032704
#
#
# Mechanical properties :
#
#
# Convention : Reuss Voigt Hill
#
# Bulk Modulus (GPa) = 36.25345 39.25053 37.75199
# Shear Modulus (GPa) = 28.84808 30.73496 29.79152
#
# Velocity S-wave (km/s) = 3.55553 3.66997 3.61321
# Velocity P-wave (km/s) = 5.72213 5.92947 5.82672
#
# Compressibility (1/GPa) = 0.02758358
#
# Stress axis : x y z
#
# Youngs Moduli (GPa) = 68.88336 95.22915 58.91882
#
# Poissons Ratio (x) = 0.39817 0.28140
# Poissons Ratio (y) = 0.28801 -0.10332
# Poissons Ratio (z) = 0.32900 -0.16700
#
# Static dielectric constant tensor:
#      x y z
#    x 4.107800 0.000000 0.000000 
#    y 0.000000 4.798980 0.000000 
#    z 0.000000 0.000000 4.025170 
# 
# 
# High freq. dielectric constant tensor:
#      x y z
#    x 1.895790 0.000000 0.000000 
#    y 0.000000 1.918850 0.000000 
#    z 0.000000 0.000000 1.889110 
# 
# From -- ./inp_files/9735.got.cif
#   From: 2010.03.12/outbox.cif.g09.slc.cpg/sg36_5_cif.got.tgz:9735.got - 2010.04.14 02:13:53.
