data_PCOD8176990
_publ_section_title
;
Structure prediction by ZEFSAII (Michael W. Deem and Ramdas Pophale) SiO2 
 PCOD8176990
Probable space group: C C C 2
;
_chemical_formula_sum "Si O2"
_cell_formula_units_Z 44
_cell_length_a 17.035734
_cell_length_b 13.011413
_cell_length_c 8.910158
_cell_angle_alpha 90.000000
_cell_angle_beta 90.000000
_cell_angle_gamma 90.000000
_cell_volume 1975.016452
_symmetry_space_group_name_H-M "C C C 2"
_symmetry_group_IT_number 37
_symmetry_cell_setting 'orthorhombic'
loop_
_space_group_symop_operation_xyz
x,y,z
-x,-y,z
-x,y,1/2+z
x,-y,1/2+z
1/2+x,1/2+y,z
1/2-x,1/2-y,z
1/2-x,1/2+y,1/2+z
1/2+x,1/2-y,1/2+z
loop_
_atom_site_type_symbol
_atom_site_label
_atom_site_fract_x
_atom_site_fract_y
_atom_site_fract_z
Si Si1 0.698985 0.644498 0.674990
Si Si2 0.473848 0.614133 0.080040
Si Si3 0.099680 0.599686 0.834628
Si Si4 0.097031 0.171472 0.285250
Si Si5 0.767745 0.032780 0.868953
Si Si6 0.000000 0.500000 0.587660
O O1 0.750000 0.750000 0.669982
O O2 0.605628 0.660029 0.656060
O O3 0.710826 0.586729 0.835019
O O4 0.726035 0.565897 0.542645
O O5 0.500000 0.500000 0.130540
O O6 0.548304 0.683418 0.130731
O O7 0.463398 0.617703 0.901698
O O8 0.121953 0.718643 0.849176
O O9 0.179594 0.539137 0.810316
O O10 0.045462 0.580734 0.691181
O O11 0.058949 0.566044 0.988117
O O12 0.175535 0.104396 0.267407
#
# Coordination Sequence:
#
# PCOD8176990 Si02
#       6
#     8   8   8   8   8   4
#     4  11  25  44  68  99 138 182 223 283 355 402
#     4  11  22  40  65  94 136 166 223 275 333 396
#     4  11  22  42  63  91 128 170 224 271 342 398
#     4  11  23  38  65  95 128 175 216 281 338 402
#     4  11  23  42  67  94 133 173 225 281 341 414
#     4  10  24  40  64  90 128 176 224 282 326 428
#
# _framework density 22.278296000000001
#
# number of rings (size 3 to 8) (size 9 to 14) (size 15 to 20)
#    0.000    1.091    1.818    5.455    2.545    2.909 
#    0.000    6.364    0.000    0.000    0.000    0.000 
#    0.000    0.000    0.000    0.000    0.000    0.000 
#
# Total GULP energy -272723.345630 kJ/mol
# GULP energy per Si atom -12396.515710 kJ/mol
# Density = 2.222759 g / cm^3
# Si number density = 22.278296 Si / 1000 Ang^3
#
#
#
# Elastic Constant Matrix: (Units=GPa)
#
#
# Indices 1 2 3 4 5 6 
#
# 1 118.3653 -0.2646 29.5239 0.0000 0.0000 0.0000
# 2 -0.2646 78.0424 21.9896 0.0000 0.0000 0.0000
# 3 29.5239 21.9896 81.6021 0.0000 0.0000 0.0000
# 4 0.0000 0.0000 0.0000 28.0854 0.0000 0.0000
# 5 0.0000 0.0000 0.0000 0.0000 105.6457 0.0000
# 6 0.0000 0.0000 0.0000 0.0000 0.0000 40.3275
#
#
#
# Elastic Compliance Matrix: (Units=1/GPa)
#
#
# Indices 1 2 3 4 5 6 
#
# 1 0.009368 0.001068 -0.003677 0.000000 0.000000 0.000000
# 2 0.001068 0.013988 -0.004156 0.000000 0.000000 0.000000
# 3 -0.003677 -0.004156 0.014705 0.000000 0.000000 0.000000
# 4 0.000000 0.000000 0.000000 0.035606 0.000000 0.000000
# 5 0.000000 0.000000 0.000000 0.000000 0.009466 0.000000
# 6 0.000000 0.000000 0.000000 0.000000 0.000000 0.024797
#
#
# Mechanical properties :
#
#
# Convention : Reuss Voigt Hill
#
# Bulk Modulus (GPa) = 40.76497 42.27860 41.52178
# Shear Modulus (GPa) = 38.56942 49.92910 44.24926
#
# Velocity S-wave (km/s) = 4.16535 4.73922 4.46152
# Velocity P-wave (km/s) = 6.43982 6.99754 6.72447
#
# Compressibility (1/GPa) = 0.02453087
#
# Stress axis : x y z
#
# Youngs Moduli (GPa) = 106.74641 71.48926 68.00473
#
# Poissons Ratio (x) = -0.07634 0.25006
# Poissons Ratio (y) = -0.11399 0.28261
# Poissons Ratio (z) = 0.39252 0.29709
#
# Static dielectric constant tensor:
#      x y z
#    x 4.109410 0.000000 0.000000 
#    y 0.000000 3.868390 0.000000 
#    z 0.000000 0.000000 3.992170 
# 
# 
# High freq. dielectric constant tensor:
#      x y z
#    x 1.892120 0.000000 0.000000 
#    y 0.000000 1.869740 0.000000 
#    z 0.000000 0.000000 1.869250 
# 
# From -- ./inp_files/3436.got.cif
#   From: 2010.03.12/outbox.cif.g09.slc.cpg/sg37_2_cif.got.tgz:3436.got - 2010.04.14 02:25:27.
