data_PCOD8176107
_publ_section_title
;
Structure prediction by ZEFSAII (Michael W. Deem and Ramdas Pophale) SiO2 
 PCOD8176107
Probable space group: C M C 21
;
_chemical_formula_sum "Si O2"
_cell_formula_units_Z 56
_cell_length_a 28.327730
_cell_length_b 5.600404
_cell_length_c 13.914879
_cell_angle_alpha 90.000000
_cell_angle_beta 90.000000
_cell_angle_gamma 90.000000
_cell_volume 2207.550085
_symmetry_space_group_name_H-M "C M C 21"
_symmetry_group_IT_number 36
_symmetry_cell_setting 'orthorhombic'
loop_
_space_group_symop_operation_xyz
x,y,z
-x,-y,1/2+z
x,-y,1/2+z
-x,y,z
1/2+x,1/2+y,z
1/2-x,1/2-y,1/2+z
1/2+x,1/2-y,1/2+z
1/2-x,1/2+y,z
loop_
_atom_site_type_symbol
_atom_site_label
_atom_site_fract_x
_atom_site_fract_y
_atom_site_fract_z
Si Si1 0.637719 0.366156 0.161280
Si Si2 0.888082 0.500000 0.804401
Si Si3 0.637718 0.633843 0.447522
Si Si4 0.730083 0.617041 0.943293
Si Si5 0.446763 0.309725 0.663139
Si Si6 0.553237 0.690276 0.945664
Si Si7 0.269917 0.382960 0.665509
O O1 0.646713 0.172870 0.244415
O O2 0.583670 0.448699 0.171742
O O3 0.673299 0.589974 0.178142
O O4 0.647093 0.258585 0.054401
O O5 0.853287 0.672872 0.864386
O O6 0.923592 0.613779 0.729024
O O7 0.923592 0.386221 0.879780
O O8 0.673299 0.410025 0.430660
O O9 0.583670 0.551301 0.437060
O O10 0.747321 0.870481 0.897010
O O11 0.745596 0.626701 0.054401
O O12 0.500000 0.369650 0.695857
O O13 0.445606 0.211846 0.554401
O O14 0.500000 0.630354 0.912945
O O15 0.252679 0.129520 0.711792
#
# Coordination Sequence:
#
# PCOD8176107 Si02
#       7
#     8   8   8   8   8   8   8
#     4  10  23  41  64  93 131 173 218 272 331 398
#     4  12  23  38  64  96 132 168 216 270 331 396
#     4  10  23  41  64  93 131 173 218 272 331 398
#     4   9  19  37  65  96 129 175 228 279 336 398
#     4  10  23  43  66  93 128 169 215 269 332 400
#     4  10  23  43  66  93 128 169 215 269 332 400
#     4   9  19  37  65  96 129 175 228 279 336 398
#
# _framework density 25.367488999999999
#
# number of rings (size 3 to 8) (size 9 to 14) (size 15 to 20)
#    0.000    2.000    0.000    2.143    4.000    3.429 
#    0.000    4.286    0.000    0.000    0.000    0.000 
#    0.000    0.000    0.000    0.000    0.000    0.000 
#
# Total GULP energy -347064.748993 kJ/mol
# GULP energy per Si atom -12395.169607 kJ/mol
# Density = 2.530975 g / cm^3
# Si number density = 25.367489 Si / 1000 Ang^3
#
#
#
# Elastic Constant Matrix: (Units=GPa)
#
#
# Indices 1 2 3 4 5 6 
#
# 1 117.0410 31.2917 -3.4781 0.0000 0.0000 0.0000
# 2 31.2917 124.0926 35.4362 0.0000 0.0000 0.0000
# 3 -3.4781 35.4362 60.2219 0.0000 0.0000 0.0000
# 4 0.0000 0.0000 0.0000 26.4022 0.0000 0.0000
# 5 0.0000 0.0000 0.0000 0.0000 -10.6775 0.0000
# 6 0.0000 0.0000 0.0000 0.0000 0.0000 34.4939
#
#
#
# Elastic Compliance Matrix: (Units=1/GPa)
#
#
# Indices 1 2 3 4 5 6 
#
# 1 0.009427 -0.003044 0.002336 0.000000 0.000000 0.000000
# 2 -0.003044 0.010669 -0.006454 0.000000 0.000000 0.000000
# 3 0.002336 -0.006454 0.020538 0.000000 0.000000 0.000000
# 4 0.000000 0.000000 0.000000 0.037876 0.000000 0.000000
# 5 0.000000 0.000000 0.000000 0.000000 -0.093655 0.000000
# 6 0.000000 0.000000 0.000000 0.000000 0.000000 0.028991
#
#
# Mechanical properties :
#
#
# Convention : Reuss Voigt Hill
#
# Bulk Modulus (GPa) = 38.00883 47.53945 42.77414
# Shear Modulus (GPa) = 135.35481 25.91744 80.63613
#
# Velocity S-wave (km/s) = 7.31255 3.19984 5.64413
# Velocity P-wave (km/s) = 9.29052 5.69499 7.70541
#
# Compressibility (1/GPa) = 0.02630967
#
# Stress axis : x y z
#
# Youngs Moduli (GPa) = 106.07459 93.72840 48.69076
#
# Poissons Ratio (x) = 0.28533 -0.11373
# Poissons Ratio (y) = 0.32292 0.31424
# Poissons Ratio (z) = -0.24777 0.60491
#
# Static dielectric constant tensor:
#      x y z
#    x 4.558470 0.000000 0.000000 
#    y 0.000000 4.438530 0.000000 
#    z 0.000000 0.000000 4.750330 
# 
# 
# High freq. dielectric constant tensor:
#      x y z
#    x 2.016350 0.000000 0.000000 
#    y 0.000000 1.992970 0.000000 
#    z 0.000000 0.000000 2.021960 
# 
# From -- ./inp_files/13161.got.cif
#   From: 2010.03.12/outbox.cif.g09.slc.cpg/sg36_7_cif.got.tgz:13161.got - 2010.04.14 02:13:53.
