data_PCOD8176284
_publ_section_title
;
Structure prediction by ZEFSAII (Michael W. Deem and Ramdas Pophale) SiO2 
 PCOD8176284
Probable space group: C M C 21
;
_chemical_formula_sum "Si O2"
_cell_formula_units_Z 32
_cell_length_a 12.923577
_cell_length_b 20.153667
_cell_length_c 5.101031
_cell_angle_alpha 90.000000
_cell_angle_beta 90.000000
_cell_angle_gamma 90.000000
_cell_volume 1328.601615
_symmetry_space_group_name_H-M "C M C 21"
_symmetry_group_IT_number 36
_symmetry_cell_setting 'orthorhombic'
loop_
_space_group_symop_operation_xyz
x,y,z
-x,-y,1/2+z
x,-y,1/2+z
-x,y,z
1/2+x,1/2+y,z
1/2-x,1/2-y,1/2+z
1/2+x,1/2-y,1/2+z
1/2-x,1/2+y,z
loop_
_atom_site_type_symbol
_atom_site_label
_atom_site_fract_x
_atom_site_fract_y
_atom_site_fract_z
Si Si1 0.176780 0.686767 0.395660
Si Si2 0.678646 0.459193 0.346599
Si Si3 0.115275 0.608330 0.886671
Si Si4 0.616134 0.678981 0.649657
O O1 0.127019 0.666401 0.672524
O O2 0.301891 0.678644 0.410066
O O3 0.146732 0.762664 0.349565
O O4 0.134576 0.639436 0.170549
O O5 0.643771 0.489750 0.622008
O O6 0.803231 0.450218 0.331089
O O7 0.621977 0.389079 0.313515
O O8 0.000000 0.578079 0.876099
O O9 0.500000 0.689159 0.540024
#
# Coordination Sequence:
#
# PCOD8176284 Si02
#       4
#     8   8   8   8
#     4  11  24  43  69 107 135 162 225 286 336 411
#     4  11  25  43  62  94 135 176 229 271 305 386
#     4  11  23  43  71 101 137 175 215 279 349 398
#     4  11  24  45  72  98 135 181 219 274 346 399
#
# _framework density 24.085473
#
# number of rings (size 3 to 8) (size 9 to 14) (size 15 to 20)
#    0.000    1.000    0.000    8.250    0.000    4.000 
#    0.000   27.500    0.000    0.000    0.000    0.000 
#    0.000    0.000    0.000    0.000    0.000    0.000 
#
# Total GULP energy -198462.627650 kJ/mol
# GULP energy per Si atom -12403.914228 kJ/mol
# Density = 2.403065 g / cm^3
# Si number density = 24.085473 Si / 1000 Ang^3
#
#
#
# Elastic Constant Matrix: (Units=GPa)
#
#
# Indices 1 2 3 4 5 6 
#
# 1 163.1601 -0.8504 23.8576 0.0000 0.0000 0.0000
# 2 -0.8504 91.4957 2.5636 0.0000 0.0000 0.0000
# 3 23.8576 2.5636 77.2105 0.0000 0.0000 0.0000
# 4 0.0000 0.0000 0.0000 29.3834 0.0000 0.0000
# 5 0.0000 0.0000 0.0000 0.0000 26.7867 0.0000
# 6 0.0000 0.0000 0.0000 0.0000 0.0000 9.4303
#
#
#
# Elastic Compliance Matrix: (Units=1/GPa)
#
#
# Indices 1 2 3 4 5 6 
#
# 1 0.006420 0.000115 -0.001988 0.000000 0.000000 0.000000
# 2 0.000115 0.010942 -0.000399 0.000000 0.000000 0.000000
# 3 -0.001988 -0.000399 0.013579 0.000000 0.000000 0.000000
# 4 0.000000 0.000000 0.000000 0.034033 0.000000 0.000000
# 5 0.000000 0.000000 0.000000 0.000000 0.037332 0.000000
# 6 0.000000 0.000000 0.000000 0.000000 0.000000 0.106041
#
#
# Mechanical properties :
#
#
# Convention : Reuss Voigt Hill
#
# Bulk Modulus (GPa) = 37.88094 42.55645 40.21869
# Shear Modulus (GPa) = 22.55416 33.53979 28.04697
#
# Velocity S-wave (km/s) = 3.06342 3.73571 3.41615
# Velocity P-wave (km/s) = 5.31738 6.02617 5.68284
#
# Compressibility (1/GPa) = 0.02639850
#
# Stress axis : x y z
#
# Youngs Moduli (GPa) = 155.75878 91.39329 73.64307
#
# Poissons Ratio (x) = -0.01054 0.14638
# Poissons Ratio (y) = -0.01797 0.02938
# Poissons Ratio (z) = 0.30959 0.03646
#
# Static dielectric constant tensor:
#      x y z
#    x 4.610580 0.000000 0.000000 
#    y 0.000000 4.262590 0.000000 
#    z 0.000000 0.000000 4.192900 
# 
# 
# High freq. dielectric constant tensor:
#      x y z
#    x 1.956850 0.000000 0.000000 
#    y 0.000000 1.955940 0.000000 
#    z 0.000000 0.000000 1.956150 
# 
# From -- ./inp_files/658.got.cif
#   From: 2010.03.12/outbox.cif.g09.slc.cpg/sg36_1_cif.got.tgz:658.got - 2010.04.14 02:13:53.
