data_PCOD8176352
_publ_section_title
;
Structure prediction by ZEFSAII (Michael W. Deem and Ramdas Pophale) SiO2 
 PCOD8176352
Probable space group: C M C 21
;
_chemical_formula_sum "Si O2"
_cell_formula_units_Z 32
_cell_length_a 9.000000
_cell_length_b 24.000000
_cell_length_c 15.000000
_cell_angle_alpha 90.000000
_cell_angle_beta 90.000000
_cell_angle_gamma 90.000000
_cell_volume 3240.000000
_symmetry_space_group_name_H-M "C M C 21"
_symmetry_group_IT_number 36
_symmetry_cell_setting 'orthorhombic'
loop_
_space_group_symop_operation_xyz
x,y,z
-x,-y,1/2+z
x,-y,1/2+z
-x,y,z
1/2+x,1/2+y,z
1/2-x,1/2-y,1/2+z
1/2+x,1/2-y,1/2+z
1/2-x,1/2+y,z
loop_
_atom_site_type_symbol
_atom_site_label
_atom_site_fract_x
_atom_site_fract_y
_atom_site_fract_z
Si Si1 0.333597 0.467880 0.605310
Si Si2 0.171971 0.454324 0.428195
Si Si3 0.167930 0.629006 0.779700
Si Si4 0.675146 0.832053 0.834851
Si Si5 0.172785 0.748202 0.707969
Si Si6 0.172699 0.691436 0.530093
Si Si7 0.835484 0.094753 0.615889
Si Si8 0.677965 0.550216 0.309016
O O1 0.500000 0.442764 0.598825
O O2 0.232203 0.441547 0.527757
O O3 0.336223 0.532569 0.579997
O O4 0.271546 0.458060 0.705479
O O5 0.191690 0.394490 0.379073
O O6 0.257616 0.502006 0.372744
O O7 0.000000 0.472054 0.433985
O O8 0.203695 0.694590 0.770750
O O9 0.274629 0.593820 0.716136
O O10 0.000000 0.618443 0.747211
O O11 0.500000 0.842879 0.824747
O O12 0.732516 0.798588 0.748656
O O13 0.759681 0.890619 0.841701
O O14 0.708608 0.795985 0.925955
O O15 0.228545 0.736063 0.605331
O O16 0.000000 0.765426 0.709545
O O17 0.237849 0.630835 0.549358
O O18 0.000000 0.685803 0.546813
O O19 0.000000 0.120348 0.617369
O O20 0.500000 0.548879 0.317110
#
# Coordination Sequence:
#
# PCOD8176352 Si02
#       8
#     8   8   8   8   8   8   8   8
#     4  10  22  37  54  82 119 159 197 234 287 355
#     4  11  22  36  59  89 120 155 195 242 294 349
#     4   9  19  36  57  81 112 147 185 232 291 345
#     4  11  23  40  61  89 118 151 198 249 297 348
#     4   9  19  39  62  82 112 153 191 235 292 354
#     4   9  20  38  59  84 116 152 193 238 295 353
#     4  10  18  31  55  84 111 144 192 240 278 329
#     4  11  23  41  61  85 122 163 199 240 294 357
#
# _framework density 9.8765429999999999
#
# number of rings (size 3 to 8) (size 9 to 14) (size 15 to 20)
#    0.000    2.000    1.250    3.000    0.000    7.500 
#    2.250    0.000    0.000    0.000    0.000    0.000 
#    0.000    0.000    0.000    0.000    0.000    0.000 
#
# Total GULP energy -396643.962284 kJ/mol
# GULP energy per Si atom -12395.123821 kJ/mol
# Density = 0.985406 g / cm^3
# Si number density = 9.876543 Si / 1000 Ang^3
#
#
#
# Elastic Constant Matrix: (Units=GPa)
#
#
# Indices 1 2 3 4 5 6 
#
# 1 53.2844 15.2120 38.5995 0.0000 0.0000 0.0000
# 2 15.2120 49.3197 14.7204 0.0000 0.0000 0.0000
# 3 38.5995 14.7204 124.3761 0.0000 0.0000 0.0000
# 4 0.0000 0.0000 0.0000 28.3672 0.0000 0.0000
# 5 0.0000 0.0000 0.0000 0.0000 34.5229 0.0000
# 6 0.0000 0.0000 0.0000 0.0000 0.0000 27.9101
#
#
#
# Elastic Compliance Matrix: (Units=1/GPa)
#
#
# Indices 1 2 3 4 5 6 
#
# 1 0.025691 -0.005747 -0.007293 0.000000 0.000000 0.000000
# 2 -0.005747 0.022304 -0.000856 0.000000 0.000000 0.000000
# 3 -0.007293 -0.000856 0.010405 0.000000 0.000000 0.000000
# 4 0.000000 0.000000 0.000000 0.035252 0.000000 0.000000
# 5 0.000000 0.000000 0.000000 0.000000 0.028966 0.000000
# 6 0.000000 0.000000 0.000000 0.000000 0.000000 0.035829
#
#
# Mechanical properties :
#
#
# Convention : Reuss Voigt Hill
#
# Bulk Modulus (GPa) = 32.67205 40.44933 36.56069
# Shear Modulus (GPa) = 25.45274 28.72325 27.08799
#
# Velocity S-wave (km/s) = 3.59353 3.81742 3.70716
# Velocity P-wave (km/s) = 5.81326 6.32078 6.07232
#
# Compressibility (1/GPa) = 0.03060721
#
# Stress axis : x y z
#
# Youngs Moduli (GPa) = 38.92415 44.83479 96.10987
#
# Poissons Ratio (x) = 0.25768 0.70091
# Poissons Ratio (y) = 0.22371 0.08228
# Poissons Ratio (z) = 0.28387 0.03838
#
# Static dielectric constant tensor:
#      x y z
#    x 3.662460 0.000000 0.000000 
#    y 0.000000 3.389440 0.000000 
#    z 0.000000 0.000000 3.920050 
# 
# 
# High freq. dielectric constant tensor:
#      x y z
#    x 1.773030 0.000000 0.000000 
#    y 0.000000 1.749810 0.000000 
#    z 0.000000 0.000000 1.785640 
# 
# From -- ./inp_files/10987.got.cif
#   From: 2010.03.12/outbox.ucp.g09.slc.cvg/sg36_6_cif.got.tgz:10987.got - 2010.05.04 21:11:55.
