data_PCOD8176321
_publ_section_title
;
Structure prediction by ZEFSAII (Michael W. Deem and Ramdas Pophale) SiO2 
 PCOD8176321
Probable space group: C M C 21
;
_chemical_formula_sum "Si O2"
_cell_formula_units_Z 48
_cell_length_a 18.047421
_cell_length_b 13.271261
_cell_length_c 8.878795
_cell_angle_alpha 90.000000
_cell_angle_beta 90.000000
_cell_angle_gamma 90.000000
_cell_volume 2126.578254
_symmetry_space_group_name_H-M "C M C 21"
_symmetry_group_IT_number 36
_symmetry_cell_setting 'orthorhombic'
loop_
_space_group_symop_operation_xyz
x,y,z
-x,-y,1/2+z
x,-y,1/2+z
-x,y,z
1/2+x,1/2+y,z
1/2-x,1/2-y,1/2+z
1/2+x,1/2-y,1/2+z
1/2-x,1/2+y,z
loop_
_atom_site_type_symbol
_atom_site_label
_atom_site_fract_x
_atom_site_fract_y
_atom_site_fract_z
Si Si1 0.584912 0.314787 0.051960
Si Si2 0.812719 0.908276 0.814884
Si Si3 0.184138 0.245272 0.068992
Si Si4 0.916769 0.588637 0.051633
Si Si5 0.300496 0.641625 0.770059
Si Si6 0.143868 0.591632 0.380787
O O1 0.500000 0.350657 0.056561
O O2 0.591868 0.201328 0.986456
O O3 0.618839 0.314549 0.221002
O O4 0.633016 0.394607 0.956432
O O5 0.847719 0.836128 0.685987
O O6 0.728324 0.874613 0.845625
O O7 0.807750 0.021995 0.760979
O O8 0.242182 0.320746 0.146499
O O9 0.222173 0.179002 0.935964
O O10 0.119870 0.318544 0.997353
O O11 0.903618 0.587707 0.230325
O O12 0.000000 0.548665 0.024093
O O13 0.860193 0.516702 0.962690
#
# Coordination Sequence:
#
# PCOD8176321 Si02
#       6
#     8   8   8   8   8   8
#     4  11  25  49  71  99 151 193 234 299 363 436
#     4  12  27  43  71 108 139 189 247 291 354 431
#     4  12  24  42  70 106 146 178 238 303 357 423
#     4  11  26  48  72 108 146 187 236 298 379 442
#     4  12  24  44  69 103 141 186 241 297 356 425
#     4  12  25  42  75 102 144 183 232 302 358 429
#
# _framework density 22.571469
#
# number of rings (size 3 to 8) (size 9 to 14) (size 15 to 20)
#    0.000    0.333    5.000    2.500    9.333    0.667 
#    0.000    1.667    0.000    0.000    0.000    0.000 
#    0.000    0.000    0.000    0.000    0.000    0.000 
#
# Total GULP energy -297524.262056 kJ/mol
# GULP energy per Si atom -12396.844252 kJ/mol
# Density = 2.252010 g / cm^3
# Si number density = 22.571469 Si / 1000 Ang^3
#
#
#
# Elastic Constant Matrix: (Units=GPa)
#
#
# Indices 1 2 3 4 5 6 
#
# 1 47.3704 -0.9731 9.6187 0.0000 0.0000 0.0000
# 2 -0.9731 127.2990 28.6967 0.0000 0.0000 0.0000
# 3 9.6187 28.6967 95.6682 0.0000 0.0000 0.0000
# 4 0.0000 0.0000 0.0000 49.5219 0.0000 0.0000
# 5 0.0000 0.0000 0.0000 0.0000 25.7171 0.0000
# 6 0.0000 0.0000 0.0000 0.0000 0.0000 25.6921
#
#
#
# Elastic Compliance Matrix: (Units=1/GPa)
#
#
# Indices 1 2 3 4 5 6 
#
# 1 0.021609 0.000702 -0.002383 0.000000 0.000000 0.000000
# 2 0.000702 0.008448 -0.002605 0.000000 0.000000 0.000000
# 3 -0.002383 -0.002605 0.011474 0.000000 0.000000 0.000000
# 4 0.000000 0.000000 0.000000 0.020193 0.000000 0.000000
# 5 0.000000 0.000000 0.000000 0.000000 0.038885 0.000000
# 6 0.000000 0.000000 0.000000 0.000000 0.000000 0.038923
#
#
# Mechanical properties :
#
#
# Convention : Reuss Voigt Hill
#
# Bulk Modulus (GPa) = 30.34049 38.33580 34.33815
# Shear Modulus (GPa) = 31.42911 35.71923 33.57417
#
# Velocity S-wave (km/s) = 3.73557 3.98237 3.86094
# Velocity P-wave (km/s) = 5.66367 6.17793 5.92638
#
# Compressibility (1/GPa) = 0.03295926
#
# Stress axis : x y z
#
# Youngs Moduli (GPa) = 46.27793 118.37034 87.15568
#
# Poissons Ratio (x) = -0.08315 0.20772
# Poissons Ratio (y) = -0.03251 0.22702
# Poissons Ratio (z) = 0.11029 0.30832
#
# Static dielectric constant tensor:
#      x y z
#    x 3.768150 0.000000 0.000000 
#    y 0.000000 4.258760 0.000000 
#    z 0.000000 0.000000 4.192410 
# 
# 
# High freq. dielectric constant tensor:
#      x y z
#    x 1.848870 0.000000 0.000000 
#    y 0.000000 1.914190 0.000000 
#    z 0.000000 0.000000 1.901580 
# 
# From -- ./inp_files/4664.got.cif
#   From: 2010.03.12/outbox.cif.g09.slc.cpg/sg36_3_cif.got.tgz:4664.got - 2010.04.14 02:13:53.
