data_PCOD8176287
_publ_section_title
;
Structure prediction by ZEFSAII (Michael W. Deem and Ramdas Pophale) SiO2 
 PCOD8176287
Probable space group: C M C 21
;
_chemical_formula_sum "Si O2"
_cell_formula_units_Z 64
_cell_length_a 29.745955
_cell_length_b 9.473225
_cell_length_c 10.563591
_cell_angle_alpha 90.000000
_cell_angle_beta 90.000000
_cell_angle_gamma 90.000000
_cell_volume 2976.715624
_symmetry_space_group_name_H-M "C M C 21"
_symmetry_group_IT_number 36
_symmetry_cell_setting 'orthorhombic'
loop_
_space_group_symop_operation_xyz
x,y,z
-x,-y,1/2+z
x,-y,1/2+z
-x,y,z
1/2+x,1/2+y,z
1/2-x,1/2-y,1/2+z
1/2+x,1/2-y,1/2+z
1/2-x,1/2+y,z
loop_
_atom_site_type_symbol
_atom_site_label
_atom_site_fract_x
_atom_site_fract_y
_atom_site_fract_z
Si Si1 0.271796 0.103864 0.007380
Si Si2 0.325776 0.217387 0.206863
Si Si3 0.682952 0.468446 0.655420
Si Si4 0.588410 0.392713 0.595111
Si Si5 0.948595 0.923815 0.325023
Si Si6 0.053035 0.417649 0.075486
Si Si7 0.245401 0.864136 0.857226
Si Si8 0.916855 0.383744 0.803149
O O1 0.316330 0.101800 0.095267
O O2 0.226075 0.041288 0.066253
O O3 0.266960 0.269059 0.976878
O O4 0.277674 0.998804 0.889196
O O5 0.337961 0.374258 0.160635
O O6 0.276680 0.234530 0.270648
O O7 0.364484 0.159502 0.297723
O O8 0.642427 0.372272 0.601900
O O9 0.698705 0.411945 0.792696
O O10 0.573380 0.491182 0.710409
O O11 0.575915 0.459468 0.458387
O O12 0.564883 0.242160 0.611198
O O13 0.946695 0.757288 0.295179
O O14 0.000000 0.970554 0.338737
O O15 0.071796 0.518010 0.184849
O O16 0.000000 0.436043 0.066625
O O17 0.074055 0.459730 0.938251
#
# Coordination Sequence:
#
# PCOD8176287 Si02
#       8
#     8   8   8   8   8   8   8   8
#     4  11  24  40  67  91 138 180 223 279 337 403
#     4  11  24  42  62 102 130 174 233 276 342 401
#     4  11  24  43  64 100 133 176 229 284 340 400
#     4  11  25  41  73 100 139 180 226 288 350 417
#     4  11  23  44  69 103 137 179 227 284 353 426
#     4  11  25  48  70 103 141 181 228 293 358 417
#     4  11  24  40  68  90 135 183 220 281 337 405
#     4  11  25  44  73  99 137 185 230 289 345 423
#
# _framework density 21.500205999999999
#
# number of rings (size 3 to 8) (size 9 to 14) (size 15 to 20)
#    0.000    1.000    3.750    3.000    7.000    2.000 
#    0.000    2.500    0.000    0.000    0.000    0.000 
#    0.000    0.000    0.000    0.000    0.000    0.000 
#
# Total GULP energy -396700.796783 kJ/mol
# GULP energy per Si atom -12396.899899 kJ/mol
# Density = 2.145127 g / cm^3
# Si number density = 21.500206 Si / 1000 Ang^3
#
#
#
# Elastic Constant Matrix: (Units=GPa)
#
#
# Indices 1 2 3 4 5 6 
#
# 1 102.5964 18.3251 35.5106 0.0000 0.0000 0.0000
# 2 18.3251 74.2775 56.7733 0.0000 0.0000 0.0000
# 3 35.5106 56.7733 148.7010 0.0000 0.0000 0.0000
# 4 0.0000 0.0000 0.0000 44.6419 0.0000 0.0000
# 5 0.0000 0.0000 0.0000 0.0000 38.8790 0.0000
# 6 0.0000 0.0000 0.0000 0.0000 0.0000 25.2717
#
#
#
# Elastic Compliance Matrix: (Units=1/GPa)
#
#
# Indices 1 2 3 4 5 6 
#
# 1 0.010674 -0.000967 -0.002180 0.000000 0.000000 0.000000
# 2 -0.000967 0.019098 -0.007061 0.000000 0.000000 0.000000
# 3 -0.002180 -0.007061 0.009941 0.000000 0.000000 0.000000
# 4 0.000000 0.000000 0.000000 0.022400 0.000000 0.000000
# 5 0.000000 0.000000 0.000000 0.000000 0.025721 0.000000
# 6 0.000000 0.000000 0.000000 0.000000 0.000000 0.039570
#
#
# Mechanical properties :
#
#
# Convention : Reuss Voigt Hill
#
# Bulk Modulus (GPa) = 51.81826 60.75478 56.28652
# Shear Modulus (GPa) = 32.41421 36.08958 34.25189
#
# Velocity S-wave (km/s) = 3.88702 4.10148 3.99569
# Velocity P-wave (km/s) = 6.65574 7.12381 6.89375
#
# Compressibility (1/GPa) = 0.01929822
#
# Stress axis : x y z
#
# Youngs Moduli (GPa) = 93.68426 52.36023 100.59190
#
# Poissons Ratio (x) = 0.05065 0.21926
# Poissons Ratio (y) = 0.09063 0.71025
# Poissons Ratio (z) = 0.20420 0.36970
#
# Static dielectric constant tensor:
#      x y z
#    x 3.849320 0.000000 0.000000 
#    y 0.000000 3.853810 0.000000 
#    z 0.000000 0.000000 4.131140 
# 
# 
# High freq. dielectric constant tensor:
#      x y z
#    x 1.846540 0.000000 0.000000 
#    y 0.000000 1.838520 0.000000 
#    z 0.000000 0.000000 1.855780 
# 
# From -- ./inp_files/9737.got.cif
#   From: 2010.03.12/outbox.cif.g09.slc.cpg/sg36_5_cif.got.tgz:9737.got - 2010.04.14 02:13:53.
