data_PCOD8176209
_publ_section_title
;
Structure prediction by ZEFSAII (Michael W. Deem and Ramdas Pophale) SiO2 
 PCOD8176209
Probable space group: C M C 21
;
_chemical_formula_sum "Si O2"
_cell_formula_units_Z 48
_cell_length_a 31.494726
_cell_length_b 8.817328
_cell_length_c 8.233216
_cell_angle_alpha 90.000000
_cell_angle_beta 90.000000
_cell_angle_gamma 90.000000
_cell_volume 2286.358562
_symmetry_space_group_name_H-M "C M C 21"
_symmetry_group_IT_number 36
_symmetry_cell_setting 'orthorhombic'
loop_
_space_group_symop_operation_xyz
x,y,z
-x,-y,1/2+z
x,-y,1/2+z
-x,y,z
1/2+x,1/2+y,z
1/2-x,1/2-y,1/2+z
1/2+x,1/2-y,1/2+z
1/2-x,1/2+y,z
loop_
_atom_site_type_symbol
_atom_site_label
_atom_site_fract_x
_atom_site_fract_y
_atom_site_fract_z
Si Si1 0.545960 0.298930 0.301980
Si Si2 0.131224 0.125970 0.270594
Si Si3 0.789882 0.709784 0.900298
Si Si4 0.545981 0.630157 0.426677
Si Si5 0.288238 0.112869 0.268003
Si Si6 0.866814 0.792383 0.400073
O O1 0.500000 0.214284 0.324213
O O2 0.544691 0.449727 0.410336
O O3 0.587237 0.208692 0.369839
O O4 0.553783 0.336264 0.114471
O O5 0.165854 0.202975 0.385450
O O6 0.085079 0.194224 0.320708
O O7 0.133805 0.944740 0.291600
O O8 0.140944 0.165524 0.085862
O O9 0.784545 0.652296 0.081330
O O10 0.752095 0.824720 0.863539
O O11 0.788398 0.568488 0.777985
O O12 0.500000 0.697774 0.369480
O O13 0.331034 0.176838 0.345888
#
# Coordination Sequence:
#
# PCOD8176209 Si02
#       6
#     8   8   8   8   8   8
#     4   9  16  27  46  75 110 147 187 232 279 326
#     4  11  21  35  56  84 116 152 191 233 281 331
#     4  12  25  43  63  86 114 146 185 229 279 334
#     4   9  16  27  46  75 110 147 187 232 279 326
#     4  12  25  43  63  86 114 146 185 229 279 334
#     4  11  21  35  56  84 116 152 191 233 281 331
#
# _framework density 20.994081999999999
#
# number of rings (size 3 to 8) (size 9 to 14) (size 15 to 20)
#    0.000    1.333    0.000   10.000    0.000    2.000 
#    0.000    0.000    0.000    1.000    0.000    0.000 
#    0.000    0.000    0.000    0.000    0.000    0.000 
#
# Total GULP energy -297529.538844 kJ/mol
# GULP energy per Si atom -12397.064119 kJ/mol
# Density = 2.094630 g / cm^3
# Si number density = 20.994082 Si / 1000 Ang^3
#
#
#
# Elastic Constant Matrix: (Units=GPa)
#
#
# Indices 1 2 3 4 5 6 
#
# 1 173.9572 31.4658 10.2611 0.0000 0.0000 0.0000
# 2 31.4658 45.2783 -12.4924 0.0000 0.0000 0.0000
# 3 10.2611 -12.4924 59.6392 0.0000 0.0000 0.0000
# 4 0.0000 0.0000 0.0000 22.2917 0.0000 0.0000
# 5 0.0000 0.0000 0.0000 0.0000 35.1654 0.0000
# 6 0.0000 0.0000 0.0000 0.0000 0.0000 19.9868
#
#
#
# Elastic Compliance Matrix: (Units=1/GPa)
#
#
# Indices 1 2 3 4 5 6 
#
# 1 0.006863 -0.005408 -0.002314 0.000000 0.000000 0.000000
# 2 -0.005408 0.027701 0.006733 0.000000 0.000000 0.000000
# 3 -0.002314 0.006733 0.018576 0.000000 0.000000 0.000000
# 4 0.000000 0.000000 0.000000 0.044860 0.000000 0.000000
# 5 0.000000 0.000000 0.000000 0.000000 0.028437 0.000000
# 6 0.000000 0.000000 0.000000 0.000000 0.000000 0.050033
#
#
# Mechanical properties :
#
#
# Convention : Reuss Voigt Hill
#
# Bulk Modulus (GPa) = 19.54519 37.48264 28.51392
# Shear Modulus (GPa) = 25.57520 32.13144 28.85332
#
# Velocity S-wave (km/s) = 3.49407 3.91640 3.71125
# Velocity P-wave (km/s) = 5.06045 6.19222 5.65472
#
# Compressibility (1/GPa) = 0.05116347
#
# Stress axis : x y z
#
# Youngs Moduli (GPa) = 145.70464 36.09921 53.83330
#
# Poissons Ratio (x) = 0.19522 0.12455
# Poissons Ratio (y) = 0.78795 -0.36246
# Poissons Ratio (z) = 0.33710 -0.24305
#
# Static dielectric constant tensor:
#      x y z
#    x 4.623140 0.000000 0.000000 
#    y 0.000000 3.481380 0.000000 
#    z 0.000000 0.000000 3.816900 
# 
# 
# High freq. dielectric constant tensor:
#      x y z
#    x 1.858010 0.000000 0.000000 
#    y 0.000000 1.761940 0.000000 
#    z 0.000000 0.000000 1.838490 
# 
# From -- ./inp_files/5985.got.cif
#   From: 2010.03.12/outbox.cif.g09.slc.cpg/sg36_3_cif.got.tgz:5985.got - 2010.04.14 02:13:53.
