data_PCOD8176896
_publ_section_title
;
Structure prediction by ZEFSAII (Michael W. Deem and Ramdas Pophale) SiO2 
 PCOD8176896
Probable space group: C C C 2
;
_chemical_formula_sum "Si O2"
_cell_formula_units_Z 48
_cell_length_a 21.913546
_cell_length_b 8.774100
_cell_length_c 11.096171
_cell_angle_alpha 90.000000
_cell_angle_beta 90.000000
_cell_angle_gamma 90.000000
_cell_volume 2133.479040
_symmetry_space_group_name_H-M "C C C 2"
_symmetry_group_IT_number 37
_symmetry_cell_setting 'orthorhombic'
loop_
_space_group_symop_operation_xyz
x,y,z
-x,-y,z
-x,y,1/2+z
x,-y,1/2+z
1/2+x,1/2+y,z
1/2-x,1/2-y,z
1/2-x,1/2+y,1/2+z
1/2+x,1/2-y,1/2+z
loop_
_atom_site_type_symbol
_atom_site_label
_atom_site_fract_x
_atom_site_fract_y
_atom_site_fract_z
Si Si1 0.306136 0.356678 0.400050
Si Si2 0.038569 0.289775 0.444520
Si Si3 0.102423 0.211587 0.210551
Si Si4 0.314975 0.695611 0.336076
Si Si5 0.093750 0.606922 0.484409
Si Si6 0.395559 0.610532 0.113763
O O1 0.250000 0.250000 0.434369
O O2 0.330369 0.300243 0.269747
O O3 0.295201 0.538372 0.400226
O O4 0.354427 0.331438 0.504112
O O5 0.053807 0.203651 0.319431
O O6 0.087932 0.427570 0.459498
O O7 0.041427 0.189698 0.569117
O O8 0.968212 0.328249 0.427914
O O9 0.093029 0.069326 0.120403
O O10 0.096769 0.363412 0.129114
O O11 0.250000 0.750000 0.282113
O O12 0.345222 0.818224 0.427144
O O13 0.366781 0.672230 0.236289
#
# Coordination Sequence:
#
# PCOD8176896 Si02
#       6
#     8   8   8   8   8   8
#     4  10  22  43  66  97 137 178 232 285 345 419
#     4  10  26  43  72  99 139 188 229 298 360 433
#     4  10  23  45  65 101 137 175 233 291 348 422
#     4  11  25  41  64  99 136 183 228 286 351 428
#     4  11  25  45  66 104 139 180 240 286 364 429
#     4  10  22  46  65  98 132 177 235 283 352 415
#
# _framework density 22.498464999999999
#
# number of rings (size 3 to 8) (size 9 to 14) (size 15 to 20)
#    0.000    1.667    1.667    0.500    9.333    2.667 
#    3.000    0.000    0.000    0.000    0.000    0.000 
#    0.000    0.000    0.000    0.000    0.000    0.000 
#
# Total GULP energy -297401.039731 kJ/mol
# GULP energy per Si atom -12391.709989 kJ/mol
# Density = 2.244726 g / cm^3
# Si number density = 22.498465 Si / 1000 Ang^3
#
#
#
# Elastic Constant Matrix: (Units=GPa)
#
#
# Indices 1 2 3 4 5 6 
#
# 1 66.5095 37.1979 12.3318 0.0000 0.0000 0.0000
# 2 37.1979 93.7908 25.8953 0.0000 0.0000 0.0000
# 3 12.3318 25.8953 92.0638 0.0000 0.0000 0.0000
# 4 0.0000 0.0000 0.0000 37.0182 0.0000 0.0000
# 5 0.0000 0.0000 0.0000 0.0000 14.9812 0.0000
# 6 0.0000 0.0000 0.0000 0.0000 0.0000 40.5912
#
#
#
# Elastic Compliance Matrix: (Units=1/GPa)
#
#
# Indices 1 2 3 4 5 6 
#
# 1 0.019340 -0.007541 -0.000470 0.000000 0.000000 0.000000
# 2 -0.007541 0.014500 -0.003068 0.000000 0.000000 0.000000
# 3 -0.000470 -0.003068 0.011788 0.000000 0.000000 0.000000
# 4 0.000000 0.000000 0.000000 0.027014 0.000000 0.000000
# 5 0.000000 0.000000 0.000000 0.000000 0.066750 0.000000
# 6 0.000000 0.000000 0.000000 0.000000 0.000000 0.024636
#
#
# Mechanical properties :
#
#
# Convention : Reuss Voigt Hill
#
# Bulk Modulus (GPa) = 42.60660 44.80157 43.70408
# Shear Modulus (GPa) = 25.77208 30.31407 28.04307
#
# Velocity S-wave (km/s) = 3.38820 3.67465 3.53433
# Velocity P-wave (km/s) = 5.85536 6.16121 6.01023
#
# Compressibility (1/GPa) = 0.02347054
#
# Stress axis : x y z
#
# Youngs Moduli (GPa) = 51.70663 68.96624 84.83211
#
# Poissons Ratio (x) = 0.52005 0.03983
# Poissons Ratio (y) = 0.38990 0.26030
# Poissons Ratio (z) = 0.02428 0.21162
#
# Static dielectric constant tensor:
#      x y z
#    x 4.163340 0.000000 0.000000 
#    y 0.000000 4.218210 0.000000 
#    z 0.000000 0.000000 3.960820 
# 
# 
# High freq. dielectric constant tensor:
#      x y z
#    x 1.883610 0.000000 0.000000 
#    y 0.000000 1.890200 0.000000 
#    z 0.000000 0.000000 1.886490 
# 
# From -- ./inp_files/8835.got.cif
#   From: 2010.03.12/outbox.cif.g09.slc.cpg/sg37_5_cif.got.tgz:8835.got - 2010.04.14 02:25:27.
