data_PCOD8176551
_publ_section_title
;
Structure prediction by ZEFSAII (Michael W. Deem and Ramdas Pophale) SiO2 
 PCOD8176551
Probable space group: C C C 2
;
_chemical_formula_sum "Si O2"
_cell_formula_units_Z 64
_cell_length_a 13.217037
_cell_length_b 13.490895
_cell_length_c 17.927698
_cell_angle_alpha 90.000000
_cell_angle_beta 90.000000
_cell_angle_gamma 90.000000
_cell_volume 3196.681706
_symmetry_space_group_name_H-M "C C C 2"
_symmetry_group_IT_number 37
_symmetry_cell_setting 'orthorhombic'
loop_
_space_group_symop_operation_xyz
x,y,z
-x,-y,z
-x,y,1/2+z
x,-y,1/2+z
1/2+x,1/2+y,z
1/2-x,1/2-y,z
1/2-x,1/2+y,1/2+z
1/2+x,1/2-y,1/2+z
loop_
_atom_site_type_symbol
_atom_site_label
_atom_site_fract_x
_atom_site_fract_y
_atom_site_fract_z
Si Si1 0.217711 0.362541 0.793590
Si Si2 0.717711 0.862541 0.960910
Si Si3 0.488499 0.111801 0.039452
Si Si4 0.887778 0.016129 0.788378
Si Si5 0.132868 0.766781 0.794357
Si Si6 0.632868 0.266781 0.960142
Si Si7 0.011501 0.611802 0.215048
Si Si8 0.887778 0.983871 0.466122
O O1 0.250000 0.250000 0.798654
O O2 0.187970 0.399473 0.877250
O O3 0.306222 0.434237 0.759779
O O4 0.123666 0.358427 0.738201
O O5 0.750000 0.750000 0.955846
O O6 0.806222 0.934237 0.994721
O O7 0.623666 0.858427 0.016300
O O8 0.500001 0.118558 0.127250
O O9 0.500000 0.000000 0.009764
O O10 0.574021 0.183007 0.005600
O O11 0.868522 0.125520 0.755925
O O12 0.883995 0.013333 0.877250
O O13 0.000000 0.000000 0.757533
O O14 0.250000 0.750000 0.800895
O O15 0.083331 0.768758 0.877249
O O16 0.074021 0.683008 0.748899
O O17 0.750000 0.250000 0.953603
O O18 0.631478 0.374480 0.998574
O O19 0.000000 0.500000 0.244735
O O20 0.000000 0.000000 0.496967
#
# Coordination Sequence:
#
# PCOD8176551 Si02
#       8
#     8   8   8   8   8   8   8   8
#     4  10  20  36  61  89 116 150 193 243 296 352
#     4  10  20  36  61  89 116 150 193 243 296 352
#     4  11  24  39  55  80 115 156 196 236 290 354
#     4   9  17  31  54  85 114 138 174 228 286 340
#     4  10  20  35  57  82 107 140 185 237 286 333
#     4  10  20  35  57  82 107 140 185 237 286 333
#     4  11  24  39  55  80 115 156 196 236 290 354
#     4   9  17  31  54  85 114 138 174 228 286 340
#
# _framework density 20.020761
#
# number of rings (size 3 to 8) (size 9 to 14) (size 15 to 20)
#    0.000    2.000    0.000    3.750    0.000    9.000 
#    0.000    0.000    0.000    5.250    0.000    0.000 
#    0.000    0.000    0.000    0.000    0.000    0.250 
#
# Total GULP energy -396485.663520 kJ/mol
# GULP energy per Si atom -12390.176985 kJ/mol
# Density = 1.997519 g / cm^3
# Si number density = 20.020761 Si / 1000 Ang^3
#
#
#
# Elastic Constant Matrix: (Units=GPa)
#
#
# Indices 1 2 3 4 5 6 
#
# 1 125.7730 50.0503 41.7546 0.0000 0.0000 0.0000
# 2 50.0503 164.0245 34.5155 0.0000 0.0000 0.0000
# 3 41.7546 34.5155 56.8365 0.0000 0.0000 0.0000
# 4 0.0000 0.0000 0.0000 31.4272 0.0000 0.0000
# 5 0.0000 0.0000 0.0000 0.0000 25.0020 0.0000
# 6 0.0000 0.0000 0.0000 0.0000 0.0000 46.8629
#
#
#
# Elastic Compliance Matrix: (Units=1/GPa)
#
#
# Indices 1 2 3 4 5 6 
#
# 1 0.011009 -0.001900 -0.006934 0.000000 0.000000 0.000000
# 2 -0.001900 0.007318 -0.003048 0.000000 0.000000 0.000000
# 3 -0.006934 -0.003048 0.024539 0.000000 0.000000 0.000000
# 4 0.000000 0.000000 0.000000 0.031820 0.000000 0.000000
# 5 0.000000 0.000000 0.000000 0.000000 0.039997 0.000000
# 6 0.000000 0.000000 0.000000 0.000000 0.000000 0.021339
#
#
# Mechanical properties :
#
#
# Convention : Reuss Voigt Hill
#
# Bulk Modulus (GPa) = 52.35029 66.58610 59.46819
# Shear Modulus (GPa) = 30.09291 35.34598 32.71945
#
# Velocity S-wave (km/s) = 3.88117 4.20630 4.04700
# Velocity P-wave (km/s) = 6.80363 7.54463 7.18369
#
# Compressibility (1/GPa) = 0.01910209
#
# Stress axis : x y z
#
# Youngs Moduli (GPa) = 90.83599 136.65199 40.75138
#
# Poissons Ratio (x) = 0.25966 0.28256
# Poissons Ratio (y) = 0.17261 0.12421
# Poissons Ratio (z) = 0.62982 0.41652
#
# Static dielectric constant tensor:
#      x y z
#    x 3.460070 0.000000 0.000000 
#    y 0.000000 3.433620 0.000000 
#    z 0.000000 0.000000 3.345820 
# 
# 
# High freq. dielectric constant tensor:
#      x y z
#    x 1.793940 0.000000 0.000000 
#    y 0.000000 1.806010 0.000000 
#    z 0.000000 0.000000 1.736280 
# 
# From -- ./inp_files/15082.got.cif
#   From: 2010.03.12/outbox.cif.g09.slc.cpg/sg37_8_cif.got.tgz:15082.got - 2010.04.14 02:25:27.
