data_PCOD8176816
_publ_section_title
;
Structure prediction by ZEFSAII (Michael W. Deem and Ramdas Pophale) SiO2 
 PCOD8176816
Probable space group: C C C 2
;
_chemical_formula_sum "Si O2"
_cell_formula_units_Z 40
_cell_length_a 11.232319
_cell_length_b 20.374720
_cell_length_c 8.749997
_cell_angle_alpha 90.000000
_cell_angle_beta 90.000000
_cell_angle_gamma 90.000000
_cell_volume 2002.483666
_symmetry_space_group_name_H-M "C C C 2"
_symmetry_group_IT_number 37
_symmetry_cell_setting 'orthorhombic'
loop_
_space_group_symop_operation_xyz
x,y,z
-x,-y,z
-x,y,1/2+z
x,-y,1/2+z
1/2+x,1/2+y,z
1/2-x,1/2-y,z
1/2-x,1/2+y,1/2+z
1/2+x,1/2-y,1/2+z
loop_
_atom_site_type_symbol
_atom_site_label
_atom_site_fract_x
_atom_site_fract_y
_atom_site_fract_z
Si Si1 0.358624 0.296272 0.886750
Si Si2 0.507696 0.228369 0.134256
Si Si3 0.858514 0.066898 0.833296
Si Si4 0.327118 0.815841 0.877956
Si Si5 0.618228 0.433117 0.471763
O O1 0.250000 0.250000 0.887821
O O2 0.426865 0.284334 0.730564
O O3 0.310477 0.370171 0.908673
O O4 0.438856 0.277764 0.028116
O O5 0.421653 0.182206 0.237203
O O6 0.599608 0.182924 0.037986
O O7 0.759339 0.121356 0.872831
O O8 0.878714 0.061355 0.653422
O O9 0.982559 0.080409 0.918744
O O10 0.817445 0.995847 0.896215
O O11 0.250000 0.750000 0.864392
#
# Coordination Sequence:
#
# PCOD8176816 Si02
#       5
#     8   8   8   8   8
#     4  11  21  36  59  84 114 151 191 246 297 349
#     4  10  22  36  59  91 119 152 203 243 297 374
#     4  11  23  38  61  89 125 159 195 256 316 363
#     4  11  22  39  62  90 124 161 200 253 307 363
#     4  11  22  37  59  91 121 154 202 250 309 373
#
# _framework density 19.975193000000001
#
# number of rings (size 3 to 8) (size 9 to 14) (size 15 to 20)
#    0.000    1.200    0.000    9.600    0.000    4.800 
#    0.000    0.000    0.000   20.400    0.000    0.000 
#    0.000    0.000    0.000    0.000    0.000    0.000 
#
# Total GULP energy -247900.645711 kJ/mol
# GULP energy per Si atom -12395.032286 kJ/mol
# Density = 1.992973 g / cm^3
# Si number density = 19.975193 Si / 1000 Ang^3
#
#
#
# Elastic Constant Matrix: (Units=GPa)
#
#
# Indices 1 2 3 4 5 6 
#
# 1 95.8194 74.4054 63.4389 0.0000 0.0000 0.0000
# 2 74.4054 192.3645 74.9016 0.0000 0.0000 0.0000
# 3 63.4389 74.9016 171.4756 0.0000 0.0000 0.0000
# 4 0.0000 0.0000 0.0000 38.0445 0.0000 0.0000
# 5 0.0000 0.0000 0.0000 0.0000 547.2502 0.0000
# 6 0.0000 0.0000 0.0000 0.0000 0.0000 41.1422
#
#
#
# Elastic Compliance Matrix: (Units=1/GPa)
#
#
# Indices 1 2 3 4 5 6 
#
# 1 0.017038 -0.004983 -0.004127 0.000000 0.000000 0.000000
# 2 -0.004983 0.007721 -0.001529 0.000000 0.000000 0.000000
# 3 -0.004127 -0.001529 0.008026 0.000000 0.000000 0.000000
# 4 0.000000 0.000000 0.000000 0.026285 0.000000 0.000000
# 5 0.000000 0.000000 0.000000 0.000000 0.001827 0.000000
# 6 0.000000 0.000000 0.000000 0.000000 0.000000 0.024306
#
#
# Mechanical properties :
#
#
# Convention : Reuss Voigt Hill
#
# Bulk Modulus (GPa) = 86.89927 98.35015 92.62471
# Shear Modulus (GPa) = 45.32341 141.74828 93.53584
#
# Velocity S-wave (km/s) = 4.76855 8.43304 6.85038
# Velocity P-wave (km/s) = 8.59749 12.00686 10.44226
#
# Compressibility (1/GPa) = 0.01150758
#
# Stress axis : x y z
#
# Youngs Moduli (GPa) = 58.69193 129.50980 124.59011
#
# Poissons Ratio (x) = 0.64541 0.51413
# Poissons Ratio (y) = 0.29249 0.19051
# Poissons Ratio (z) = 0.24220 0.19803
#
# Static dielectric constant tensor:
#      x y z
#    x 3.606140 0.000000 0.000000 
#    y 0.000000 3.708990 0.000000 
#    z 0.000000 0.000000 4.075850 
# 
# 
# High freq. dielectric constant tensor:
#      x y z
#    x 1.766030 0.000000 0.000000 
#    y 0.000000 1.774630 0.000000 
#    z 0.000000 0.000000 1.808310 
# 
# From -- ./inp_files/2700.got.cif
#   From: 2010.03.12/outbox.cif.g09.slc.cpg/sg37_2_cif.got.tgz:2700.got - 2010.04.14 02:25:27.
