data_PCOD8176572
_publ_section_title
;
Structure prediction by ZEFSAII (Michael W. Deem and Ramdas Pophale) SiO2 
 PCOD8176572
Probable space group: C C C 2
;
_chemical_formula_sum "Si O2"
_cell_formula_units_Z 44
_cell_length_a 16.343156
_cell_length_b 16.430676
_cell_length_c 8.792223
_cell_angle_alpha 90.000000
_cell_angle_beta 90.000000
_cell_angle_gamma 90.000000
_cell_volume 2360.967738
_symmetry_space_group_name_H-M "C C C 2"
_symmetry_group_IT_number 37
_symmetry_cell_setting 'orthorhombic'
loop_
_space_group_symop_operation_xyz
x,y,z
-x,-y,z
-x,y,1/2+z
x,-y,1/2+z
1/2+x,1/2+y,z
1/2-x,1/2-y,z
1/2-x,1/2+y,1/2+z
1/2+x,1/2-y,1/2+z
loop_
_atom_site_type_symbol
_atom_site_label
_atom_site_fract_x
_atom_site_fract_y
_atom_site_fract_z
Si Si1 0.435784 0.136950 0.455070
Si Si2 0.277996 0.883704 0.499386
Si Si3 0.618807 0.279563 0.484764
Si Si4 0.484791 0.757956 0.209020
Si Si5 0.832380 0.476727 0.789643
Si Si6 0.500000 0.000000 0.631876
O O1 0.471164 0.167575 0.295299
O O2 0.423094 0.209156 0.577402
O O3 0.350513 0.089263 0.424628
O O4 0.506167 0.078372 0.522911
O O5 0.345259 0.812224 0.489028
O O6 0.187811 0.846898 0.493395
O O7 0.281983 0.933434 0.656654
O O8 0.285234 0.945899 0.358212
O O9 0.568676 0.294024 0.327697
O O10 0.556915 0.293266 0.626549
O O11 0.919791 0.508260 0.733295
#
# Coordination Sequence:
#
# PCOD8176572 Si02
#       6
#     8   8   8   8   8   4
#     4  11  19  28  52  89 115 149 186 236 288 351
#     4  11  24  38  58  87 133 153 186 248 308 358
#     4  10  22  42  60  85 119 164 197 241 298 349
#     4  10  20  36  60  84 113 158 204 237 278 357
#     4  12  22  33  55  89 124 158 190 235 302 361
#     4  12  20  26  52  86 126 146 180 222 286 376
#
# _framework density 18.636426
#
# number of rings (size 3 to 8) (size 9 to 14) (size 15 to 20)
#    0.000    1.091    5.455    2.727    2.545    0.000 
#    0.000    3.636    4.000    3.273    0.000    0.000 
#    0.000    0.000    0.000    0.000    0.000    0.000 
#
# Total GULP energy -272704.290920 kJ/mol
# GULP energy per Si atom -12395.649587 kJ/mol
# Density = 1.859401 g / cm^3
# Si number density = 18.636426 Si / 1000 Ang^3
#
#
#
# Elastic Constant Matrix: (Units=GPa)
#
#
# Indices 1 2 3 4 5 6 
#
# 1 114.6636 60.0317 67.6289 0.0000 0.0000 0.0000
# 2 60.0317 79.5752 52.8949 0.0000 0.0000 0.0000
# 3 67.6289 52.8949 134.8992 0.0000 0.0000 0.0000
# 4 0.0000 0.0000 0.0000 19.0441 0.0000 0.0000
# 5 0.0000 0.0000 0.0000 0.0000 28.4865 0.0000
# 6 0.0000 0.0000 0.0000 0.0000 0.0000 38.4640
#
#
#
# Elastic Compliance Matrix: (Units=1/GPa)
#
#
# Indices 1 2 3 4 5 6 
#
# 1 0.016216 -0.009237 -0.004508 0.000000 0.000000 0.000000
# 2 -0.009237 0.022258 -0.004097 0.000000 0.000000 0.000000
# 3 -0.004508 -0.004097 0.011279 0.000000 0.000000 0.000000
# 4 0.000000 0.000000 0.000000 0.052510 0.000000 0.000000
# 5 0.000000 0.000000 0.000000 0.000000 0.035104 0.000000
# 6 0.000000 0.000000 0.000000 0.000000 0.000000 0.025998
#
#
# Mechanical properties :
#
#
# Convention : Reuss Voigt Hill
#
# Bulk Modulus (GPa) = 71.07101 76.69434 73.88268
# Shear Modulus (GPa) = 24.54127 27.10442 25.82285
#
# Velocity S-wave (km/s) = 3.63277 3.81777 3.72642
# Velocity P-wave (km/s) = 7.47090 7.78949 7.63186
#
# Compressibility (1/GPa) = 0.01407043
#
# Stress axis : x y z
#
# Youngs Moduli (GPa) = 61.66870 44.92687 88.65923
#
# Poissons Ratio (x) = 0.41499 0.39963
# Poissons Ratio (y) = 0.56963 0.36323
# Poissons Ratio (z) = 0.27797 0.18406
#
# Static dielectric constant tensor:
#      x y z
#    x 3.179990 0.000000 0.000000 
#    y 0.000000 3.160500 0.000000 
#    z 0.000000 0.000000 3.769470 
# 
# 
# High freq. dielectric constant tensor:
#      x y z
#    x 1.687970 0.000000 0.000000 
#    y 0.000000 1.689420 0.000000 
#    z 0.000000 0.000000 1.750710 
# 
# From -- ./inp_files/3433.got.cif
#   From: 2010.03.12/outbox.cif.g09.slc.cpg/sg37_2_cif.got.tgz:3433.got - 2010.04.14 02:25:27.
