data_PCOD8176898
_publ_section_title
;
Structure prediction by ZEFSAII (Michael W. Deem and Ramdas Pophale) SiO2 
 PCOD8176898
Probable space group: C C C 2
;
_chemical_formula_sum "Si O2"
_cell_formula_units_Z 56
_cell_length_a 14.376946
_cell_length_b 14.068508
_cell_length_c 13.508493
_cell_angle_alpha 90.000000
_cell_angle_beta 90.000000
_cell_angle_gamma 90.000000
_cell_volume 2732.257240
_symmetry_space_group_name_H-M "C C C 2"
_symmetry_group_IT_number 37
_symmetry_cell_setting 'orthorhombic'
loop_
_space_group_symop_operation_xyz
x,y,z
-x,-y,z
-x,y,1/2+z
x,-y,1/2+z
1/2+x,1/2+y,z
1/2-x,1/2-y,z
1/2-x,1/2+y,1/2+z
1/2+x,1/2-y,1/2+z
loop_
_atom_site_type_symbol
_atom_site_label
_atom_site_fract_x
_atom_site_fract_y
_atom_site_fract_z
Si Si1 0.787727 0.471238 0.569020
Si Si2 0.281599 0.947683 0.345557
Si Si3 0.322014 0.830658 0.155952
Si Si4 0.927515 0.078874 0.358178
Si Si5 0.084919 0.425126 0.239881
Si Si6 0.002782 0.764490 0.216882
Si Si7 0.422474 0.576873 0.587546
O O1 0.801646 0.426044 0.460511
O O2 0.809964 0.583510 0.578380
O O3 0.861984 0.415508 0.635289
O O4 0.681486 0.461173 0.606477
O O5 0.312054 0.863792 0.271016
O O6 0.172216 0.965951 0.331895
O O7 0.339620 0.042010 0.320469
O O8 0.250000 0.750000 0.127278
O O9 0.423796 0.785585 0.143116
O O10 0.942893 0.176330 0.299929
O O11 0.938178 0.102952 0.473305
O O12 0.000000 0.000000 0.322552
O O13 0.000000 0.500000 0.232930
O O14 0.053242 0.320029 0.271214
O O15 0.934159 0.828734 0.152268
O O16 0.500000 0.500000 0.621202
#
# Coordination Sequence:
#
# PCOD8176898 Si02
#       7
#     8   8   8   8   8   8   8
#     4  10  23  43  65  92 130 171 211 266 323 379
#     4  10  22  43  67  87 129 173 211 255 326 382
#     4  11  21  39  67  95 123 169 223 254 316 387
#     4  10  23  42  66  97 126 166 214 262 324 384
#     4  11  24  43  59  97 131 170 215 258 319 376
#     4  12  23  38  65  95 130 166 210 269 312 378
#     4  10  23  42  66  97 129 164 211 265 327 379
#
# _framework density 20.495874000000001
#
# number of rings (size 3 to 8) (size 9 to 14) (size 15 to 20)
#    0.000    1.429    4.286    1.286    6.000    3.429 
#    0.000    0.000    0.000    0.000    0.000    0.000 
#    0.000    0.000    0.000    0.000    0.000    0.000 
#
# Total GULP energy -347167.147823 kJ/mol
# GULP energy per Si atom -12398.826708 kJ/mol
# Density = 2.044922 g / cm^3
# Si number density = 20.495874 Si / 1000 Ang^3
#
#
#
# Elastic Constant Matrix: (Units=GPa)
#
#
# Indices 1 2 3 4 5 6 
#
# 1 127.7850 44.8804 26.0989 0.0000 0.0000 0.0000
# 2 44.8804 105.8464 12.2586 0.0000 0.0000 0.0000
# 3 26.0989 12.2586 69.3330 0.0000 0.0000 0.0000
# 4 0.0000 0.0000 0.0000 20.6080 0.0000 0.0000
# 5 0.0000 0.0000 0.0000 0.0000 28.8368 0.0000
# 6 0.0000 0.0000 0.0000 0.0000 0.0000 44.1452
#
#
#
# Elastic Compliance Matrix: (Units=1/GPa)
#
#
# Indices 1 2 3 4 5 6 
#
# 1 0.009773 -0.003796 -0.003008 0.000000 0.000000 0.000000
# 2 -0.003796 0.011119 -0.000537 0.000000 0.000000 0.000000
# 3 -0.003008 -0.000537 0.015650 0.000000 0.000000 0.000000
# 4 0.000000 0.000000 0.000000 0.048525 0.000000 0.000000
# 5 0.000000 0.000000 0.000000 0.000000 0.034678 0.000000
# 6 0.000000 0.000000 0.000000 0.000000 0.000000 0.022653
#
#
# Mechanical properties :
#
#
# Convention : Reuss Voigt Hill
#
# Bulk Modulus (GPa) = 45.74240 52.15999 48.95119
# Shear Modulus (GPa) = 30.41990 33.36643 31.89317
#
# Velocity S-wave (km/s) = 3.85671 4.03917 3.94899
# Velocity P-wave (km/s) = 6.49604 6.87441 6.68790
#
# Compressibility (1/GPa) = 0.02186156
#
# Stress axis : x y z
#
# Youngs Moduli (GPa) = 102.32255 89.93420 63.89637
#
# Poissons Ratio (x) = 0.34135 0.19218
# Poissons Ratio (y) = 0.38837 0.03433
# Poissons Ratio (z) = 0.30776 0.04831
#
# Static dielectric constant tensor:
#      x y z
#    x 3.960930 0.000000 0.000000 
#    y 0.000000 3.634960 0.000000 
#    z 0.000000 0.000000 3.590840 
# 
# 
# High freq. dielectric constant tensor:
#      x y z
#    x 1.819850 0.000000 0.000000 
#    y 0.000000 1.794980 0.000000 
#    z 0.000000 0.000000 1.791420 
# 
# From -- ./inp_files/12224.got.cif
#   From: 2010.03.12/outbox.cif.g09.slc.cpg/sg37_7_cif.got.tgz:12224.got - 2010.04.14 02:25:27.
