data_PCOD8176322
_publ_section_title
;
Structure prediction by ZEFSAII (Michael W. Deem and Ramdas Pophale) SiO2 
 PCOD8176322
Probable space group: C M C 21
;
_chemical_formula_sum "Si O2"
_cell_formula_units_Z 32
_cell_length_a 15.449133
_cell_length_b 7.978819
_cell_length_c 10.277712
_cell_angle_alpha 90.000000
_cell_angle_beta 90.000000
_cell_angle_gamma 90.000000
_cell_volume 1266.890761
_symmetry_space_group_name_H-M "C M C 21"
_symmetry_group_IT_number 36
_symmetry_cell_setting 'orthorhombic'
loop_
_space_group_symop_operation_xyz
x,y,z
-x,-y,1/2+z
x,-y,1/2+z
-x,y,z
1/2+x,1/2+y,z
1/2-x,1/2-y,1/2+z
1/2+x,1/2-y,1/2+z
1/2-x,1/2+y,z
loop_
_atom_site_type_symbol
_atom_site_label
_atom_site_fract_x
_atom_site_fract_y
_atom_site_fract_z
Si Si1 0.160415 0.249520 0.743650
Si Si2 0.596943 0.916269 0.159791
Si Si3 0.596960 0.584860 0.327037
Si Si4 0.749937 0.833902 0.993619
O O1 0.104018 0.419357 0.752375
O O2 0.221188 0.274646 0.617619
O O3 0.220780 0.224630 0.870155
O O4 0.104162 0.079537 0.734470
O O5 0.500000 0.908024 0.100939
O O6 0.616149 0.750576 0.243436
O O7 0.665344 0.937977 0.041245
O O8 0.500000 0.592987 0.385822
O O9 0.665284 0.562997 0.445619
#
# Coordination Sequence:
#
# PCOD8176322 Si02
#       4
#     8   8   8   8
#     4  12  27  48  77 110 154 202 243 312 377 442
#     4  11  27  48  74 110 151 198 252 306 369 447
#     4  11  27  48  74 110 151 198 252 306 369 447
#     4  12  26  50  78 114 154 198 250 308 378 452
#
# _framework density 25.258689
#
# number of rings (size 3 to 8) (size 9 to 14) (size 15 to 20)
#    0.000    0.500    2.500    3.750    7.000    4.000 
#    0.000    0.000    0.000    0.000    0.000    0.000 
#    0.000    0.000    0.000    0.000    0.000    0.000 
#
# Total GULP energy -198225.689771 kJ/mol
# GULP energy per Si atom -12389.105611 kJ/mol
# Density = 2.520120 g / cm^3
# Si number density = 25.258689 Si / 1000 Ang^3
#
#
#
# Elastic Constant Matrix: (Units=GPa)
#
#
# Indices 1 2 3 4 5 6 
#
# 1 224.8209 55.6002 75.5812 0.0000 0.0000 0.0000
# 2 55.6002 191.9613 49.9104 0.0000 0.0000 0.0000
# 3 75.5812 49.9104 147.3096 0.0000 0.0000 0.0000
# 4 0.0000 0.0000 0.0000 21.1289 0.0000 0.0000
# 5 0.0000 0.0000 0.0000 0.0000 40.0159 0.0000
# 6 0.0000 0.0000 0.0000 0.0000 0.0000 27.7931
#
#
#
# Elastic Compliance Matrix: (Units=1/GPa)
#
#
# Indices 1 2 3 4 5 6 
#
# 1 0.005528 -0.000947 -0.002515 0.000000 0.000000 0.000000
# 2 -0.000947 0.005875 -0.001505 0.000000 0.000000 0.000000
# 3 -0.002515 -0.001505 0.008589 0.000000 0.000000 0.000000
# 4 0.000000 0.000000 0.000000 0.047329 0.000000 0.000000
# 5 0.000000 0.000000 0.000000 0.000000 0.024990 0.000000
# 6 0.000000 0.000000 0.000000 0.000000 0.000000 0.035980
#
#
# Mechanical properties :
#
#
# Convention : Reuss Voigt Hill
#
# Bulk Modulus (GPa) = 99.42814 102.91950 101.17382
# Shear Modulus (GPa) = 35.31657 43.32091 39.31874
#
# Velocity S-wave (km/s) = 3.74330 4.14586 3.94971
# Velocity P-wave (km/s) = 7.62446 7.98449 7.80655
#
# Compressibility (1/GPa) = 0.01005751
#
# Stress axis : x y z
#
# Youngs Moduli (GPa) = 180.90312 170.21586 116.43155
#
# Poissons Ratio (x) = 0.16121 0.29286
# Poissons Ratio (y) = 0.17133 0.17518
# Poissons Ratio (z) = 0.45503 0.25610
#
# Static dielectric constant tensor:
#      x y z
#    x 4.777680 0.000000 0.000000 
#    y 0.000000 4.298500 0.000000 
#    z 0.000000 0.000000 4.812040 
# 
# 
# High freq. dielectric constant tensor:
#      x y z
#    x 2.018950 0.000000 0.000000 
#    y 0.000000 2.009140 0.000000 
#    z 0.000000 0.000000 1.989770 
# 
# From -- ./inp_files/8182.got.cif
#   From: 2010.03.12/outbox.cif.g09.slc.cpg/sg36_5_cif.got.tgz:8182.got - 2010.04.14 02:13:53.
