data_PCOD8176079
_publ_section_title
;
Structure prediction by ZEFSAII (Michael W. Deem and Ramdas Pophale) SiO2 
 PCOD8176079
Probable space group: C M C 21
;
_chemical_formula_sum "Si O2"
_cell_formula_units_Z 64
_cell_length_a 27.912254
_cell_length_b 9.168477
_cell_length_c 11.783453
_cell_angle_alpha 90.000000
_cell_angle_beta 90.000000
_cell_angle_gamma 90.000000
_cell_volume 3015.537144
_symmetry_space_group_name_H-M "C M C 21"
_symmetry_group_IT_number 36
_symmetry_cell_setting 'orthorhombic'
loop_
_space_group_symop_operation_xyz
x,y,z
-x,-y,1/2+z
x,-y,1/2+z
-x,y,z
1/2+x,1/2+y,z
1/2-x,1/2-y,1/2+z
1/2+x,1/2-y,1/2+z
1/2-x,1/2+y,z
loop_
_atom_site_type_symbol
_atom_site_label
_atom_site_fract_x
_atom_site_fract_y
_atom_site_fract_z
Si Si1 0.854597 0.007595 0.691230
Si Si2 0.710672 0.894027 0.464532
Si Si3 0.945415 0.991761 0.338719
Si Si4 0.446115 0.191989 0.773876
Si Si5 0.776505 0.890146 0.852870
Si Si6 0.122785 0.553387 0.362384
Si Si7 0.189931 0.693144 0.198242
Si Si8 0.093415 0.801683 0.536054
O O1 0.905674 0.058840 0.746103
O O2 0.824871 0.915770 0.783370
O O3 0.862855 0.903219 0.581686
O O4 0.821531 0.143393 0.654780
O O5 0.711844 0.721026 0.452611
O O6 0.703197 0.919896 0.598089
O O7 0.759180 0.963837 0.415537
O O8 0.666439 0.953126 0.395788
O O9 0.938712 0.166752 0.355178
O O10 0.000000 0.961023 0.294503
O O11 0.939254 0.906444 0.457588
O O12 0.500000 0.137830 0.773307
O O13 0.433445 0.237649 0.645313
O O14 0.419541 0.052333 0.824658
O O15 0.735380 0.810388 0.780058
O O16 0.140079 0.645286 0.254786
O O17 0.110261 0.662828 0.464140
#
# Coordination Sequence:
#
# PCOD8176079 Si02
#       8
#     8   8   8   8   8   8   8   8
#     4  11  24  43  70  99 135 181 232 281 351 414
#     4  11  25  40  67  89 135 170 224 274 339 402
#     4  10  22  43  70 101 136 178 234 290 346 421
#     4  10  23  43  66  98 135 174 225 288 350 414
#     4  11  25  44  64  98 131 178 222 285 335 406
#     4  11  24  45  64  98 133 176 226 282 345 413
#     4  11  25  42  64  98 133 173 231 278 337 417
#     4  11  23  42  74  95 137 180 234 280 358 407
#
# _framework density 21.223416
#
# number of rings (size 3 to 8) (size 9 to 14) (size 15 to 20)
#    0.000    1.250    2.500    2.625    5.250    4.500 
#    0.000    0.000    0.000    0.000    0.000    0.000 
#    0.000    0.000    0.000    0.000    0.000    0.000 
#
# Total GULP energy -396644.455342 kJ/mol
# GULP energy per Si atom -12395.139229 kJ/mol
# Density = 2.117511 g / cm^3
# Si number density = 21.223416 Si / 1000 Ang^3
#
#
#
# Elastic Constant Matrix: (Units=GPa)
#
#
# Indices 1 2 3 4 5 6 
#
# 1 101.3482 36.1832 25.7751 0.0000 0.0000 0.0000
# 2 36.1832 98.4246 50.2904 0.0000 0.0000 0.0000
# 3 25.7751 50.2904 89.6273 0.0000 0.0000 0.0000
# 4 0.0000 0.0000 0.0000 43.2365 0.0000 0.0000
# 5 0.0000 0.0000 0.0000 0.0000 28.1559 0.0000
# 6 0.0000 0.0000 0.0000 0.0000 0.0000 16.7506
#
#
#
# Elastic Compliance Matrix: (Units=1/GPa)
#
#
# Indices 1 2 3 4 5 6 
#
# 1 0.011466 -0.003547 -0.001307 0.000000 0.000000 0.000000
# 2 -0.003547 0.015341 -0.007588 0.000000 0.000000 0.000000
# 3 -0.001307 -0.007588 0.015791 0.000000 0.000000 0.000000
# 4 0.000000 0.000000 0.000000 0.023129 0.000000 0.000000
# 5 0.000000 0.000000 0.000000 0.000000 0.035517 0.000000
# 6 0.000000 0.000000 0.000000 0.000000 0.000000 0.059699
#
#
# Mechanical properties :
#
#
# Convention : Reuss Voigt Hill
#
# Bulk Modulus (GPa) = 56.45411 57.09972 56.77692
# Shear Modulus (GPa) = 26.07819 29.43869 27.75844
#
# Velocity S-wave (km/s) = 3.50915 3.72840 3.62044
# Velocity P-wave (km/s) = 6.56327 6.74516 6.65483
#
# Compressibility (1/GPa) = 0.01771350
#
# Stress axis : x y z
#
# Youngs Moduli (GPa) = 87.21576 65.18386 63.32810
#
# Poissons Ratio (x) = 0.23123 0.08276
# Poissons Ratio (y) = 0.30938 0.48053
# Poissons Ratio (z) = 0.11398 0.49461
#
# Static dielectric constant tensor:
#      x y z
#    x 3.922790 0.000000 0.000000 
#    y 0.000000 3.994400 0.000000 
#    z 0.000000 0.000000 3.827450 
# 
# 
# High freq. dielectric constant tensor:
#      x y z
#    x 1.836150 0.000000 0.000000 
#    y 0.000000 1.840360 0.000000 
#    z 0.000000 0.000000 1.829500 
# 
# From -- ./inp_files/9742.got.cif
#   From: 2010.03.12/outbox.cif.g09.slc.cpg/sg36_5_cif.got.tgz:9742.got - 2010.04.14 02:13:53.
