data_PCOD8176276
_publ_section_title
;
Structure prediction by ZEFSAII (Michael W. Deem and Ramdas Pophale) SiO2 
 PCOD8176276
Probable space group: C M C 21
;
_chemical_formula_sum "Si O2"
_cell_formula_units_Z 64
_cell_length_a 15.308263
_cell_length_b 11.327167
_cell_length_c 17.591042
_cell_angle_alpha 90.000000
_cell_angle_beta 90.000000
_cell_angle_gamma 90.000000
_cell_volume 3050.273516
_symmetry_space_group_name_H-M "C M C 21"
_symmetry_group_IT_number 36
_symmetry_cell_setting 'orthorhombic'
loop_
_space_group_symop_operation_xyz
x,y,z
-x,-y,1/2+z
x,-y,1/2+z
-x,y,z
1/2+x,1/2+y,z
1/2-x,1/2-y,1/2+z
1/2+x,1/2-y,1/2+z
1/2-x,1/2+y,z
loop_
_atom_site_type_symbol
_atom_site_label
_atom_site_fract_x
_atom_site_fract_y
_atom_site_fract_z
Si Si1 0.193697 0.339601 0.611430
Si Si2 0.808853 0.167511 0.835845
Si Si3 0.402130 0.492378 0.217916
Si Si4 0.598380 0.994446 0.227174
Si Si5 0.900476 0.118224 0.559021
Si Si6 0.327347 0.743746 0.227451
Si Si7 0.247630 0.005317 0.972649
Si Si8 0.600322 0.108654 0.386596
O O1 0.162134 0.435701 0.671886
O O2 0.116265 0.252534 0.585690
O O3 0.268339 0.262687 0.651871
O O4 0.233032 0.404468 0.539403
O O5 0.727967 0.245207 0.805463
O O6 0.781309 0.078681 0.900488
O O7 0.884148 0.254305 0.866155
O O8 0.838508 0.093254 0.763094
O O9 0.500000 0.459295 0.241954
O O10 0.387182 0.472121 0.128554
O O11 0.385787 0.628172 0.237290
O O12 0.500000 0.030631 0.206785
O O13 0.620593 0.027728 0.313701
O O14 0.609786 0.855259 0.216507
O O15 0.000000 0.110831 0.527814
O O16 0.831691 0.082955 0.493632
O O17 0.334915 0.930115 0.954408
O O18 0.500000 0.093803 0.413837
#
# Coordination Sequence:
#
# PCOD8176276 Si02
#       8
#     8   8   8   8   8   8   8   8
#     4  12  23  42  70  97 130 178 224 276 338 400
#     4  12  23  42  70  97 130 178 224 276 338 400
#     4  11  23  41  68  99 130 171 226 279 331 394
#     4  11  23  41  68  99 130 171 226 279 331 394
#     4  11  24  44  67  97 133 173 226 279 335 405
#     4  12  21  40  67 100 130 176 220 278 326 404
#     4  12  26  44  64  98 140 180 216 278 352 404
#     4  11  24  44  67  97 133 173 226 279 335 405
#
# _framework density 20.981725999999998
#
# number of rings (size 3 to 8) (size 9 to 14) (size 15 to 20)
#    0.000    0.500    5.000    4.125    0.000    4.000 
#    0.000    0.000    0.000    0.000    0.000    0.000 
#    0.000    0.000    0.000    0.000    0.000    0.000 
#
# Total GULP energy -397000.530813 kJ/mol
# GULP energy per Si atom -12406.266588 kJ/mol
# Density = 2.093397 g / cm^3
# Si number density = 20.981726 Si / 1000 Ang^3
#
#
#
# Elastic Constant Matrix: (Units=GPa)
#
#
# Indices 1 2 3 4 5 6 
#
# 1 95.5816 27.7764 42.6694 0.0000 0.0000 0.0000
# 2 27.7764 106.6830 14.5095 0.0000 0.0000 0.0000
# 3 42.6694 14.5095 70.7806 0.0000 0.0000 0.0000
# 4 0.0000 0.0000 0.0000 36.5838 0.0000 0.0000
# 5 0.0000 0.0000 0.0000 0.0000 32.9546 0.0000
# 6 0.0000 0.0000 0.0000 0.0000 0.0000 22.0657
#
#
#
# Elastic Compliance Matrix: (Units=1/GPa)
#
#
# Indices 1 2 3 4 5 6 
#
# 1 0.015068 -0.002765 -0.008517 0.000000 0.000000 0.000000
# 2 -0.002765 0.010150 -0.000414 0.000000 0.000000 0.000000
# 3 -0.008517 -0.000414 0.019347 0.000000 0.000000 0.000000
# 4 0.000000 0.000000 0.000000 0.027335 0.000000 0.000000
# 5 0.000000 0.000000 0.000000 0.000000 0.030345 0.000000
# 6 0.000000 0.000000 0.000000 0.000000 0.000000 0.045319
#
#
# Mechanical properties :
#
#
# Convention : Reuss Voigt Hill
#
# Bulk Modulus (GPa) = 47.22788 49.21733 48.22261
# Shear Modulus (GPa) = 28.08801 30.86012 29.47407
#
# Velocity S-wave (km/s) = 3.66278 3.83927 3.75206
# Velocity P-wave (km/s) = 6.35971 6.56974 6.46558
#
# Compressibility (1/GPa) = 0.02117393
#
# Stress axis : x y z
#
# Youngs Moduli (GPa) = 66.36704 98.52506 51.68706
#
# Poissons Ratio (x) = 0.27240 0.44020
# Poissons Ratio (y) = 0.18349 0.02139
# Poissons Ratio (z) = 0.56523 0.04078
#
# Static dielectric constant tensor:
#      x y z
#    x 3.846970 0.000000 0.000000 
#    y 0.000000 3.823130 0.000000 
#    z 0.000000 0.000000 3.791940 
# 
# 
# High freq. dielectric constant tensor:
#      x y z
#    x 1.829010 0.000000 0.000000 
#    y 0.000000 1.834960 0.000000 
#    z 0.000000 0.000000 1.814610 
# 
# From -- ./inp_files/14712.got.cif
#   From: 2010.03.12/outbox.cif.g09.slc.cpg/sg36_8_cif.got.tgz:14712.got - 2010.04.14 02:13:53.
