data_PCOD8176302
_publ_section_title
;
Structure prediction by ZEFSAII (Michael W. Deem and Ramdas Pophale) SiO2 
 PCOD8176302
Probable space group: C M C 21
;
_chemical_formula_sum "Si O2"
_cell_formula_units_Z 40
_cell_length_a 21.707136
_cell_length_b 8.519084
_cell_length_c 9.090823
_cell_angle_alpha 90.000000
_cell_angle_beta 90.000000
_cell_angle_gamma 90.000000
_cell_volume 1681.119670
_symmetry_space_group_name_H-M "C M C 21"
_symmetry_group_IT_number 36
_symmetry_cell_setting 'orthorhombic'
loop_
_space_group_symop_operation_xyz
x,y,z
-x,-y,1/2+z
x,-y,1/2+z
-x,y,z
1/2+x,1/2+y,z
1/2-x,1/2-y,1/2+z
1/2+x,1/2-y,1/2+z
1/2-x,1/2+y,z
loop_
_atom_site_type_symbol
_atom_site_label
_atom_site_fract_x
_atom_site_fract_y
_atom_site_fract_z
Si Si1 0.000000 0.348949 0.636040
Si Si2 0.821097 0.482771 0.435572
Si Si3 0.868332 0.810540 0.767036
Si Si4 0.000000 0.680667 0.790034
Si Si5 0.681240 0.481392 0.028572
Si Si6 0.632675 0.195637 0.196830
O O1 0.000000 0.522294 0.699449
O O2 0.060529 0.256408 0.694167
O O3 0.000000 0.360058 0.461127
O O4 0.829626 0.338211 0.323273
O O5 0.750420 0.502705 0.474721
O O6 0.860144 0.451301 0.583228
O O7 0.846081 0.641303 0.358564
O O8 0.840022 0.860240 0.610143
O O9 0.940310 0.779843 0.746648
O O10 0.861639 0.951000 0.886735
O O11 0.675713 0.337619 0.144180
#
# Coordination Sequence:
#
# PCOD8176302 Si02
#       6
#     4   8   8   4   8   8
#     4  12  20  49  79 105 143 189 251 308 364 458
#     4  11  24  44  69 103 148 189 243 298 369 458
#     4  11  26  48  71 106 144 196 245 308 374 445
#     4  12  24  49  79 105 147 189 259 304 376 456
#     4  11  26  45  69 106 153 189 244 307 378 443
#     4  11  24  44  76 107 139 191 243 306 368 437
#
# _framework density 23.793665000000001
#
# number of rings (size 3 to 8) (size 9 to 14) (size 15 to 20)
#    0.000    0.800    6.000    1.200    0.000   16.000 
#    3.600    0.000    0.000    0.000    0.000    0.000 
#    0.000    0.000    0.000    0.000    0.000    0.000 
#
# Total GULP energy -248078.669051 kJ/mol
# GULP energy per Si atom -12403.933453 kJ/mol
# Density = 2.373951 g / cm^3
# Si number density = 23.793665 Si / 1000 Ang^3
#
#
#
# Elastic Constant Matrix: (Units=GPa)
#
#
# Indices 1 2 3 4 5 6 
#
# 1 204.0249 58.8582 45.5586 0.0000 0.0000 0.0000
# 2 58.8582 39.5569 31.5114 0.0000 0.0000 0.0000
# 3 45.5586 31.5114 84.7778 0.0000 0.0000 0.0000
# 4 0.0000 0.0000 0.0000 55.5631 0.0000 0.0000
# 5 0.0000 0.0000 0.0000 0.0000 42.0802 0.0000
# 6 0.0000 0.0000 0.0000 0.0000 0.0000 -32.8815
#
#
#
# Elastic Compliance Matrix: (Units=1/GPa)
#
#
# Indices 1 2 3 4 5 6 
#
# 1 0.008590 -0.012933 0.000191 0.000000 0.000000 0.000000
# 2 -0.012933 0.055387 -0.013637 0.000000 0.000000 0.000000
# 3 0.000191 -0.013637 0.016762 0.000000 0.000000 0.000000
# 4 0.000000 0.000000 0.000000 0.017998 0.000000 0.000000
# 5 0.000000 0.000000 0.000000 0.000000 0.023764 0.000000
# 6 0.000000 0.000000 0.000000 0.000000 0.000000 -0.030412
#
#
# Mechanical properties :
#
#
# Convention : Reuss Voigt Hill
#
# Bulk Modulus (GPa) = 35.73912 66.69069 51.21490
# Shear Modulus (GPa) = 32.43110 25.78112 29.10611
#
# Velocity S-wave (km/s) = 3.69591 3.29527 3.50132
# Velocity P-wave (km/s) = 5.76767 6.52442 6.15768
#
# Compressibility (1/GPa) = 0.02798055
#
# Stress axis : x y z
#
# Youngs Moduli (GPa) = 116.41788 18.05467 59.66040
#
# Poissons Ratio (x) = 0.23351 -0.01141
# Poissons Ratio (y) = 1.50567 0.81358
# Poissons Ratio (z) = -0.02226 0.24621
#
# Static dielectric constant tensor:
#      x y z
#    x 4.545580 0.000000 0.000000 
#    y 0.000000 4.311570 0.000000 
#    z 0.000000 0.000000 4.609070 
# 
# 
# High freq. dielectric constant tensor:
#      x y z
#    x 1.949400 0.000000 0.000000 
#    y 0.000000 1.933970 0.000000 
#    z 0.000000 0.000000 1.958190 
# 
# From -- ./inp_files/5494.got.cif
#   From: 2010.03.12/outbox.cif.g09.slc.cpg/sg36_3_cif.got.tgz:5494.got - 2010.04.14 02:13:53.
