data_PCOD8176536
_publ_section_title
;
Structure prediction by ZEFSAII (Michael W. Deem and Ramdas Pophale) SiO2 
 PCOD8176536
Probable space group: C C C 2
;
_chemical_formula_sum "Si O2"
_cell_formula_units_Z 56
_cell_length_a 16.827595
_cell_length_b 5.101440
_cell_length_c 31.538142
_cell_angle_alpha 90.000000
_cell_angle_beta 90.000000
_cell_angle_gamma 90.000000
_cell_volume 2707.390735
_symmetry_space_group_name_H-M "C C C 2"
_symmetry_group_IT_number 37
_symmetry_cell_setting 'orthorhombic'
loop_
_space_group_symop_operation_xyz
x,y,z
-x,-y,z
-x,y,1/2+z
x,-y,1/2+z
1/2+x,1/2+y,z
1/2-x,1/2-y,z
1/2-x,1/2+y,1/2+z
1/2+x,1/2-y,1/2+z
loop_
_atom_site_type_symbol
_atom_site_label
_atom_site_fract_x
_atom_site_fract_y
_atom_site_fract_z
Si Si1 0.155132 0.245382 0.407890
Si Si2 0.344814 0.245002 0.857861
Si Si3 0.656040 0.751410 0.212092
Si Si4 0.448613 0.252417 0.133903
Si Si5 0.658880 0.835705 0.501389
Si Si6 0.083270 0.870377 0.538184
Si Si7 0.844789 0.247990 0.262412
O O1 0.250000 0.250000 0.408528
O O2 0.122687 0.482345 0.379375
O O3 0.120475 0.271052 0.455541
O O4 0.122387 0.982244 0.386396
O O5 0.250000 0.250000 0.856817
O O6 0.378597 0.262527 0.810165
O O7 0.750000 0.750000 0.210680
O O8 0.628503 0.757292 0.163449
O O9 0.622542 0.499153 0.236486
O O10 0.622681 0.997360 0.238297
O O11 0.500000 0.500000 0.146964
O O12 0.422778 0.259574 0.085168
O O13 0.500000 0.000000 0.142795
O O14 0.750000 0.750000 0.496816
O O15 0.634962 0.633279 0.538197
O O16 0.628083 0.134085 0.512001
O O17 0.000000 0.000000 0.520855
O O18 0.750000 0.250000 0.263671
#
# Coordination Sequence:
#
# PCOD8176536 Si02
#       7
#     8   8   8   8   8   8   8
#     4   9  17  28  46  76 111 143 178 224 274 325
#     4   9  15  26  45  72 110 148 176 213 271 327
#     4  10  20  34  54  83 113 139 177 230 280 323
#     4  11  23  41  60  80 108 145 189 228 271 338
#     4  11  22  37  59  89 119 146 188 243 292 335
#     4  11  23  41  60  82 113 153 194 233 283 351
#     4   9  17  29  48  78 113 144 177 221 272 327
#
# _framework density 20.684123
#
# number of rings (size 3 to 8) (size 9 to 14) (size 15 to 20)
#    0.000    2.000    0.000    5.143    0.000    6.857 
#    0.000    1.429    0.000    0.000    0.000   35.000 
#    0.000    0.000    0.000    0.000    0.000    0.000 
#
# Total GULP energy -346871.654082 kJ/mol
# GULP energy per Si atom -12388.273360 kJ/mol
# Density = 2.063704 g / cm^3
# Si number density = 20.684123 Si / 1000 Ang^3
#
#
#
# Elastic Constant Matrix: (Units=GPa)
#
#
# Indices 1 2 3 4 5 6 
#
# 1 33.9684 29.7366 33.4609 0.0000 0.0000 0.0000
# 2 29.7366 178.9093 51.4288 0.0000 0.0000 0.0000
# 3 33.4609 51.4288 111.6011 0.0000 0.0000 0.0000
# 4 0.0000 0.0000 0.0000 38.2033 0.0000 0.0000
# 5 0.0000 0.0000 0.0000 0.0000 10.7473 0.0000
# 6 0.0000 0.0000 0.0000 0.0000 0.0000 22.8097
#
#
#
# Elastic Compliance Matrix: (Units=1/GPa)
#
#
# Indices 1 2 3 4 5 6 
#
# 1 0.044218 -0.004079 -0.011378 0.000000 0.000000 0.000000
# 2 -0.004079 0.006819 -0.001920 0.000000 0.000000 0.000000
# 3 -0.011378 -0.001920 0.013256 0.000000 0.000000 0.000000
# 4 0.000000 0.000000 0.000000 0.026176 0.000000 0.000000
# 5 0.000000 0.000000 0.000000 0.000000 0.093047 0.000000
# 6 0.000000 0.000000 0.000000 0.000000 0.000000 0.043841
#
#
# Mechanical properties :
#
#
# Convention : Reuss Voigt Hill
#
# Bulk Modulus (GPa) = 33.85149 61.52572 47.68860
# Shear Modulus (GPa) = 18.38529 28.34223 23.36376
#
# Velocity S-wave (km/s) = 2.98461 3.70569 3.36452
# Velocity P-wave (km/s) = 5.31777 6.93682 6.18054
#
# Compressibility (1/GPa) = 0.02954080
#
# Stress axis : x y z
#
# Youngs Moduli (GPa) = 22.61528 146.64605 75.43470
#
# Poissons Ratio (x) = 0.59814 0.85830
# Poissons Ratio (y) = 0.09224 0.14480
# Poissons Ratio (z) = 0.25732 0.28149
#
# Static dielectric constant tensor:
#      x y z
#    x 3.468560 0.000000 0.000000 
#    y 0.000000 4.102140 0.000000 
#    z 0.000000 0.000000 3.868410 
# 
# 
# High freq. dielectric constant tensor:
#      x y z
#    x 1.762520 0.000000 0.000000 
#    y 0.000000 1.831680 0.000000 
#    z 0.000000 0.000000 1.820200 
# 
# From -- ./inp_files/20535.got.cif
#   From: 2010.03.12/outbox.cif.g09.slc.cpg/sg37_11_cif.got.tgz:20535.got - 2010.04.14 02:25:27.
