data_PCOD8176842
_publ_section_title
;
Structure prediction by ZEFSAII (Michael W. Deem and Ramdas Pophale) SiO2 
 PCOD8176842
Probable space group: C C C 2
;
_chemical_formula_sum "Si O2"
_cell_formula_units_Z 48
_cell_length_a 19.165309
_cell_length_b 12.664787
_cell_length_c 9.138784
_cell_angle_alpha 90.000000
_cell_angle_beta 90.000000
_cell_angle_gamma 90.000000
_cell_volume 2218.207291
_symmetry_space_group_name_H-M "C C C 2"
_symmetry_group_IT_number 37
_symmetry_cell_setting 'orthorhombic'
loop_
_space_group_symop_operation_xyz
x,y,z
-x,-y,z
-x,y,1/2+z
x,-y,1/2+z
1/2+x,1/2+y,z
1/2-x,1/2-y,z
1/2-x,1/2+y,1/2+z
1/2+x,1/2-y,1/2+z
loop_
_atom_site_type_symbol
_atom_site_label
_atom_site_fract_x
_atom_site_fract_y
_atom_site_fract_z
Si Si1 0.079570 0.174983 0.361930
Si Si2 0.212489 0.051317 0.294250
Si Si3 0.203961 0.856137 0.474262
Si Si4 0.640575 0.893505 0.367243
Si Si5 0.948228 0.208914 0.527946
Si Si6 0.931944 0.440007 0.570477
O O1 0.139254 0.086189 0.367222
O O2 0.111695 0.283050 0.426304
O O3 0.050818 0.190094 0.199776
O O4 0.013244 0.143424 0.460958
O O5 0.275703 0.113782 0.371411
O O6 0.223596 0.927087 0.332547
O O7 0.214059 0.074320 0.121228
O O8 0.250000 0.750000 0.479891
O O9 0.123458 0.827057 0.454830
O O10 0.619732 0.909728 0.199398
O O11 0.611922 0.990756 0.458642
O O12 0.957445 0.333221 0.490092
O O13 0.000000 0.500000 0.630771
#
# Coordination Sequence:
#
# PCOD8176842 Si02
#       6
#     8   8   8   8   8   8
#     4  10  22  39  61  89 126 170 217 270 326 391
#     4  11  23  43  68  94 127 179 221 269 341 396
#     4  11  24  47  68  96 136 174 223 280 334 399
#     4  11  21  36  60  90 128 163 214 272 327 392
#     4  10  22  39  61  89 131 168 213 273 327 390
#     4  11  21  35  59  95 127 167 212 271 338 393
#
# _framework density 21.639095000000001
#
# number of rings (size 3 to 8) (size 9 to 14) (size 15 to 20)
#    0.000    1.333    1.667    6.000    2.333    2.000 
#    0.000    7.500    0.000    0.000    0.000    0.000 
#    0.000    0.000    0.000    0.000    0.000    0.000 
#
# Total GULP energy -297617.267245 kJ/mol
# GULP energy per Si atom -12400.719469 kJ/mol
# Density = 2.158984 g / cm^3
# Si number density = 21.639095 Si / 1000 Ang^3
#
#
#
# Elastic Constant Matrix: (Units=GPa)
#
#
# Indices 1 2 3 4 5 6 
#
# 1 163.0611 36.1725 34.0413 0.0000 0.0000 0.0000
# 2 36.1725 98.3227 44.6081 0.0000 0.0000 0.0000
# 3 34.0413 44.6081 53.1391 0.0000 0.0000 0.0000
# 4 0.0000 0.0000 0.0000 32.9132 0.0000 0.0000
# 5 0.0000 0.0000 0.0000 0.0000 23.8553 0.0000
# 6 0.0000 0.0000 0.0000 0.0000 0.0000 31.2297
#
#
#
# Elastic Compliance Matrix: (Units=1/GPa)
#
#
# Indices 1 2 3 4 5 6 
#
# 1 0.007127 -0.000889 -0.003819 0.000000 0.000000 0.000000
# 2 -0.000889 0.016538 -0.013313 0.000000 0.000000 0.000000
# 3 -0.003819 -0.013313 0.032441 0.000000 0.000000 0.000000
# 4 0.000000 0.000000 0.000000 0.030383 0.000000 0.000000
# 5 0.000000 0.000000 0.000000 0.000000 0.041919 0.000000
# 6 0.000000 0.000000 0.000000 0.000000 0.000000 0.032021
#
#
# Mechanical properties :
#
#
# Convention : Reuss Voigt Hill
#
# Bulk Modulus (GPa) = 49.84369 60.46298 55.15333
# Shear Modulus (GPa) = 24.61116 30.91305 27.76210
#
# Velocity S-wave (km/s) = 3.37612 3.78375 3.58573
# Velocity P-wave (km/s) = 6.18722 6.86230 6.53349
#
# Compressibility (1/GPa) = 0.02006272
#
# Stress axis : x y z
#
# Youngs Moduli (GPa) = 140.30608 60.46757 30.82526
#
# Poissons Ratio (x) = 0.05378 0.11773
# Poissons Ratio (y) = 0.12478 0.41038
# Poissons Ratio (z) = 0.53586 0.80501
#
# Static dielectric constant tensor:
#      x y z
#    x 4.172150 0.000000 0.000000 
#    y 0.000000 4.017540 0.000000 
#    z 0.000000 0.000000 3.586610 
# 
# 
# High freq. dielectric constant tensor:
#      x y z
#    x 1.873810 0.000000 0.000000 
#    y 0.000000 1.847200 0.000000 
#    z 0.000000 0.000000 1.827030 
# 
# From -- ./inp_files/3498.got.cif
#   From: 2010.03.12/outbox.cif.g09.slc.cpg/sg37_2_cif.got.tgz:3498.got - 2010.04.14 02:25:27.
