data_PCOD8176096
_publ_section_title
;
Structure prediction by ZEFSAII (Michael W. Deem and Ramdas Pophale) SiO2 
 PCOD8176096
Probable space group: C M C 21
;
_chemical_formula_sum "Si O2"
_cell_formula_units_Z 48
_cell_length_a 28.769900
_cell_length_b 5.240986
_cell_length_c 14.316642
_cell_angle_alpha 90.000000
_cell_angle_beta 90.000000
_cell_angle_gamma 90.000000
_cell_volume 2158.701121
_symmetry_space_group_name_H-M "C M C 21"
_symmetry_group_IT_number 36
_symmetry_cell_setting 'orthorhombic'
loop_
_space_group_symop_operation_xyz
x,y,z
-x,-y,1/2+z
x,-y,1/2+z
-x,y,z
1/2+x,1/2+y,z
1/2-x,1/2-y,1/2+z
1/2+x,1/2-y,1/2+z
1/2-x,1/2+y,z
loop_
_atom_site_type_symbol
_atom_site_label
_atom_site_fract_x
_atom_site_fract_y
_atom_site_fract_z
Si Si1 0.553031 0.004902 0.403730
Si Si2 0.136464 0.979603 0.651309
Si Si3 0.052994 0.005083 0.521181
Si Si4 0.270122 0.426394 0.561132
Si Si5 0.363560 0.025742 0.270655
Si Si6 0.730768 0.070388 0.852281
O O1 0.500000 0.020132 0.368253
O O2 0.563726 0.731411 0.448996
O O3 0.563418 0.231425 0.475900
O O4 0.585596 0.039504 0.314889
O O5 0.085829 0.037070 0.610051
O O6 0.174699 0.976840 0.568023
O O7 0.137303 0.703124 0.697605
O O8 0.148111 0.204270 0.723379
O O9 0.000000 0.023231 0.556690
O O10 0.242859 0.659139 0.611777
O O11 0.251890 0.386831 0.455573
O O12 0.324630 0.977312 0.350760
O O13 0.742643 0.337363 0.800086
#
# Coordination Sequence:
#
# PCOD8176096 Si02
#       6
#     8   8   8   8   8   8
#     4  10  23  43  70  97 128 174 219 257 311 394
#     4  12  26  41  66 101 132 166 211 274 330 376
#     4  10  23  43  70  97 128 174 219 257 311 394
#     4  10  23  40  63  90 122 177 213 258 311 385
#     4  12  26  41  66 101 132 166 211 274 330 376
#     4  10  23  40  63  90 122 177 213 258 311 385
#
# _framework density 22.235595
#
# number of rings (size 3 to 8) (size 9 to 14) (size 15 to 20)
#    0.000    1.333    0.000    4.000    9.333    5.333 
#    0.000    0.000    0.000    0.000    0.000    0.000 
#    0.000    0.000    0.000    0.000    0.000    0.000 
#
# Total GULP energy -297581.884067 kJ/mol
# GULP energy per Si atom -12399.245169 kJ/mol
# Density = 2.218499 g / cm^3
# Si number density = 22.235595 Si / 1000 Ang^3
#
#
#
# Elastic Constant Matrix: (Units=GPa)
#
#
# Indices 1 2 3 4 5 6 
#
# 1 132.8141 29.3763 42.9563 0.0000 0.0000 0.0000
# 2 29.3763 152.6409 1.5883 0.0000 0.0000 0.0000
# 3 42.9563 1.5883 48.1484 0.0000 0.0000 0.0000
# 4 0.0000 0.0000 0.0000 -70.2543 0.0000 0.0000
# 5 0.0000 0.0000 0.0000 0.0000 38.7289 0.0000
# 6 0.0000 0.0000 0.0000 0.0000 0.0000 31.5594
#
#
#
# Elastic Compliance Matrix: (Units=1/GPa)
#
#
# Indices 1 2 3 4 5 6 
#
# 1 0.011190 -0.002050 -0.009916 0.000000 0.000000 0.000000
# 2 -0.002050 0.006929 0.001601 0.000000 0.000000 0.000000
# 3 -0.009916 0.001601 0.029563 0.000000 0.000000 0.000000
# 4 0.000000 0.000000 0.000000 -0.014234 0.000000 0.000000
# 5 0.000000 0.000000 0.000000 0.000000 0.025820 0.000000
# 6 0.000000 0.000000 0.000000 0.000000 0.000000 0.031686
#
#
# Mechanical properties :
#
#
# Convention : Reuss Voigt Hill
#
# Bulk Modulus (GPa) = 37.10399 53.49390 45.29895
# Shear Modulus (GPa) = 41.43580 17.31897 29.37739
#
# Velocity S-wave (km/s) = 4.32150 2.79388 3.63876
# Velocity P-wave (km/s) = 6.45162 5.87518 6.17013
#
# Compressibility (1/GPa) = 0.02695128
#
# Stress axis : x y z
#
# Youngs Moduli (GPa) = 89.36692 144.31547 33.82653
#
# Poissons Ratio (x) = 0.29590 0.33541
# Poissons Ratio (y) = 0.18323 -0.05415
# Poissons Ratio (z) = 0.88612 -0.23100
#
# Static dielectric constant tensor:
#      x y z
#    x 4.194980 0.000000 0.000000 
#    y 0.000000 5.094710 0.000000 
#    z 0.000000 0.000000 3.628030 
# 
# 
# High freq. dielectric constant tensor:
#      x y z
#    x 1.885300 0.000000 0.000000 
#    y 0.000000 1.916220 0.000000 
#    z 0.000000 0.000000 1.845550 
# 
# From -- ./inp_files/13052.got.cif
#   From: 2010.03.12/outbox.cif.g09.slc.cpg/sg36_7_cif.got.tgz:13052.got - 2010.04.14 02:13:53.
