data_PCOD8176011
_publ_section_title
;
Structure prediction by ZEFSAII (Michael W. Deem and Ramdas Pophale) SiO2 
 PCOD8176011
Probable space group: C M C 21
;
_chemical_formula_sum "Si O2"
_cell_formula_units_Z 24
_cell_length_a 7.829727
_cell_length_b 25.326261
_cell_length_c 4.823552
_cell_angle_alpha 90.000000
_cell_angle_beta 90.000000
_cell_angle_gamma 90.000000
_cell_volume 956.499314
_symmetry_space_group_name_H-M "C M C 21"
_symmetry_group_IT_number 36
_symmetry_cell_setting 'orthorhombic'
loop_
_space_group_symop_operation_xyz
x,y,z
-x,-y,1/2+z
x,-y,1/2+z
-x,y,z
1/2+x,1/2+y,z
1/2-x,1/2-y,1/2+z
1/2+x,1/2-y,1/2+z
1/2-x,1/2+y,z
loop_
_atom_site_type_symbol
_atom_site_label
_atom_site_fract_x
_atom_site_fract_y
_atom_site_fract_z
Si Si1 0.311310 0.101954 0.392470
Si Si2 0.000000 0.536217 0.006153
Si Si3 0.500000 0.537524 0.613243
Si Si4 0.192340 0.219393 0.339608
O O1 0.500000 0.103230 0.545391
O O2 0.167787 0.073915 0.577266
O O3 0.263345 0.160841 0.313019
O O4 0.331701 0.069349 0.100982
O O5 0.000000 0.480878 0.185377
O O6 0.500000 0.514027 0.919752
O O7 0.199883 0.240155 0.653209
O O8 0.000000 0.219247 0.231812
#
# Coordination Sequence:
#
# PCOD8176011 Si02
#       4
#     8   4   4   8
#     4  10  24  46  69 104 135 182 228 286 345 413
#     4  10  22  40  64  96 134 176 220 272 336 404
#     4  12  26  44  68 100 140 182 230 280 338 412
#     4  12  26  48  73 106 142 185 237 296 356 425
#
# _framework density 25.091493
#
# number of rings (size 3 to 8) (size 9 to 14) (size 15 to 20)
#    1.000    0.000    1.667    5.000    0.000    5.333 
#    0.000    0.000    0.000    0.000    0.000    0.000 
#    0.000    0.000    0.000    0.000    0.000    0.000 
#
# Total GULP energy -148758.269459 kJ/mol
# GULP energy per Si atom -12396.522455 kJ/mol
# Density = 2.503438 g / cm^3
# Si number density = 25.091493 Si / 1000 Ang^3
#
#
#
# Elastic Constant Matrix: (Units=GPa)
#
#
# Indices 1 2 3 4 5 6 
#
# 1 157.2441 50.3501 12.1687 0.0000 0.0000 0.0000
# 2 50.3501 173.5101 12.1584 0.0000 0.0000 0.0000
# 3 12.1687 12.1584 51.8923 0.0000 0.0000 0.0000
# 4 0.0000 0.0000 0.0000 17.7737 0.0000 0.0000
# 5 0.0000 0.0000 0.0000 0.0000 21.4617 0.0000
# 6 0.0000 0.0000 0.0000 0.0000 0.0000 48.4999
#
#
#
# Elastic Compliance Matrix: (Units=1/GPa)
#
#
# Indices 1 2 3 4 5 6 
#
# 1 0.007084 -0.001972 -0.001199 0.000000 0.000000 0.000000
# 2 -0.001972 0.006408 -0.001039 0.000000 0.000000 0.000000
# 3 -0.001199 -0.001039 0.019795 0.000000 0.000000 0.000000
# 4 0.000000 0.000000 0.000000 0.056263 0.000000 0.000000
# 5 0.000000 0.000000 0.000000 0.000000 0.046595 0.000000
# 6 0.000000 0.000000 0.000000 0.000000 0.000000 0.020619
#
#
# Mechanical properties :
#
#
# Convention : Reuss Voigt Hill
#
# Bulk Modulus (GPa) = 40.21298 59.11120 49.66209
# Shear Modulus (GPa) = 28.82303 38.07835 33.45069
#
# Velocity S-wave (km/s) = 3.39295 3.89984 3.65519
# Velocity P-wave (km/s) = 5.60454 6.62478 6.13590
#
# Compressibility (1/GPa) = 0.02486759
#
# Stress axis : x y z
#
# Youngs Moduli (GPa) = 141.17053 156.04808 50.51685
#
# Poissons Ratio (x) = 0.30765 0.06058
# Poissons Ratio (y) = 0.27832 0.05249
# Poissons Ratio (z) = 0.16929 0.16216
#
# Static dielectric constant tensor:
#      x y z
#    x 4.926510 0.000000 0.000000 
#    y 0.000000 4.569040 0.000000 
#    z 0.000000 0.000000 4.063710 
# 
# 
# High freq. dielectric constant tensor:
#      x y z
#    x 2.013120 0.000000 0.000000 
#    y 0.000000 2.021920 0.000000 
#    z 0.000000 0.000000 1.981610 
# 
# From -- ./inp_files/149.got.cif
#   From: 2010.03.12/outbox.cif.g09.slc.cpg/sg36_1_cif.got.tgz:149.got - 2010.04.14 02:13:53.
