data_PCOD8176672
_publ_section_title
;
Structure prediction by ZEFSAII (Michael W. Deem and Ramdas Pophale) SiO2 
 PCOD8176672
Probable space group: C C C 2
;
_chemical_formula_sum "Si O2"
_cell_formula_units_Z 48
_cell_length_a 22.660027
_cell_length_b 7.936439
_cell_length_c 11.668191
_cell_angle_alpha 90.000000
_cell_angle_beta 90.000000
_cell_angle_gamma 90.000000
_cell_volume 2098.406560
_symmetry_space_group_name_H-M "C C C 2"
_symmetry_group_IT_number 37
_symmetry_cell_setting 'orthorhombic'
loop_
_space_group_symop_operation_xyz
x,y,z
-x,-y,z
-x,y,1/2+z
x,-y,1/2+z
1/2+x,1/2+y,z
1/2-x,1/2-y,z
1/2-x,1/2+y,1/2+z
1/2+x,1/2-y,1/2+z
loop_
_atom_site_type_symbol
_atom_site_label
_atom_site_fract_x
_atom_site_fract_y
_atom_site_fract_z
Si Si1 0.750000 0.750000 0.613720
Si Si2 0.556421 0.622300 0.514262
Si Si3 0.672686 0.031469 0.945888
Si Si4 0.662484 0.526454 0.128577
Si Si5 0.902273 0.272209 0.786882
Si Si6 0.437054 0.027006 0.594095
Si Si7 0.250000 0.250000 0.990848
O O1 0.707978 0.860970 0.536361
O O2 0.704345 0.625004 0.680712
O O3 0.500000 0.500000 0.533756
O O4 0.618647 0.526695 0.525151
O O5 0.554055 0.711966 0.389056
O O6 0.562700 0.768821 0.612588
O O7 0.613375 0.964373 0.007483
O O8 0.714573 0.877041 0.907723
O O9 0.656859 0.138021 0.834297
O O10 0.619837 0.603621 0.224877
O O11 0.703802 0.667327 0.076384
O O12 0.934615 0.412579 0.708752
O O13 0.500000 0.000000 0.533275
#
# Coordination Sequence:
#
# PCOD8176672 Si02
#       7
#     4   8   8   8   8   8   4
#     4  10  20  45  69  96 148 180 232 290 354 408
#     4  11  26  49  72 101 144 183 235 300 353 425
#     4  10  22  45  66 105 137 186 228 293 347 421
#     4  11  22  45  71 103 139 190 233 293 349 418
#     4  11  24  44  70 107 138 188 242 284 360 424
#     4  11  23  45  71 101 137 181 231 298 351 419
#     4  10  22  43  73  94 148 182 228 292 354 410
#
# _framework density 22.874500000000001
#
# number of rings (size 3 to 8) (size 9 to 14) (size 15 to 20)
#    0.000    1.333    5.000    1.000    0.000    5.333 
#    3.000    1.667    0.000    0.000    0.000    0.000 
#    0.000    0.000    0.000    0.000    0.000    0.000 
#
# Total GULP energy -297313.142782 kJ/mol
# GULP energy per Si atom -12388.047616 kJ/mol
# Density = 2.282244 g / cm^3
# Si number density = 22.874500 Si / 1000 Ang^3
#
#
#
# Elastic Constant Matrix: (Units=GPa)
#
#
# Indices 1 2 3 4 5 6 
#
# 1 143.3193 60.6793 26.3027 0.0000 0.0000 0.0000
# 2 60.6793 145.3387 41.6497 0.0000 0.0000 0.0000
# 3 26.3027 41.6497 69.9060 0.0000 0.0000 0.0000
# 4 0.0000 0.0000 0.0000 38.1779 0.0000 0.0000
# 5 0.0000 0.0000 0.0000 0.0000 47.0195 0.0000
# 6 0.0000 0.0000 0.0000 0.0000 0.0000 62.2128
#
#
#
# Elastic Compliance Matrix: (Units=1/GPa)
#
#
# Indices 1 2 3 4 5 6 
#
# 1 0.008575 -0.003202 -0.001319 0.000000 0.000000 0.000000
# 2 -0.003202 0.009493 -0.004451 0.000000 0.000000 0.000000
# 3 -0.001319 -0.004451 0.017453 0.000000 0.000000 0.000000
# 4 0.000000 0.000000 0.000000 0.026193 0.000000 0.000000
# 5 0.000000 0.000000 0.000000 0.000000 0.021268 0.000000
# 6 0.000000 0.000000 0.000000 0.000000 0.000000 0.016074
#
#
# Mechanical properties :
#
#
# Convention : Reuss Voigt Hill
#
# Bulk Modulus (GPa) = 56.89127 68.42528 62.65827
# Shear Modulus (GPa) = 40.69713 44.81087 42.75400
#
# Velocity S-wave (km/s) = 4.22257 4.43085 4.32796
# Velocity P-wave (km/s) = 6.97843 7.49365 7.24063
#
# Compressibility (1/GPa) = 0.01757739
#
# Stress axis : x y z
#
# Youngs Moduli (GPa) = 116.61495 105.34112 57.29700
#
# Poissons Ratio (x) = 0.33734 0.07555
# Poissons Ratio (y) = 0.37344 0.25503
# Poissons Ratio (z) = 0.15377 0.46887
#
# Static dielectric constant tensor:
#      x y z
#    x 4.509710 0.000000 0.000000 
#    y 0.000000 4.686830 0.000000 
#    z 0.000000 0.000000 3.623090 
# 
# 
# High freq. dielectric constant tensor:
#      x y z
#    x 1.924730 0.000000 0.000000 
#    y 0.000000 1.925210 0.000000 
#    z 0.000000 0.000000 1.857810 
# 
# From -- ./inp_files/8878.got.cif
#   From: 2010.03.12/outbox.cif.g09.slc.cpg/sg37_5_cif.got.tgz:8878.got - 2010.04.14 02:25:27.
