data_PCOD8176360
_publ_section_title
;
Structure prediction by ZEFSAII (Michael W. Deem and Ramdas Pophale) SiO2 
 PCOD8176360
Probable space group: C C C 2
;
_chemical_formula_sum "Si O2"
_cell_formula_units_Z 48
_cell_length_a 20.260406
_cell_length_b 16.172423
_cell_length_c 5.318512
_cell_angle_alpha 90.000000
_cell_angle_beta 90.000000
_cell_angle_gamma 90.000000
_cell_volume 1742.662876
_symmetry_space_group_name_H-M "C C C 2"
_symmetry_group_IT_number 37
_symmetry_cell_setting 'orthorhombic'
loop_
_space_group_symop_operation_xyz
x,y,z
-x,-y,z
-x,y,1/2+z
x,-y,1/2+z
1/2+x,1/2+y,z
1/2-x,1/2-y,z
1/2-x,1/2+y,1/2+z
1/2+x,1/2-y,1/2+z
loop_
_atom_site_type_symbol
_atom_site_label
_atom_site_fract_x
_atom_site_fract_y
_atom_site_fract_z
Si Si1 0.716257 0.162313 0.095330
Si Si2 0.525641 0.592948 0.673402
Si Si3 0.665576 0.547234 0.602355
Si Si4 0.677912 0.208656 0.592535
Si Si5 0.071493 0.464518 0.933983
Si Si6 0.040857 0.272114 0.981162
O O1 0.750000 0.250000 0.156304
O O2 0.772740 0.099623 0.020686
O O3 0.680973 0.140606 0.362576
O O4 0.664801 0.164691 0.862931
O O5 0.500000 0.500000 0.738114
O O6 0.479847 0.635696 0.453332
O O7 0.598256 0.598146 0.561296
O O8 0.665630 0.474482 0.397453
O O9 0.750000 0.250000 0.630447
O O10 0.614868 0.268695 0.531265
O O11 0.108158 0.486501 0.665809
O O12 0.000000 0.500000 0.864979
O O13 0.061443 0.368189 0.000168
O O14 0.987713 0.249187 0.202207
#
# Coordination Sequence:
#
# PCOD8176360 Si02
#       6
#     8   8   8   8   8   8
#     4  10  23  45  67  86 126 193 230 269 340 405
#     4  10  16  30  51  89 131 172 206 268 354 406
#     4  12  21  35  65  98 136 174 231 289 327 411
#     4  10  23  45  68  89 127 183 226 275 338 401
#     4  10  16  30  48  78 128 159 188 249 319 396
#     4  12  21  35  65  98 118 166 216 269 326 386
#
# _framework density 27.544053999999999
#
# number of rings (size 3 to 8) (size 9 to 14) (size 15 to 20)
#    0.000    1.333    6.667    2.000    0.000    0.000 
#    0.000    5.000    0.000   24.000    0.000    0.000 
#    0.000    0.000    0.000    0.000    0.000    0.000 
#
# Total GULP energy -297389.810935 kJ/mol
# GULP energy per Si atom -12391.242122 kJ/mol
# Density = 2.748136 g / cm^3
# Si number density = 27.544054 Si / 1000 Ang^3
#
#
#
# Elastic Constant Matrix: (Units=GPa)
#
#
# Indices 1 2 3 4 5 6 
#
# 1 141.8725 -1.3159 34.3076 0.0000 0.0000 0.0000
# 2 -1.3159 54.6512 35.3985 0.0000 0.0000 0.0000
# 3 34.3076 35.3985 265.8841 0.0000 0.0000 0.0000
# 4 0.0000 0.0000 0.0000 58.5722 0.0000 0.0000
# 5 0.0000 0.0000 0.0000 0.0000 -21.8435 0.0000
# 6 0.0000 0.0000 0.0000 0.0000 0.0000 30.6995
#
#
#
# Elastic Compliance Matrix: (Units=1/GPa)
#
#
# Indices 1 2 3 4 5 6 
#
# 1 0.007312 0.000862 -0.001058 0.000000 0.000000 0.000000
# 2 0.000862 0.020126 -0.002791 0.000000 0.000000 0.000000
# 3 -0.001058 -0.002791 0.004269 0.000000 0.000000 0.000000
# 4 0.000000 0.000000 0.000000 0.017073 0.000000 0.000000
# 5 0.000000 0.000000 0.000000 0.000000 -0.045780 0.000000
# 6 0.000000 0.000000 0.000000 0.000000 0.000000 0.032574
#
#
# Mechanical properties :
#
#
# Convention : Reuss Voigt Hill
#
# Bulk Modulus (GPa) = 38.86065 66.57646 52.71855
# Shear Modulus (GPa) = 99.74706 39.75347 69.75026
#
# Velocity S-wave (km/s) = 6.02431 3.80316 5.03767
# Velocity P-wave (km/s) = 7.90752 6.59611 7.28140
#
# Compressibility (1/GPa) = 0.02573297
#
# Stress axis : x y z
#
# Youngs Moduli (GPa) = 136.75258 49.68657 234.24038
#
# Poissons Ratio (x) = -0.04281 0.24788
# Poissons Ratio (y) = -0.11781 0.65368
# Poissons Ratio (z) = 0.14472 0.13866
#
# Static dielectric constant tensor:
#      x y z
#    x 6.363880 0.000000 0.000000 
#    y 0.000000 5.078610 0.000000 
#    z 0.000000 0.000000 6.025710 
# 
# 
# High freq. dielectric constant tensor:
#      x y z
#    x 2.105720 0.000000 0.000000 
#    y 0.000000 2.103180 0.000000 
#    z 0.000000 0.000000 2.160640 
# 
# From -- ./inp_files/1193.got.cif
#   From: 2010.03.12/outbox.cif.g09.slc.cpg/sg37_1_cif.got.tgz:1193.got - 2010.04.14 02:25:27.
