data_PCOD8176100
_publ_section_title
;
Structure prediction by ZEFSAII (Michael W. Deem and Ramdas Pophale) SiO2 
 PCOD8176100
Probable space group: C M C 21
;
_chemical_formula_sum "Si O2"
_cell_formula_units_Z 40
_cell_length_a 14.376870
_cell_length_b 9.516510
_cell_length_c 13.420131
_cell_angle_alpha 90.000000
_cell_angle_beta 90.000000
_cell_angle_gamma 90.000000
_cell_volume 1836.110479
_symmetry_space_group_name_H-M "C M C 21"
_symmetry_group_IT_number 36
_symmetry_cell_setting 'orthorhombic'
loop_
_space_group_symop_operation_xyz
x,y,z
-x,-y,1/2+z
x,-y,1/2+z
-x,y,z
1/2+x,1/2+y,z
1/2-x,1/2-y,1/2+z
1/2+x,1/2-y,1/2+z
1/2-x,1/2+y,z
loop_
_atom_site_type_symbol
_atom_site_label
_atom_site_fract_x
_atom_site_fract_y
_atom_site_fract_z
Si Si1 0.809356 0.923411 0.938450
Si Si2 0.000000 0.602325 0.747617
Si Si3 0.342197 0.105787 0.274380
Si Si4 0.194650 0.357184 0.545208
Si Si5 0.000000 0.576759 0.064637
Si Si6 0.500000 0.413507 0.826778
Si Si7 0.000000 0.794777 0.242569
O O1 0.745606 0.888977 0.844539
O O2 0.913925 0.930370 0.900592
O O3 0.796992 0.807329 0.024145
O O4 0.779742 0.068596 0.989472
O O5 0.905593 0.533296 0.792005
O O6 0.000000 0.566505 0.629429
O O7 0.000000 0.767646 0.767113
O O8 0.301897 0.111880 0.162362
O O9 0.406382 0.241855 0.298099
O O10 0.094763 0.414920 0.500311
O O11 0.000000 0.717697 0.134978
O O12 0.500000 0.536006 0.742402
#
# Coordination Sequence:
#
# PCOD8176100 Si02
#       7
#     8   4   8   8   4   4   4
#     4  12  24  38  61  89 123 165 202 248 302 358
#     4   8  18  38  65  89 119 161 198 243 303 369
#     4   9  21  43  64  85 119 163 205 243 301 373
#     4  10  23  41  62  90 121 158 203 251 303 361
#     4   8  19  43  65  84 118 161 200 243 303 372
#     4  12  23  34  57  96 124 152 204 254 299 348
#     4   8  18  37  61  87 117 150 190 256 309 343
#
# _framework density 21.785183
#
# number of rings (size 3 to 8) (size 9 to 14) (size 15 to 20)
#    0.000    2.800    0.000    3.000    0.000    9.600 
#    0.000    2.000    0.000    2.400    0.000    0.000 
#    0.000    0.000    0.000    0.000    0.000    0.000 
#
# Total GULP energy -247869.595719 kJ/mol
# GULP energy per Si atom -12393.479786 kJ/mol
# Density = 2.173560 g / cm^3
# Si number density = 21.785183 Si / 1000 Ang^3
#
#
#
# Elastic Constant Matrix: (Units=GPa)
#
#
# Indices 1 2 3 4 5 6 
#
# 1 137.2772 33.4279 39.9499 0.0000 0.0000 0.0000
# 2 33.4279 150.0292 26.1761 0.0000 0.0000 0.0000
# 3 39.9499 26.1761 80.2963 0.0000 0.0000 0.0000
# 4 0.0000 0.0000 0.0000 18.1792 0.0000 0.0000
# 5 0.0000 0.0000 0.0000 0.0000 38.3012 0.0000
# 6 0.0000 0.0000 0.0000 0.0000 0.0000 20.8460
#
#
#
# Elastic Compliance Matrix: (Units=1/GPa)
#
#
# Indices 1 2 3 4 5 6 
#
# 1 0.008737 -0.001260 -0.003936 0.000000 0.000000 0.000000
# 2 -0.001260 0.007249 -0.001736 0.000000 0.000000 0.000000
# 3 -0.003936 -0.001736 0.014978 0.000000 0.000000 0.000000
# 4 0.000000 0.000000 0.000000 0.055008 0.000000 0.000000
# 5 0.000000 0.000000 0.000000 0.000000 0.026109 0.000000
# 6 0.000000 0.000000 0.000000 0.000000 0.000000 0.047971
#
#
# Mechanical properties :
#
#
# Convention : Reuss Voigt Hill
#
# Bulk Modulus (GPa) = 58.48142 62.96782 60.72462
# Shear Modulus (GPa) = 27.83719 33.33522 30.58620
#
# Velocity S-wave (km/s) = 3.57852 3.91599 3.75105
# Velocity P-wave (km/s) = 6.63153 7.02947 6.83340
#
# Compressibility (1/GPa) = 0.01709945
#
# Stress axis : x y z
#
# Youngs Moduli (GPa) = 114.45840 137.94969 66.76353
#
# Poissons Ratio (x) = 0.17380 0.26279
# Poissons Ratio (y) = 0.14421 0.11592
# Poissons Ratio (z) = 0.45052 0.23952
#
# Static dielectric constant tensor:
#      x y z
#    x 4.315640 0.000000 0.000000 
#    y 0.000000 3.840290 0.000000 
#    z 0.000000 0.000000 3.624010 
# 
# 
# High freq. dielectric constant tensor:
#      x y z
#    x 1.871540 0.000000 0.000000 
#    y 0.000000 1.845440 0.000000 
#    z 0.000000 0.000000 1.840330 
# 
# From -- ./inp_files/11976.got.cif
#   From: 2010.03.12/outbox.cif.g09.slc.cpg/sg36_6_cif.got.tgz:11976.got - 2010.04.14 02:13:53.
