data_PCOD8176609
_publ_section_title
;
Structure prediction by ZEFSAII (Michael W. Deem and Ramdas Pophale) SiO2 
 PCOD8176609
Probable space group: C C C 2
;
_chemical_formula_sum "Si O2"
_cell_formula_units_Z 48
_cell_length_a 8.306591
_cell_length_b 15.192363
_cell_length_c 18.151521
_cell_angle_alpha 90.000000
_cell_angle_beta 90.000000
_cell_angle_gamma 90.000000
_cell_volume 2290.662881
_symmetry_space_group_name_H-M "C C C 2"
_symmetry_group_IT_number 37
_symmetry_cell_setting 'orthorhombic'
loop_
_space_group_symop_operation_xyz
x,y,z
-x,-y,z
-x,y,1/2+z
x,-y,1/2+z
1/2+x,1/2+y,z
1/2-x,1/2-y,z
1/2-x,1/2+y,1/2+z
1/2+x,1/2-y,1/2+z
loop_
_atom_site_type_symbol
_atom_site_label
_atom_site_fract_x
_atom_site_fract_y
_atom_site_fract_z
Si Si1 0.302004 0.652912 0.107320
Si Si2 0.676671 0.345010 0.639465
Si Si3 0.810399 0.488710 0.529201
Si Si4 0.696534 0.843136 0.298342
Si Si5 0.810659 0.991897 0.872869
Si Si6 0.611356 0.914027 0.747916
O O1 0.250000 0.750000 0.081323
O O2 0.487723 0.653745 0.127513
O O3 0.274790 0.583034 0.042164
O O4 0.191440 0.620675 0.174255
O O5 0.750000 0.250000 0.619307
O O6 0.763812 0.418778 0.591322
O O7 0.705204 0.368882 0.724657
O O8 0.747410 0.453038 0.450785
O O9 0.000000 0.500000 0.527947
O O10 0.750000 0.750000 0.330437
O O11 0.506945 0.838318 0.278706
O O12 0.729595 0.912781 0.362455
O O13 0.750632 0.928791 0.807638
O O14 0.000000 0.000000 0.869195
O O15 0.500000 0.000000 0.733125
#
# Coordination Sequence:
#
# PCOD8176609 Si02
#       6
#     8   8   8   8   8   8
#     4  12  23  38  63  93 122 158 198 245 299 355
#     4  11  23  41  63  91 120 156 203 250 295 350
#     4  12  24  42  62  86 122 161 199 247 299 356
#     4  10  20  38  62  88 118 153 196 247 292 346
#     4  11  23  40  60  86 118 159 199 240 296 357
#     4  10  21  39  61  88 119 157 199 243 297 352
#
# _framework density 20.954633000000001
#
# number of rings (size 3 to 8) (size 9 to 14) (size 15 to 20)
#    0.000    1.000    0.000   10.500    0.000    0.667 
#    0.000    5.833    0.000    0.000    0.000    0.000 
#    0.000    0.000    0.000    0.000    0.000    0.000 
#
# Total GULP energy -297684.541374 kJ/mol
# GULP energy per Si atom -12403.522557 kJ/mol
# Density = 2.090694 g / cm^3
# Si number density = 20.954633 Si / 1000 Ang^3
#
#
#
# Elastic Constant Matrix: (Units=GPa)
#
#
# Indices 1 2 3 4 5 6 
#
# 1 153.1155 8.4453 -1.6142 0.0000 0.0000 0.0000
# 2 8.4453 86.0640 10.2225 0.0000 0.0000 0.0000
# 3 -1.6142 10.2225 46.7124 0.0000 0.0000 0.0000
# 4 0.0000 0.0000 0.0000 20.0594 0.0000 0.0000
# 5 0.0000 0.0000 0.0000 0.0000 35.6276 0.0000
# 6 0.0000 0.0000 0.0000 0.0000 0.0000 32.4540
#
#
#
# Elastic Compliance Matrix: (Units=1/GPa)
#
#
# Indices 1 2 3 4 5 6 
#
# 1 0.006573 -0.000690 0.000378 0.000000 0.000000 0.000000
# 2 -0.000690 0.012002 -0.002650 0.000000 0.000000 0.000000
# 3 0.000378 -0.002650 0.022001 0.000000 0.000000 0.000000
# 4 0.000000 0.000000 0.000000 0.049852 0.000000 0.000000
# 5 0.000000 0.000000 0.000000 0.000000 0.028068 0.000000
# 6 0.000000 0.000000 0.000000 0.000000 0.000000 0.030813
#
#
# Mechanical properties :
#
#
# Convention : Reuss Voigt Hill
#
# Bulk Modulus (GPa) = 28.85894 35.55545 32.20719
# Shear Modulus (GPa) = 29.97909 35.55076 32.76493
#
# Velocity S-wave (km/s) = 3.78652 4.12340 3.95854
# Velocity P-wave (km/s) = 5.73751 6.29877 6.02468
#
# Compressibility (1/GPa) = 0.03465131
#
# Stress axis : x y z
#
# Youngs Moduli (GPa) = 152.13621 83.32112 45.45316
#
# Poissons Ratio (x) = 0.05748 -0.01719
# Poissons Ratio (y) = 0.10496 0.12046
# Poissons Ratio (z) = -0.05753 0.22083
#
# Static dielectric constant tensor:
#      x y z
#    x 4.041490 0.000000 0.000000 
#    y 0.000000 4.726030 0.000000 
#    z 0.000000 0.000000 3.877580 
# 
# 
# High freq. dielectric constant tensor:
#      x y z
#    x 1.844380 0.000000 0.000000 
#    y 0.000000 1.818350 0.000000 
#    z 0.000000 0.000000 1.813890 
# 
# From -- ./inp_files/14488.got.cif
#   From: 2010.03.12/outbox.cif.g09.slc.cpg/sg37_8_cif.got.tgz:14488.got - 2010.04.14 02:25:27.
