data_PCOD8176474
_publ_section_title
;
Structure prediction by ZEFSAII (Michael W. Deem and Ramdas Pophale) SiO2 
 PCOD8176474
Probable space group: C C C 2
;
_chemical_formula_sum "Si O2"
_cell_formula_units_Z 40
_cell_length_a 9.056229
_cell_length_b 22.033142
_cell_length_c 8.761667
_cell_angle_alpha 90.000000
_cell_angle_beta 90.000000
_cell_angle_gamma 90.000000
_cell_volume 1748.278321
_symmetry_space_group_name_H-M "C C C 2"
_symmetry_group_IT_number 37
_symmetry_cell_setting 'orthorhombic'
loop_
_space_group_symop_operation_xyz
x,y,z
-x,-y,z
-x,y,1/2+z
x,-y,1/2+z
1/2+x,1/2+y,z
1/2-x,1/2-y,z
1/2-x,1/2+y,1/2+z
1/2+x,1/2-y,1/2+z
loop_
_atom_site_type_symbol
_atom_site_label
_atom_site_fract_x
_atom_site_fract_y
_atom_site_fract_z
Si Si1 0.155492 0.302357 0.185580
Si Si2 0.811775 0.542607 0.943844
Si Si3 0.887344 0.430949 0.785773
Si Si4 0.640507 0.657012 0.919944
Si Si5 0.895368 0.779349 0.605562
O O1 0.250000 0.250000 0.269246
O O2 0.161533 0.360755 0.295519
O O3 0.991278 0.278625 0.157905
O O4 0.226687 0.315638 0.020220
O O5 0.782957 0.472109 0.896467
O O6 0.664811 0.583706 0.919691
O O7 0.941735 0.565539 0.831897
O O8 0.870197 0.544794 0.114928
O O9 0.653731 0.681053 0.749745
O O10 0.482166 0.676260 0.989635
O O11 0.750000 0.750000 0.528464
#
# Coordination Sequence:
#
# PCOD8176474 Si02
#       5
#     8   8   8   8   8
#     4   9  20  38  62  93 127 162 211 266 317 377
#     4  10  20  38  62  97 131 164 218 270 317 376
#     4  10  19  35  65  93 125 167 207 263 320 377
#     4  10  23  41  62  94 133 168 214 270 318 384
#     4  11  21  38  63  93 132 173 211 263 330 388
#
# _framework density 22.879650999999999
#
# number of rings (size 3 to 8) (size 9 to 14) (size 15 to 20)
#    0.000    2.000    0.000    5.400    0.000    5.600 
#    0.000   18.000    0.000   25.200    0.000   16.800 
#    0.000    0.000    0.000    0.000    0.000    0.000 
#
# Total GULP energy -247893.373691 kJ/mol
# GULP energy per Si atom -12394.668685 kJ/mol
# Density = 2.282758 g / cm^3
# Si number density = 22.879651 Si / 1000 Ang^3
#
#
#
# Elastic Constant Matrix: (Units=GPa)
#
#
# Indices 1 2 3 4 5 6 
#
# 1 124.0491 61.8155 17.9644 0.0000 0.0000 0.0000
# 2 61.8155 196.5059 31.0879 0.0000 0.0000 0.0000
# 3 17.9644 31.0879 90.2534 0.0000 0.0000 0.0000
# 4 0.0000 0.0000 0.0000 56.2216 0.0000 0.0000
# 5 0.0000 0.0000 0.0000 0.0000 21.3133 0.0000
# 6 0.0000 0.0000 0.0000 0.0000 0.0000 39.8437
#
#
#
# Elastic Compliance Matrix: (Units=1/GPa)
#
#
# Indices 1 2 3 4 5 6 
#
# 1 0.009632 -0.002884 -0.000924 0.000000 0.000000 0.000000
# 2 -0.002884 0.006246 -0.001577 0.000000 0.000000 0.000000
# 3 -0.000924 -0.001577 0.011807 0.000000 0.000000 0.000000
# 4 0.000000 0.000000 0.000000 0.017787 0.000000 0.000000
# 5 0.000000 0.000000 0.000000 0.000000 0.046919 0.000000
# 6 0.000000 0.000000 0.000000 0.000000 0.000000 0.025098
#
#
# Mechanical properties :
#
#
# Convention : Reuss Voigt Hill
#
# Bulk Modulus (GPa) = 59.11970 70.28268 64.70119
# Shear Modulus (GPa) = 37.34207 43.47176 40.40692
#
# Velocity S-wave (km/s) = 4.04432 4.36365 4.20702
# Velocity P-wave (km/s) = 6.90682 7.49491 7.20687
#
# Compressibility (1/GPa) = 0.01691484
#
# Stress axis : x y z
#
# Youngs Moduli (GPa) = 103.81856 160.11204 84.69472
#
# Poissons Ratio (x) = 0.46174 0.07825
# Poissons Ratio (y) = 0.29940 0.13359
# Poissons Ratio (z) = 0.09592 0.25254
#
# Static dielectric constant tensor:
#      x y z
#    x 3.983420 0.000000 0.000000 
#    y 0.000000 4.948680 0.000000 
#    z 0.000000 0.000000 4.031590 
# 
# 
# High freq. dielectric constant tensor:
#      x y z
#    x 1.876920 0.000000 0.000000 
#    y 0.000000 1.912980 0.000000 
#    z 0.000000 0.000000 1.908510 
# 
# From -- ./inp_files/2202.got.cif
#   From: 2010.03.12/outbox.cif.g09.slc.cpg/sg37_2_cif.got.tgz:2202.got - 2010.04.14 02:25:27.
