data_PCOD8176099
_publ_section_title
;
Structure prediction by ZEFSAII (Michael W. Deem and Ramdas Pophale) SiO2 
 PCOD8176099
Probable space group: C M C 21
;
_chemical_formula_sum "Si O2"
_cell_formula_units_Z 40
_cell_length_a 25.552133
_cell_length_b 5.018875
_cell_length_c 12.488234
_cell_angle_alpha 90.000000
_cell_angle_beta 90.000000
_cell_angle_gamma 90.000000
_cell_volume 1601.528112
_symmetry_space_group_name_H-M "C M C 21"
_symmetry_group_IT_number 36
_symmetry_cell_setting 'orthorhombic'
loop_
_space_group_symop_operation_xyz
x,y,z
-x,-y,1/2+z
x,-y,1/2+z
-x,y,z
1/2+x,1/2+y,z
1/2-x,1/2-y,1/2+z
1/2+x,1/2-y,1/2+z
1/2-x,1/2+y,z
loop_
_atom_site_type_symbol
_atom_site_label
_atom_site_fract_x
_atom_site_fract_y
_atom_site_fract_z
Si Si1 0.283854 0.652118 0.413680
Si Si2 0.441294 0.451810 0.112908
Si Si3 0.127794 0.158280 0.805404
Si Si4 0.280533 0.692107 0.664646
Si Si5 0.939951 0.463167 0.973049
O O1 0.241378 0.429623 0.374777
O O2 0.341403 0.572516 0.370758
O O3 0.291407 0.689215 0.539481
O O4 0.500000 0.360606 0.136551
O O5 0.414669 0.475768 0.228487
O O6 0.437414 0.742862 0.064440
O O7 0.419080 0.237500 0.026407
O O8 0.168675 0.301809 0.725722
O O9 0.100228 0.380348 0.879279
O O10 0.267644 0.386019 0.696494
O O11 0.000000 0.491433 0.929388
#
# Coordination Sequence:
#
# PCOD8176099 Si02
#       5
#     8   8   8   8   8
#     4  10  23  41  60  89 129 166 206 258 312 370
#     4  10  24  44  64  93 130 164 207 265 324 383
#     4  12  23  40  70  96 122 170 221 260 316 384
#     4  10  23  41  60  89 129 166 206 258 312 370
#     4  10  24  44  64  93 130 164 207 265 324 383
#
# _framework density 24.976146
#
# number of rings (size 3 to 8) (size 9 to 14) (size 15 to 20)
#    0.000    1.600    0.000    3.000    0.000   12.800 
#    0.000    6.000    0.000    0.000    0.000    0.000 
#    0.000    0.000    0.000    0.000    0.000    0.000 
#
# Total GULP energy -247923.877007 kJ/mol
# GULP energy per Si atom -12396.193850 kJ/mol
# Density = 2.491930 g / cm^3
# Si number density = 24.976146 Si / 1000 Ang^3
#
#
#
# Elastic Constant Matrix: (Units=GPa)
#
#
# Indices 1 2 3 4 5 6 
#
# 1 113.8211 22.2226 59.6126 0.0000 0.0000 0.0000
# 2 22.2226 70.1578 30.8436 0.0000 0.0000 0.0000
# 3 59.6126 30.8436 86.7780 0.0000 0.0000 0.0000
# 4 0.0000 0.0000 0.0000 27.1982 0.0000 0.0000
# 5 0.0000 0.0000 0.0000 0.0000 63.3096 0.0000
# 6 0.0000 0.0000 0.0000 0.0000 0.0000 4.7184
#
#
#
# Elastic Compliance Matrix: (Units=1/GPa)
#
#
# Indices 1 2 3 4 5 6 
#
# 1 0.013726 -0.000240 -0.009344 0.000000 0.000000 0.000000
# 2 -0.000240 0.016897 -0.005841 0.000000 0.000000 0.000000
# 3 -0.009344 -0.005841 0.020019 0.000000 0.000000 0.000000
# 4 0.000000 0.000000 0.000000 0.036767 0.000000 0.000000
# 5 0.000000 0.000000 0.000000 0.000000 0.015795 0.000000
# 6 0.000000 0.000000 0.000000 0.000000 0.000000 0.211938
#
#
# Mechanical properties :
#
#
# Convention : Reuss Voigt Hill
#
# Bulk Modulus (GPa) = 50.52443 55.12382 52.82413
# Shear Modulus (GPa) = 14.18075 29.58377 21.88226
#
# Velocity S-wave (km/s) = 2.38538 3.44536 2.96315
# Velocity P-wave (km/s) = 5.27823 6.16002 5.73610
#
# Compressibility (1/GPa) = 0.01979240
#
# Stress axis : x y z
#
# Youngs Moduli (GPa) = 72.85191 59.18038 49.95302
#
# Poissons Ratio (x) = 0.01420 0.46677
# Poissons Ratio (y) = 0.01748 0.29178
# Poissons Ratio (z) = 0.68074 0.34568
#
# Static dielectric constant tensor:
#      x y z
#    x 4.629090 0.000000 0.000000 
#    y 0.000000 4.365140 0.000000 
#    z 0.000000 0.000000 4.782420 
# 
# 
# High freq. dielectric constant tensor:
#      x y z
#    x 1.996130 0.000000 0.000000 
#    y 0.000000 1.988920 0.000000 
#    z 0.000000 0.000000 2.023380 
# 
# From -- ./inp_files/13015.got.cif
#   From: 2010.03.12/outbox.cif.g09.slc.cpg/sg36_7_cif.got.tgz:13015.got - 2010.04.14 02:13:53.
