data_PCOD8176032
_publ_section_title
;
Structure prediction by ZEFSAII (Michael W. Deem and Ramdas Pophale) SiO2 
 PCOD8176032
Probable space group: C M C 21
;
_chemical_formula_sum "Si O2"
_cell_formula_units_Z 64
_cell_length_a 8.658246
_cell_length_b 30.349829
_cell_length_c 11.969535
_cell_angle_alpha 90.000000
_cell_angle_beta 90.000000
_cell_angle_gamma 90.000000
_cell_volume 3145.309947
_symmetry_space_group_name_H-M "C M C 21"
_symmetry_group_IT_number 36
_symmetry_cell_setting 'orthorhombic'
loop_
_space_group_symop_operation_xyz
x,y,z
-x,-y,1/2+z
x,-y,1/2+z
-x,y,z
1/2+x,1/2+y,z
1/2-x,1/2-y,1/2+z
1/2+x,1/2-y,1/2+z
1/2-x,1/2+y,z
loop_
_atom_site_type_symbol
_atom_site_label
_atom_site_fract_x
_atom_site_fract_y
_atom_site_fract_z
Si Si1 0.680794 0.051591 0.923630
Si Si2 0.182729 0.123541 0.078564
Si Si3 0.824721 0.323857 0.191128
Si Si4 0.319578 0.541217 0.466201
Si Si5 0.816600 0.126480 0.330646
Si Si6 0.319654 0.299387 0.415894
Si Si7 0.181418 0.208789 0.475164
Si Si8 0.824555 0.576125 0.678437
O O1 0.500000 0.057490 0.939520
O O2 0.735494 0.070639 0.804639
O O3 0.725742 0.000748 0.925486
O O4 0.761256 0.078419 0.022622
O O5 0.249577 0.126554 0.204385
O O6 0.000000 0.122065 0.080186
O O7 0.239444 0.166334 0.009915
O O8 0.711156 0.320493 0.295764
O O9 0.814275 0.373070 0.143649
O O10 0.000000 0.311644 0.225803
O O11 0.768440 0.291728 0.093457
O O12 0.500000 0.532850 0.448723
O O13 0.258642 0.582724 0.394274
O O14 0.286065 0.548827 0.596903
O O15 0.756010 0.170014 0.394297
O O16 0.000000 0.127074 0.328377
O O17 0.500000 0.288702 0.430423
O O18 0.219243 0.255287 0.419881
O O19 0.000000 0.203515 0.495613
O O20 0.000000 0.558468 0.667103
#
# Coordination Sequence:
#
# PCOD8176032 Si02
#       8
#     8   8   8   8   8   8   8   8
#     4  11  24  42  62  91 126 160 205 255 313 368
#     4  10  22  42  64  88 123 164 207 252 306 370
#     4  11  22  41  66  90 123 163 209 262 315 369
#     4  11  23  40  64  92 123 161 208 254 308 372
#     4   9  21  41  62  88 122 161 202 252 306 362
#     4  11  24  40  63  95 127 164 210 257 312 374
#     4  11  23  41  65  93 126 164 208 258 315 371
#     4  10  22  41  64  89 122 161 205 260 313 364
#
# _framework density 20.347757000000001
#
# number of rings (size 3 to 8) (size 9 to 14) (size 15 to 20)
#    0.000    1.500    2.500    1.875    3.500    2.000 
#    0.000    1.875    0.000    0.000    0.000    0.000 
#    0.000    0.000    0.000    0.000    0.000    0.000 
#
# Total GULP energy -396961.143963 kJ/mol
# GULP energy per Si atom -12405.035749 kJ/mol
# Density = 2.030144 g / cm^3
# Si number density = 20.347757 Si / 1000 Ang^3
#
#
#
# Elastic Constant Matrix: (Units=GPa)
#
#
# Indices 1 2 3 4 5 6 
#
# 1 27.7694 18.5754 24.9308 0.0000 0.0000 0.0000
# 2 18.5754 118.6720 41.9214 0.0000 0.0000 0.0000
# 3 24.9308 41.9214 130.4978 0.0000 0.0000 0.0000
# 4 0.0000 0.0000 0.0000 29.2845 0.0000 0.0000
# 5 0.0000 0.0000 0.0000 0.0000 28.4351 0.0000
# 6 0.0000 0.0000 0.0000 0.0000 0.0000 33.3420
#
#
#
# Elastic Compliance Matrix: (Units=1/GPa)
#
#
# Indices 1 2 3 4 5 6 
#
# 1 0.045568 -0.004577 -0.007235 0.000000 0.000000 0.000000
# 2 -0.004577 0.009965 -0.002327 0.000000 0.000000 0.000000
# 3 -0.007235 -0.002327 0.009793 0.000000 0.000000 0.000000
# 4 0.000000 0.000000 0.000000 0.034148 0.000000 0.000000
# 5 0.000000 0.000000 0.000000 0.000000 0.035168 0.000000
# 6 0.000000 0.000000 0.000000 0.000000 0.000000 0.029992
#
#
# Mechanical properties :
#
#
# Convention : Reuss Voigt Hill
#
# Bulk Modulus (GPa) = 26.99203 49.75495 38.37349
# Shear Modulus (GPa) = 24.35933 30.97975 27.66954
#
# Velocity S-wave (km/s) = 3.46374 3.90617 3.69159
# Velocity P-wave (km/s) = 5.41210 6.69699 6.08853
#
# Compressibility (1/GPa) = 0.03704797
#
# Stress axis : x y z
#
# Youngs Moduli (GPa) = 21.94527 100.35200 102.11705
#
# Poissons Ratio (x) = 0.45928 0.73884
# Poissons Ratio (y) = 0.10044 0.23761
# Poissons Ratio (z) = 0.15878 0.23350
#
# Static dielectric constant tensor:
#      x y z
#    x 3.468810 0.000000 0.000000 
#    y 0.000000 3.705320 0.000000 
#    z 0.000000 0.000000 3.821550 
# 
# 
# High freq. dielectric constant tensor:
#      x y z
#    x 1.782200 0.000000 0.000000 
#    y 0.000000 1.801150 0.000000 
#    z 0.000000 0.000000 1.805040 
# 
# From -- ./inp_files/7086.got.cif
#   From: 2010.03.12/outbox.cif.g09.slc.cpg/sg36_4_cif.got.tgz:7086.got - 2010.04.14 02:13:53.
