data_PCOD8176525
_publ_section_title
;
Structure prediction by ZEFSAII (Michael W. Deem and Ramdas Pophale) SiO2 
 PCOD8176525
Probable space group: C C C 2
;
_chemical_formula_sum "Si O2"
_cell_formula_units_Z 52
_cell_length_a 10.116619
_cell_length_b 10.116571
_cell_length_c 26.812744
_cell_angle_alpha 90.000000
_cell_angle_beta 90.000000
_cell_angle_gamma 90.000000
_cell_volume 2744.163541
_symmetry_space_group_name_H-M "C C C 2"
_symmetry_group_IT_number 37
_symmetry_cell_setting 'orthorhombic'
loop_
_space_group_symop_operation_xyz
x,y,z
-x,-y,z
-x,y,1/2+z
x,-y,1/2+z
1/2+x,1/2+y,z
1/2-x,1/2-y,z
1/2-x,1/2+y,1/2+z
1/2+x,1/2-y,1/2+z
loop_
_atom_site_type_symbol
_atom_site_label
_atom_site_fract_x
_atom_site_fract_y
_atom_site_fract_z
Si Si1 0.141479 0.641478 0.769450
Si Si2 0.859775 0.640225 0.931701
Si Si3 0.999570 0.214426 0.851662
Si Si4 0.500000 0.000000 0.183000
Si Si5 0.714426 0.500429 0.351662
Si Si6 0.637317 0.137318 0.544370
Si Si7 0.636173 0.136174 0.094842
O O1 0.250000 0.750000 0.756936
O O2 0.201206 0.521247 0.801713
O O3 0.021248 0.701203 0.801714
O O4 0.091774 0.591775 0.716667
O O5 0.750000 0.750000 0.936834
O O6 0.984412 0.695419 0.900677
O O7 0.804583 0.515588 0.900676
O O8 0.899238 0.600761 0.987372
O O9 0.872254 0.127746 0.863459
O O10 0.129920 0.129922 0.841407
O O11 0.595672 0.095673 0.150982
O O12 0.750000 0.250000 0.550692
O O13 0.499485 0.187623 0.568747
O O14 0.687620 0.999485 0.568747
O O15 0.750000 0.250000 0.093914
#
# Coordination Sequence:
#
# PCOD8176525 Si02
#       7
#     8   8   8   4   8   8   8
#     4  10  20  33  52  77 104 139 179 219 268 322
#     4   9  17  31  53  78 107 145 180 213 259 314
#     4   9  18  31  47  74 110 141 173 212 255 314
#     4  10  22  38  56  76 102 134 182 236 282 336
#     4   9  18  31  47  74 110 141 173 212 255 314
#     4   9  20  39  61  86 115 147 188 233 277 334
#     4  10  24  42  59  83 111 141 185 241 296 346
#
# _framework density 18.949309
#
# number of rings (size 3 to 8) (size 9 to 14) (size 15 to 20)
#    0.000    2.769    0.000    0.923    0.000    8.000 
#    0.000    4.615    0.000    0.000    0.000    0.000 
#    0.000    0.000    0.000    0.000    0.000    0.000 
#
# Total GULP energy -322202.820522 kJ/mol
# GULP energy per Si atom -12392.416174 kJ/mol
# Density = 1.890618 g / cm^3
# Si number density = 18.949309 Si / 1000 Ang^3
#
#
#
# Elastic Constant Matrix: (Units=GPa)
#
#
# Indices 1 2 3 4 5 6 
#
# 1 100.0399 75.3847 66.6700 0.0000 0.0000 0.0000
# 2 75.3847 100.0385 66.6710 0.0000 0.0000 0.0000
# 3 66.6700 66.6710 175.6374 0.0000 0.0000 0.0000
# 4 0.0000 0.0000 0.0000 53.6970 0.0000 0.0000
# 5 0.0000 0.0000 0.0000 0.0000 53.6824 0.0000
# 6 0.0000 0.0000 0.0000 0.0000 0.0000 41.8785
#
#
#
# Elastic Compliance Matrix: (Units=1/GPa)
#
#
# Indices 1 2 3 4 5 6 
#
# 1 0.024286 -0.016274 -0.003041 0.000000 0.000000 0.000000
# 2 -0.016274 0.024287 -0.003042 0.000000 0.000000 0.000000
# 3 -0.003041 -0.003042 0.008003 0.000000 0.000000 0.000000
# 4 0.000000 0.000000 0.000000 0.018623 0.000000 0.000000
# 5 0.000000 0.000000 0.000000 0.000000 0.018628 0.000000
# 6 0.000000 0.000000 0.000000 0.000000 0.000000 0.023879
#
#
# Mechanical properties :
#
#
# Convention : Reuss Voigt Hill
#
# Bulk Modulus (GPa) = 84.30645 88.12969 86.21807
# Shear Modulus (GPa) = 30.05303 40.98426 35.51865
#
# Velocity S-wave (km/s) = 3.98674 4.65568 4.33413
# Velocity P-wave (km/s) = 8.11044 8.68962 8.40502
#
# Compressibility (1/GPa) = 0.01186149
#
# Stress axis : x y z
#
# Youngs Moduli (GPa) = 41.17593 41.17477 124.96069
#
# Poissons Ratio (x) = 0.67008 0.38002
# Poissons Ratio (y) = 0.67010 0.38008
# Poissons Ratio (z) = 0.12522 0.12524
#
# Static dielectric constant tensor:
#      x y z
#    x 3.409960 0.000000 0.000000 
#    y 0.000000 3.409970 0.000000 
#    z 0.000000 0.000000 3.625620 
# 
# 
# High freq. dielectric constant tensor:
#      x y z
#    x 1.740580 0.000000 0.000000 
#    y 0.000000 1.740580 0.000000 
#    z 0.000000 0.000000 1.734970 
# 
# From -- ./inp_files/19741.got.cif
#   From: 2010.03.12/outbox.cif.g09.slc.cpg/sg37_10_cif.got.tgz:19741.got - 2010.04.14 02:25:27.
