data_PCOD8176289
_publ_section_title
;
Structure prediction by ZEFSAII (Michael W. Deem and Ramdas Pophale) SiO2 
 PCOD8176289
Probable space group: C M C 21
;
_chemical_formula_sum "Si O2"
_cell_formula_units_Z 48
_cell_length_a 17.827999
_cell_length_b 8.959373
_cell_length_c 13.384230
_cell_angle_alpha 90.000000
_cell_angle_beta 90.000000
_cell_angle_gamma 90.000000
_cell_volume 2137.832179
_symmetry_space_group_name_H-M "C M C 21"
_symmetry_group_IT_number 36
_symmetry_cell_setting 'orthorhombic'
loop_
_space_group_symop_operation_xyz
x,y,z
-x,-y,1/2+z
x,-y,1/2+z
-x,y,z
1/2+x,1/2+y,z
1/2-x,1/2-y,1/2+z
1/2+x,1/2-y,1/2+z
1/2-x,1/2+y,z
loop_
_atom_site_type_symbol
_atom_site_label
_atom_site_fract_x
_atom_site_fract_y
_atom_site_fract_z
Si Si1 0.500000 0.480526 0.581851
Si Si2 0.000000 0.309800 0.319036
Si Si3 0.837822 0.858239 0.333261
Si Si4 0.500000 0.135364 0.591880
Si Si5 0.746573 0.088165 0.438551
Si Si6 0.000000 0.021942 0.861803
Si Si7 0.140438 0.843027 0.114312
Si Si8 0.106094 0.421165 0.486804
O O1 0.500000 0.306548 0.566311
O O2 0.500000 0.552088 0.471410
O O3 0.423143 0.530942 0.636030
O O4 0.000000 0.392447 0.211563
O O5 0.071862 0.363754 0.382169
O O6 0.000000 0.130139 0.294188
O O7 0.801163 0.731172 0.403351
O O8 0.927581 0.871791 0.347586
O O9 0.819967 0.810598 0.219789
O O10 0.802249 0.021818 0.354339
O O11 0.571626 0.068602 0.535437
O O12 0.794862 0.115824 0.537061
O O13 0.692271 0.951016 0.464177
O O14 0.095696 0.701448 0.072780
#
# Coordination Sequence:
#
# PCOD8176289 Si02
#       8
#     4   4   8   4   8   4   8   8
#     4  12  22  48  73 107 141 185 238 305 354 427
#     4  11  23  46  73 100 147 184 233 301 365 420
#     4  12  28  46  78 107 142 196 242 291 365 434
#     4  11  26  40  73 110 136 186 247 292 356 437
#     4  12  27  49  68 107 148 186 239 302 355 428
#     4  12  23  50  75 107 138 191 244 294 359 434
#     4  12  26  48  76 100 149 193 238 293 368 429
#     4  11  25  47  67 104 144 187 235 305 354 417
#
# _framework density 22.452649999999998
#
# number of rings (size 3 to 8) (size 9 to 14) (size 15 to 20)
#    0.000    0.333    5.000    3.000    4.667    0.667 
#    0.000    0.000    0.000    0.000    0.000    0.000 
#    0.000    0.000    0.000    0.000    0.000    0.000 
#
# Total GULP energy -297588.566408 kJ/mol
# GULP energy per Si atom -12399.523600 kJ/mol
# Density = 2.240155 g / cm^3
# Si number density = 22.452650 Si / 1000 Ang^3
#
#
#
# Elastic Constant Matrix: (Units=GPa)
#
#
# Indices 1 2 3 4 5 6 
#
# 1 156.0753 58.7745 47.5822 0.0000 0.0000 0.0000
# 2 58.7745 106.2059 17.8254 0.0000 0.0000 0.0000
# 3 47.5822 17.8254 122.3615 0.0000 0.0000 0.0000
# 4 0.0000 0.0000 0.0000 26.8626 0.0000 0.0000
# 5 0.0000 0.0000 0.0000 0.0000 9.2102 0.0000
# 6 0.0000 0.0000 0.0000 0.0000 0.0000 33.1080
#
#
#
# Elastic Compliance Matrix: (Units=1/GPa)
#
#
# Indices 1 2 3 4 5 6 
#
# 1 0.008958 -0.004482 -0.002830 0.000000 0.000000 0.000000
# 2 -0.004482 0.011894 0.000010 0.000000 0.000000 0.000000
# 3 -0.002830 0.000010 0.009272 0.000000 0.000000 0.000000
# 4 0.000000 0.000000 0.000000 0.037226 0.000000 0.000000
# 5 0.000000 0.000000 0.000000 0.000000 0.108575 0.000000
# 6 0.000000 0.000000 0.000000 0.000000 0.000000 0.030204
#
#
# Mechanical properties :
#
#
# Convention : Reuss Voigt Hill
#
# Bulk Modulus (GPa) = 64.43679 70.33408 67.38544
# Shear Modulus (GPa) = 22.13289 31.20020 26.66654
#
# Velocity S-wave (km/s) = 3.14309 3.73178 3.45001
# Velocity P-wave (km/s) = 6.47559 7.06836 6.77846
#
# Compressibility (1/GPa) = 0.01551908
#
# Stress axis : x y z
#
# Youngs Moduli (GPa) = 111.63162 84.07261 107.85510
#
# Poissons Ratio (x) = 0.37684 0.30528
# Poissons Ratio (y) = 0.50037 -0.00111
# Poissons Ratio (z) = 0.31597 -0.00086
#
# Static dielectric constant tensor:
#      x y z
#    x 4.064360 0.000000 0.000000 
#    y 0.000000 3.978860 0.000000 
#    z 0.000000 0.000000 4.117430 
# 
# 
# High freq. dielectric constant tensor:
#      x y z
#    x 1.894350 0.000000 0.000000 
#    y 0.000000 1.889950 0.000000 
#    z 0.000000 0.000000 1.892630 
# 
# From -- ./inp_files/12530.got.cif
#   From: 2010.03.12/outbox.cif.g09.slc.cpg/sg36_7_cif.got.tgz:12530.got - 2010.04.14 02:13:53.
