data_PCOD8176269
_publ_section_title
;
Structure prediction by ZEFSAII (Michael W. Deem and Ramdas Pophale) SiO2 
 PCOD8176269
Probable space group: C M C 21
;
_chemical_formula_sum "Si O2"
_cell_formula_units_Z 56
_cell_length_a 13.909030
_cell_length_b 13.909031
_cell_length_c 13.702779
_cell_angle_alpha 90.000000
_cell_angle_beta 90.000000
_cell_angle_gamma 90.000000
_cell_volume 2650.955102
_symmetry_space_group_name_H-M "C M C 21"
_symmetry_group_IT_number 36
_symmetry_cell_setting 'orthorhombic'
loop_
_space_group_symop_operation_xyz
x,y,z
-x,-y,1/2+z
x,-y,1/2+z
-x,y,z
1/2+x,1/2+y,z
1/2-x,1/2-y,1/2+z
1/2+x,1/2-y,1/2+z
1/2-x,1/2+y,z
loop_
_atom_site_type_symbol
_atom_site_label
_atom_site_fract_x
_atom_site_fract_y
_atom_site_fract_z
Si Si1 0.250000 1.000000 0.356760
Si Si2 0.198441 0.858864 0.702882
Si Si3 0.108864 0.551559 0.510638
Si Si4 0.801559 0.358864 0.202882
Si Si5 0.391136 0.551559 0.010638
Si Si6 0.605583 0.355583 0.106760
Si Si7 0.105583 0.644417 0.106760
O O1 0.320380 0.931219 0.292429
O O2 0.181219 0.929620 0.421091
O O3 0.179620 0.068781 0.292429
O O4 0.318781 0.070379 0.421091
O O5 0.166950 0.750000 0.728220
O O6 0.141493 0.891493 0.606760
O O7 0.313321 0.867210 0.688489
O O8 0.141493 0.608507 0.606760
O O9 0.117211 0.436679 0.525031
O O10 0.000000 0.583049 0.485300
O O11 0.686679 0.367210 0.188489
O O12 0.500000 0.583049 0.985300
O O13 0.382790 0.436679 0.025031
O O14 0.500000 0.366123 0.156605
O O15 0.616123 0.250000 0.056915
O O16 0.000000 0.633877 0.156605
#
# Coordination Sequence:
#
# PCOD8176269 Si02
#       7
#     8   8   8   8   8   8   8
#     4  12  22  40  60 102 120 164 210 260 308 362
#     4  11  23  41  64  91 129 166 205 256 313 371
#     4  11  23  41  64  91 129 166 205 256 313 371
#     4  11  23  41  64  91 129 166 205 256 313 371
#     4  11  23  41  64  91 129 166 205 256 313 371
#     4   9  17  34  62  90 119 161 206 248 298 357
#     4   9  17  34  62  90 119 161 206 248 298 357
#
# _framework density 21.124462000000001
#
# number of rings (size 3 to 8) (size 9 to 14) (size 15 to 20)
#    0.000    1.429    5.714    0.000    0.000    5.143 
#    0.000    0.000    0.000    0.000    0.000    0.000 
#    0.000    0.000    0.000    0.000    0.000    0.000 
#
# Total GULP energy -347030.281910 kJ/mol
# GULP energy per Si atom -12393.938640 kJ/mol
# Density = 2.107638 g / cm^3
# Si number density = 21.124462 Si / 1000 Ang^3
#
#
#
# Elastic Constant Matrix: (Units=GPa)
#
#
# Indices 1 2 3 4 5 6 
#
# 1 106.4184 8.1695 31.1126 0.0000 0.0000 0.0000
# 2 8.1695 106.4190 31.1128 0.0000 0.0000 0.0000
# 3 31.1126 31.1128 105.1150 0.0000 0.0000 0.0000
# 4 0.0000 0.0000 0.0000 16.2421 0.0000 0.0000
# 5 0.0000 0.0000 0.0000 0.0000 16.2421 0.0000
# 6 0.0000 0.0000 0.0000 0.0000 0.0000 25.1704
#
#
#
# Elastic Compliance Matrix: (Units=1/GPa)
#
#
# Indices 1 2 3 4 5 6 
#
# 1 0.010288 0.000110 -0.003078 0.000000 0.000000 0.000000
# 2 0.000110 0.010288 -0.003078 0.000000 0.000000 0.000000
# 3 -0.003078 -0.003078 0.011335 0.000000 0.000000 0.000000
# 4 0.000000 0.000000 0.000000 0.061568 0.000000 0.000000
# 5 0.000000 0.000000 0.000000 0.000000 0.061568 0.000000
# 6 0.000000 0.000000 0.000000 0.000000 0.000000 0.039729
#
#
# Mechanical properties :
#
#
# Convention : Reuss Voigt Hill
#
# Bulk Modulus (GPa) = 50.45199 50.97134 50.71166
# Shear Modulus (GPa) = 23.42190 28.03477 25.72833
#
# Velocity S-wave (km/s) = 3.33341 3.64692 3.49369
# Velocity P-wave (km/s) = 6.22500 6.47417 6.35080
#
# Compressibility (1/GPa) = 0.01982082
#
# Stress axis : x y z
#
# Youngs Moduli (GPa) = 97.19837 97.19883 88.21969
#
# Poissons Ratio (x) = -0.01069 0.27152
# Poissons Ratio (y) = -0.01069 0.27152
# Poissons Ratio (z) = 0.29915 0.29915
#
# Static dielectric constant tensor:
#      x y z
#    x 4.004590 0.000000 0.000000 
#    y 0.000000 4.004590 0.000000 
#    z 0.000000 0.000000 3.485720 
# 
# 
# High freq. dielectric constant tensor:
#      x y z
#    x 1.831800 0.000000 0.000000 
#    y 0.000000 1.831800 0.000000 
#    z 0.000000 0.000000 1.790610 
# 
# From -- ./inp_files/8472.got.cif
#   From: 2010.03.12/outbox.cif.g09.slc.cpg/sg36_5_cif.got.tgz:8472.got - 2010.04.14 02:13:53.
