data_PCOD8176095
_publ_section_title
;
Structure prediction by ZEFSAII (Michael W. Deem and Ramdas Pophale) SiO2 
 PCOD8176095
Probable space group: C M C 21
;
_chemical_formula_sum "Si O2"
_cell_formula_units_Z 40
_cell_length_a 25.879588
_cell_length_b 8.634490
_cell_length_c 8.169626
_cell_angle_alpha 90.000000
_cell_angle_beta 90.000000
_cell_angle_gamma 90.000000
_cell_volume 1825.560475
_symmetry_space_group_name_H-M "C M C 21"
_symmetry_group_IT_number 36
_symmetry_cell_setting 'orthorhombic'
loop_
_space_group_symop_operation_xyz
x,y,z
-x,-y,1/2+z
x,-y,1/2+z
-x,y,z
1/2+x,1/2+y,z
1/2-x,1/2-y,1/2+z
1/2+x,1/2-y,1/2+z
1/2-x,1/2+y,z
loop_
_atom_site_type_symbol
_atom_site_label
_atom_site_fract_x
_atom_site_fract_y
_atom_site_fract_z
Si Si1 0.397677 0.384094 0.590060
Si Si2 0.799250 0.612992 0.091760
Si Si3 0.897863 0.216760 0.463936
Si Si4 0.500000 0.114712 0.910979
Si Si5 0.500000 0.216339 0.539590
Si Si6 0.700905 0.217683 0.463399
O O1 0.397782 0.569541 0.583155
O O2 0.393415 0.337086 0.777745
O O3 0.449761 0.320478 0.506092
O O4 0.349841 0.319684 0.487842
O O5 0.797223 0.660095 0.278965
O O6 0.850396 0.672877 0.003821
O O7 0.750023 0.675573 0.995081
O O8 0.799072 0.427197 0.086325
O O9 0.949659 0.314185 0.497929
O O10 0.500000 0.153450 0.721859
O O11 0.500000 0.929298 0.918796
#
# Coordination Sequence:
#
# PCOD8176095 Si02
#       6
#     8   8   8   4   4   8
#     4  11  23  41  63  92 125 163 206 253 305 363
#     4  12  25  43  65  92 124 162 204 253 306 364
#     4  11  23  41  63  92 125 163 206 253 305 363
#     4  10  23  40  62  90 124 162 205 252 305 362
#     4  10  23  40  62  90 124 162 205 252 305 362
#     4  12  25  43  65  92 124 162 204 253 306 364
#
# _framework density 21.911078
#
# number of rings (size 3 to 8) (size 9 to 14) (size 15 to 20)
#    0.000    0.800    0.000    7.800    0.000    6.400 
#    0.000    0.000    0.000    0.000    0.000    0.000 
#    0.000    0.000    0.000    0.000    0.000    0.000 
#
# Total GULP energy -248187.571818 kJ/mol
# GULP energy per Si atom -12409.378591 kJ/mol
# Density = 2.186121 g / cm^3
# Si number density = 21.911078 Si / 1000 Ang^3
#
#
#
# Elastic Constant Matrix: (Units=GPa)
#
#
# Indices 1 2 3 4 5 6 
#
# 1 182.5436 34.8129 12.8676 0.0000 0.0000 0.0000
# 2 34.8129 91.5312 -19.7541 0.0000 0.0000 0.0000
# 3 12.8676 -19.7541 54.8186 0.0000 0.0000 0.0000
# 4 0.0000 0.0000 0.0000 38.8425 0.0000 0.0000
# 5 0.0000 0.0000 0.0000 0.0000 37.8771 0.0000
# 6 0.0000 0.0000 0.0000 0.0000 0.0000 49.5491
#
#
#
# Elastic Compliance Matrix: (Units=1/GPa)
#
#
# Indices 1 2 3 4 5 6 
#
# 1 0.006208 -0.002901 -0.002503 0.000000 0.000000 0.000000
# 2 -0.002901 0.013202 0.005439 0.000000 0.000000 0.000000
# 3 -0.002503 0.005439 0.020789 0.000000 0.000000 0.000000
# 4 0.000000 0.000000 0.000000 0.025745 0.000000 0.000000
# 5 0.000000 0.000000 0.000000 0.000000 0.026401 0.000000
# 6 0.000000 0.000000 0.000000 0.000000 0.000000 0.020182
#
#
# Mechanical properties :
#
#
# Convention : Reuss Voigt Hill
#
# Bulk Modulus (GPa) = 24.83306 42.74958 33.79132
# Shear Modulus (GPa) = 39.72000 45.31822 42.51911
#
# Velocity S-wave (km/s) = 4.26230 4.55277 4.40992
# Velocity P-wave (km/s) = 5.96499 6.86948 6.43315
#
# Compressibility (1/GPa) = 0.04026889
#
# Stress axis : x y z
#
# Youngs Moduli (GPa) = 161.08657 75.74374 48.10186
#
# Poissons Ratio (x) = 0.21975 0.12038
# Poissons Ratio (y) = 0.46734 -0.26160
# Poissons Ratio (z) = 0.40314 -0.41193
#
# Static dielectric constant tensor:
#      x y z
#    x 4.211990 0.000000 0.000000 
#    y 0.000000 4.137110 0.000000 
#    z 0.000000 0.000000 3.826300 
# 
# 
# High freq. dielectric constant tensor:
#      x y z
#    x 1.881800 0.000000 0.000000 
#    y 0.000000 1.875250 0.000000 
#    z 0.000000 0.000000 1.866190 
# 
# From -- ./inp_files/5486.got.cif
#   From: 2010.03.12/outbox.cif.g09.slc.cpg/sg36_3_cif.got.tgz:5486.got - 2010.04.14 02:13:53.
