data_PCOD8176220
_publ_section_title
;
Structure prediction by ZEFSAII (Michael W. Deem and Ramdas Pophale) SiO2 
 PCOD8176220
Probable space group: C M C 21
;
_chemical_formula_sum "Si O2"
_cell_formula_units_Z 40
_cell_length_a 10.834110
_cell_length_b 20.017891
_cell_length_c 8.236610
_cell_angle_alpha 90.000000
_cell_angle_beta 90.000000
_cell_angle_gamma 90.000000
_cell_volume 1786.323303
_symmetry_space_group_name_H-M "C M C 21"
_symmetry_group_IT_number 36
_symmetry_cell_setting 'orthorhombic'
loop_
_space_group_symop_operation_xyz
x,y,z
-x,-y,1/2+z
x,-y,1/2+z
-x,y,z
1/2+x,1/2+y,z
1/2-x,1/2-y,1/2+z
1/2+x,1/2-y,1/2+z
1/2-x,1/2+y,z
loop_
_atom_site_type_symbol
_atom_site_label
_atom_site_fract_x
_atom_site_fract_y
_atom_site_fract_z
Si Si1 0.854037 0.297412 0.396630
Si Si2 0.139269 0.960869 0.151534
Si Si3 0.265047 0.831786 0.038218
Si Si4 0.238470 0.569400 0.961556
Si Si5 0.500000 0.025617 0.765324
Si Si6 0.000000 0.396811 0.927177
O O1 0.815592 0.224738 0.454349
O O2 0.815627 0.308014 0.210949
O O3 0.779984 0.352432 0.506811
O O4 0.000000 0.306292 0.416399
O O5 0.178558 0.896703 0.047111
O O6 0.145655 0.943207 0.341723
O O7 0.000000 0.981079 0.107068
O O8 0.234377 0.022785 0.116756
O O9 0.381186 0.849282 0.924041
O O10 0.118695 0.551716 0.857903
O O11 0.500000 0.052860 0.582203
O O12 0.500000 0.944119 0.766647
#
# Coordination Sequence:
#
# PCOD8176220 Si02
#       6
#     8   8   8   8   4   4
#     4  11  23  45  66  92 133 177 220 278 329 398
#     4  11  23  40  61  92 129 163 210 265 328 398
#     4  11  23  44  65  93 132 175 217 274 336 393
#     4  11  21  40  66  91 123 164 212 271 327 380
#     4  12  18  42  74  96 126 159 219 288 334 373
#     4  12  22  44  70 100 132 163 223 286 332 401
#
# _framework density 22.392364000000001
#
# number of rings (size 3 to 8) (size 9 to 14) (size 15 to 20)
#    0.000    0.800    8.000    1.200    0.000    1.600 
#   14.400    2.000    0.000    0.000    0.000    0.000 
#    0.000    0.000    0.000    0.000    0.000    0.000 
#
# Total GULP energy -247990.200531 kJ/mol
# GULP energy per Si atom -12399.510027 kJ/mol
# Density = 2.234140 g / cm^3
# Si number density = 22.392364 Si / 1000 Ang^3
#
#
#
# Elastic Constant Matrix: (Units=GPa)
#
#
# Indices 1 2 3 4 5 6 
#
# 1 105.5180 29.7560 19.9602 0.0000 0.0000 0.0000
# 2 29.7560 96.0622 21.5447 0.0000 0.0000 0.0000
# 3 19.9602 21.5447 24.5292 0.0000 0.0000 0.0000
# 4 0.0000 0.0000 0.0000 30.6026 0.0000 0.0000
# 5 0.0000 0.0000 0.0000 0.0000 24.6030 0.0000
# 6 0.0000 0.0000 0.0000 0.0000 0.0000 -76.7841
#
#
#
# Elastic Compliance Matrix: (Units=1/GPa)
#
#
# Indices 1 2 3 4 5 6 
#
# 1 0.011450 -0.001814 -0.007723 0.000000 0.000000 0.000000
# 2 -0.001814 0.013251 -0.010162 0.000000 0.000000 0.000000
# 3 -0.007723 -0.010162 0.055978 0.000000 0.000000 0.000000
# 4 0.000000 0.000000 0.000000 0.032677 0.000000 0.000000
# 5 0.000000 0.000000 0.000000 0.000000 0.040645 0.000000
# 6 0.000000 0.000000 0.000000 0.000000 0.000000 -0.013024
#
#
# Mechanical properties :
#
#
# Convention : Reuss Voigt Hill
#
# Bulk Modulus (GPa) = 24.22545 40.95904 32.59224
# Shear Modulus (GPa) = 25.75485 6.00753 15.88119
#
# Velocity S-wave (km/s) = 3.39508 1.63972 2.66601
# Velocity P-wave (km/s) = 5.11966 4.68147 4.90546
#
# Compressibility (1/GPa) = 0.04127891
#
# Stress axis : x y z
#
# Youngs Moduli (GPa) = 87.33851 75.46490 17.86403
#
# Poissons Ratio (x) = 0.13693 0.13797
# Poissons Ratio (y) = 0.15847 0.18154
# Poissons Ratio (z) = 0.67454 0.76691
#
# Static dielectric constant tensor:
#      x y z
#    x 4.104840 0.000000 0.000000 
#    y 0.000000 4.454240 0.000000 
#    z 0.000000 0.000000 3.863100 
# 
# 
# High freq. dielectric constant tensor:
#      x y z
#    x 1.891750 0.000000 0.000000 
#    y 0.000000 1.888980 0.000000 
#    z 0.000000 0.000000 1.862640 
# 
# From -- ./inp_files/3076.got.cif
#   From: 2010.03.12/outbox.cif.g09.slc.cpg/sg36_2_cif.got.tgz:3076.got - 2010.04.14 02:13:53.
