data_PCOD8176617
_publ_section_title
;
Structure prediction by ZEFSAII (Michael W. Deem and Ramdas Pophale) SiO2 
 PCOD8176617
Probable space group: C C C 2
;
_chemical_formula_sum "Si O2"
_cell_formula_units_Z 44
_cell_length_a 26.225505
_cell_length_b 9.217311
_cell_length_c 8.666247
_cell_angle_alpha 90.000000
_cell_angle_beta 90.000000
_cell_angle_gamma 90.000000
_cell_volume 2094.880064
_symmetry_space_group_name_H-M "C C C 2"
_symmetry_group_IT_number 37
_symmetry_cell_setting 'orthorhombic'
loop_
_space_group_symop_operation_xyz
x,y,z
-x,-y,z
-x,y,1/2+z
x,-y,1/2+z
1/2+x,1/2+y,z
1/2-x,1/2-y,z
1/2-x,1/2+y,1/2+z
1/2+x,1/2-y,1/2+z
loop_
_atom_site_type_symbol
_atom_site_label
_atom_site_fract_x
_atom_site_fract_y
_atom_site_fract_z
Si Si1 0.926572 0.076021 0.433790
Si Si2 0.842144 0.143456 0.975938
Si Si3 0.711720 0.569971 0.167937
Si Si4 0.000000 0.000000 0.184746
Si Si5 0.821645 0.432185 0.152384
Si Si6 0.158916 0.695025 0.482823
O O1 0.962565 0.096088 0.581424
O O2 0.888552 0.208695 0.438128
O O3 0.963258 0.100376 0.287860
O O4 0.897885 0.917148 0.422743
O O5 0.798876 0.117987 0.844200
O O6 0.838762 0.309909 0.028882
O O7 0.830974 0.049164 0.128516
O O8 0.764486 0.491567 0.129302
O O9 0.704513 0.708541 0.055446
O O10 0.823391 0.383588 0.327664
O O11 0.856656 0.571760 0.109076
#
# Coordination Sequence:
#
# PCOD8176617 Si02
#       6
#     8   8   8   4   8   8
#     4  10  21  40  65  94 115 152 195 255 308 364
#     4  11  22  39  63  88 125 160 206 251 297 350
#     4  11  23  39  57  87 125 170 211 244 281 344
#     4  10  20  38  70  92 114 144 202 250 310 378
#     4  12  24  39  61  89 125 171 205 247 295 349
#     4  11  24  41  61  88 127 160 208 252 300 356
#
# _framework density 21.003589000000002
#
# number of rings (size 3 to 8) (size 9 to 14) (size 15 to 20)
#    0.000    1.091    0.000    8.727    0.000    4.364 
#    0.000    1.818    0.000   18.545    0.000    0.000 
#    0.000    0.000    0.000    0.000    0.000    0.000 
#
# Total GULP energy -272595.881971 kJ/mol
# GULP energy per Si atom -12390.721908 kJ/mol
# Density = 2.095578 g / cm^3
# Si number density = 21.003589 Si / 1000 Ang^3
#
#
#
# Elastic Constant Matrix: (Units=GPa)
#
#
# Indices 1 2 3 4 5 6 
#
# 1 89.2570 53.8219 43.2463 0.0000 0.0000 0.0000
# 2 53.8219 142.9547 48.1641 0.0000 0.0000 0.0000
# 3 43.2463 48.1641 122.0277 0.0000 0.0000 0.0000
# 4 0.0000 0.0000 0.0000 31.7585 0.0000 0.0000
# 5 0.0000 0.0000 0.0000 0.0000 46.3282 0.0000
# 6 0.0000 0.0000 0.0000 0.0000 0.0000 13.6967
#
#
#
# Elastic Compliance Matrix: (Units=1/GPa)
#
#
# Indices 1 2 3 4 5 6 
#
# 1 0.015865 -0.004704 -0.003766 0.000000 0.000000 0.000000
# 2 -0.004704 0.009463 -0.002068 0.000000 0.000000 0.000000
# 3 -0.003766 -0.002068 0.010346 0.000000 0.000000 0.000000
# 4 0.000000 0.000000 0.000000 0.031488 0.000000 0.000000
# 5 0.000000 0.000000 0.000000 0.000000 0.021585 0.000000
# 6 0.000000 0.000000 0.000000 0.000000 0.000000 0.073010
#
#
# Mechanical properties :
#
#
# Convention : Reuss Voigt Hill
#
# Bulk Modulus (GPa) = 68.50354 71.63380 70.06867
# Shear Modulus (GPa) = 26.63849 32.29049 29.46449
#
# Velocity S-wave (km/s) = 3.56516 3.92520 3.74950
# Velocity P-wave (km/s) = 7.04508 7.39746 7.22342
#
# Compressibility (1/GPa) = 0.01459779
#
# Stress axis : x y z
#
# Youngs Moduli (GPa) = 63.03257 105.67390 96.65963
#
# Poissons Ratio (x) = 0.49712 0.36399
# Poissons Ratio (y) = 0.29652 0.19988
# Poissons Ratio (z) = 0.23736 0.21852
#
# Static dielectric constant tensor:
#      x y z
#    x 3.739600 0.000000 0.000000 
#    y 0.000000 4.048050 0.000000 
#    z 0.000000 0.000000 4.092530 
# 
# 
# High freq. dielectric constant tensor:
#      x y z
#    x 1.803580 0.000000 0.000000 
#    y 0.000000 1.816940 0.000000 
#    z 0.000000 0.000000 1.848600 
# 
# From -- ./inp_files/4928.got.cif
#   From: 2010.03.12/outbox.cif.g09.slc.cpg/sg37_3_cif.got.tgz:4928.got - 2010.04.14 02:25:27.
