data_PCOD8176712
_publ_section_title
;
Structure prediction by ZEFSAII (Michael W. Deem and Ramdas Pophale) SiO2 
 PCOD8176712
Probable space group: C C C 2
;
_chemical_formula_sum "Si O2"
_cell_formula_units_Z 40
_cell_length_a 9.674296
_cell_length_b 14.378627
_cell_length_c 14.043444
_cell_angle_alpha 90.000000
_cell_angle_beta 90.000000
_cell_angle_gamma 90.000000
_cell_volume 1953.486506
_symmetry_space_group_name_H-M "C C C 2"
_symmetry_group_IT_number 37
_symmetry_cell_setting 'orthorhombic'
loop_
_space_group_symop_operation_xyz
x,y,z
-x,-y,z
-x,y,1/2+z
x,-y,1/2+z
1/2+x,1/2+y,z
1/2-x,1/2-y,z
1/2-x,1/2+y,1/2+z
1/2+x,1/2-y,1/2+z
loop_
_atom_site_type_symbol
_atom_site_label
_atom_site_fract_x
_atom_site_fract_y
_atom_site_fract_z
Si Si1 0.500001 0.107131 0.884430
Si Si2 0.999995 0.104390 0.607519
Si Si3 0.499991 0.795351 0.186065
Si Si4 0.799636 0.605629 0.048991
Si Si5 0.700378 0.105642 0.048977
O O1 0.499969 0.172732 0.794013
O O2 0.500000 0.000000 0.851198
O O3 0.364168 0.131034 0.946751
O O4 0.635857 0.131036 0.946729
O O5 0.865186 0.119121 0.541504
O O6 0.999995 0.182606 0.689506
O O7 0.134797 0.119124 0.541497
O O8 0.000000 0.000000 0.652933
O O9 0.637132 0.830560 0.131975
O O10 0.362857 0.830536 0.131950
O O11 0.839320 0.499991 0.075418
#
# Coordination Sequence:
#
# PCOD8176712 Si02
#       5
#     8   8   8   8   8
#     4   9  18  35  63  91 111 144 194 239 281 336
#     4  10  21  38  58  83 119 156 187 232 290 335
#     4  11  19  35  61  86 114 152 195 233 277 341
#     4   9  19  37  60  86 117 149 186 236 288 340
#     4   9  19  37  60  86 117 149 186 236 288 340
#
# _framework density 20.476212
#
# number of rings (size 3 to 8) (size 9 to 14) (size 15 to 20)
#    0.000    2.400    0.000    4.200    0.000    0.000 
#    0.000   18.000    0.000   21.600    0.000    0.000 
#    0.000    0.000    0.000    0.000    0.000    0.000 
#
# Total GULP energy -247943.758152 kJ/mol
# GULP energy per Si atom -12397.187908 kJ/mol
# Density = 2.042961 g / cm^3
# Si number density = 20.476212 Si / 1000 Ang^3
#
#
#
# Elastic Constant Matrix: (Units=GPa)
#
#
# Indices 1 2 3 4 5 6 
#
# 1 179.1136 51.1724 63.5150 0.0000 0.0000 0.0000
# 2 51.1724 150.5612 82.1483 0.0000 0.0000 0.0000
# 3 63.5150 82.1483 142.3888 0.0000 0.0000 0.0000
# 4 0.0000 0.0000 0.0000 26.7688 0.0000 0.0000
# 5 0.0000 0.0000 0.0000 0.0000 6.4358 0.0000
# 6 0.0000 0.0000 0.0000 0.0000 0.0000 20.6110
#
#
#
# Elastic Compliance Matrix: (Units=1/GPa)
#
#
# Indices 1 2 3 4 5 6 
#
# 1 0.006723 -0.000947 -0.002453 0.000000 0.000000 0.000000
# 2 -0.000947 0.009826 -0.005247 0.000000 0.000000 0.000000
# 3 -0.002453 -0.005247 0.011144 0.000000 0.000000 0.000000
# 4 0.000000 0.000000 0.000000 0.037357 0.000000 0.000000
# 5 0.000000 0.000000 0.000000 0.000000 0.155382 0.000000
# 6 0.000000 0.000000 0.000000 0.000000 0.000000 0.048518
#
#
# Mechanical properties :
#
#
# Convention : Reuss Voigt Hill
#
# Bulk Modulus (GPa) = 96.14423 96.19278 96.16851
# Shear Modulus (GPa) = 17.25864 29.11165 23.18514
#
# Velocity S-wave (km/s) = 2.90636 3.77467 3.36861
# Velocity P-wave (km/s) = 7.63666 8.12880 7.88657
#
# Compressibility (1/GPa) = 0.01040104
#
# Stress axis : x y z
#
# Youngs Moduli (GPa) = 148.73564 101.76741 89.73321
#
# Poissons Ratio (x) = 0.09636 0.22010
# Poissons Ratio (y) = 0.14083 0.47081
# Poissons Ratio (z) = 0.36482 0.53395
#
# Static dielectric constant tensor:
#      x y z
#    x 4.063820 0.000000 0.000000 
#    y 0.000000 3.991220 0.000000 
#    z 0.000000 0.000000 3.212660 
# 
# 
# High freq. dielectric constant tensor:
#      x y z
#    x 1.815180 0.000000 0.000000 
#    y 0.000000 1.816530 0.000000 
#    z 0.000000 0.000000 1.752690 
# 
# From -- ./inp_files/10335.got.cif
#   From: 2010.03.12/outbox.cif.g09.slc.cpg/sg37_6_cif.got.tgz:10335.got - 2010.04.14 02:25:27.
