data_PCOD8176913
_publ_section_title
;
Structure prediction by ZEFSAII (Michael W. Deem and Ramdas Pophale) SiO2 
 PCOD8176913
Probable space group: C C C 2
;
_chemical_formula_sum "Si O2"
_cell_formula_units_Z 56
_cell_length_a 11.590461
_cell_length_b 14.213665
_cell_length_c 14.412289
_cell_angle_alpha 90.000000
_cell_angle_beta 90.000000
_cell_angle_gamma 90.000000
_cell_volume 2374.322716
_symmetry_space_group_name_H-M "C C C 2"
_symmetry_group_IT_number 37
_symmetry_cell_setting 'orthorhombic'
loop_
_space_group_symop_operation_xyz
x,y,z
-x,-y,z
-x,y,1/2+z
x,-y,1/2+z
1/2+x,1/2+y,z
1/2-x,1/2-y,z
1/2-x,1/2+y,1/2+z
1/2+x,1/2-y,1/2+z
loop_
_atom_site_type_symbol
_atom_site_label
_atom_site_fract_x
_atom_site_fract_y
_atom_site_fract_z
Si Si1 0.133114 0.004173 0.164500
Si Si2 0.750000 0.750000 0.797110
Si Si3 0.257550 0.043414 0.850945
Si Si4 0.431097 0.770485 0.960896
Si Si5 0.503992 0.200862 0.252455
Si Si6 0.000000 0.500000 0.282257
Si Si7 0.773588 0.103025 0.000263
Si Si8 0.870457 0.793995 0.098163
O O1 0.203698 0.004030 0.259409
O O2 0.178254 0.915467 0.103904
O O3 0.151395 0.095098 0.100373
O O4 0.000000 0.000000 0.191836
O O5 0.769787 0.844578 0.858695
O O6 0.636261 0.765800 0.733075
O O7 0.393183 0.023396 0.848888
O O8 0.210138 0.992974 0.942257
O O9 0.357913 0.857959 0.003593
O O10 0.350804 0.680054 0.948797
O O11 0.536608 0.744334 0.026521
O O12 0.481455 0.798136 0.861926
O O13 0.483083 0.092900 0.218031
O O14 0.413149 0.266681 0.201275
O O15 0.750000 0.750000 0.070507
#
# Coordination Sequence:
#
# PCOD8176913 Si02
#       8
#     8   4   8   8   8   4   8   8
#     4  12  26  47  72 108 145 187 248 300 358 437
#     4  10  26  38  76 104 148 184 244 290 370 422
#     4  11  24  46  72 105 147 192 236 298 365 432
#     4  11  26  47  75 103 142 196 245 303 372 438
#     4  11  24  46  72 106 147 191 241 298 369 435
#     4  10  22  44  70 104 138 182 246 284 350 450
#     4  11  26  47  75  99 144 194 247 295 371 437
#     4  12  28  47  74 109 149 187 250 309 365 433
#
# _framework density 23.585673
#
# number of rings (size 3 to 8) (size 9 to 14) (size 15 to 20)
#    0.000    0.857    2.857    2.571    9.000    1.714 
#    0.000    0.000    0.000    0.000    0.000    0.000 
#    0.000    0.000    0.000    0.000    0.000    0.000 
#
# Total GULP energy -347227.209927 kJ/mol
# GULP energy per Si atom -12400.971783 kJ/mol
# Density = 2.353199 g / cm^3
# Si number density = 23.585673 Si / 1000 Ang^3
#
#
#
# Elastic Constant Matrix: (Units=GPa)
#
#
# Indices 1 2 3 4 5 6 
#
# 1 139.2690 48.5726 39.7941 0.0000 0.0000 0.0000
# 2 48.5726 150.4473 23.1928 0.0000 0.0000 0.0000
# 3 39.7941 23.1928 91.5010 0.0000 0.0000 0.0000
# 4 0.0000 0.0000 0.0000 24.4459 0.0000 0.0000
# 5 0.0000 0.0000 0.0000 0.0000 24.8070 0.0000
# 6 0.0000 0.0000 0.0000 0.0000 0.0000 41.4334
#
#
#
# Elastic Compliance Matrix: (Units=1/GPa)
#
#
# Indices 1 2 3 4 5 6 
#
# 1 0.008951 -0.002383 -0.003289 0.000000 0.000000 0.000000
# 2 -0.002383 0.007551 -0.000878 0.000000 0.000000 0.000000
# 3 -0.003289 -0.000878 0.012582 0.000000 0.000000 0.000000
# 4 0.000000 0.000000 0.000000 0.040907 0.000000 0.000000
# 5 0.000000 0.000000 0.000000 0.000000 0.040311 0.000000
# 6 0.000000 0.000000 0.000000 0.000000 0.000000 0.024135
#
#
# Mechanical properties :
#
#
# Convention : Reuss Voigt Hill
#
# Bulk Modulus (GPa) = 62.55772 67.14847 64.85309
# Shear Modulus (GPa) = 32.70862 36.11445 34.41154
#
# Velocity S-wave (km/s) = 3.72802 3.91730 3.82383
# Velocity P-wave (km/s) = 6.71655 6.99944 6.85945
#
# Compressibility (1/GPa) = 0.01598524
#
# Stress axis : x y z
#
# Youngs Moduli (GPa) = 111.71698 132.42418 79.48061
#
# Poissons Ratio (x) = 0.31556 0.26140
# Poissons Ratio (y) = 0.26621 0.06976
# Poissons Ratio (z) = 0.36743 0.11623
#
# Static dielectric constant tensor:
#      x y z
#    x 4.413150 0.000000 0.000000 
#    y 0.000000 4.638470 0.000000 
#    z 0.000000 0.000000 3.815680 
# 
# 
# High freq. dielectric constant tensor:
#      x y z
#    x 1.948160 0.000000 0.000000 
#    y 0.000000 1.954870 0.000000 
#    z 0.000000 0.000000 1.910870 
# 
# From -- ./inp_files/11646.got.cif
#   From: 2010.03.12/outbox.cif.g09.slc.cpg/sg37_6_cif.got.tgz:11646.got - 2010.04.14 02:25:27.
