data_PCOD8176895
_publ_section_title
;
Structure prediction by ZEFSAII (Michael W. Deem and Ramdas Pophale) SiO2 
 PCOD8176895
Probable space group: C C C 2
;
_chemical_formula_sum "Si O2"
_cell_formula_units_Z 44
_cell_length_a 8.992203
_cell_length_b 21.785311
_cell_length_c 10.907142
_cell_angle_alpha 90.000000
_cell_angle_beta 90.000000
_cell_angle_gamma 90.000000
_cell_volume 2136.686637
_symmetry_space_group_name_H-M "C C C 2"
_symmetry_group_IT_number 37
_symmetry_cell_setting 'orthorhombic'
loop_
_space_group_symop_operation_xyz
x,y,z
-x,-y,z
-x,y,1/2+z
x,-y,1/2+z
1/2+x,1/2+y,z
1/2-x,1/2-y,z
1/2-x,1/2+y,1/2+z
1/2+x,1/2-y,1/2+z
loop_
_atom_site_type_symbol
_atom_site_label
_atom_site_fract_x
_atom_site_fract_y
_atom_site_fract_z
Si Si1 0.920519 0.589326 0.747660
Si Si2 0.083808 0.227796 0.947133
Si Si3 0.800968 0.902749 0.959801
Si Si4 0.500000 0.500000 0.837975
Si Si5 0.780731 0.535591 0.201405
Si Si6 0.915346 0.725104 0.684840
O O1 0.837692 0.608057 0.871339
O O2 0.826752 0.535829 0.676162
O O3 0.923629 0.651594 0.669090
O O4 0.086384 0.565333 0.782841
O O5 0.250000 0.250000 0.962676
O O6 0.994330 0.249732 0.064797
O O7 0.087573 0.154385 0.956758
O O8 0.014791 0.251370 0.816164
O O9 0.722081 0.919926 0.085701
O O10 0.902378 0.959321 0.925759
O O11 0.384178 0.539767 0.757910
O O12 0.750000 0.750000 0.682267
#
# Coordination Sequence:
#
# PCOD8176895 Si02
#       6
#     8   8   8   4   8   8
#     4  10  22  43  65  94 130 170 231 273 334 406
#     4  11  24  44  69  94 137 178 226 285 342 405
#     4  11  22  43  64  93 135 170 219 282 337 402
#     4  10  24  40  62 102 130 172 216 272 342 406
#     4  10  23  39  68  95 126 175 214 280 336 400
#     4  11  24  45  67 100 133 183 227 287 342 408
#
# _framework density 20.592631000000001
#
# number of rings (size 3 to 8) (size 9 to 14) (size 15 to 20)
#    0.000    1.455    3.636    1.636    2.545    8.000 
#    3.273    0.000    0.000    0.000    0.000    0.000 
#    0.000    0.000    0.000    0.000    0.000    0.000 
#
# Total GULP energy -272645.474559 kJ/mol
# GULP energy per Si atom -12392.976116 kJ/mol
# Density = 2.054576 g / cm^3
# Si number density = 20.592631 Si / 1000 Ang^3
#
#
#
# Elastic Constant Matrix: (Units=GPa)
#
#
# Indices 1 2 3 4 5 6 
#
# 1 98.4629 6.5295 33.4927 0.0000 0.0000 0.0000
# 2 6.5295 93.5379 26.0413 0.0000 0.0000 0.0000
# 3 33.4927 26.0413 117.6630 0.0000 0.0000 0.0000
# 4 0.0000 0.0000 0.0000 33.2727 0.0000 0.0000
# 5 0.0000 0.0000 0.0000 0.0000 20.6341 0.0000
# 6 0.0000 0.0000 0.0000 0.0000 0.0000 29.4189
#
#
#
# Elastic Compliance Matrix: (Units=1/GPa)
#
#
# Indices 1 2 3 4 5 6 
#
# 1 0.011246 0.000113 -0.003226 0.000000 0.000000 0.000000
# 2 0.000113 0.011394 -0.002554 0.000000 0.000000 0.000000
# 3 -0.003226 -0.002554 0.009982 0.000000 0.000000 0.000000
# 4 0.000000 0.000000 0.000000 0.030055 0.000000 0.000000
# 5 0.000000 0.000000 0.000000 0.000000 0.048463 0.000000
# 6 0.000000 0.000000 0.000000 0.000000 0.000000 0.033992
#
#
# Mechanical properties :
#
#
# Convention : Reuss Voigt Hill
#
# Bulk Modulus (GPa) = 46.97387 49.08786 48.03086
# Shear Modulus (GPa) = 30.56935 32.90515 31.73725
#
# Velocity S-wave (km/s) = 3.85707 4.00172 3.93006
# Velocity P-wave (km/s) = 6.53426 6.72615 6.63090
#
# Compressibility (1/GPa) = 0.02128843
#
# Stress axis : x y z
#
# Youngs Moduli (GPa) = 88.92033 87.76564 100.17600
#
# Poissons Ratio (x) = -0.00993 0.32319
# Poissons Ratio (y) = -0.01006 0.25584
# Poissons Ratio (z) = 0.28688 0.22415
#
# Static dielectric constant tensor:
#      x y z
#    x 4.068040 0.000000 0.000000 
#    y 0.000000 4.259110 0.000000 
#    z 0.000000 0.000000 3.963130 
# 
# 
# High freq. dielectric constant tensor:
#      x y z
#    x 1.806800 0.000000 0.000000 
#    y 0.000000 1.823160 0.000000 
#    z 0.000000 0.000000 1.794250 
# 
# From -- ./inp_files/6342.got.cif
#   From: 2010.03.12/outbox.cif.g09.slc.cpg/sg37_4_cif.got.tgz:6342.got - 2010.04.14 02:25:27.
