data_PCOD8176695
_publ_section_title
;
Structure prediction by ZEFSAII (Michael W. Deem and Ramdas Pophale) SiO2 
 PCOD8176695
Probable space group: C C C 2
;
_chemical_formula_sum "Si O2"
_cell_formula_units_Z 64
_cell_length_a 4.933334
_cell_length_b 18.964319
_cell_length_c 34.064047
_cell_angle_alpha 90.000000
_cell_angle_beta 90.000000
_cell_angle_gamma 90.000000
_cell_volume 3186.940936
_symmetry_space_group_name_H-M "C C C 2"
_symmetry_group_IT_number 37
_symmetry_cell_setting 'orthorhombic'
loop_
_space_group_symop_operation_xyz
x,y,z
-x,-y,z
-x,y,1/2+z
x,-y,1/2+z
1/2+x,1/2+y,z
1/2-x,1/2-y,z
1/2-x,1/2+y,1/2+z
1/2+x,1/2-y,1/2+z
loop_
_atom_site_type_symbol
_atom_site_label
_atom_site_fract_x
_atom_site_fract_y
_atom_site_fract_z
Si Si1 0.784506 0.672344 0.578550
Si Si2 0.506443 0.917936 0.462059
Si Si3 0.998140 0.581882 0.251226
Si Si4 0.510210 0.202109 0.812306
Si Si5 0.490716 0.580290 0.700899
Si Si6 0.300481 0.671849 0.630979
Si Si7 0.989580 0.702166 0.400907
Si Si8 0.002854 0.080789 0.512619
O O1 0.750000 0.750000 0.559122
O O2 0.608296 0.670444 0.617293
O O3 0.643495 0.619065 0.548867
O O4 0.089092 0.653440 0.594772
O O5 0.449395 0.868787 0.425061
O O6 0.811689 0.902999 0.475205
O O7 0.301583 0.898480 0.498527
O O8 0.500000 0.000000 0.449616
O O9 0.053185 0.631477 0.288223
O O10 0.690523 0.595194 0.238789
O O11 0.000000 0.500000 0.264055
O O12 0.205850 0.601204 0.215128
O O13 0.750000 0.250000 0.794010
O O14 0.586565 0.178842 0.856667
O O15 0.250000 0.250000 0.812183
O O16 0.500000 0.500000 0.686860
O O17 0.320399 0.618656 0.666773
O O18 0.250000 0.750000 0.647450
O O19 0.250000 0.750000 0.401923
O O20 0.750000 0.750000 0.419307
O O21 0.000000 0.000000 0.525449
#
# Coordination Sequence:
#
# PCOD8176695 Si02
#       8
#     8   8   8   8   8   8   8   8
#     4  10  21  37  56  80 109 141 181 227 274 329
#     4  10  21  37  57  82 113 147 186 231 278 332
#     4  10  21  37  57  82 113 147 186 231 278 332
#     4  10  21  37  57  84 116 149 190 236 280 333
#     4  10  21  37  56  82 112 143 184 231 277 330
#     4  10  21  37  56  80 109 141 181 227 274 329
#     4  10  21  37  57  84 116 149 190 236 280 333
#     4  10  21  37  56  82 112 143 184 231 277 330
#
# _framework density 20.081955000000001
#
# number of rings (size 3 to 8) (size 9 to 14) (size 15 to 20)
#    0.000    2.000    0.000    3.000    0.000    4.000 
#    0.000    1.250    0.000    9.000    0.000    0.000 
#    0.000    0.000    0.000    0.000    0.000    0.000 
#
# Total GULP energy -396423.504572 kJ/mol
# GULP energy per Si atom -12388.234518 kJ/mol
# Density = 2.003625 g / cm^3
# Si number density = 20.081955 Si / 1000 Ang^3
#
#
#
# Elastic Constant Matrix: (Units=GPa)
#
#
# Indices 1 2 3 4 5 6 
#
# 1 99.7579 31.7630 15.4574 0.0000 0.0000 0.0000
# 2 31.7630 106.8869 69.1336 0.0000 0.0000 0.0000
# 3 15.4574 69.1336 79.0702 0.0000 0.0000 0.0000
# 4 0.0000 0.0000 0.0000 42.5942 0.0000 0.0000
# 5 0.0000 0.0000 0.0000 0.0000 50.2176 0.0000
# 6 0.0000 0.0000 0.0000 0.0000 0.0000 26.6282
#
#
#
# Elastic Compliance Matrix: (Units=1/GPa)
#
#
# Indices 1 2 3 4 5 6 
#
# 1 0.011165 -0.004387 0.001653 0.000000 0.000000 0.000000
# 2 -0.004387 0.023256 -0.019476 0.000000 0.000000 0.000000
# 3 0.001653 -0.019476 0.029352 0.000000 0.000000 0.000000
# 4 0.000000 0.000000 0.000000 0.023477 0.000000 0.000000
# 5 0.000000 0.000000 0.000000 0.000000 0.019913 0.000000
# 6 0.000000 0.000000 0.000000 0.000000 0.000000 0.037554
#
#
# Mechanical properties :
#
#
# Convention : Reuss Voigt Hill
#
# Bulk Modulus (GPa) = 51.67003 57.60254 54.63629
# Shear Modulus (GPa) = 25.56365 35.17874 30.37119
#
# Velocity S-wave (km/s) = 3.57174 4.18994 3.89313
# Velocity P-wave (km/s) = 6.54180 7.22174 6.89016
#
# Compressibility (1/GPa) = 0.01935358
#
# Stress axis : x y z
#
# Youngs Moduli (GPa) = 89.56595 42.99893 34.06866
#
# Poissons Ratio (x) = 0.18864 -0.05632
# Poissons Ratio (y) = 0.39293 0.66353
# Poissons Ratio (z) = -0.14806 0.83746
#
# Static dielectric constant tensor:
#      x y z
#    x 3.901710 0.000000 0.000000 
#    y 0.000000 2.724500 0.000000 
#    z 0.000000 0.000000 3.395010 
# 
# 
# High freq. dielectric constant tensor:
#      x y z
#    x 1.810300 0.000000 0.000000 
#    y 0.000000 1.780180 0.000000 
#    z 0.000000 0.000000 1.763490 
# 
# From -- ./inp_files/20252.got.cif
#   From: 2010.03.12/outbox.cif.g09.slc.cpg/sg37_11_cif.got.tgz:20252.got - 2010.04.14 02:25:27.
