data_PCOD8176899
_publ_section_title
;
Structure prediction by ZEFSAII (Michael W. Deem and Ramdas Pophale) SiO2 
 PCOD8176899
Probable space group: C C C 2
;
_chemical_formula_sum "Si O2"
_cell_formula_units_Z 56
_cell_length_a 21.677776
_cell_length_b 8.771066
_cell_length_c 13.686171
_cell_angle_alpha 90.000000
_cell_angle_beta 90.000000
_cell_angle_gamma 90.000000
_cell_volume 2602.250288
_symmetry_space_group_name_H-M "C C C 2"
_symmetry_group_IT_number 37
_symmetry_cell_setting 'orthorhombic'
loop_
_space_group_symop_operation_xyz
x,y,z
-x,-y,z
-x,y,1/2+z
x,-y,1/2+z
1/2+x,1/2+y,z
1/2-x,1/2-y,z
1/2-x,1/2+y,1/2+z
1/2+x,1/2-y,1/2+z
loop_
_atom_site_type_symbol
_atom_site_label
_atom_site_fract_x
_atom_site_fract_y
_atom_site_fract_z
Si Si1 0.389139 0.333029 0.057700
Si Si2 0.945182 0.725158 0.717356
Si Si3 0.790336 0.884827 0.902168
Si Si4 0.089053 0.516435 0.050793
Si Si5 0.000000 0.000000 0.113901
Si Si6 0.171121 0.945903 0.204278
Si Si7 0.271449 0.098340 0.545590
Si Si8 0.500000 0.000000 0.376480
O O1 0.445113 0.452066 0.041006
O O2 0.354637 0.402336 0.152492
O O3 0.409779 0.161450 0.078619
O O4 0.351351 0.329682 0.957730
O O5 0.950073 0.596205 0.634951
O O6 0.876817 0.803943 0.721022
O O7 0.971351 0.642889 0.815582
O O8 0.990986 0.859153 0.686984
O O9 0.750000 0.750000 0.855215
O O10 0.808475 0.996054 0.813231
O O11 0.745076 0.954586 0.981424
O O12 0.155767 0.594274 0.059201
O O13 0.056486 0.553478 0.946874
O O14 0.231859 0.894086 0.145640
O O15 0.250000 0.250000 0.487382
#
# Coordination Sequence:
#
# PCOD8176899 Si02
#       8
#     8   8   8   8   4   8   8   4
#     4  10  22  43  67  96 136 182 230 288 351 414
#     4  11  24  45  68  97 137 175 231 283 343 420
#     4  11  22  41  66 100 135 177 230 285 346 422
#     4  12  24  45  70  99 141 177 233 291 352 425
#     4  10  22  46  68  92 134 182 222 286 348 420
#     4  10  23  42  68  97 135 184 227 280 354 413
#     4  11  23  44  66  98 138 180 226 286 357 413
#     4  12  26  42  68 106 132 184 230 292 360 414
#
# _framework density 21.519836999999999
#
# number of rings (size 3 to 8) (size 9 to 14) (size 15 to 20)
#    0.000    1.143    2.857    3.429    0.000    0.000 
#   10.286    7.143    0.000    0.000    0.000    0.000 
#    0.000    0.000    0.000    0.000    0.000    0.000 
#
# Total GULP energy -346921.681408 kJ/mol
# GULP energy per Si atom -12390.060050 kJ/mol
# Density = 2.147086 g / cm^3
# Si number density = 21.519837 Si / 1000 Ang^3
#
#
#
# Elastic Constant Matrix: (Units=GPa)
#
#
# Indices 1 2 3 4 5 6 
#
# 1 137.5234 46.0725 54.7751 0.0000 0.0000 0.0000
# 2 46.0725 109.5236 53.4364 0.0000 0.0000 0.0000
# 3 54.7751 53.4364 137.6247 0.0000 0.0000 0.0000
# 4 0.0000 0.0000 0.0000 11.0760 0.0000 0.0000
# 5 0.0000 0.0000 0.0000 0.0000 14.8255 0.0000
# 6 0.0000 0.0000 0.0000 0.0000 0.0000 39.1981
#
#
#
# Elastic Compliance Matrix: (Units=1/GPa)
#
#
# Indices 1 2 3 4 5 6 
#
# 1 0.009192 -0.002568 -0.002661 0.000000 0.000000 0.000000
# 2 -0.002568 0.011982 -0.003630 0.000000 0.000000 0.000000
# 3 -0.002661 -0.003630 0.009735 0.000000 0.000000 0.000000
# 4 0.000000 0.000000 0.000000 0.090285 0.000000 0.000000
# 5 0.000000 0.000000 0.000000 0.000000 0.067451 0.000000
# 6 0.000000 0.000000 0.000000 0.000000 0.000000 0.025511
#
#
# Mechanical properties :
#
#
# Convention : Reuss Voigt Hill
#
# Bulk Modulus (GPa) = 75.81836 77.02663 76.42249
# Shear Modulus (GPa) = 21.16207 28.37913 24.77060
#
# Velocity S-wave (km/s) = 3.13928 3.63539 3.39641
# Velocity P-wave (km/s) = 6.96049 7.31385 7.13936
#
# Compressibility (1/GPa) = 0.01318942
#
# Stress axis : x y z
#
# Youngs Moduli (GPa) = 108.79211 83.45881 102.72439
#
# Poissons Ratio (x) = 0.21435 0.27337
# Poissons Ratio (y) = 0.27941 0.37290
# Poissons Ratio (z) = 0.28952 0.30297
#
# Static dielectric constant tensor:
#      x y z
#    x 4.169850 0.000000 0.000000 
#    y 0.000000 3.875140 0.000000 
#    z 0.000000 0.000000 3.726030 
# 
# 
# High freq. dielectric constant tensor:
#      x y z
#    x 1.865250 0.000000 0.000000 
#    y 0.000000 1.847050 0.000000 
#    z 0.000000 0.000000 1.834290 
# 
# From -- ./inp_files/12974.got.cif
#   From: 2010.03.12/outbox.cif.g09.slc.cpg/sg37_7_cif.got.tgz:12974.got - 2010.04.14 02:25:27.
