data_PCOD8176794
_publ_section_title
;
Structure prediction by ZEFSAII (Michael W. Deem and Ramdas Pophale) SiO2 
 PCOD8176794
Probable space group: C C C 2
;
_chemical_formula_sum "Si O2"
_cell_formula_units_Z 52
_cell_length_a 6.488291
_cell_length_b 29.343516
_cell_length_c 13.735165
_cell_angle_alpha 90.000000
_cell_angle_beta 90.000000
_cell_angle_gamma 90.000000
_cell_volume 2615.028048
_symmetry_space_group_name_H-M "C C C 2"
_symmetry_group_IT_number 37
_symmetry_cell_setting 'orthorhombic'
loop_
_space_group_symop_operation_xyz
x,y,z
-x,-y,z
-x,y,1/2+z
x,-y,1/2+z
1/2+x,1/2+y,z
1/2-x,1/2-y,z
1/2-x,1/2+y,1/2+z
1/2+x,1/2-y,1/2+z
loop_
_atom_site_type_symbol
_atom_site_label
_atom_site_fract_x
_atom_site_fract_y
_atom_site_fract_z
Si Si1 0.228398 0.698040 0.210850
Si Si2 0.500000 0.000000 0.971660
Si Si3 0.539568 0.351513 0.057533
Si Si4 0.321029 0.932578 0.126131
Si Si5 0.346294 0.140451 0.178576
Si Si6 0.828470 0.037840 0.328344
Si Si7 0.508491 0.364227 0.839765
O O1 0.250000 0.750000 0.243932
O O2 0.345995 0.690802 0.108745
O O3 0.331289 0.666541 0.292809
O O4 0.989820 0.684337 0.197861
O O5 0.645283 0.970089 0.903626
O O6 0.365699 0.966047 0.037278
O O7 0.636921 0.398782 0.096252
O O8 0.298249 0.350572 0.085236
O O9 0.571167 0.343684 0.943593
O O10 0.522502 0.904531 0.157109
O O11 0.251713 0.962955 0.217587
O O12 0.211392 0.132711 0.274510
O O13 0.921264 0.085997 0.357755
O O14 0.000000 0.000000 0.341498
#
# Coordination Sequence:
#
# PCOD8176794 Si02
#       7
#     8   4   8   8   8   8   8
#     4  10  23  45  65 100 133 168 218 265 335 399
#     4  12  28  38  64  96 130 176 232 274 322 398
#     4  10  22  41  67  96 128 173 215 268 328 391
#     4  11  24  42  63  94 127 174 220 270 332 386
#     4  10  21  43  69  86 134 172 204 282 326 386
#     4  12  26  41  63  93 131 172 224 280 328 394
#     4  11  23  42  67  97 129 172 221 270 330 388
#
# _framework density 19.885062999999999
#
# number of rings (size 3 to 8) (size 9 to 14) (size 15 to 20)
#    0.000    1.231    4.615    2.308    6.462    6.769 
#    5.538    0.000    0.000    0.000    0.000    0.000 
#    0.000    0.000    0.000    0.000    0.000    0.000 
#
# Total GULP energy -322533.058744 kJ/mol
# GULP energy per Si atom -12405.117644 kJ/mol
# Density = 1.983980 g / cm^3
# Si number density = 19.885063 Si / 1000 Ang^3
#
#
#
# Elastic Constant Matrix: (Units=GPa)
#
#
# Indices 1 2 3 4 5 6 
#
# 1 111.1188 34.5602 29.8598 0.0000 0.0000 0.0000
# 2 34.5602 107.9480 10.5955 0.0000 0.0000 0.0000
# 3 29.8598 10.5955 119.6501 0.0000 0.0000 0.0000
# 4 0.0000 0.0000 0.0000 273.6231 0.0000 0.0000
# 5 0.0000 0.0000 0.0000 0.0000 5.4361 0.0000
# 6 0.0000 0.0000 0.0000 0.0000 0.0000 21.6418
#
#
#
# Elastic Compliance Matrix: (Units=1/GPa)
#
#
# Indices 1 2 3 4 5 6 
#
# 1 0.010622 -0.003168 -0.002370 0.000000 0.000000 0.000000
# 2 -0.003168 0.010290 -0.000121 0.000000 0.000000 0.000000
# 3 -0.002370 -0.000121 0.008960 0.000000 0.000000 0.000000
# 4 0.000000 0.000000 0.000000 0.003655 0.000000 0.000000
# 5 0.000000 0.000000 0.000000 0.000000 0.183956 0.000000
# 6 0.000000 0.000000 0.000000 0.000000 0.000000 0.046207
#
#
# Mechanical properties :
#
#
# Convention : Reuss Voigt Hill
#
# Bulk Modulus (GPa) = 53.89731 54.30535 54.10133
# Shear Modulus (GPa) = 17.78152 77.72030 47.75091
#
# Velocity S-wave (km/s) = 2.99359 6.25856 4.90567
# Velocity P-wave (km/s) = 6.25396 8.92161 7.70412
#
# Compressibility (1/GPa) = 0.01855380
#
# Stress axis : x y z
#
# Youngs Moduli (GPa) = 94.14794 97.18374 111.60855
#
# Poissons Ratio (x) = 0.30787 0.26453
# Poissons Ratio (y) = 0.29825 0.01346
# Poissons Ratio (z) = 0.22315 0.01172
#
# Static dielectric constant tensor:
#      x y z
#    x 3.881430 0.000000 0.000000 
#    y 0.000000 3.045720 0.000000 
#    z 0.000000 0.000000 3.776990 
# 
# 
# High freq. dielectric constant tensor:
#      x y z
#    x 1.789650 0.000000 0.000000 
#    y 0.000000 1.764940 0.000000 
#    z 0.000000 0.000000 1.785300 
# 
# From -- ./inp_files/9920.got.cif
#   From: 2010.03.12/outbox.cif.g09.slc.cpg/sg37_5_cif.got.tgz:9920.got - 2010.04.14 02:25:27.
