data_PCOD8176958
_publ_section_title
;
Structure prediction by ZEFSAII (Michael W. Deem and Ramdas Pophale) SiO2 
 PCOD8176958
Probable space group: C C C 2
;
_chemical_formula_sum "Si O2"
_cell_formula_units_Z 64
_cell_length_a 10.204187
_cell_length_b 10.204278
_cell_length_c 30.520448
_cell_angle_alpha 90.000000
_cell_angle_beta 90.000000
_cell_angle_gamma 90.000000
_cell_volume 3177.983184
_symmetry_space_group_name_H-M "C C C 2"
_symmetry_group_IT_number 37
_symmetry_cell_setting 'orthorhombic'
loop_
_space_group_symop_operation_xyz
x,y,z
-x,-y,z
-x,y,1/2+z
x,-y,1/2+z
1/2+x,1/2+y,z
1/2-x,1/2-y,z
1/2-x,1/2+y,1/2+z
1/2+x,1/2-y,1/2+z
loop_
_atom_site_type_symbol
_atom_site_label
_atom_site_fract_x
_atom_site_fract_y
_atom_site_fract_z
Si Si1 0.353371 0.146837 0.714210
Si Si2 0.909448 0.381402 0.118150
Si Si3 0.642486 0.857047 0.350214
Si Si4 0.353177 0.853375 0.382465
Si Si5 0.381366 0.909388 0.478553
Si Si6 0.966060 0.794086 0.052302
Si Si7 0.294078 0.533986 0.044396
Si Si8 0.142966 0.357528 0.246451
O O1 0.250000 0.250000 0.735366
O O2 0.337904 0.164756 0.661906
O O3 0.500502 0.184056 0.728650
O O4 0.314921 0.999751 0.728401
O O5 0.807171 0.415764 0.080296
O O6 0.000000 0.500000 0.132722
O O7 0.006254 0.271602 0.099029
O O8 0.750000 0.750000 0.365446
O O9 0.500247 0.814933 0.368251
O O10 0.634231 0.865837 0.298333
O O11 0.684061 0.999492 0.368034
O O12 0.250000 0.750000 0.361321
O O13 0.335343 0.837921 0.434769
O O14 0.415548 0.806950 0.516376
O O15 0.500000 0.000000 0.464068
O O16 0.271457 0.006100 0.497658
O O17 0.098767 0.856845 0.033555
O O18 0.857181 0.901495 0.063172
O O19 0.250000 0.250000 0.231220
#
# Coordination Sequence:
#
# PCOD8176958 Si02
#       8
#     8   8   8   8   8   8   8   8
#     4  11  23  41  65  93 124 161 207 252 301 364
#     4  12  22  39  61  84 117 160 198 246 302 348
#     4  10  23  43  65  93 127 160 197 247 309 370
#     4  11  23  41  65  93 124 161 207 252 301 364
#     4  12  22  39  61  84 117 160 198 246 302 348
#     4  11  23  38  58  84 117 157 200 246 294 349
#     4  11  23  38  58  84 117 157 200 246 294 349
#     4  10  23  43  65  93 127 160 197 247 309 370
#
# _framework density 20.138559000000001
#
# number of rings (size 3 to 8) (size 9 to 14) (size 15 to 20)
#    0.000    1.000    5.000    3.750    0.000    5.000 
#    0.000    2.500    0.000    0.000    0.000    0.000 
#    0.000    0.000    0.000    0.000    0.000    0.000 
#
# Total GULP energy -396823.464506 kJ/mol
# GULP energy per Si atom -12400.733266 kJ/mol
# Density = 2.009272 g / cm^3
# Si number density = 20.138559 Si / 1000 Ang^3
#
#
#
# Elastic Constant Matrix: (Units=GPa)
#
#
# Indices 1 2 3 4 5 6 
#
# 1 122.5417 72.9500 28.8214 0.0000 0.0000 0.0000
# 2 72.9500 122.5532 28.8837 0.0000 0.0000 0.0000
# 3 28.8214 28.8837 100.3098 0.0000 0.0000 0.0000
# 4 0.0000 0.0000 0.0000 -351.7546 0.0000 0.0000
# 5 0.0000 0.0000 0.0000 0.0000 -504.7745 0.0000
# 6 0.0000 0.0000 0.0000 0.0000 0.0000 37.1959
#
#
#
# Elastic Compliance Matrix: (Units=1/GPa)
#
#
# Indices 1 2 3 4 5 6 
#
# 1 0.012875 -0.007286 -0.001601 0.000000 0.000000 0.000000
# 2 -0.007286 0.012877 -0.001614 0.000000 0.000000 0.000000
# 3 -0.001601 -0.001614 0.010894 0.000000 0.000000 0.000000
# 4 0.000000 0.000000 0.000000 -0.002843 0.000000 0.000000
# 5 0.000000 0.000000 0.000000 0.000000 -0.001981 0.000000
# 6 0.000000 0.000000 0.000000 0.000000 0.000000 0.026885
#
#
# Mechanical properties :
#
#
# Convention : Reuss Voigt Hill
#
# Bulk Modulus (GPa) = 63.92922 67.41277 65.67100
# Shear Modulus (GPa) = 58.87565 -149.55001 -45.33718
#
# Velocity S-wave (km/s) = 5.41283 -8.62680 -4.74989
# Velocity P-wave (km/s) = 8.41894 8.10443 1.61195
#
# Compressibility (1/GPa) = 0.01564230
#
# Stress axis : x y z
#
# Youngs Moduli (GPa) = 77.67192 77.65535 91.79339
#
# Poissons Ratio (x) = 0.56582 0.14697
# Poissons Ratio (y) = 0.56594 0.14820
# Poissons Ratio (z) = 0.12436 0.12537
#
# Static dielectric constant tensor:
#      x y z
#    x 5.315280 0.000000 0.000000 
#    y 0.000000 4.907730 0.000000 
#    z 0.000000 0.000000 3.677040 
# 
# 
# High freq. dielectric constant tensor:
#      x y z
#    x 1.796570 0.000000 0.000000 
#    y 0.000000 1.796590 0.000000 
#    z 0.000000 0.000000 1.783210 
# 
# From -- ./inp_files/20495.got.cif
#   From: 2010.03.12/outbox.cif.g09.slc.cpg/sg37_11_cif.got.tgz:20495.got - 2010.04.14 02:25:27.
