data_PCOD8176799
_publ_section_title
;
Structure prediction by ZEFSAII (Michael W. Deem and Ramdas Pophale) SiO2 
 PCOD8176799
Probable space group: C C C 2
;
_chemical_formula_sum "Si O2"
_cell_formula_units_Z 48
_cell_length_a 26.574970
_cell_length_b 8.545389
_cell_length_c 9.435594
_cell_angle_alpha 90.000000
_cell_angle_beta 90.000000
_cell_angle_gamma 90.000000
_cell_volume 2142.761654
_symmetry_space_group_name_H-M "C C C 2"
_symmetry_group_IT_number 37
_symmetry_cell_setting 'orthorhombic'
loop_
_space_group_symop_operation_xyz
x,y,z
-x,-y,z
-x,y,1/2+z
x,-y,1/2+z
1/2+x,1/2+y,z
1/2-x,1/2-y,z
1/2-x,1/2+y,1/2+z
1/2+x,1/2-y,1/2+z
loop_
_atom_site_type_symbol
_atom_site_label
_atom_site_fract_x
_atom_site_fract_y
_atom_site_fract_z
Si Si1 0.893698 0.195290 0.493430
Si Si2 0.557044 0.024131 0.618084
Si Si3 0.112942 0.644753 0.893028
Si Si4 0.742693 0.420760 0.230810
Si Si5 0.129341 0.026399 0.259297
Si Si6 0.303635 0.074650 0.999789
O O1 0.937147 0.325238 0.513002
O O2 0.899451 0.060781 0.612794
O O3 0.838674 0.272994 0.514220
O O4 0.897918 0.119163 0.337779
O O5 0.591717 0.052916 0.755187
O O6 0.500000 0.000000 0.666919
O O7 0.574887 0.873407 0.527047
O O8 0.124087 0.824953 0.862826
O O9 0.165058 0.569900 0.939433
O O10 0.750000 0.250000 0.157423
O O11 0.686343 0.483194 0.223249
O O12 0.757309 0.400469 0.394595
O O13 0.780278 0.540956 0.153549
#
# Coordination Sequence:
#
# PCOD8176799 Si02
#       6
#     8   8   8   8   8   8
#     4  10  23  42  62  92 132 168 213 275 328 395
#     4  10  21  43  71 100 126 164 220 270 332 418
#     4  10  23  40  67  95 129 175 209 273 335 390
#     4  12  25  38  62  91 130 181 227 275 305 384
#     4  11  23  39  60  91 132 171 211 267 334 363
#     4  11  24  42  58  92 129 177 234 259 318 383
#
# _framework density 22.400998000000001
#
# number of rings (size 3 to 8) (size 9 to 14) (size 15 to 20)
#    0.000    1.333    1.667    4.500    4.667    4.000 
#    0.000    0.833    0.000    4.000    0.000    0.000 
#    0.000    0.000    0.000    0.000    0.000    0.000 
#
# Total GULP energy -297574.310138 kJ/mol
# GULP energy per Si atom -12398.929589 kJ/mol
# Density = 2.235001 g / cm^3
# Si number density = 22.400998 Si / 1000 Ang^3
#
#
#
# Elastic Constant Matrix: (Units=GPa)
#
#
# Indices 1 2 3 4 5 6 
#
# 1 79.9198 20.9150 11.4801 0.0000 0.0000 0.0000
# 2 20.9150 78.1467 23.0646 0.0000 0.0000 0.0000
# 3 11.4801 23.0646 85.8859 0.0000 0.0000 0.0000
# 4 0.0000 0.0000 0.0000 47.5977 0.0000 0.0000
# 5 0.0000 0.0000 0.0000 0.0000 25.3726 0.0000
# 6 0.0000 0.0000 0.0000 0.0000 0.0000 22.9426
#
#
#
# Elastic Compliance Matrix: (Units=1/GPa)
#
#
# Indices 1 2 3 4 5 6 
#
# 1 0.013520 -0.003351 -0.000907 0.000000 0.000000 0.000000
# 2 -0.003351 0.014728 -0.003507 0.000000 0.000000 0.000000
# 3 -0.000907 -0.003507 0.012707 0.000000 0.000000 0.000000
# 4 0.000000 0.000000 0.000000 0.021009 0.000000 0.000000
# 5 0.000000 0.000000 0.000000 0.000000 0.039413 0.000000
# 6 0.000000 0.000000 0.000000 0.000000 0.000000 0.043587
#
#
# Mechanical properties :
#
#
# Convention : Reuss Voigt Hill
#
# Bulk Modulus (GPa) = 39.33301 39.43020 39.38160
# Shear Modulus (GPa) = 29.59123 31.74877 30.67000
#
# Velocity S-wave (km/s) = 3.63847 3.76878 3.70420
# Velocity P-wave (km/s) = 5.93700 6.04801 5.99276
#
# Compressibility (1/GPa) = 0.02542394
#
# Stress axis : x y z
#
# Youngs Moduli (GPa) = 73.96599 67.89611 78.69956
#
# Poissons Ratio (x) = 0.22749 0.07141
# Poissons Ratio (y) = 0.24783 0.27603
# Poissons Ratio (z) = 0.06711 0.23814
#
# Static dielectric constant tensor:
#      x y z
#    x 3.682220 0.000000 0.000000 
#    y 0.000000 4.139450 0.000000 
#    z 0.000000 0.000000 4.216540 
# 
# 
# High freq. dielectric constant tensor:
#      x y z
#    x 1.852710 0.000000 0.000000 
#    y 0.000000 1.884950 0.000000 
#    z 0.000000 0.000000 1.895470 
# 
# From -- ./inp_files/2409.got.cif
#   From: 2010.03.12/outbox.cif.g09.slc.cpg/sg37_2_cif.got.tgz:2409.got - 2010.04.14 02:25:27.
