data_PCOD8176508
_publ_section_title
;
Structure prediction by ZEFSAII (Michael W. Deem and Ramdas Pophale) SiO2 
 PCOD8176508
Probable space group: C C C 2
;
_chemical_formula_sum "Si O2"
_cell_formula_units_Z 52
_cell_length_a 16.484080
_cell_length_b 15.574034
_cell_length_c 8.583480
_cell_angle_alpha 90.000000
_cell_angle_beta 90.000000
_cell_angle_gamma 90.000000
_cell_volume 2203.582078
_symmetry_space_group_name_H-M "C C C 2"
_symmetry_group_IT_number 37
_symmetry_cell_setting 'orthorhombic'
loop_
_space_group_symop_operation_xyz
x,y,z
-x,-y,z
-x,y,1/2+z
x,-y,1/2+z
1/2+x,1/2+y,z
1/2-x,1/2-y,z
1/2-x,1/2+y,1/2+z
1/2+x,1/2-y,1/2+z
loop_
_atom_site_type_symbol
_atom_site_label
_atom_site_fract_x
_atom_site_fract_y
_atom_site_fract_z
Si Si1 0.453072 0.229333 0.037420
Si Si2 0.016995 0.853129 0.275807
Si Si3 0.774622 0.559039 0.368064
Si Si4 0.634159 0.209042 0.041207
Si Si5 0.610843 0.601376 0.491805
Si Si6 0.698092 0.107956 0.522763
Si Si7 0.750000 0.250000 0.316507
O O1 0.452168 0.305369 0.164166
O O2 0.540119 0.180221 0.051663
O O3 0.383672 0.159531 0.063407
O O4 0.438992 0.277445 0.873207
O O5 0.084266 0.905100 0.173892
O O6 0.967402 0.919839 0.383961
O O7 0.816146 0.641202 0.443186
O O8 0.686416 0.541971 0.447885
O O9 0.823976 0.472551 0.410044
O O10 0.765179 0.571843 0.183796
O O11 0.636454 0.300287 0.952778
O O12 0.673053 0.224291 0.211372
O O13 0.763260 0.168598 0.433115
#
# Coordination Sequence:
#
# PCOD8176508 Si02
#       7
#     8   8   8   8   8   8   4
#     4  10  20  39  65 106 135 177 240 281 348 429
#     4   8  18  35  68 104 128 175 227 291 333 420
#     4  12  26  44  65 102 147 184 232 302 356 434
#     4  10  21  41  73 101 142 185 226 296 358 415
#     4  10  19  39  68  99 137 175 232 278 359 416
#     4  12  28  43  67 101 142 190 241 291 367 423
#     4  12  24  42  74 102 138 194 240 296 354 432
#
# _framework density 23.597940999999999
#
# number of rings (size 3 to 8) (size 9 to 14) (size 15 to 20)
#    0.000    1.846    1.538    4.615    4.308    0.615 
#    0.000    1.538    0.000    4.615    0.000    0.000 
#    0.000    0.000    0.000    0.000    0.000    0.000 
#
# Total GULP energy -322177.048916 kJ/mol
# GULP energy per Si atom -12391.424958 kJ/mol
# Density = 2.354423 g / cm^3
# Si number density = 23.597941 Si / 1000 Ang^3
#
#
#
# Elastic Constant Matrix: (Units=GPa)
#
#
# Indices 1 2 3 4 5 6 
#
# 1 80.5448 10.5508 37.4936 0.0000 0.0000 0.0000
# 2 10.5508 48.7069 28.9934 0.0000 0.0000 0.0000
# 3 37.4936 28.9934 160.8566 0.0000 0.0000 0.0000
# 4 0.0000 0.0000 0.0000 30.3651 0.0000 0.0000
# 5 0.0000 0.0000 0.0000 0.0000 42.0402 0.0000
# 6 0.0000 0.0000 0.0000 0.0000 0.0000 18.6323
#
#
#
# Elastic Compliance Matrix: (Units=1/GPa)
#
#
# Indices 1 2 3 4 5 6 
#
# 1 0.013991 -0.001220 -0.003041 0.000000 0.000000 0.000000
# 2 -0.001220 0.023105 -0.003880 0.000000 0.000000 0.000000
# 3 -0.003041 -0.003880 0.007625 0.000000 0.000000 0.000000
# 4 0.000000 0.000000 0.000000 0.032933 0.000000 0.000000
# 5 0.000000 0.000000 0.000000 0.000000 0.023787 0.000000
# 6 0.000000 0.000000 0.000000 0.000000 0.000000 0.053670
#
#
# Mechanical properties :
#
#
# Convention : Reuss Voigt Hill
#
# Bulk Modulus (GPa) = 35.16467 49.35378 42.25922
# Shear Modulus (GPa) = 27.64373 32.41223 30.02798
#
# Velocity S-wave (km/s) = 3.42635 3.71012 3.57106
# Velocity P-wave (km/s) = 5.53056 6.27002 5.91187
#
# Compressibility (1/GPa) = 0.02843763
#
# Stress axis : x y z
#
# Youngs Moduli (GPa) = 71.47469 43.28070 131.14875
#
# Poissons Ratio (x) = 0.05282 0.39884
# Poissons Ratio (y) = 0.08723 0.50887
# Poissons Ratio (z) = 0.21736 0.16793
#
# Static dielectric constant tensor:
#      x y z
#    x 4.285180 0.000000 0.000000 
#    y 0.000000 3.926760 0.000000 
#    z 0.000000 0.000000 4.652260 
# 
# 
# High freq. dielectric constant tensor:
#      x y z
#    x 1.930870 0.000000 0.000000 
#    y 0.000000 1.908000 0.000000 
#    z 0.000000 0.000000 1.954710 
# 
# From -- ./inp_files/4052.got.cif
#   From: 2010.03.12/outbox.cif.g09.slc.cpg/sg37_3_cif.got.tgz:4052.got - 2010.04.14 02:25:27.
