data_PCOD8176150
_publ_section_title
;
Structure prediction by ZEFSAII (Michael W. Deem and Ramdas Pophale) SiO2 
 PCOD8176150
Probable space group: C M C 21
;
_chemical_formula_sum "Si O2"
_cell_formula_units_Z 64
_cell_length_a 22.584324
_cell_length_b 9.103204
_cell_length_c 14.737737
_cell_angle_alpha 90.000000
_cell_angle_beta 90.000000
_cell_angle_gamma 90.000000
_cell_volume 3029.927055
_symmetry_space_group_name_H-M "C M C 21"
_symmetry_group_IT_number 36
_symmetry_cell_setting 'orthorhombic'
loop_
_space_group_symop_operation_xyz
x,y,z
-x,-y,1/2+z
x,-y,1/2+z
-x,y,z
1/2+x,1/2+y,z
1/2-x,1/2-y,1/2+z
1/2+x,1/2-y,1/2+z
1/2-x,1/2+y,z
loop_
_atom_site_type_symbol
_atom_site_label
_atom_site_fract_x
_atom_site_fract_y
_atom_site_fract_z
Si Si1 0.856599 0.637934 0.514910
Si Si2 0.066596 0.358527 0.528807
Si Si3 0.112848 0.845310 0.884699
Si Si4 0.933916 0.165600 0.888292
Si Si5 0.261087 0.568172 0.415241
Si Si6 0.388248 0.191357 0.223013
Si Si7 0.771768 0.193683 0.791745
Si Si8 0.649552 0.859569 0.221031
O O1 0.892963 0.491164 0.495201
O O2 0.883444 0.768023 0.454092
O O3 0.787812 0.596957 0.493331
O O4 0.865252 0.688406 0.618487
O O5 0.067776 0.236688 0.450822
O O6 0.088641 0.285623 0.621871
O O7 0.000000 0.416593 0.541497
O O8 0.175341 0.859900 0.939201
O O9 0.121024 0.756270 0.790738
O O10 0.084521 0.001305 0.861503
O O11 0.937196 0.260725 0.796117
O O12 0.000000 0.169234 0.931836
O O13 0.238332 0.638729 0.321394
O O14 0.271761 0.398484 0.386933
O O15 0.333188 0.304320 0.237107
O O16 0.374438 0.021167 0.242032
O O17 0.720519 0.138086 0.725800
#
# Coordination Sequence:
#
# PCOD8176150 Si02
#       8
#     8   8   8   8   8   8   8   8
#     4  11  23  43  68 100 130 169 227 271 333 395
#     4  11  25  44  65  92 128 177 230 276 322 389
#     4  11  24  43  66  94 134 172 216 272 335 396
#     4  12  24  43  67  95 132 175 220 273 333 393
#     4  11  20  38  65  95 131 164 209 265 333 397
#     4  11  22  42  65  95 128 174 224 271 325 396
#     4  11  19  38  61  95 132 166 203 262 331 396
#     4  10  24  41  67  98 133 173 218 270 334 402
#
# _framework density 21.122620000000001
#
# number of rings (size 3 to 8) (size 9 to 14) (size 15 to 20)
#    0.000    1.000    3.750    3.375    1.750    1.000 
#    2.250    8.125    0.000    0.000    0.000    0.000 
#    0.000    0.000    0.000    0.000    0.000    0.000 
#
# Total GULP energy -396721.057629 kJ/mol
# GULP energy per Si atom -12397.533051 kJ/mol
# Density = 2.107454 g / cm^3
# Si number density = 21.122620 Si / 1000 Ang^3
#
#
#
# Elastic Constant Matrix: (Units=GPa)
#
#
# Indices 1 2 3 4 5 6 
#
# 1 108.5787 29.0223 29.7280 0.0000 0.0000 0.0000
# 2 29.0223 101.7857 59.3823 0.0000 0.0000 0.0000
# 3 29.7280 59.3823 109.1507 0.0000 0.0000 0.0000
# 4 0.0000 0.0000 0.0000 21.4183 0.0000 0.0000
# 5 0.0000 0.0000 0.0000 0.0000 24.3076 0.0000
# 6 0.0000 0.0000 0.0000 0.0000 0.0000 25.6944
#
#
#
# Elastic Compliance Matrix: (Units=1/GPa)
#
#
# Indices 1 2 3 4 5 6 
#
# 1 0.010193 -0.001885 -0.001751 0.000000 0.000000 0.000000
# 2 -0.001885 0.014741 -0.007506 0.000000 0.000000 0.000000
# 3 -0.001751 -0.007506 0.013722 0.000000 0.000000 0.000000
# 4 0.000000 0.000000 0.000000 0.046689 0.000000 0.000000
# 5 0.000000 0.000000 0.000000 0.000000 0.041139 0.000000
# 6 0.000000 0.000000 0.000000 0.000000 0.000000 0.038919
#
#
# Mechanical properties :
#
#
# Convention : Reuss Voigt Hill
#
# Bulk Modulus (GPa) = 61.07834 61.75335 61.41584
# Shear Modulus (GPa) = 25.88720 27.70959 26.79839
#
# Velocity S-wave (km/s) = 3.50461 3.62587 3.56575
# Velocity P-wave (km/s) = 6.73463 6.84312 6.78909
#
# Compressibility (1/GPa) = 0.01637242
#
# Stress axis : x y z
#
# Youngs Moduli (GPa) = 98.10585 67.83637 72.87435
#
# Poissons Ratio (x) = 0.12787 0.12758
# Poissons Ratio (y) = 0.18493 0.54703
# Poissons Ratio (z) = 0.17175 0.50921
#
# Static dielectric constant tensor:
#      x y z
#    x 3.956770 0.000000 0.000000 
#    y 0.000000 3.781220 0.000000 
#    z 0.000000 0.000000 3.614440 
# 
# 
# High freq. dielectric constant tensor:
#      x y z
#    x 1.834590 0.000000 0.000000 
#    y 0.000000 1.834920 0.000000 
#    z 0.000000 0.000000 1.811190 
# 
# From -- ./inp_files/12969.got.cif
#   From: 2010.03.12/outbox.cif.g09.slc.cpg/sg36_7_cif.got.tgz:12969.got - 2010.04.14 02:13:53.
