data_PCOD8176106
_publ_section_title
;
Structure prediction by ZEFSAII (Michael W. Deem and Ramdas Pophale) SiO2 
 PCOD8176106
Probable space group: C M C 21
;
_chemical_formula_sum "Si O2"
_cell_formula_units_Z 56
_cell_length_a 15.331898
_cell_length_b 18.644878
_cell_length_c 9.011660
_cell_angle_alpha 90.000000
_cell_angle_beta 90.000000
_cell_angle_gamma 90.000000
_cell_volume 2576.085453
_symmetry_space_group_name_H-M "C M C 21"
_symmetry_group_IT_number 36
_symmetry_cell_setting 'orthorhombic'
loop_
_space_group_symop_operation_xyz
x,y,z
-x,-y,1/2+z
x,-y,1/2+z
-x,y,z
1/2+x,1/2+y,z
1/2-x,1/2-y,1/2+z
1/2+x,1/2-y,1/2+z
1/2-x,1/2+y,z
loop_
_atom_site_type_symbol
_atom_site_label
_atom_site_fract_x
_atom_site_fract_y
_atom_site_fract_z
Si Si1 0.899851 0.390562 0.372720
Si Si2 0.685176 0.433011 0.704401
Si Si3 0.216773 0.483419 0.958478
Si Si4 0.645875 0.723335 0.856958
Si Si5 0.000000 0.976914 0.609006
Si Si6 0.290007 0.808166 0.588459
Si Si7 0.500000 0.396654 0.318693
Si Si8 0.096131 0.643850 0.547035
O O1 0.843006 0.462736 0.363262
O O2 0.874034 0.348624 0.522524
O O3 0.883663 0.343636 0.222527
O O4 0.000000 0.412731 0.389379
O O5 0.747826 0.483127 0.607456
O O6 0.695792 0.462707 0.869727
O O7 0.583865 0.434155 0.668033
O O8 0.724300 0.353440 0.691616
O O9 0.164584 0.410663 0.980717
O O10 0.671070 0.744465 0.688346
O O11 0.586622 0.651767 0.841498
O O12 0.736077 0.712412 0.942450
O O13 0.595259 0.783457 0.951009
O O14 0.000000 0.061437 0.658584
O O15 0.000000 0.964432 0.431694
O O16 0.000000 0.609709 0.533635
#
# Coordination Sequence:
#
# PCOD8176106 Si02
#       8
#     8   8   8   8   4   8   4   8
#     4  10  23  41  64 103 142 181 232 281 339 421
#     4  11  23  41  70 100 136 182 237 295 349 413
#     4  11  21  40  65 100 136 185 232 285 346 416
#     4  12  25  47  70 103 142 184 234 290 362 432
#     4  12  26  50  72 102 140 180 248 308 356 408
#     4  11  25  44  71 102 140 184 228 289 353 436
#     4  12  28  50  76 106 140 190 240 310 360 426
#     4  11  22  39  66  96 141 189 227 285 351 423
#
# _framework density 21.738409999999998
#
# number of rings (size 3 to 8) (size 9 to 14) (size 15 to 20)
#    0.000    0.857    5.000    2.143    3.000    1.143 
#    2.571    0.000    0.000    0.000    0.000    0.000 
#    0.000    0.000    0.000    0.000    0.000    0.000 
#
# Total GULP energy -347072.954854 kJ/mol
# GULP energy per Si atom -12395.462673 kJ/mol
# Density = 2.168893 g / cm^3
# Si number density = 21.738410 Si / 1000 Ang^3
#
#
#
# Elastic Constant Matrix: (Units=GPa)
#
#
# Indices 1 2 3 4 5 6 
#
# 1 111.6834 30.7323 32.4102 0.0000 0.0000 0.0000
# 2 30.7323 97.4367 44.6744 0.0000 0.0000 0.0000
# 3 32.4102 44.6744 85.8238 0.0000 0.0000 0.0000
# 4 0.0000 0.0000 0.0000 38.9364 0.0000 0.0000
# 5 0.0000 0.0000 0.0000 0.0000 32.3065 0.0000
# 6 0.0000 0.0000 0.0000 0.0000 0.0000 27.2861
#
#
#
# Elastic Compliance Matrix: (Units=1/GPa)
#
#
# Indices 1 2 3 4 5 6 
#
# 1 0.010325 -0.001929 -0.002895 0.000000 0.000000 0.000000
# 2 -0.001929 0.013841 -0.006476 0.000000 0.000000 0.000000
# 3 -0.002895 -0.006476 0.016116 0.000000 0.000000 0.000000
# 4 0.000000 0.000000 0.000000 0.025683 0.000000 0.000000
# 5 0.000000 0.000000 0.000000 0.000000 0.030954 0.000000
# 6 0.000000 0.000000 0.000000 0.000000 0.000000 0.036649
#
#
# Mechanical properties :
#
#
# Convention : Reuss Voigt Hill
#
# Bulk Modulus (GPa) = 56.55671 56.73085 56.64378
# Shear Modulus (GPa) = 30.85260 32.18093 31.51677
#
# Velocity S-wave (km/s) = 3.77140 3.85173 3.81178
# Velocity P-wave (km/s) = 6.71104 6.77753 6.74437
#
# Compressibility (1/GPa) = 0.01768137
#
# Stress axis : x y z
#
# Youngs Moduli (GPa) = 96.85392 72.24993 62.05019
#
# Poissons Ratio (x) = 0.13939 0.17962
# Poissons Ratio (y) = 0.18686 0.40184
# Poissons Ratio (z) = 0.28037 0.46790
#
# Static dielectric constant tensor:
#      x y z
#    x 3.972810 0.000000 0.000000 
#    y 0.000000 3.836800 0.000000 
#    z 0.000000 0.000000 3.979690 
# 
# 
# High freq. dielectric constant tensor:
#      x y z
#    x 1.867270 0.000000 0.000000 
#    y 0.000000 1.840130 0.000000 
#    z 0.000000 0.000000 1.862440 
# 
# From -- ./inp_files/4224.got.cif
#   From: 2010.03.12/outbox.cif.g09.slc.cpg/sg36_3_cif.got.tgz:4224.got - 2010.04.14 02:13:53.
