data_PCOD8176119
_publ_section_title
;
Structure prediction by ZEFSAII (Michael W. Deem and Ramdas Pophale) SiO2 
 PCOD8176119
Probable space group: C M C 21
;
_chemical_formula_sum "Si O2"
_cell_formula_units_Z 56
_cell_length_a 30.895623
_cell_length_b 5.512663
_cell_length_c 13.478427
_cell_angle_alpha 90.000000
_cell_angle_beta 90.000000
_cell_angle_gamma 90.000000
_cell_volume 2295.607378
_symmetry_space_group_name_H-M "C M C 21"
_symmetry_group_IT_number 36
_symmetry_cell_setting 'orthorhombic'
loop_
_space_group_symop_operation_xyz
x,y,z
-x,-y,1/2+z
x,-y,1/2+z
-x,y,z
1/2+x,1/2+y,z
1/2-x,1/2-y,1/2+z
1/2+x,1/2-y,1/2+z
1/2-x,1/2+y,z
loop_
_atom_site_type_symbol
_atom_site_label
_atom_site_fract_x
_atom_site_fract_y
_atom_site_fract_z
Si Si1 0.134642 0.534290 0.631040
Si Si2 0.580948 0.345065 0.491051
Si Si3 0.857066 0.217450 0.449539
Si Si4 0.233613 0.672538 0.877171
Si Si5 0.500000 0.941179 0.197698
Si Si6 0.500000 0.551312 0.579164
Si Si7 0.230591 0.338657 0.150412
Si Si8 0.417907 0.985751 0.817717
O O1 0.092363 0.670318 0.584189
O O2 0.150192 0.324200 0.558288
O O3 0.178333 0.691241 0.648143
O O4 0.117880 0.414775 0.734059
O O5 0.629464 0.440954 0.466779
O O6 0.545221 0.551628 0.518112
O O7 0.565208 0.231871 0.387206
O O8 0.815983 0.250040 0.380963
O O9 0.898194 0.324108 0.393381
O O10 0.240738 0.403594 0.927497
O O11 0.248016 0.646196 0.763349
O O12 0.500000 0.213411 0.149535
O O13 0.540981 0.898350 0.266330
O O14 0.500000 0.723860 0.120094
O O15 0.247806 0.595352 0.100545
#
# Coordination Sequence:
#
# PCOD8176119 Si02
#       8
#     8   8   8   8   4   4   8   8
#     4  11  24  45  69 106 143 191 249 307 364 447
#     4  11  27  45  74 109 148 198 244 317 368 449
#     4  11  26  43  72 107 147 193 249 307 370 441
#     4  10  23  43  69 102 144 190 241 300 366 437
#     4  12  27  49  80 109 146 198 238 302 371 438
#     4  12  27  51  76 113 152 186 248 304 369 440
#     4  10  23  42  68 102 141 192 243 301 366 439
#     4  11  25  47  74 106 146 196 245 301 379 442
#
# _framework density 24.394417000000001
#
# number of rings (size 3 to 8) (size 9 to 14) (size 15 to 20)
#    0.000    1.143    2.857    1.286   10.000    4.000 
#    0.000    0.000    0.000    0.000    0.000    0.000 
#    0.000    0.000    0.000    0.000    0.000    0.000 
#
# Total GULP energy -346914.541066 kJ/mol
# GULP energy per Si atom -12389.805038 kJ/mol
# Density = 2.433889 g / cm^3
# Si number density = 24.394417 Si / 1000 Ang^3
#
#
#
# Elastic Constant Matrix: (Units=GPa)
#
#
# Indices 1 2 3 4 5 6 
#
# 1 116.9892 21.5110 17.2626 0.0000 0.0000 0.0000
# 2 21.5110 118.6819 22.3879 0.0000 0.0000 0.0000
# 3 17.2626 22.3879 81.0733 0.0000 0.0000 0.0000
# 4 0.0000 0.0000 0.0000 33.4894 0.0000 0.0000
# 5 0.0000 0.0000 0.0000 0.0000 34.4890 0.0000
# 6 0.0000 0.0000 0.0000 0.0000 0.0000 34.4601
#
#
#
# Elastic Compliance Matrix: (Units=1/GPa)
#
#
# Indices 1 2 3 4 5 6 
#
# 1 0.009024 -0.001343 -0.001550 0.000000 0.000000 0.000000
# 2 -0.001343 0.009089 -0.002224 0.000000 0.000000 0.000000
# 3 -0.001550 -0.002224 0.013279 0.000000 0.000000 0.000000
# 4 0.000000 0.000000 0.000000 0.029860 0.000000 0.000000
# 5 0.000000 0.000000 0.000000 0.000000 0.028995 0.000000
# 6 0.000000 0.000000 0.000000 0.000000 0.000000 0.029019
#
#
# Mechanical properties :
#
#
# Convention : Reuss Voigt Hill
#
# Bulk Modulus (GPa) = 47.26706 48.78526 48.02616
# Shear Modulus (GPa) = 36.61610 37.52656 37.07133
#
# Velocity S-wave (km/s) = 3.87848 3.92640 3.90252
# Velocity P-wave (km/s) = 6.28292 6.37162 6.32742
#
# Compressibility (1/GPa) = 0.02115638
#
# Stress axis : x y z
#
# Youngs Moduli (GPa) = 110.82142 110.02535 75.30821
#
# Poissons Ratio (x) = 0.14777 0.11676
# Poissons Ratio (y) = 0.14884 0.16748
# Poissons Ratio (z) = 0.17183 0.24468
#
# Static dielectric constant tensor:
#      x y z
#    x 4.413680 0.000000 0.000000 
#    y 0.000000 4.389770 0.000000 
#    z 0.000000 0.000000 4.377280 
# 
# 
# High freq. dielectric constant tensor:
#      x y z
#    x 1.977000 0.000000 0.000000 
#    y 0.000000 1.957580 0.000000 
#    z 0.000000 0.000000 1.979770 
# 
# From -- ./inp_files/13188.got.cif
#   From: 2010.03.12/outbox.cif.g09.slc.cpg/sg36_7_cif.got.tgz:13188.got - 2010.04.14 02:13:53.
