data_PCOD8176259
_publ_section_title
;
Structure prediction by ZEFSAII (Michael W. Deem and Ramdas Pophale) SiO2 
 PCOD8176259
Probable space group: C M C 21
;
_chemical_formula_sum "Si O2"
_cell_formula_units_Z 48
_cell_length_a 30.746537
_cell_length_b 8.882332
_cell_length_c 8.296057
_cell_angle_alpha 90.000000
_cell_angle_beta 90.000000
_cell_angle_gamma 90.000000
_cell_volume 2265.661044
_symmetry_space_group_name_H-M "C M C 21"
_symmetry_group_IT_number 36
_symmetry_cell_setting 'orthorhombic'
loop_
_space_group_symop_operation_xyz
x,y,z
-x,-y,1/2+z
x,-y,1/2+z
-x,y,z
1/2+x,1/2+y,z
1/2-x,1/2-y,1/2+z
1/2+x,1/2-y,1/2+z
1/2-x,1/2+y,z
loop_
_atom_site_type_symbol
_atom_site_label
_atom_site_fract_x
_atom_site_fract_y
_atom_site_fract_z
Si Si1 0.709451 0.617131 0.734650
Si Si2 0.130024 0.382750 0.237858
Si Si3 0.129339 0.294886 0.608366
Si Si4 0.548314 0.296867 0.685274
Si Si5 0.290219 0.293597 0.604775
Si Si6 0.951573 0.889148 0.051670
O O1 0.665243 0.672930 0.653406
O O2 0.711310 0.437252 0.721472
O O3 0.749601 0.687486 0.639674
O O4 0.711708 0.656076 0.921124
O O5 0.135495 0.341269 0.423573
O O6 0.134687 0.561565 0.223119
O O7 0.083030 0.336551 0.165191
O O8 0.166163 0.299967 0.132868
O O9 0.082314 0.220318 0.641101
O O10 0.500000 0.234112 0.643821
O O11 0.561233 0.435896 0.570901
O O12 0.549768 0.361091 0.863697
O O13 0.000000 0.859000 0.123272
#
# Coordination Sequence:
#
# PCOD8176259 Si02
#       6
#     8   8   8   8   8   8
#     4  12  25  43  65  90 120 154 194 239 291 347
#     4  11  23  39  59  86 120 157 198 243 293 347
#     4  11  23  39  59  86 120 157 198 243 293 347
#     4   9  19  36  58  84 115 152 195 242 292 347
#     4  12  25  43  65  90 120 154 194 239 291 347
#     4   9  19  36  58  84 115 152 195 242 292 347
#
# _framework density 21.185869
#
# number of rings (size 3 to 8) (size 9 to 14) (size 15 to 20)
#    0.000    1.333    0.000    6.000    0.000    6.000 
#    0.000    0.000    0.000    0.000    0.000    0.000 
#    0.000    0.000    0.000    0.000    0.000    0.000 
#
# Total GULP energy -297722.685892 kJ/mol
# GULP energy per Si atom -12405.111912 kJ/mol
# Density = 2.113765 g / cm^3
# Si number density = 21.185869 Si / 1000 Ang^3
#
#
#
# Elastic Constant Matrix: (Units=GPa)
#
#
# Indices 1 2 3 4 5 6 
#
# 1 124.8134 35.6125 18.3438 0.0000 0.0000 0.0000
# 2 35.6125 76.0804 -13.1602 0.0000 0.0000 0.0000
# 3 18.3438 -13.1602 47.9127 0.0000 0.0000 0.0000
# 4 0.0000 0.0000 0.0000 34.4764 0.0000 0.0000
# 5 0.0000 0.0000 0.0000 0.0000 26.3346 0.0000
# 6 0.0000 0.0000 0.0000 0.0000 0.0000 30.9102
#
#
#
# Elastic Compliance Matrix: (Units=1/GPa)
#
#
# Indices 1 2 3 4 5 6 
#
# 1 0.010528 -0.005906 -0.005653 0.000000 0.000000 0.000000
# 2 -0.005906 0.017113 0.006961 0.000000 0.000000 0.000000
# 3 -0.005653 0.006961 0.024948 0.000000 0.000000 0.000000
# 4 0.000000 0.000000 0.000000 0.029005 0.000000 0.000000
# 5 0.000000 0.000000 0.000000 0.000000 0.037973 0.000000
# 6 0.000000 0.000000 0.000000 0.000000 0.000000 0.032352
#
#
# Mechanical properties :
#
#
# Convention : Reuss Voigt Hill
#
# Bulk Modulus (GPa) = 23.04485 36.71098 29.87791
# Shear Modulus (GPa) = 28.47753 32.21159 30.34456
#
# Velocity S-wave (km/s) = 3.67028 3.90350 3.78868
# Velocity P-wave (km/s) = 5.37237 6.13857 5.76820
#
# Compressibility (1/GPa) = 0.04339365
#
# Stress axis : x y z
#
# Youngs Moduli (GPa) = 94.98638 58.43649 40.08399
#
# Poissons Ratio (x) = 0.34511 0.22659
# Poissons Ratio (y) = 0.56097 -0.27904
# Poissons Ratio (z) = 0.53694 -0.40680
#
# Static dielectric constant tensor:
#      x y z
#    x 4.283690 0.000000 0.000000 
#    y 0.000000 3.903780 0.000000 
#    z 0.000000 0.000000 3.748450 
# 
# 
# High freq. dielectric constant tensor:
#      x y z
#    x 1.848200 0.000000 0.000000 
#    y 0.000000 1.830740 0.000000 
#    z 0.000000 0.000000 1.833010 
# 
# From -- ./inp_files/5978.got.cif
#   From: 2010.03.12/outbox.cif.g09.slc.cpg/sg36_3_cif.got.tgz:5978.got - 2010.04.14 02:13:53.
