data_PCOD8176554
_publ_section_title
;
Structure prediction by ZEFSAII (Michael W. Deem and Ramdas Pophale) SiO2 
 PCOD8176554
Probable space group: C C C 2
;
_chemical_formula_sum "Si O2"
_cell_formula_units_Z 64
_cell_length_a 11.315150
_cell_length_b 11.315150
_cell_length_c 23.727743
_cell_angle_alpha 90.000000
_cell_angle_beta 90.000000
_cell_angle_gamma 90.000000
_cell_volume 3037.925092
_symmetry_space_group_name_H-M "C C C 2"
_symmetry_group_IT_number 37
_symmetry_cell_setting 'orthorhombic'
loop_
_space_group_symop_operation_xyz
x,y,z
-x,-y,z
-x,y,1/2+z
x,-y,1/2+z
1/2+x,1/2+y,z
1/2-x,1/2-y,z
1/2-x,1/2+y,1/2+z
1/2+x,1/2-y,1/2+z
loop_
_atom_site_type_symbol
_atom_site_label
_atom_site_fract_x
_atom_site_fract_y
_atom_site_fract_z
Si Si1 0.400214 0.900214 0.363420
Si Si2 0.502909 0.307711 0.661937
Si Si3 0.598292 0.901708 0.734785
Si Si4 0.563454 0.744285 0.427631
Si Si5 0.249697 0.558199 0.540603
Si Si6 0.744285 0.563454 0.427631
Si Si7 0.941801 0.749697 0.040603
Si Si8 0.807711 0.002909 0.661937
O O1 0.370982 0.870982 0.299069
O O2 0.444270 0.778693 0.393586
O O3 0.500000 0.000000 0.369562
O O4 0.278693 0.944270 0.393586
O O5 0.454873 0.218018 0.708733
O O6 0.510183 0.234365 0.603899
O O7 0.409732 0.409732 0.652783
O O8 0.630454 0.369546 0.677706
O O9 0.500000 0.000000 0.729484
O O10 0.718018 0.954873 0.708733
O O11 0.613731 0.613731 0.411003
O O12 0.661998 0.838002 0.410862
O O13 0.545343 0.747854 0.494956
O O14 0.252146 0.454657 0.494956
O O15 0.139198 0.639198 0.525369
O O16 0.372578 0.627422 0.536524
O O17 0.234365 0.510183 0.603899
#
# Coordination Sequence:
#
# PCOD8176554 Si02
#       8
#     8   8   8   8   8   8   8   8
#     4   9  20  39  57  83 119 153 199 254 297 354
#     4  10  22  40  60  86 122 160 202 255 311 371
#     4  11  23  39  63  89 117 161 209 254 309 364
#     4  10  20  35  58  86 115 153 197 245 304 363
#     4  10  20  35  57  86 119 152 190 242 302 364
#     4  10  20  35  58  86 115 153 197 245 304 363
#     4  10  20  35  57  86 119 152 190 242 302 364
#     4  10  22  40  60  86 122 160 202 255 311 371
#
# _framework density 21.067011999999998
#
# number of rings (size 3 to 8) (size 9 to 14) (size 15 to 20)
#    0.000    2.000    1.250    1.875    1.750    4.000 
#    0.000    5.000    0.000    0.000    0.000    0.000 
#    0.000    0.000    0.000    0.000    0.000    0.000 
#
# Total GULP energy -396662.045603 kJ/mol
# GULP energy per Si atom -12395.688925 kJ/mol
# Density = 2.101906 g / cm^3
# Si number density = 21.067012 Si / 1000 Ang^3
#
#
#
# Elastic Constant Matrix: (Units=GPa)
#
#
# Indices 1 2 3 4 5 6 
#
# 1 82.9569 42.8128 46.9952 0.0000 0.0000 0.0000
# 2 42.8128 82.9568 46.9952 0.0000 0.0000 0.0000
# 3 46.9952 46.9952 135.1535 0.0000 0.0000 0.0000
# 4 0.0000 0.0000 0.0000 16.4097 0.0000 0.0000
# 5 0.0000 0.0000 0.0000 0.0000 16.4097 0.0000
# 6 0.0000 0.0000 0.0000 0.0000 0.0000 35.4162
#
#
#
# Elastic Compliance Matrix: (Units=1/GPa)
#
#
# Indices 1 2 3 4 5 6 
#
# 1 0.017826 -0.007084 -0.003735 0.000000 0.000000 0.000000
# 2 -0.007084 0.017826 -0.003735 0.000000 0.000000 0.000000
# 3 -0.003735 -0.003735 0.009997 0.000000 0.000000 0.000000
# 4 0.000000 0.000000 0.000000 0.060940 0.000000 0.000000
# 5 0.000000 0.000000 0.000000 0.000000 0.060940 0.000000
# 6 0.000000 0.000000 0.000000 0.000000 0.000000 0.028236
#
#
# Mechanical properties :
#
#
# Convention : Reuss Voigt Hill
#
# Bulk Modulus (GPa) = 60.45824 63.85261 62.15543
# Shear Modulus (GPa) = 21.70261 24.59806 23.15033
#
# Velocity S-wave (km/s) = 3.21311 3.42074 3.31855
# Velocity P-wave (km/s) = 6.52118 6.78064 6.65217
#
# Compressibility (1/GPa) = 0.01654034
#
# Stress axis : x y z
#
# Youngs Moduli (GPa) = 56.09647 56.09646 100.03303
#
# Poissons Ratio (x) = 0.39738 0.37366
# Poissons Ratio (y) = 0.39738 0.37366
# Poissons Ratio (z) = 0.20954 0.20954
#
# Static dielectric constant tensor:
#      x y z
#    x 3.851060 0.000000 0.000000 
#    y 0.000000 3.851060 0.000000 
#    z 0.000000 0.000000 3.742770 
# 
# 
# High freq. dielectric constant tensor:
#      x y z
#    x 1.823600 0.000000 0.000000 
#    y 0.000000 1.823600 0.000000 
#    z 0.000000 0.000000 1.815290 
# 
# From -- ./inp_files/18720.got.cif
#   From: 2010.03.12/outbox.cif.g09.slc.cpg/sg37_10_cif.got.tgz:18720.got - 2010.04.14 02:25:27.
