data_PCOD8176431
_publ_section_title
;
Structure prediction by ZEFSAII (Michael W. Deem and Ramdas Pophale) SiO2 
 PCOD8176431
Probable space group: C C C 2
;
_chemical_formula_sum "Si O2"
_cell_formula_units_Z 36
_cell_length_a 9.595930
_cell_length_b 10.624090
_cell_length_c 14.593742
_cell_angle_alpha 90.000000
_cell_angle_beta 90.000000
_cell_angle_gamma 90.000000
_cell_volume 1487.803159
_symmetry_space_group_name_H-M "C C C 2"
_symmetry_group_IT_number 37
_symmetry_cell_setting 'orthorhombic'
loop_
_space_group_symop_operation_xyz
x,y,z
-x,-y,z
-x,y,1/2+z
x,-y,1/2+z
1/2+x,1/2+y,z
1/2-x,1/2-y,z
1/2-x,1/2+y,1/2+z
1/2+x,1/2-y,1/2+z
loop_
_atom_site_type_symbol
_atom_site_label
_atom_site_fract_x
_atom_site_fract_y
_atom_site_fract_z
Si Si1 0.364827 0.560438 0.901740
Si Si2 0.303825 0.941109 0.542681
Si Si3 0.557096 0.789207 0.521085
Si Si4 0.250000 0.750000 0.181230
Si Si5 0.666606 0.004466 0.746678
O O1 0.500000 0.500000 0.851954
O O2 0.394406 0.700420 0.938821
O O3 0.236441 0.576661 0.831385
O O4 0.336973 0.455614 0.983328
O O5 0.390389 0.813975 0.518195
O O6 0.378186 0.071757 0.513038
O O7 0.283220 0.933198 0.651675
O O8 0.612918 0.729873 0.616760
O O9 0.273273 0.864236 0.249918
O O10 0.500000 0.000000 0.755944
#
# Coordination Sequence:
#
# PCOD8176431 Si02
#       5
#     8   8   8   4   8
#     4  12  27  42  69 109 158 190 248 320 379 451
#     4  10  21  46  79 100 141 201 251 298 388 454
#     4  10  19  42  77 101 133 197 245 299 368 452
#     4  10  18  42  74 104 142 188 248 310 372 450
#     4  11  23  42  74 114 145 201 257 312 384 458
#
# _framework density 24.196749000000001
#
# number of rings (size 3 to 8) (size 9 to 14) (size 15 to 20)
#    0.000    1.333    8.889    0.000    3.111    3.556 
#    4.000    0.000    0.000    0.000    0.000    0.000 
#    0.000    0.000    0.000    0.000    0.000    0.000 
#
# Total GULP energy -223039.909819 kJ/mol
# GULP energy per Si atom -12391.106101 kJ/mol
# Density = 2.414168 g / cm^3
# Si number density = 24.196749 Si / 1000 Ang^3
#
#
#
# Elastic Constant Matrix: (Units=GPa)
#
#
# Indices 1 2 3 4 5 6 
#
# 1 110.2661 30.5898 48.4060 0.0000 0.0000 0.0000
# 2 30.5898 107.5270 47.2116 0.0000 0.0000 0.0000
# 3 48.4060 47.2116 142.5955 0.0000 0.0000 0.0000
# 4 0.0000 0.0000 0.0000 34.7835 0.0000 0.0000
# 5 0.0000 0.0000 0.0000 0.0000 23.4627 0.0000
# 6 0.0000 0.0000 0.0000 0.0000 0.0000 43.6536
#
#
#
# Elastic Compliance Matrix: (Units=1/GPa)
#
#
# Indices 1 2 3 4 5 6 
#
# 1 0.010926 -0.001731 -0.003136 0.000000 0.000000 0.000000
# 2 -0.001731 0.011156 -0.003106 0.000000 0.000000 0.000000
# 3 -0.003136 -0.003106 0.009106 0.000000 0.000000 0.000000
# 4 0.000000 0.000000 0.000000 0.028749 0.000000 0.000000
# 5 0.000000 0.000000 0.000000 0.000000 0.042621 0.000000
# 6 0.000000 0.000000 0.000000 0.000000 0.000000 0.022908
#
#
# Mechanical properties :
#
#
# Convention : Reuss Voigt Hill
#
# Bulk Modulus (GPa) = 65.60981 68.08924 66.84953
# Shear Modulus (GPa) = 34.13150 35.99202 35.06176
#
# Velocity S-wave (km/s) = 3.75985 3.86096 3.81074
# Velocity P-wave (km/s) = 6.78399 6.93375 6.85928
#
# Compressibility (1/GPa) = 0.01524162
#
# Stress axis : x y z
#
# Youngs Moduli (GPa) = 91.52614 89.63560 109.82222
#
# Poissons Ratio (x) = 0.15520 0.34437
# Poissons Ratio (y) = 0.15847 0.34110
# Poissons Ratio (z) = 0.28699 0.27840
#
# Static dielectric constant tensor:
#      x y z
#    x 4.955190 0.000000 0.000000 
#    y 0.000000 4.425870 0.000000 
#    z 0.000000 0.000000 4.176570 
# 
# 
# High freq. dielectric constant tensor:
#      x y z
#    x 1.962210 0.000000 0.000000 
#    y 0.000000 1.958560 0.000000 
#    z 0.000000 0.000000 1.945100 
# 
# From -- ./inp_files/10258.got.cif
#   From: 2010.03.12/outbox.cif.g09.slc.cpg/sg37_6_cif.got.tgz:10258.got - 2010.04.14 02:25:27.
