data_PCOD8176377
_publ_section_title
;
Structure prediction by ZEFSAII (Michael W. Deem and Ramdas Pophale) SiO2 
 PCOD8176377
Probable space group: C C C 2
;
_chemical_formula_sum "Si O2"
_cell_formula_units_Z 44
_cell_length_a 9.061853
_cell_length_b 15.267873
_cell_length_c 16.129589
_cell_angle_alpha 90.000000
_cell_angle_beta 90.000000
_cell_angle_gamma 90.000000
_cell_volume 2231.612847
_symmetry_space_group_name_H-M "C C C 2"
_symmetry_group_IT_number 37
_symmetry_cell_setting 'orthorhombic'
loop_
_space_group_symop_operation_xyz
x,y,z
-x,-y,z
-x,y,1/2+z
x,-y,1/2+z
1/2+x,1/2+y,z
1/2-x,1/2-y,z
1/2-x,1/2+y,1/2+z
1/2+x,1/2-y,1/2+z
loop_
_atom_site_type_symbol
_atom_site_label
_atom_site_fract_x
_atom_site_fract_y
_atom_site_fract_z
Si Si1 0.500000 0.500000 0.767441
Si Si2 0.126546 0.842376 0.852867
Si Si3 0.471807 0.863939 0.614055
Si Si4 0.000000 0.500000 0.834952
Si Si5 0.929602 0.663004 0.429502
Si Si6 0.250000 0.750000 0.704440
Si Si7 0.697793 0.985199 0.688259
O O1 0.518397 0.422328 0.834785
O O2 0.371829 0.477010 0.701145
O O3 0.037775 0.756035 0.884099
O O4 0.255148 0.861104 0.920711
O O5 0.202324 0.829897 0.762918
O O6 0.522819 0.833975 0.524141
O O7 0.391856 0.778559 0.651021
O O8 0.619080 0.892615 0.665175
O O9 0.352561 0.944363 0.617533
O O10 0.027761 0.413605 0.889413
O O11 0.857922 0.482064 0.778058
#
# Coordination Sequence:
#
# PCOD8176377 Si02
#       7
#     4   8   8   4   8   4   8
#     4  12  20  42  66  96 132 166 232 286 314 392
#     4  10  21  41  63  92 127 176 218 272 329 396
#     4  10  20  39  64  94 124 171 216 269 342 405
#     4  10  16  38  64  90 118 176 222 264 312 414
#     4  10  20  39  65  88 131 171 212 272 332 400
#     4  10  18  42  64  88 126 172 216 284 316 416
#     4  10  20  37  65  95 120 172 227 261 332 406
#
# _framework density 19.716681000000001
#
# number of rings (size 3 to 8) (size 9 to 14) (size 15 to 20)
#    0.000    2.182    3.636    4.364    0.000    0.000 
#    9.818    2.727    0.000    0.000    0.000    0.000 
#    0.000    0.000    0.000    0.000    0.000    0.000 
#
# Total GULP energy -272602.817881 kJ/mol
# GULP energy per Si atom -12391.037176 kJ/mol
# Density = 1.967181 g / cm^3
# Si number density = 19.716681 Si / 1000 Ang^3
#
#
#
# Elastic Constant Matrix: (Units=GPa)
#
#
# Indices 1 2 3 4 5 6 
#
# 1 120.5218 51.8077 53.2044 0.0000 0.0000 0.0000
# 2 51.8077 118.6849 49.1678 0.0000 0.0000 0.0000
# 3 53.2044 49.1678 128.9826 0.0000 0.0000 0.0000
# 4 0.0000 0.0000 0.0000 24.0883 0.0000 0.0000
# 5 0.0000 0.0000 0.0000 0.0000 37.0656 0.0000
# 6 0.0000 0.0000 0.0000 0.0000 0.0000 34.1270
#
#
#
# Elastic Compliance Matrix: (Units=1/GPa)
#
#
# Indices 1 2 3 4 5 6 
#
# 1 0.011283 -0.003559 -0.003297 0.000000 0.000000 0.000000
# 2 -0.003559 0.011128 -0.002774 0.000000 0.000000 0.000000
# 3 -0.003297 -0.002774 0.010171 0.000000 0.000000 0.000000
# 4 0.000000 0.000000 0.000000 0.041514 0.000000 0.000000
# 5 0.000000 0.000000 0.000000 0.000000 0.026979 0.000000
# 6 0.000000 0.000000 0.000000 0.000000 0.000000 0.029302
#
#
# Mechanical properties :
#
#
# Convention : Reuss Voigt Hill
#
# Bulk Modulus (GPa) = 75.07024 75.17211 75.12117
# Shear Modulus (GPa) = 32.45098 33.32347 32.88722
#
# Velocity S-wave (km/s) = 4.06133 4.11556 4.08853
# Velocity P-wave (km/s) = 7.75562 7.79697 7.77632
#
# Compressibility (1/GPa) = 0.01332086
#
# Stress axis : x y z
#
# Youngs Moduli (GPa) = 88.63054 89.85953 98.32283
#
# Poissons Ratio (x) = 0.31982 0.32421
# Poissons Ratio (y) = 0.31545 0.27275
# Poissons Ratio (z) = 0.29225 0.24927
#
# Static dielectric constant tensor:
#      x y z
#    x 3.484340 0.000000 0.000000 
#    y 0.000000 3.644070 0.000000 
#    z 0.000000 0.000000 3.422780 
# 
# 
# High freq. dielectric constant tensor:
#      x y z
#    x 1.746130 0.000000 0.000000 
#    y 0.000000 1.773010 0.000000 
#    z 0.000000 0.000000 1.755690 
# 
# From -- ./inp_files/10546.got.cif
#   From: 2010.03.12/outbox.cif.g09.slc.cpg/sg37_6_cif.got.tgz:10546.got - 2010.04.14 02:25:27.
