data_PCOD8176675
_publ_section_title
;
Structure prediction by ZEFSAII (Michael W. Deem and Ramdas Pophale) SiO2 
 PCOD8176675
Probable space group: C C C 2
;
_chemical_formula_sum "Si O2"
_cell_formula_units_Z 40
_cell_length_a 13.522733
_cell_length_b 15.363220
_cell_length_c 9.830271
_cell_angle_alpha 90.000000
_cell_angle_beta 90.000000
_cell_angle_gamma 90.000000
_cell_volume 2042.265559
_symmetry_space_group_name_H-M "C C C 2"
_symmetry_group_IT_number 37
_symmetry_cell_setting 'orthorhombic'
loop_
_space_group_symop_operation_xyz
x,y,z
-x,-y,z
-x,y,1/2+z
x,-y,1/2+z
1/2+x,1/2+y,z
1/2-x,1/2-y,z
1/2-x,1/2+y,1/2+z
1/2+x,1/2-y,1/2+z
loop_
_atom_site_type_symbol
_atom_site_label
_atom_site_fract_x
_atom_site_fract_y
_atom_site_fract_z
Si Si1 0.411136 0.616072 0.334580
Si Si2 0.410605 0.383317 0.139819
Si Si3 0.386999 0.024107 0.995839
Si Si4 0.363790 0.771088 0.486900
Si Si5 0.758812 0.497434 0.746543
O O1 0.501335 0.587362 0.238718
O O2 0.421747 0.574238 0.487483
O O3 0.407051 0.721506 0.351906
O O4 0.310614 0.582028 0.264247
O O5 0.307744 0.414401 0.206784
O O6 0.408978 0.277913 0.121065
O O7 0.343449 0.986552 0.135068
O O8 0.500000 0.000000 0.978121
O O9 0.384983 0.128167 0.985724
O O10 0.319176 0.978504 0.883116
O O11 0.250000 0.750000 0.488771
#
# Coordination Sequence:
#
# PCOD8176675 Si02
#       5
#     8   8   8   8   8
#     4  10  23  40  69  98 130 172 226 280 349 409
#     4  10  23  40  69  98 130 172 226 280 349 409
#     4  12  26  43  69  97 135 182 238 280 346 411
#     4  10  20  49  61  87 141 187 208 288 356 404
#     4  12  22  42  66  98 132 178 218 294 340 410
#
# _framework density 19.586092000000001
#
# number of rings (size 3 to 8) (size 9 to 14) (size 15 to 20)
#    1.200    0.000    6.000    1.200    2.800    4.800 
#    0.000    0.000    0.000    6.000    0.000    0.000 
#    0.000    0.000    0.000    0.000    0.000    0.000 
#
# Total GULP energy -247766.143340 kJ/mol
# GULP energy per Si atom -12388.307167 kJ/mol
# Density = 1.954151 g / cm^3
# Si number density = 19.586092 Si / 1000 Ang^3
#
#
#
# Elastic Constant Matrix: (Units=GPa)
#
#
# Indices 1 2 3 4 5 6 
#
# 1 123.9172 35.4407 29.3400 0.0000 0.0000 0.0000
# 2 35.4407 100.0512 42.1310 0.0000 0.0000 0.0000
# 3 29.3400 42.1310 80.1716 0.0000 0.0000 0.0000
# 4 0.0000 0.0000 0.0000 25.4292 0.0000 0.0000
# 5 0.0000 0.0000 0.0000 0.0000 43.6036 0.0000
# 6 0.0000 0.0000 0.0000 0.0000 0.0000 33.2681
#
#
#
# Elastic Compliance Matrix: (Units=1/GPa)
#
#
# Indices 1 2 3 4 5 6 
#
# 1 0.009256 -0.002379 -0.002137 0.000000 0.000000 0.000000
# 2 -0.002379 0.013446 -0.006196 0.000000 0.000000 0.000000
# 3 -0.002137 -0.006196 0.016511 0.000000 0.000000 0.000000
# 4 0.000000 0.000000 0.000000 0.039325 0.000000 0.000000
# 5 0.000000 0.000000 0.000000 0.000000 0.022934 0.000000
# 6 0.000000 0.000000 0.000000 0.000000 0.000000 0.030059
#
#
# Mechanical properties :
#
#
# Convention : Reuss Voigt Hill
#
# Bulk Modulus (GPa) = 56.21022 57.55151 56.88086
# Shear Modulus (GPa) = 31.46917 33.60874 32.53895
#
# Velocity S-wave (km/s) = 4.01273 4.14690 4.08036
# Velocity P-wave (km/s) = 7.08736 7.23717 7.16266
#
# Compressibility (1/GPa) = 0.01779036
#
# Stress axis : x y z
#
# Youngs Moduli (GPa) = 108.03429 74.36889 60.56431
#
# Poissons Ratio (x) = 0.17691 0.12945
# Poissons Ratio (y) = 0.25699 0.37524
# Poissons Ratio (z) = 0.23091 0.46077
#
# Static dielectric constant tensor:
#      x y z
#    x 3.640920 0.000000 0.000000 
#    y 0.000000 3.019760 0.000000 
#    z 0.000000 0.000000 3.732330 
# 
# 
# High freq. dielectric constant tensor:
#      x y z
#    x 1.774180 0.000000 0.000000 
#    y 0.000000 1.746330 0.000000 
#    z 0.000000 0.000000 1.761030 
# 
# From -- ./inp_files/3409.got.cif
#   From: 2010.03.12/outbox.cif.g09.slc.cpg/sg37_2_cif.got.tgz:3409.got - 2010.04.14 02:25:27.
