data_PCOD8176762
_publ_section_title
;
Structure prediction by ZEFSAII (Michael W. Deem and Ramdas Pophale) SiO2 
 PCOD8176762
Probable space group: C C C 2
;
_chemical_formula_sum "Si O2"
_cell_formula_units_Z 64
_cell_length_a 9.028670
_cell_length_b 22.890960
_cell_length_c 13.992041
_cell_angle_alpha 90.000000
_cell_angle_beta 90.000000
_cell_angle_gamma 90.000000
_cell_volume 2891.804008
_symmetry_space_group_name_H-M "C C C 2"
_symmetry_group_IT_number 37
_symmetry_cell_setting 'orthorhombic'
loop_
_space_group_symop_operation_xyz
x,y,z
-x,-y,z
-x,y,1/2+z
x,-y,1/2+z
1/2+x,1/2+y,z
1/2-x,1/2-y,z
1/2-x,1/2+y,1/2+z
1/2+x,1/2-y,1/2+z
loop_
_atom_site_type_symbol
_atom_site_label
_atom_site_fract_x
_atom_site_fract_y
_atom_site_fract_z
Si Si1 0.824765 0.493316 0.256330
Si Si2 0.311844 0.895452 0.407162
Si Si3 0.105660 0.860039 0.580426
Si Si4 0.625329 0.831038 0.732422
Si Si5 0.183798 0.376372 0.250246
Si Si6 0.582953 0.245641 0.073234
Si Si7 0.308350 0.410966 0.610221
Si Si8 0.886490 0.363384 0.955032
O O1 0.766546 0.450504 0.340675
O O2 0.759174 0.557934 0.269699
O O3 0.755512 0.469727 0.156885
O O4 0.000000 0.500000 0.249456
O O5 0.196788 0.885132 0.491387
O O6 0.325331 0.835150 0.343121
O O7 0.477962 0.909185 0.442715
O O8 0.209983 0.846338 0.671629
O O9 0.020662 0.800572 0.550197
O O10 0.986762 0.910469 0.605561
O O11 0.486509 0.875152 0.712981
O O12 0.582361 0.767335 0.689257
O O13 0.763263 0.853193 0.669700
O O14 0.181549 0.342211 0.352358
O O15 0.750000 0.250000 0.034092
O O16 0.531752 0.188751 0.013772
O O17 0.241745 0.400646 0.505347
#
# Coordination Sequence:
#
# PCOD8176762 Si02
#       8
#     8   8   8   8   8   8   8   8
#     4  11  21  45  74  97 130 195 239 283 353 413
#     4  10  23  41  69 106 136 175 242 294 339 417
#     4  12  25  43  67 106 148 179 224 298 357 417
#     4   9  19  43  66  97 127 177 241 279 330 427
#     4  11  24  43  68 103 136 177 239 295 337 414
#     4  11  22  45  67  94 136 188 225 279 368 418
#     4  10  21  40  66  97 134 174 229 284 344 418
#     4  10  21  43  65 100 137 174 243 282 333 429
#
# _framework density 22.131513000000002
#
# number of rings (size 3 to 8) (size 9 to 14) (size 15 to 20)
#    0.000    1.500    6.250    1.500    0.000    5.500 
#    9.000    0.000    0.000    0.000    0.000    0.000 
#    0.000    0.000    0.000    0.000    0.000    0.000 
#
# Total GULP energy -396450.288491 kJ/mol
# GULP energy per Si atom -12389.071515 kJ/mol
# Density = 2.208114 g / cm^3
# Si number density = 22.131513 Si / 1000 Ang^3
#
#
#
# Elastic Constant Matrix: (Units=GPa)
#
#
# Indices 1 2 3 4 5 6 
#
# 1 119.1225 9.0960 66.1459 0.0000 0.0000 0.0000
# 2 9.0960 71.5893 25.6916 0.0000 0.0000 0.0000
# 3 66.1459 25.6916 133.2027 0.0000 0.0000 0.0000
# 4 0.0000 0.0000 0.0000 24.9168 0.0000 0.0000
# 5 0.0000 0.0000 0.0000 0.0000 19.5796 0.0000
# 6 0.0000 0.0000 0.0000 0.0000 0.0000 27.9704
#
#
#
# Elastic Compliance Matrix: (Units=1/GPa)
#
#
# Indices 1 2 3 4 5 6 
#
# 1 0.011618 0.000638 -0.005892 0.000000 0.000000 0.000000
# 2 0.000638 0.015042 -0.003218 0.000000 0.000000 0.000000
# 3 -0.005892 -0.003218 0.011054 0.000000 0.000000 0.000000
# 4 0.000000 0.000000 0.000000 0.040134 0.000000 0.000000
# 5 0.000000 0.000000 0.000000 0.000000 0.051074 0.000000
# 6 0.000000 0.000000 0.000000 0.000000 0.000000 0.035752
#
#
# Mechanical properties :
#
#
# Convention : Reuss Voigt Hill
#
# Bulk Modulus (GPa) = 48.14657 58.42016 53.28336
# Shear Modulus (GPa) = 26.51937 29.35875 27.93906
#
# Velocity S-wave (km/s) = 3.46535 3.64615 3.55690
# Velocity P-wave (km/s) = 6.14927 6.64680 6.40287
#
# Compressibility (1/GPa) = 0.02076991
#
# Stress axis : x y z
#
# Youngs Moduli (GPa) = 86.07448 66.47854 90.46396
#
# Poissons Ratio (x) = -0.04244 0.53304
# Poissons Ratio (y) = -0.05496 0.29115
# Poissons Ratio (z) = 0.50718 0.21395
#
# Static dielectric constant tensor:
#      x y z
#    x 3.881530 0.000000 0.000000 
#    y 0.000000 3.989540 0.000000 
#    z 0.000000 0.000000 4.143460 
# 
# 
# High freq. dielectric constant tensor:
#      x y z
#    x 1.863400 0.000000 0.000000 
#    y 0.000000 1.847460 0.000000 
#    z 0.000000 0.000000 1.875150 
# 
# From -- ./inp_files/11010.got.cif
#   From: 2010.03.12/outbox.cif.g09.slc.cpg/sg37_6_cif.got.tgz:11010.got - 2010.04.14 02:25:27.
