data_PCOD8176080
_publ_section_title
;
Structure prediction by ZEFSAII (Michael W. Deem and Ramdas Pophale) SiO2 
 PCOD8176080
Probable space group: C M C 21
;
_chemical_formula_sum "Si O2"
_cell_formula_units_Z 40
_cell_length_a 17.496316
_cell_length_b 9.972239
_cell_length_c 9.782305
_cell_angle_alpha 90.000000
_cell_angle_beta 90.000000
_cell_angle_gamma 90.000000
_cell_volume 1706.791580
_symmetry_space_group_name_H-M "C M C 21"
_symmetry_group_IT_number 36
_symmetry_cell_setting 'orthorhombic'
loop_
_space_group_symop_operation_xyz
x,y,z
-x,-y,1/2+z
x,-y,1/2+z
-x,y,z
1/2+x,1/2+y,z
1/2-x,1/2-y,1/2+z
1/2+x,1/2-y,1/2+z
1/2-x,1/2+y,z
loop_
_atom_site_type_symbol
_atom_site_label
_atom_site_fract_x
_atom_site_fract_y
_atom_site_fract_z
Si Si1 0.641742 0.717993 0.012970
Si Si2 0.911348 0.426387 0.791397
Si Si3 0.808782 0.044244 0.396812
Si Si4 0.773817 0.420327 0.618325
Si Si5 0.585037 0.764640 0.307340
O O1 0.731571 0.715606 0.062954
O O2 0.589203 0.727028 0.146857
O O3 0.620054 0.838358 0.914565
O O4 0.631040 0.576696 0.930907
O O5 0.862774 0.394354 0.653360
O O6 0.896949 0.579819 0.832246
O O7 0.000000 0.396598 0.759166
O O8 0.770247 0.023714 0.250851
O O9 0.854970 0.183829 0.400371
O O10 0.738560 0.039504 0.506763
O O11 0.500000 0.729838 0.356979
#
# Coordination Sequence:
#
# PCOD8176080 Si02
#       5
#     8   8   8   8   8
#     4   9  22  44  70 103 149 203 257 309 372 458
#     4  11  24  44  71 110 156 195 241 321 396 444
#     4   9  21  46  72 100 142 199 258 307 354 452
#     4   9  22  45  71 105 138 196 260 301 362 457
#     4  10  22  43  71 110 153 195 250 316 383 453
#
# _framework density 23.435783000000001
#
# number of rings (size 3 to 8) (size 9 to 14) (size 15 to 20)
#    1.200    1.200    0.000    0.600    2.800    4.800 
#    3.600    0.000    0.000    0.000    0.000    1.400 
#    0.000    0.000    0.000    0.000    0.000    0.000 
#
# Total GULP energy -247769.066069 kJ/mol
# GULP energy per Si atom -12388.453303 kJ/mol
# Density = 2.338244 g / cm^3
# Si number density = 23.435783 Si / 1000 Ang^3
#
#
#
# Elastic Constant Matrix: (Units=GPa)
#
#
# Indices 1 2 3 4 5 6 
#
# 1 165.7923 76.2312 63.4454 0.0000 0.0000 0.0000
# 2 76.2312 108.7866 41.4950 0.0000 0.0000 0.0000
# 3 63.4454 41.4950 88.8812 0.0000 0.0000 0.0000
# 4 0.0000 0.0000 0.0000 39.9032 0.0000 0.0000
# 5 0.0000 0.0000 0.0000 0.0000 35.3646 0.0000
# 6 0.0000 0.0000 0.0000 0.0000 0.0000 26.8270
#
#
#
# Elastic Compliance Matrix: (Units=1/GPa)
#
#
# Indices 1 2 3 4 5 6 
#
# 1 0.010394 -0.005419 -0.004890 0.000000 0.000000 0.000000
# 2 -0.005419 0.014009 -0.002672 0.000000 0.000000 0.000000
# 3 -0.004890 -0.002672 0.015989 0.000000 0.000000 0.000000
# 4 0.000000 0.000000 0.000000 0.025061 0.000000 0.000000
# 5 0.000000 0.000000 0.000000 0.000000 0.028277 0.000000
# 6 0.000000 0.000000 0.000000 0.000000 0.000000 0.037276
#
#
# Mechanical properties :
#
#
# Convention : Reuss Voigt Hill
#
# Bulk Modulus (GPa) = 69.29725 80.64479 74.97102
# Shear Modulus (GPa) = 30.90669 32.57151 31.73910
#
# Velocity S-wave (km/s) = 3.63544 3.73207 3.68407
# Velocity P-wave (km/s) = 6.87424 7.28401 7.08209
#
# Compressibility (1/GPa) = 0.01443059
#
# Stress axis : x y z
#
# Youngs Moduli (GPa) = 96.20544 71.38492 62.54247
#
# Poissons Ratio (x) = 0.38680 0.30584
# Poissons Ratio (y) = 0.52129 0.16712
# Poissons Ratio (z) = 0.47045 0.19075
#
# Static dielectric constant tensor:
#      x y z
#    x 4.339320 0.000000 0.000000 
#    y 0.000000 4.081790 0.000000 
#    z 0.000000 0.000000 4.205910 
# 
# 
# High freq. dielectric constant tensor:
#      x y z
#    x 1.920920 0.000000 0.000000 
#    y 0.000000 1.925640 0.000000 
#    z 0.000000 0.000000 1.929890 
# 
# From -- ./inp_files/4530.got.cif
#   From: 2010.03.12/outbox.cif.g09.slc.cpg/sg36_3_cif.got.tgz:4530.got - 2010.04.14 02:13:53.
