data_PCOD8176806
_publ_section_title
;
Structure prediction by ZEFSAII (Michael W. Deem and Ramdas Pophale) SiO2 
 PCOD8176806
Probable space group: C C C 2
;
_chemical_formula_sum "Si O2"
_cell_formula_units_Z 64
_cell_length_a 27.303485
_cell_length_b 8.105929
_cell_length_c 13.463123
_cell_angle_alpha 90.000000
_cell_angle_beta 90.000000
_cell_angle_gamma 90.000000
_cell_volume 2979.659875
_symmetry_space_group_name_H-M "C C C 2"
_symmetry_group_IT_number 37
_symmetry_cell_setting 'orthorhombic'
loop_
_space_group_symop_operation_xyz
x,y,z
-x,-y,z
-x,y,1/2+z
x,-y,1/2+z
1/2+x,1/2+y,z
1/2-x,1/2-y,z
1/2-x,1/2+y,1/2+z
1/2+x,1/2-y,1/2+z
loop_
_atom_site_type_symbol
_atom_site_label
_atom_site_fract_x
_atom_site_fract_y
_atom_site_fract_z
Si Si1 0.442163 0.751648 0.555210
Si Si2 0.408283 0.914815 0.102210
Si Si3 0.873012 0.850417 0.733497
Si Si4 0.196482 0.928716 0.052704
Si Si5 0.341061 0.744070 0.438243
Si Si6 0.450934 0.405069 0.257682
Si Si7 0.805373 0.562401 0.533415
Si Si8 0.971610 0.332743 0.925882
O O1 0.395045 0.752498 0.485029
O O2 0.443052 0.614379 0.639607
O O3 0.490042 0.721298 0.488076
O O4 0.442847 0.925387 0.617484
O O5 0.414202 0.774155 0.186085
O O6 0.350487 0.962101 0.109709
O O7 0.422645 0.849383 0.992346
O O8 0.837316 0.926712 0.650330
O O9 0.841913 0.762954 0.819141
O O10 0.903629 0.990997 0.790746
O O11 0.190481 0.753337 0.993214
O O12 0.252892 0.953591 0.087585
O O13 0.184582 0.081579 0.981691
O O14 0.310750 0.913925 0.454331
O O15 0.500000 0.500000 0.281914
O O16 0.452890 0.239827 0.322307
O O17 0.000000 0.500000 0.900976
#
# Coordination Sequence:
#
# PCOD8176806 Si02
#       8
#     8   8   8   8   8   8   8   8
#     4  10  22  41  63  91 130 174 216 272 329 396
#     4   9  21  42  64  89 125 171 216 278 330 384
#     4  11  24  39  66  99 129 176 219 281 328 410
#     4  10  21  45  66  94 136 169 223 279 345 390
#     4  11  22  42  67  98 135 175 227 268 349 401
#     4  12  25  37  61  96 130 170 218 267 328 403
#     4   9  21  41  69  91 126 177 214 283 331 397
#     4  10  23  41  65  91 128 176 221 270 330 404
#
# _framework density 21.478959
#
# number of rings (size 3 to 8) (size 9 to 14) (size 15 to 20)
#    0.000    1.750    1.250    1.875    3.500    8.000 
#    9.000    0.000    2.750    0.000    0.000    0.000 
#    0.000    0.000    0.000    0.000    0.000    0.000 
#
# Total GULP energy -396480.722977 kJ/mol
# GULP energy per Si atom -12390.022593 kJ/mol
# Density = 2.143007 g / cm^3
# Si number density = 21.478959 Si / 1000 Ang^3
#
#
#
# Elastic Constant Matrix: (Units=GPa)
#
#
# Indices 1 2 3 4 5 6 
#
# 1 107.1453 32.2128 26.3016 0.0000 0.0000 0.0000
# 2 32.2128 116.4025 47.2741 0.0000 0.0000 0.0000
# 3 26.3016 47.2741 98.1849 0.0000 0.0000 0.0000
# 4 0.0000 0.0000 0.0000 15.9321 0.0000 0.0000
# 5 0.0000 0.0000 0.0000 0.0000 14.7498 0.0000
# 6 0.0000 0.0000 0.0000 0.0000 0.0000 32.1531
#
#
#
# Elastic Compliance Matrix: (Units=1/GPa)
#
#
# Indices 1 2 3 4 5 6 
#
# 1 0.010415 -0.002174 -0.001743 0.000000 0.000000 0.000000
# 2 -0.002174 0.011133 -0.004778 0.000000 0.000000 0.000000
# 3 -0.001743 -0.004778 0.012952 0.000000 0.000000 0.000000
# 4 0.000000 0.000000 0.000000 0.062766 0.000000 0.000000
# 5 0.000000 0.000000 0.000000 0.000000 0.067798 0.000000
# 6 0.000000 0.000000 0.000000 0.000000 0.000000 0.031101
#
#
# Mechanical properties :
#
#
# Convention : Reuss Voigt Hill
#
# Bulk Modulus (GPa) = 58.44662 59.25665 58.85163
# Shear Modulus (GPa) = 22.80411 26.96327 24.88369
#
# Velocity S-wave (km/s) = 3.26190 3.54691 3.40739
# Velocity P-wave (km/s) = 6.43870 6.66500 6.55283
#
# Compressibility (1/GPa) = 0.01710963
#
# Stress axis : x y z
#
# Youngs Moduli (GPa) = 96.01843 89.82311 77.20677
#
# Poissons Ratio (x) = 0.19530 0.13457
# Poissons Ratio (y) = 0.20877 0.36888
# Poissons Ratio (z) = 0.16736 0.42916
#
# Static dielectric constant tensor:
#      x y z
#    x 3.996460 0.000000 0.000000 
#    y 0.000000 4.238990 0.000000 
#    z 0.000000 0.000000 3.526280 
# 
# 
# High freq. dielectric constant tensor:
#      x y z
#    x 1.851790 0.000000 0.000000 
#    y 0.000000 1.855690 0.000000 
#    z 0.000000 0.000000 1.810720 
# 
# From -- ./inp_files/9236.got.cif
#   From: 2010.03.12/outbox.cif.g09.slc.cpg/sg37_5_cif.got.tgz:9236.got - 2010.04.14 02:25:27.
