data_PCOD8176457
_publ_section_title
;
Structure prediction by ZEFSAII (Michael W. Deem and Ramdas Pophale) SiO2 
 PCOD8176457
Probable space group: C C C 2
;
_chemical_formula_sum "Si O2"
_cell_formula_units_Z 64
_cell_length_a 9.576107
_cell_length_b 15.539384
_cell_length_c 20.532051
_cell_angle_alpha 90.000000
_cell_angle_beta 90.000000
_cell_angle_gamma 90.000000
_cell_volume 3055.308887
_symmetry_space_group_name_H-M "C C C 2"
_symmetry_group_IT_number 37
_symmetry_cell_setting 'orthorhombic'
loop_
_space_group_symop_operation_xyz
x,y,z
-x,-y,z
-x,y,1/2+z
x,-y,1/2+z
1/2+x,1/2+y,z
1/2-x,1/2-y,z
1/2-x,1/2+y,1/2+z
1/2+x,1/2-y,1/2+z
loop_
_atom_site_type_symbol
_atom_site_label
_atom_site_fract_x
_atom_site_fract_y
_atom_site_fract_z
Si Si1 0.859589 0.677915 0.475060
Si Si2 0.631692 0.554670 0.282084
Si Si3 0.725779 0.881976 0.089762
Si Si4 0.310165 0.542369 0.154222
Si Si5 0.456378 0.669635 0.678907
Si Si6 0.826075 0.667849 0.945269
Si Si7 0.573811 0.834838 0.623358
Si Si8 0.338774 0.015259 0.393540
O O1 0.750000 0.750000 0.448634
O O2 0.818607 0.579574 0.455419
O O3 0.010522 0.691361 0.442280
O O4 0.867703 0.690146 0.552407
O O5 0.500000 0.500000 0.308824
O O6 0.703525 0.512473 0.219601
O O7 0.580853 0.649334 0.255244
O O8 0.750610 0.560746 0.336521
O O9 0.818856 0.818692 0.134571
O O10 0.568437 0.887829 0.116451
O O11 0.784193 0.979890 0.092326
O O12 0.730385 0.843651 0.018167
O O13 0.461649 0.586542 0.149739
O O14 0.189268 0.612067 0.160956
O O15 0.551642 0.752883 0.670294
O O16 0.750000 0.750000 0.912940
O O17 0.781717 0.580298 0.908554
O O18 0.500000 0.000000 0.374028
#
# Coordination Sequence:
#
# PCOD8176457 Si02
#       8
#     8   8   8   8   8   8   8   8
#     4  10  21  38  59  87 120 153 193 244 301 362
#     4   9  21  40  57  78 113 153 197 241 289 352
#     4  10  19  34  54  82 118 148 179 229 295 360
#     4  10  20  35  56  81 110 148 188 233 290 352
#     4  10  20  36  57  83 116 149 186 240 299 357
#     4  10  21  37  58  85 116 150 194 245 298 353
#     4  11  20  33  57  89 118 144 184 240 300 356
#     4  10  22  41  61  81 113 159 204 248 294 352
#
# _framework density 20.947146
#
# number of rings (size 3 to 8) (size 9 to 14) (size 15 to 20)
#    0.000    2.000    0.000    5.250    0.000    5.000 
#    0.000   10.000    0.000    1.500    0.000    0.000 
#    0.000    0.000    0.000    0.000    0.000    0.000 
#
# Total GULP energy -396634.636999 kJ/mol
# GULP energy per Si atom -12394.832406 kJ/mol
# Density = 2.089947 g / cm^3
# Si number density = 20.947146 Si / 1000 Ang^3
#
#
#
# Elastic Constant Matrix: (Units=GPa)
#
#
# Indices 1 2 3 4 5 6 
#
# 1 81.8885 40.6432 32.3114 0.0000 0.0000 0.0000
# 2 40.6432 132.7840 35.8778 0.0000 0.0000 0.0000
# 3 32.3114 35.8778 65.0005 0.0000 0.0000 0.0000
# 4 0.0000 0.0000 0.0000 21.6984 0.0000 0.0000
# 5 0.0000 0.0000 0.0000 0.0000 27.7245 0.0000
# 6 0.0000 0.0000 0.0000 0.0000 0.0000 40.0686
#
#
#
# Elastic Compliance Matrix: (Units=1/GPa)
#
#
# Indices 1 2 3 4 5 6 
#
# 1 0.016334 -0.003298 -0.006299 0.000000 0.000000 0.000000
# 2 -0.003298 0.009517 -0.003614 0.000000 0.000000 0.000000
# 3 -0.006299 -0.003614 0.020511 0.000000 0.000000 0.000000
# 4 0.000000 0.000000 0.000000 0.046086 0.000000 0.000000
# 5 0.000000 0.000000 0.000000 0.000000 0.036069 0.000000
# 6 0.000000 0.000000 0.000000 0.000000 0.000000 0.024957
#
#
# Mechanical properties :
#
#
# Convention : Reuss Voigt Hill
#
# Bulk Modulus (GPa) = 50.15053 55.25976 52.70515
# Shear Modulus (GPa) = 26.80361 29.28767 28.04564
#
# Velocity S-wave (km/s) = 3.58101 3.74327 3.66304
# Velocity P-wave (km/s) = 6.41027 6.71718 6.56552
#
# Compressibility (1/GPa) = 0.01993997
#
# Stress axis : x y z
#
# Youngs Moduli (GPa) = 61.22213 105.07783 48.75545
#
# Poissons Ratio (x) = 0.34649 0.30713
# Poissons Ratio (y) = 0.20188 0.17619
# Poissons Ratio (z) = 0.38566 0.37972
#
# Static dielectric constant tensor:
#      x y z
#    x 3.913830 0.000000 0.000000 
#    y 0.000000 4.038140 0.000000 
#    z 0.000000 0.000000 3.411760 
# 
# 
# High freq. dielectric constant tensor:
#      x y z
#    x 1.833320 0.000000 0.000000 
#    y 0.000000 1.830250 0.000000 
#    z 0.000000 0.000000 1.778660 
# 
# From -- ./inp_files/16525.got.cif
#   From: 2010.03.12/outbox.cif.g09.slc.cpg/sg37_9_cif.got.tgz:16525.got - 2010.04.14 02:25:27.
