data_PCOD8176183
_publ_section_title
;
Structure prediction by ZEFSAII (Michael W. Deem and Ramdas Pophale) SiO2 
 PCOD8176183
Probable space group: C M C 21
;
_chemical_formula_sum "Si O2"
_cell_formula_units_Z 64
_cell_length_a 13.945280
_cell_length_b 11.606921
_cell_length_c 19.057499
_cell_angle_alpha 90.000000
_cell_angle_beta 90.000000
_cell_angle_gamma 90.000000
_cell_volume 3084.680392
_symmetry_space_group_name_H-M "C M C 21"
_symmetry_group_IT_number 36
_symmetry_cell_setting 'orthorhombic'
loop_
_space_group_symop_operation_xyz
x,y,z
-x,-y,1/2+z
x,-y,1/2+z
-x,y,z
1/2+x,1/2+y,z
1/2-x,1/2-y,1/2+z
1/2+x,1/2-y,1/2+z
1/2-x,1/2+y,z
loop_
_atom_site_type_symbol
_atom_site_label
_atom_site_fract_x
_atom_site_fract_y
_atom_site_fract_z
Si Si1 0.391112 0.463887 0.240160
Si Si2 0.604237 0.262285 0.347414
Si Si3 0.316612 0.540957 0.585497
Si Si4 0.105215 0.846218 0.959129
Si Si5 0.345806 0.325502 0.496948
Si Si6 0.655039 0.106485 0.936199
Si Si7 0.106740 0.426331 0.047031
Si Si8 0.256054 0.560856 0.346301
O O1 0.500000 0.512059 0.243029
O O2 0.381980 0.345679 0.281902
O O3 0.359853 0.439894 0.161402
O O4 0.317421 0.555029 0.274896
O O5 0.500000 0.201892 0.342120
O O6 0.607311 0.335821 0.419502
O O7 0.686161 0.168073 0.342023
O O8 0.347198 0.649672 0.537128
O O9 0.369018 0.430433 0.549698
O O10 0.199300 0.532265 0.592278
O O11 0.087766 0.717629 0.926270
O O12 0.173700 0.925129 0.912142
O O13 0.000000 0.903136 0.961108
O O14 0.232510 0.330980 0.486009
O O15 0.381899 0.208057 0.531447
O O16 0.697868 0.058106 0.862551
O O17 0.605409 0.998251 0.974385
O O18 0.000000 0.445110 0.082401
#
# Coordination Sequence:
#
# PCOD8176183 Si02
#       8
#     8   8   8   8   8   8   8   8
#     4  11  25  43  62  88 126 175 215 254 310 379
#     4  11  22  39  64  90 121 164 210 258 317 380
#     4  11  24  42  61  93 131 166 209 264 315 372
#     4  12  22  36  62  93 124 156 202 262 317 365
#     4  11  19  38  65  91 124 159 208 255 316 369
#     4  11  19  38  60  93 125 154 195 256 320 361
#     4  11  22  38  66  95 122 158 207 259 314 375
#     4  12  21  42  62  93 125 162 210 262 311 367
#
# _framework density 20.747692000000001
#
# number of rings (size 3 to 8) (size 9 to 14) (size 15 to 20)
#    0.000    0.750    7.500    1.500    0.000    4.500 
#    0.000    0.625    0.000    0.750    0.000    0.000 
#    0.000    0.000    0.000    0.000    0.000    0.000 
#
# Total GULP energy -396488.512337 kJ/mol
# GULP energy per Si atom -12390.266011 kJ/mol
# Density = 2.070047 g / cm^3
# Si number density = 20.747692 Si / 1000 Ang^3
#
#
#
# Elastic Constant Matrix: (Units=GPa)
#
#
# Indices 1 2 3 4 5 6 
#
# 1 157.5766 33.4060 42.8872 0.0000 0.0000 0.0000
# 2 33.4060 96.9341 34.7060 0.0000 0.0000 0.0000
# 3 42.8872 34.7060 127.0239 0.0000 0.0000 0.0000
# 4 0.0000 0.0000 0.0000 13.5424 0.0000 0.0000
# 5 0.0000 0.0000 0.0000 0.0000 18.2399 0.0000
# 6 0.0000 0.0000 0.0000 0.0000 0.0000 6.3774
#
#
#
# Elastic Compliance Matrix: (Units=1/GPa)
#
#
# Indices 1 2 3 4 5 6 
#
# 1 0.007261 -0.001801 -0.001960 0.000000 0.000000 0.000000
# 2 -0.001801 0.011882 -0.002638 0.000000 0.000000 0.000000
# 3 -0.001960 -0.002638 0.009255 0.000000 0.000000 0.000000
# 4 0.000000 0.000000 0.000000 0.073842 0.000000 0.000000
# 5 0.000000 0.000000 0.000000 0.000000 0.054825 0.000000
# 6 0.000000 0.000000 0.000000 0.000000 0.000000 0.156804
#
#
# Mechanical properties :
#
#
# Convention : Reuss Voigt Hill
#
# Bulk Modulus (GPa) = 64.10120 67.05922 65.58021
# Shear Modulus (GPa) = 15.06629 25.66763 20.36696
#
# Velocity S-wave (km/s) = 2.69767 3.52110 3.13653
# Velocity P-wave (km/s) = 6.37698 6.99445 6.69284
#
# Compressibility (1/GPa) = 0.01560033
#
# Stress axis : x y z
#
# Youngs Moduli (GPa) = 137.71776 84.16443 108.04974
#
# Poissons Ratio (x) = 0.15156 0.21173
# Poissons Ratio (y) = 0.24800 0.28507
# Poissons Ratio (z) = 0.26987 0.22205
#
# Static dielectric constant tensor:
#      x y z
#    x 4.105150 0.000000 0.000000 
#    y 0.000000 3.753600 0.000000 
#    z 0.000000 0.000000 3.463890 
# 
# 
# High freq. dielectric constant tensor:
#      x y z
#    x 1.832780 0.000000 0.000000 
#    y 0.000000 1.814230 0.000000 
#    z 0.000000 0.000000 1.767020 
# 
# From -- ./inp_files/14714.got.cif
#   From: 2010.03.12/outbox.cif.g09.slc.cpg/sg36_8_cif.got.tgz:14714.got - 2010.04.14 02:13:53.
