data_PCOD8176839
_publ_section_title
;
Structure prediction by ZEFSAII (Michael W. Deem and Ramdas Pophale) SiO2 
 PCOD8176839
Probable space group: C C C 2
;
_chemical_formula_sum "Si O2"
_cell_formula_units_Z 56
_cell_length_a 12.234755
_cell_length_b 14.813102
_cell_length_c 14.217975
_cell_angle_alpha 90.000000
_cell_angle_beta 90.000000
_cell_angle_gamma 90.000000
_cell_volume 2576.790061
_symmetry_space_group_name_H-M "C C C 2"
_symmetry_group_IT_number 37
_symmetry_cell_setting 'orthorhombic'
loop_
_space_group_symop_operation_xyz
x,y,z
-x,-y,z
-x,y,1/2+z
x,-y,1/2+z
1/2+x,1/2+y,z
1/2-x,1/2-y,z
1/2-x,1/2+y,1/2+z
1/2+x,1/2-y,1/2+z
loop_
_atom_site_type_symbol
_atom_site_label
_atom_site_fract_x
_atom_site_fract_y
_atom_site_fract_z
Si Si1 0.374989 0.224270 0.095610
Si Si2 0.132032 0.710631 0.803610
Si Si3 0.540812 0.307915 0.417790
Si Si4 0.728512 0.554410 0.752219
Si Si5 0.380677 0.019596 0.094732
Si Si6 0.750000 0.250000 0.299785
Si Si7 0.123362 0.475518 0.391139
Si Si8 0.000000 0.000000 0.328793
O O1 0.250000 0.250000 0.098057
O O2 0.424681 0.228085 0.201709
O O3 0.381182 0.122202 0.057619
O O4 0.442918 0.293129 0.029629
O O5 0.250000 0.750000 0.803625
O O6 0.150590 0.606615 0.823200
O O7 0.063139 0.750963 0.887876
O O8 0.644716 0.263436 0.366382
O O9 0.509811 0.411904 0.395562
O O10 0.786313 0.499115 0.669328
O O11 0.741492 0.661917 0.731326
O O12 0.790932 0.549545 0.852947
O O13 0.607284 0.509574 0.761850
O O14 0.500000 0.000000 0.139125
O O15 0.358387 0.958644 0.002057
O O16 0.000000 0.500000 0.370310
#
# Coordination Sequence:
#
# PCOD8176839 Si02
#       8
#     8   8   8   8   8   4   8   4
#     4  11  24  43  72 103 132 185 236 284 354 432
#     4  11  24  43  68  98 138 174 219 290 356 408
#     4  11  22  45  68 100 135 180 239 280 349 424
#     4  11  22  44  64  96 142 180 232 282 353 421
#     4  11  24  41  71 104 130 172 232 295 353 414
#     4  10  22  38  68  94 132 186 228 288 334 414
#     4  11  22  41  70 100 129 171 223 295 348 400
#     4  10  26  42  66  98 144 192 232 288 348 426
#
# _framework density 21.732465000000001
#
# number of rings (size 3 to 8) (size 9 to 14) (size 15 to 20)
#    0.000    1.143    2.143    4.714    6.000    0.000 
#    1.286    5.714    0.000    0.000    0.000    0.000 
#    0.000    0.000    0.000    0.000    0.000    0.000 
#
# Total GULP energy -346997.465157 kJ/mol
# GULP energy per Si atom -12392.766613 kJ/mol
# Density = 2.168300 g / cm^3
# Si number density = 21.732465 Si / 1000 Ang^3
#
#
#
# Elastic Constant Matrix: (Units=GPa)
#
#
# Indices 1 2 3 4 5 6 
#
# 1 109.3460 51.3194 67.0595 0.0000 0.0000 0.0000
# 2 51.3194 121.9393 31.3848 0.0000 0.0000 0.0000
# 3 67.0595 31.3848 112.2049 0.0000 0.0000 0.0000
# 4 0.0000 0.0000 0.0000 34.0107 0.0000 0.0000
# 5 0.0000 0.0000 0.0000 0.0000 20.8728 0.0000
# 6 0.0000 0.0000 0.0000 0.0000 0.0000 37.3322
#
#
#
# Elastic Compliance Matrix: (Units=1/GPa)
#
#
# Indices 1 2 3 4 5 6 
#
# 1 0.016695 -0.004804 -0.008634 0.000000 0.000000 0.000000
# 2 -0.004804 0.010219 0.000013 0.000000 0.000000 0.000000
# 3 -0.008634 0.000013 0.014069 0.000000 0.000000 0.000000
# 4 0.000000 0.000000 0.000000 0.029403 0.000000 0.000000
# 5 0.000000 0.000000 0.000000 0.000000 0.047909 0.000000
# 6 0.000000 0.000000 0.000000 0.000000 0.000000 0.026787
#
#
# Mechanical properties :
#
#
# Convention : Reuss Voigt Hill
#
# Bulk Modulus (GPa) = 70.75927 71.44642 71.10284
# Shear Modulus (GPa) = 28.30560 31.35822 29.83191
#
# Velocity S-wave (km/s) = 3.61287 3.80270 3.70900
# Velocity P-wave (km/s) = 7.07345 7.22686 7.15057
#
# Compressibility (1/GPa) = 0.01413242
#
# Stress axis : x y z
#
# Youngs Moduli (GPa) = 59.89789 97.85344 71.07871
#
# Poissons Ratio (x) = 0.47009 0.61370
# Poissons Ratio (y) = 0.28775 -0.00090
# Poissons Ratio (z) = 0.51716 -0.00124
#
# Static dielectric constant tensor:
#      x y z
#    x 4.214960 0.000000 0.000000 
#    y 0.000000 4.116370 0.000000 
#    z 0.000000 0.000000 4.097690 
# 
# 
# High freq. dielectric constant tensor:
#      x y z
#    x 1.856320 0.000000 0.000000 
#    y 0.000000 1.863730 0.000000 
#    z 0.000000 0.000000 1.847240 
# 
# From -- ./inp_files/11638.got.cif
#   From: 2010.03.12/outbox.cif.g09.slc.cpg/sg37_6_cif.got.tgz:11638.got - 2010.04.14 02:25:27.
