data_PCOD8176136
_publ_section_title
;
Structure prediction by ZEFSAII (Michael W. Deem and Ramdas Pophale) SiO2 
 PCOD8176136
Probable space group: C M C 21
;
_chemical_formula_sum "Si O2"
_cell_formula_units_Z 40
_cell_length_a 18.050893
_cell_length_b 9.928884
_cell_length_c 9.744670
_cell_angle_alpha 90.000000
_cell_angle_beta 90.000000
_cell_angle_gamma 90.000000
_cell_volume 1746.490651
_symmetry_space_group_name_H-M "C M C 21"
_symmetry_group_IT_number 36
_symmetry_cell_setting 'orthorhombic'
loop_
_space_group_symop_operation_xyz
x,y,z
-x,-y,1/2+z
x,-y,1/2+z
-x,y,z
1/2+x,1/2+y,z
1/2-x,1/2-y,1/2+z
1/2+x,1/2-y,1/2+z
1/2-x,1/2+y,z
loop_
_atom_site_type_symbol
_atom_site_label
_atom_site_fract_x
_atom_site_fract_y
_atom_site_fract_z
Si Si1 0.585939 0.293940 0.493970
Si Si2 0.180935 0.251512 0.433367
Si Si3 0.212830 0.020437 0.023807
Si Si4 0.652366 0.082006 0.680399
Si Si5 0.584471 0.799585 0.694859
O O1 0.500000 0.313247 0.533332
O O2 0.631265 0.420426 0.560826
O O3 0.615256 0.149078 0.547000
O O4 0.597186 0.291849 0.329214
O O5 0.248816 0.350634 0.457540
O O6 0.141547 0.305097 0.297492
O O7 0.129759 0.241188 0.567382
O O8 0.208057 0.098531 0.409795
O O9 0.261855 0.960313 0.149752
O O10 0.607438 0.952232 0.727689
O O11 0.500000 0.798180 0.649136
#
# Coordination Sequence:
#
# PCOD8176136 Si02
#       5
#     8   8   8   8   8
#     4  11  25  45  69 101 146 189 233 294 357 424
#     4  11  26  41  72  99 138 178 240 290 355 418
#     4  11  25  43  68 103 138 184 234 293 358 425
#     4  11  24  42  72 103 134 185 241 294 347 428
#     4  10  23  45  68 100 142 184 230 289 360 429
#
# _framework density 22.90307
#
# number of rings (size 3 to 8) (size 9 to 14) (size 15 to 20)
#    0.000    1.200    2.000    3.000    5.600    4.000 
#    0.000    2.000    0.000    0.000    0.000    0.000 
#    0.000    0.000    0.000    0.000    0.000    0.000 
#
# Total GULP energy -247931.046567 kJ/mol
# GULP energy per Si atom -12396.552328 kJ/mol
# Density = 2.285094 g / cm^3
# Si number density = 22.903070 Si / 1000 Ang^3
#
#
#
# Elastic Constant Matrix: (Units=GPa)
#
#
# Indices 1 2 3 4 5 6 
#
# 1 149.9962 53.4094 47.9188 0.0000 0.0000 0.0000
# 2 53.4094 132.0707 14.6223 0.0000 0.0000 0.0000
# 3 47.9188 14.6223 81.5280 0.0000 0.0000 0.0000
# 4 0.0000 0.0000 0.0000 23.1997 0.0000 0.0000
# 5 0.0000 0.0000 0.0000 0.0000 23.1090 0.0000
# 6 0.0000 0.0000 0.0000 0.0000 0.0000 36.0623
#
#
#
# Elastic Compliance Matrix: (Units=1/GPa)
#
#
# Indices 1 2 3 4 5 6 
#
# 1 0.009406 -0.003256 -0.004944 0.000000 0.000000 0.000000
# 2 -0.003256 0.008852 0.000326 0.000000 0.000000 0.000000
# 3 -0.004944 0.000326 0.015113 0.000000 0.000000 0.000000
# 4 0.000000 0.000000 0.000000 0.043104 0.000000 0.000000
# 5 0.000000 0.000000 0.000000 0.000000 0.043273 0.000000
# 6 0.000000 0.000000 0.000000 0.000000 0.000000 0.027730
#
#
# Mechanical properties :
#
#
# Convention : Reuss Voigt Hill
#
# Bulk Modulus (GPa) = 56.74499 66.16623 61.45561
# Shear Modulus (GPa) = 29.56799 32.98382 31.27590
#
# Velocity S-wave (km/s) = 3.59695 3.79905 3.69938
# Velocity P-wave (km/s) = 6.48696 6.94234 6.71851
#
# Compressibility (1/GPa) = 0.01762270
#
# Stress axis : x y z
#
# Youngs Moduli (GPa) = 106.31645 112.96317 66.16687
#
# Poissons Ratio (x) = 0.36784 0.32715
# Poissons Ratio (y) = 0.34620 -0.02158
# Poissons Ratio (z) = 0.52567 -0.03685
#
# Static dielectric constant tensor:
#      x y z
#    x 4.189870 0.000000 0.000000 
#    y 0.000000 4.339430 0.000000 
#    z 0.000000 0.000000 3.929810 
# 
# 
# High freq. dielectric constant tensor:
#      x y z
#    x 1.903840 0.000000 0.000000 
#    y 0.000000 1.913700 0.000000 
#    z 0.000000 0.000000 1.893420 
# 
# From -- ./inp_files/4522.got.cif
#   From: 2010.03.12/outbox.cif.g09.slc.cpg/sg36_3_cif.got.tgz:4522.got - 2010.04.14 02:13:53.
