data_PCOD8176561
_publ_section_title
;
Structure prediction by ZEFSAII (Michael W. Deem and Ramdas Pophale) SiO2 
 PCOD8176561
Probable space group: C C C 2
;
_chemical_formula_sum "Si O2"
_cell_formula_units_Z 56
_cell_length_a 14.665468
_cell_length_b 13.730183
_cell_length_c 13.649376
_cell_angle_alpha 90.000000
_cell_angle_beta 90.000000
_cell_angle_gamma 90.000000
_cell_volume 2748.432338
_symmetry_space_group_name_H-M "C C C 2"
_symmetry_group_IT_number 37
_symmetry_cell_setting 'orthorhombic'
loop_
_space_group_symop_operation_xyz
x,y,z
-x,-y,z
-x,y,1/2+z
x,-y,1/2+z
1/2+x,1/2+y,z
1/2-x,1/2-y,z
1/2-x,1/2+y,1/2+z
1/2+x,1/2-y,1/2+z
loop_
_atom_site_type_symbol
_atom_site_label
_atom_site_fract_x
_atom_site_fract_y
_atom_site_fract_z
Si Si1 0.561665 0.087483 0.095080
Si Si2 0.020106 0.212594 0.139229
Si Si3 0.125092 0.194281 0.805082
Si Si4 0.694698 0.102251 0.269735
Si Si5 0.858449 0.234307 0.808785
Si Si6 0.909050 0.556886 0.372285
Si Si7 0.009932 0.886910 0.942971
O O1 0.497483 0.182272 0.090379
O O2 0.650352 0.100161 0.162256
O O3 0.500000 0.000000 0.136436
O O4 0.600482 0.063300 0.988525
O O5 0.119253 0.204521 0.194781
O O6 0.954065 0.194043 0.227909
O O7 0.995688 0.131010 0.059341
O O8 0.197302 0.116740 0.761648
O O9 0.160604 0.302467 0.827346
O O10 0.084030 0.161099 0.907582
O O11 0.676050 0.004742 0.331275
O O12 0.750000 0.250000 0.824352
O O13 0.910576 0.336672 0.825052
O O14 0.899334 0.157970 0.889422
O O15 0.000000 0.500000 0.339718
O O16 0.000000 0.000000 0.919590
#
# Coordination Sequence:
#
# PCOD8176561 Si02
#       7
#     8   8   8   8   8   8   8
#     4  10  20  35  64  96 125 166 210 264 334 391
#     4  10  21  43  64  89 128 174 209 262 329 389
#     4   9  22  41  64  88 127 172 211 265 319 383
#     4  10  20  39  62  96 129 160 214 268 316 386
#     4  11  25  44  70  99 132 166 222 281 317 379
#     4  11  21  38  66  96 132 169 209 269 334 386
#     4  11  24  44  66  88 130 177 217 254 334 399
#
# _framework density 20.375252
#
# number of rings (size 3 to 8) (size 9 to 14) (size 15 to 20)
#    0.000    1.714    1.429    3.857    4.000    3.429 
#    2.571    0.000    0.000    0.000    0.000    0.000 
#    0.000    0.000    0.000    0.000    0.000    0.000 
#
# Total GULP energy -347093.175758 kJ/mol
# GULP energy per Si atom -12396.184849 kJ/mol
# Density = 2.032888 g / cm^3
# Si number density = 20.375252 Si / 1000 Ang^3
#
#
#
# Elastic Constant Matrix: (Units=GPa)
#
#
# Indices 1 2 3 4 5 6 
#
# 1 76.7918 18.6610 2.0986 0.0000 0.0000 0.0000
# 2 18.6610 105.4816 17.3090 0.0000 0.0000 0.0000
# 3 2.0986 17.3090 70.0607 0.0000 0.0000 0.0000
# 4 0.0000 0.0000 0.0000 31.2523 0.0000 0.0000
# 5 0.0000 0.0000 0.0000 0.0000 5.9791 0.0000
# 6 0.0000 0.0000 0.0000 0.0000 0.0000 31.2198
#
#
#
# Elastic Compliance Matrix: (Units=1/GPa)
#
#
# Indices 1 2 3 4 5 6 
#
# 1 0.013610 -0.002440 0.000195 0.000000 0.000000 0.000000
# 2 -0.002440 0.010318 -0.002476 0.000000 0.000000 0.000000
# 3 0.000195 -0.002476 0.014879 0.000000 0.000000 0.000000
# 4 0.000000 0.000000 0.000000 0.031998 0.000000 0.000000
# 5 0.000000 0.000000 0.000000 0.000000 0.167249 0.000000
# 6 0.000000 0.000000 0.000000 0.000000 0.000000 0.032031
#
#
# Mechanical properties :
#
#
# Convention : Reuss Voigt Hill
#
# Bulk Modulus (GPa) = 34.05330 36.49679 35.27505
# Shear Modulus (GPa) = 17.28218 27.97461 22.62839
#
# Velocity S-wave (km/s) = 2.91554 3.70938 3.33616
# Velocity P-wave (km/s) = 5.29936 6.02472 5.67364
#
# Compressibility (1/GPa) = 0.02936573
#
# Stress axis : x y z
#
# Youngs Moduli (GPa) = 73.47661 96.91556 67.20775
#
# Poissons Ratio (x) = 0.23645 -0.01311
# Poissons Ratio (y) = 0.17926 0.16641
# Poissons Ratio (z) = -0.01433 0.23997
#
# Static dielectric constant tensor:
#      x y z
#    x 3.958140 0.000000 0.000000 
#    y 0.000000 3.833020 0.000000 
#    z 0.000000 0.000000 3.675050 
# 
# 
# High freq. dielectric constant tensor:
#      x y z
#    x 1.784890 0.000000 0.000000 
#    y 0.000000 1.802680 0.000000 
#    z 0.000000 0.000000 1.797150 
# 
# From -- ./inp_files/7844.got.cif
#   From: 2010.03.12/outbox.cif.g09.slc.cpg/sg37_4_cif.got.tgz:7844.got - 2010.04.14 02:25:27.
