data_PCOD8176237
_publ_section_title
;
Structure prediction by ZEFSAII (Michael W. Deem and Ramdas Pophale) SiO2 
 PCOD8176237
Probable space group: C M C 21
;
_chemical_formula_sum "Si O2"
_cell_formula_units_Z 56
_cell_length_a 23.426325
_cell_length_b 13.812541
_cell_length_c 8.707530
_cell_angle_alpha 90.000000
_cell_angle_beta 90.000000
_cell_angle_gamma 90.000000
_cell_volume 2817.557084
_symmetry_space_group_name_H-M "C M C 21"
_symmetry_group_IT_number 36
_symmetry_cell_setting 'orthorhombic'
loop_
_space_group_symop_operation_xyz
x,y,z
-x,-y,1/2+z
x,-y,1/2+z
-x,y,z
1/2+x,1/2+y,z
1/2-x,1/2-y,1/2+z
1/2+x,1/2-y,1/2+z
1/2-x,1/2+y,z
loop_
_atom_site_type_symbol
_atom_site_label
_atom_site_fract_x
_atom_site_fract_y
_atom_site_fract_z
Si Si1 0.659457 0.956582 0.850520
Si Si2 0.000000 0.623741 0.112688
Si Si3 0.616876 0.871997 0.155176
Si Si4 0.805073 0.867102 0.283225
Si Si5 0.809077 0.250002 0.336765
Si Si6 0.124417 0.292530 0.643804
Si Si7 0.000000 0.587614 0.756918
Si Si8 0.215031 0.953258 0.952399
O O1 0.660188 0.881735 0.710920
O O2 0.720709 0.982217 0.915362
O O3 0.633165 0.055246 0.791769
O O4 0.620610 0.914221 0.985746
O O5 0.056392 0.688229 0.147627
O O6 0.000000 0.526360 0.213873
O O7 0.000000 0.590453 0.938771
O O8 0.658222 0.778713 0.178167
O O9 0.551130 0.849949 0.184595
O O10 0.753487 0.798595 0.341803
O O11 0.860990 0.802504 0.247137
O O12 0.820725 0.949145 0.410451
O O13 0.787223 0.925118 0.129837
O O14 0.850567 0.281394 0.474584
O O15 0.803339 0.134583 0.341850
#
# Coordination Sequence:
#
# PCOD8176237 Si02
#       8
#     8   4   8   8   8   8   4   8
#     4  12  21  35  57  88 122 164 199 248 304 379
#     4  12  24  42  64  89 131 168 210 259 311 375
#     4  12  23  36  56  88 127 162 199 248 306 374
#     4  11  24  39  61  89 124 165 205 256 315 369
#     4  11  22  39  59  90 123 162 202 250 316 371
#     4  11  25  40  61  90 128 168 208 252 316 378
#     4  12  24  38  60  91 123 168 204 251 307 375
#     4  11  23  36  60  87 123 158 202 254 311 374
#
# _framework density 19.875373
#
# number of rings (size 3 to 8) (size 9 to 14) (size 15 to 20)
#    0.000    0.571    7.143    1.714    2.000    1.143 
#    0.000    0.000    0.000    4.286    0.000    0.000 
#    0.000    0.000    0.000    0.000    0.000    0.000 
#
# Total GULP energy -347146.092408 kJ/mol
# GULP energy per Si atom -12398.074729 kJ/mol
# Density = 1.983014 g / cm^3
# Si number density = 19.875373 Si / 1000 Ang^3
#
#
#
# Elastic Constant Matrix: (Units=GPa)
#
#
# Indices 1 2 3 4 5 6 
#
# 1 83.9031 26.0650 21.6734 0.0000 0.0000 0.0000
# 2 26.0650 84.0737 7.0284 0.0000 0.0000 0.0000
# 3 21.6734 7.0284 30.9044 0.0000 0.0000 0.0000
# 4 0.0000 0.0000 0.0000 30.0229 0.0000 0.0000
# 5 0.0000 0.0000 0.0000 0.0000 21.2331 0.0000
# 6 0.0000 0.0000 0.0000 0.0000 0.0000 23.1296
#
#
#
# Elastic Compliance Matrix: (Units=1/GPa)
#
#
# Indices 1 2 3 4 5 6 
#
# 1 0.015801 -0.004049 -0.010160 0.000000 0.000000 0.000000
# 2 -0.004049 0.013163 -0.000154 0.000000 0.000000 0.000000
# 3 -0.010160 -0.000154 0.039518 0.000000 0.000000 0.000000
# 4 0.000000 0.000000 0.000000 0.033308 0.000000 0.000000
# 5 0.000000 0.000000 0.000000 0.000000 0.047096 0.000000
# 6 0.000000 0.000000 0.000000 0.000000 0.000000 0.043235
#
#
# Mechanical properties :
#
#
# Convention : Reuss Voigt Hill
#
# Bulk Modulus (GPa) = 25.15401 34.26833 29.71117
# Shear Modulus (GPa) = 21.35844 24.48473 22.92158
#
# Velocity S-wave (km/s) = 3.28169 3.51367 3.39966
# Velocity P-wave (km/s) = 5.20026 5.80863 5.51284
#
# Compressibility (1/GPa) = 0.03975509
#
# Stress axis : x y z
#
# Youngs Moduli (GPa) = 63.28693 75.97301 25.30468
#
# Poissons Ratio (x) = 0.30764 0.25711
# Poissons Ratio (y) = 0.25627 0.00389
# Poissons Ratio (z) = 0.64302 0.01167
#
# Static dielectric constant tensor:
#      x y z
#    x 3.694370 0.000000 0.000000 
#    y 0.000000 3.822240 0.000000 
#    z 0.000000 0.000000 3.868130 
# 
# 
# High freq. dielectric constant tensor:
#      x y z
#    x 1.756580 0.000000 0.000000 
#    y 0.000000 1.766040 0.000000 
#    z 0.000000 0.000000 1.789800 
# 
# From -- ./inp_files/5235.got.cif
#   From: 2010.03.12/outbox.cif.g09.slc.cpg/sg36_3_cif.got.tgz:5235.got - 2010.04.14 02:13:53.
