data_PCOD8176836
_publ_section_title
;
Structure prediction by ZEFSAII (Michael W. Deem and Ramdas Pophale) SiO2 
 PCOD8176836
Probable space group: C C C 2
;
_chemical_formula_sum "Si O2"
_cell_formula_units_Z 32
_cell_length_a 15.246516
_cell_length_b 15.975984
_cell_length_c 5.251473
_cell_angle_alpha 90.000000
_cell_angle_beta 90.000000
_cell_angle_gamma 90.000000
_cell_volume 1279.143793
_symmetry_space_group_name_H-M "C C C 2"
_symmetry_group_IT_number 37
_symmetry_cell_setting 'orthorhombic'
loop_
_space_group_symop_operation_xyz
x,y,z
-x,-y,z
-x,y,1/2+z
x,-y,1/2+z
1/2+x,1/2+y,z
1/2-x,1/2-y,z
1/2-x,1/2+y,1/2+z
1/2+x,1/2-y,1/2+z
loop_
_atom_site_type_symbol
_atom_site_label
_atom_site_fract_x
_atom_site_fract_y
_atom_site_fract_z
Si Si1 0.292943 0.050683 0.459680
Si Si2 0.944973 0.669310 0.536359
Si Si3 0.901724 0.038011 0.620374
Si Si4 0.825037 0.807457 0.326931
O O1 0.391561 0.084015 0.495863
O O2 0.226492 0.127989 0.508710
O O3 0.278875 0.976783 0.663825
O O4 0.885764 0.751557 0.504440
O O5 0.021278 0.671259 0.325540
O O6 0.890100 0.138803 0.637080
O O7 0.853760 0.995818 0.867046
O O8 0.000000 0.000000 0.613225
O O9 0.750000 0.750000 0.184015
#
# Coordination Sequence:
#
# PCOD8176836 Si02
#       4
#     8   8   8   8
#     4  11  24  45  71  96 134 180 229 279 339 406
#     4  11  26  43  68 100 136 178 224 283 341 406
#     4  10  22  38  64  95 125 167 217 273 323 387
#     4  10  24  44  66  99 140 179 220 278 348 408
#
# _framework density 25.016734
#
# number of rings (size 3 to 8) (size 9 to 14) (size 15 to 20)
#    0.000    1.500    0.000    3.000    7.000    5.000 
#    0.000   13.750    0.000    0.000    0.000    0.000 
#    0.000    0.000    0.000    0.000    0.000    0.000 
#
# Total GULP energy -198287.436146 kJ/mol
# GULP energy per Si atom -12392.964759 kJ/mol
# Density = 2.495979 g / cm^3
# Si number density = 25.016734 Si / 1000 Ang^3
#
#
#
# Elastic Constant Matrix: (Units=GPa)
#
#
# Indices 1 2 3 4 5 6 
#
# 1 111.5714 52.6787 7.6365 0.0000 0.0000 0.0000
# 2 52.6787 128.4962 30.8014 0.0000 0.0000 0.0000
# 3 7.6365 30.8014 92.4382 0.0000 0.0000 0.0000
# 4 0.0000 0.0000 0.0000 18.5312 0.0000 0.0000
# 5 0.0000 0.0000 0.0000 0.0000 38.2587 0.0000
# 6 0.0000 0.0000 0.0000 0.0000 0.0000 67.8302
#
#
#
# Elastic Compliance Matrix: (Units=1/GPa)
#
#
# Indices 1 2 3 4 5 6 
#
# 1 0.011150 -0.004728 0.000654 0.000000 0.000000 0.000000
# 2 -0.004728 0.010463 -0.003096 0.000000 0.000000 0.000000
# 3 0.000654 -0.003096 0.011796 0.000000 0.000000 0.000000
# 4 0.000000 0.000000 0.000000 0.053963 0.000000 0.000000
# 5 0.000000 0.000000 0.000000 0.000000 0.026138 0.000000
# 6 0.000000 0.000000 0.000000 0.000000 0.000000 0.014743
#
#
# Mechanical properties :
#
#
# Convention : Reuss Voigt Hill
#
# Bulk Modulus (GPa) = 52.43926 57.19323 54.81624
# Shear Modulus (GPa) = 33.56879 41.01664 37.29272
#
# Velocity S-wave (km/s) = 3.66711 4.05355 3.86516
# Velocity P-wave (km/s) = 6.23998 6.69477 6.47137
#
# Compressibility (1/GPa) = 0.01906968
#
# Stress axis : x y z
#
# Youngs Moduli (GPa) = 89.68221 95.57718 84.77805
#
# Poissons Ratio (x) = 0.45190 -0.05547
# Poissons Ratio (y) = 0.42403 0.26245
# Poissons Ratio (z) = -0.05868 0.29588
#
# Static dielectric constant tensor:
#      x y z
#    x 5.089980 0.000000 0.000000 
#    y 0.000000 4.772810 0.000000 
#    z 0.000000 0.000000 5.159990 
# 
# 
# High freq. dielectric constant tensor:
#      x y z
#    x 2.036010 0.000000 0.000000 
#    y 0.000000 2.004910 0.000000 
#    z 0.000000 0.000000 1.975780 
# 
# From -- ./inp_files/436.got.cif
#   From: 2010.03.12/outbox.cif.g09.slc.cpg/sg37_1_cif.got.tgz:436.got - 2010.04.14 02:25:27.
