data_PCOD8176667
_publ_section_title
;
Structure prediction by ZEFSAII (Michael W. Deem and Ramdas Pophale) SiO2 
 PCOD8176667
Probable space group: C C C 2
;
_chemical_formula_sum "Si O2"
_cell_formula_units_Z 56
_cell_length_a 10.554664
_cell_length_b 16.814200
_cell_length_c 14.642952
_cell_angle_alpha 90.000000
_cell_angle_beta 90.000000
_cell_angle_gamma 90.000000
_cell_volume 2598.658794
_symmetry_space_group_name_H-M "C C C 2"
_symmetry_group_IT_number 37
_symmetry_cell_setting 'orthorhombic'
loop_
_space_group_symop_operation_xyz
x,y,z
-x,-y,z
-x,y,1/2+z
x,-y,1/2+z
1/2+x,1/2+y,z
1/2-x,1/2-y,z
1/2-x,1/2+y,1/2+z
1/2+x,1/2-y,1/2+z
loop_
_atom_site_type_symbol
_atom_site_label
_atom_site_fract_x
_atom_site_fract_y
_atom_site_fract_z
Si Si1 0.500000 0.500000 0.471790
Si Si2 0.825079 0.172212 0.280366
Si Si3 0.694948 0.878258 0.260346
Si Si4 0.750000 0.250000 0.993889
Si Si5 0.234032 0.469797 0.885278
Si Si6 0.081160 0.770351 0.831334
Si Si7 0.342176 0.396237 0.595846
Si Si8 0.358710 0.971238 0.586406
O O1 0.618010 0.481635 0.407406
O O2 0.461768 0.424597 0.535295
O O3 0.750000 0.250000 0.250192
O O4 0.727079 0.110929 0.326705
O O5 0.894278 0.135104 0.191794
O O6 0.941002 0.195827 0.345506
O O7 0.828730 0.835801 0.282486
O O8 0.583678 0.813835 0.278026
O O9 0.677130 0.897921 0.153009
O O10 0.680122 0.955669 0.326871
O O11 0.747302 0.329932 0.051474
O O12 0.875617 0.250368 0.933187
O O13 0.154557 0.454385 0.977962
O O14 0.245872 0.466245 0.616558
O O15 0.500000 0.000000 0.608530
#
# Coordination Sequence:
#
# PCOD8176667 Si02
#       8
#     4   8   8   4   8   8   8   8
#     4  10  22  40  70 102 122 170 224 276 322 394
#     4  12  26  41  62 100 134 171 218 275 334 388
#     4  10  22  44  68  93 135 170 222 266 332 396
#     4  10  20  44  66  90 130 170 216 268 332 394
#     4  11  23  44  68  97 131 169 223 276 328 393
#     4  10  23  41  67  96 127 178 214 271 327 392
#     4  11  23  40  66  97 131 169 223 268 331 390
#     4  11  25  41  66  96 126 178 220 267 327 396
#
# _framework density 21.549579000000001
#
# number of rings (size 3 to 8) (size 9 to 14) (size 15 to 20)
#    0.000    1.429    2.143    5.143    6.000    3.429 
#    2.571    0.000    0.000    0.000    0.000    0.000 
#    0.000    0.000    0.000    0.000    0.000    0.000 
#
# Total GULP energy -347048.810968 kJ/mol
# GULP energy per Si atom -12394.600392 kJ/mol
# Density = 2.150053 g / cm^3
# Si number density = 21.549579 Si / 1000 Ang^3
#
#
#
# Elastic Constant Matrix: (Units=GPa)
#
#
# Indices 1 2 3 4 5 6 
#
# 1 51.4473 8.0618 0.8894 0.0000 0.0000 0.0000
# 2 8.0618 134.6010 47.4932 0.0000 0.0000 0.0000
# 3 0.8894 47.4932 113.2300 0.0000 0.0000 0.0000
# 4 0.0000 0.0000 0.0000 23.3184 0.0000 0.0000
# 5 0.0000 0.0000 0.0000 0.0000 6.6160 0.0000
# 6 0.0000 0.0000 0.0000 0.0000 0.0000 25.6835
#
#
#
# Elastic Compliance Matrix: (Units=1/GPa)
#
#
# Indices 1 2 3 4 5 6 
#
# 1 0.019637 -0.001317 0.000398 0.000000 0.000000 0.000000
# 2 -0.001317 0.008808 -0.003684 0.000000 0.000000 0.000000
# 3 0.000398 -0.003684 0.010374 0.000000 0.000000 0.000000
# 4 0.000000 0.000000 0.000000 0.042885 0.000000 0.000000
# 5 0.000000 0.000000 0.000000 0.000000 0.151149 0.000000
# 6 0.000000 0.000000 0.000000 0.000000 0.000000 0.038935
#
#
# Mechanical properties :
#
#
# Convention : Reuss Voigt Hill
#
# Bulk Modulus (GPa) = 33.76872 45.79635 39.78253
# Shear Modulus (GPa) = 17.19014 27.31252 22.25133
#
# Velocity S-wave (km/s) = 2.82743 3.56396 3.21684
# Velocity P-wave (km/s) = 5.13453 6.18332 5.68317
#
# Compressibility (1/GPa) = 0.02961321
#
# Stress axis : x y z
#
# Youngs Moduli (GPa) = 50.92483 113.53119 96.39732
#
# Poissons Ratio (x) = 0.14947 -0.03836
# Poissons Ratio (y) = 0.06704 0.35514
# Poissons Ratio (z) = -0.02027 0.41827
#
# Static dielectric constant tensor:
#      x y z
#    x 3.645500 0.000000 0.000000 
#    y 0.000000 4.140130 0.000000 
#    z 0.000000 0.000000 3.935440 
# 
# 
# High freq. dielectric constant tensor:
#      x y z
#    x 1.828620 0.000000 0.000000 
#    y 0.000000 1.857330 0.000000 
#    z 0.000000 0.000000 1.851310 
# 
# From -- ./inp_files/11643.got.cif
#   From: 2010.03.12/outbox.cif.g09.slc.cpg/sg37_6_cif.got.tgz:11643.got - 2010.04.14 02:25:27.
