data_PCOD8176072
_publ_section_title
;
Structure prediction by ZEFSAII (Michael W. Deem and Ramdas Pophale) SiO2 
 PCOD8176072
Probable space group: C M C 21
;
_chemical_formula_sum "Si O2"
_cell_formula_units_Z 48
_cell_length_a 27.545818
_cell_length_b 8.415534
_cell_length_c 9.895126
_cell_angle_alpha 90.000000
_cell_angle_beta 90.000000
_cell_angle_gamma 90.000000
_cell_volume 2293.816547
_symmetry_space_group_name_H-M "C M C 21"
_symmetry_group_IT_number 36
_symmetry_cell_setting 'orthorhombic'
loop_
_space_group_symop_operation_xyz
x,y,z
-x,-y,1/2+z
x,-y,1/2+z
-x,y,z
1/2+x,1/2+y,z
1/2-x,1/2-y,1/2+z
1/2+x,1/2-y,1/2+z
1/2-x,1/2+y,z
loop_
_atom_site_type_symbol
_atom_site_label
_atom_site_fract_x
_atom_site_fract_y
_atom_site_fract_z
Si Si1 0.854040 0.184916 0.548120
Si Si2 0.206937 0.322467 0.780899
Si Si3 0.647572 0.320192 0.518757
Si Si4 0.312492 0.188381 0.782970
Si Si5 0.945207 0.652515 0.444935
Si Si6 0.554881 0.141293 0.135644
O O1 0.814392 0.280720 0.634465
O O2 0.848728 0.239737 0.393953
O O3 0.908695 0.217388 0.598209
O O4 0.844195 0.999187 0.566399
O O5 0.263939 0.292321 0.780875
O O6 0.198036 0.505700 0.815696
O O7 0.181727 0.212543 0.891689
O O8 0.661269 0.200997 0.639018
O O9 0.591497 0.295769 0.476239
O O10 0.932422 0.508977 0.544028
O O11 0.937986 0.591427 0.291748
O O12 0.000000 0.714814 0.468462
O O13 0.500000 0.201046 0.108901
#
# Coordination Sequence:
#
# PCOD8176072 Si02
#       6
#     8   8   8   8   8   8
#     4  12  25  42  65  97 132 169 213 266 322 380
#     4  12  24  46  65  94 129 170 218 263 319 383
#     4  12  25  42  65  97 132 169 213 266 322 380
#     4  12  26  42  69  94 129 172 214 265 319 381
#     4  10  22  42  68  97 130 169 214 264 321 386
#     4  10  22  42  68  97 130 169 214 264 321 386
#
# _framework density 20.925823999999999
#
# number of rings (size 3 to 8) (size 9 to 14) (size 15 to 20)
#    0.000    0.667    1.667    7.000    2.333    0.667 
#    0.000    0.000    0.000    0.000    0.000    0.000 
#    0.000    0.000    0.000    0.000    0.000    0.000 
#
# Total GULP energy -297792.464669 kJ/mol
# GULP energy per Si atom -12408.019361 kJ/mol
# Density = 2.087820 g / cm^3
# Si number density = 20.925824 Si / 1000 Ang^3
#
#
#
# Elastic Constant Matrix: (Units=GPa)
#
#
# Indices 1 2 3 4 5 6 
#
# 1 114.4978 30.4595 43.2584 0.0000 0.0000 0.0000
# 2 30.4595 98.0247 20.0322 0.0000 0.0000 0.0000
# 3 43.2584 20.0322 102.6882 0.0000 0.0000 0.0000
# 4 0.0000 0.0000 0.0000 30.6387 0.0000 0.0000
# 5 0.0000 0.0000 0.0000 0.0000 37.0549 0.0000
# 6 0.0000 0.0000 0.0000 0.0000 0.0000 23.0396
#
#
#
# Elastic Compliance Matrix: (Units=1/GPa)
#
#
# Indices 1 2 3 4 5 6 
#
# 1 0.010974 -0.002568 -0.004122 0.000000 0.000000 0.000000
# 2 -0.002568 0.011226 -0.001108 0.000000 0.000000 0.000000
# 3 -0.004122 -0.001108 0.011691 0.000000 0.000000 0.000000
# 4 0.000000 0.000000 0.000000 0.032638 0.000000 0.000000
# 5 0.000000 0.000000 0.000000 0.000000 0.026987 0.000000
# 6 0.000000 0.000000 0.000000 0.000000 0.000000 0.043404
#
#
# Mechanical properties :
#
#
# Convention : Reuss Voigt Hill
#
# Bulk Modulus (GPa) = 54.66002 55.85676 55.25839
# Shear Modulus (GPa) = 31.52302 32.91070 32.21686
#
# Velocity S-wave (km/s) = 3.88547 3.97007 3.92800
# Velocity P-wave (km/s) = 6.80490 6.91129 6.85830
#
# Compressibility (1/GPa) = 0.01829491
#
# Stress axis : x y z
#
# Youngs Moduli (GPa) = 91.12261 89.08017 85.53672
#
# Poissons Ratio (x) = 0.22873 0.35259
# Poissons Ratio (y) = 0.23397 0.09480
# Poissons Ratio (z) = 0.37562 0.09872
#
# Static dielectric constant tensor:
#      x y z
#    x 3.967680 0.000000 0.000000 
#    y 0.000000 3.540680 0.000000 
#    z 0.000000 0.000000 3.959350 
# 
# 
# High freq. dielectric constant tensor:
#      x y z
#    x 1.834050 0.000000 0.000000 
#    y 0.000000 1.807110 0.000000 
#    z 0.000000 0.000000 1.838120 
# 
# From -- ./inp_files/5990.got.cif
#   From: 2010.03.12/outbox.cif.g09.slc.cpg/sg36_3_cif.got.tgz:5990.got - 2010.04.14 02:13:53.
