data_PCOD8176076
_publ_section_title
;
Structure prediction by ZEFSAII (Michael W. Deem and Ramdas Pophale) SiO2 
 PCOD8176076
Probable space group: C M C 21
;
_chemical_formula_sum "Si O2"
_cell_formula_units_Z 40
_cell_length_a 14.426672
_cell_length_b 7.146707
_cell_length_c 14.759831
_cell_angle_alpha 90.000000
_cell_angle_beta 90.000000
_cell_angle_gamma 90.000000
_cell_volume 1521.785775
_symmetry_space_group_name_H-M "C M C 21"
_symmetry_group_IT_number 36
_symmetry_cell_setting 'orthorhombic'
loop_
_space_group_symop_operation_xyz
x,y,z
-x,-y,1/2+z
x,-y,1/2+z
-x,y,z
1/2+x,1/2+y,z
1/2-x,1/2-y,1/2+z
1/2+x,1/2-y,1/2+z
1/2-x,1/2+y,z
loop_
_atom_site_type_symbol
_atom_site_label
_atom_site_fract_x
_atom_site_fract_y
_atom_site_fract_z
Si Si1 0.142526 0.989276 0.766220
Si Si2 0.899955 0.733546 0.416171
Si Si3 0.334007 0.089802 0.811950
Si Si4 0.604354 0.358948 0.080313
Si Si5 0.777332 0.547258 0.003368
O O1 0.116189 0.070725 0.864681
O O2 0.252926 0.009868 0.746896
O O3 0.089179 0.089931 0.685197
O O4 0.116191 0.768939 0.767953
O O5 0.905014 0.575594 0.335874
O O6 0.822463 0.663734 0.490658
O O7 0.000000 0.740213 0.465029
O O8 0.282855 0.156377 0.906424
O O9 0.500000 0.349753 0.037108
O O10 0.668716 0.520221 0.032787
O O11 0.657616 0.159995 0.073926
#
# Coordination Sequence:
#
# PCOD8176076 Si02
#       5
#     8   8   8   8   8
#     4  12  21  42  73 104 141 187 244 299 366 431
#     4  10  23  42  71 108 139 188 250 298 359 436
#     4  10  22  42  72  99 136 194 240 302 355 427
#     4  12  26  46  72 108 149 195 239 302 382 442
#     4  10  24  46  72  99 147 190 237 305 356 434
#
# _framework density 26.284908999999999
#
# number of rings (size 3 to 8) (size 9 to 14) (size 15 to 20)
#    1.200    0.000    2.000    4.800    0.000    1.600 
#    0.000    8.000    0.000    0.000    0.000    0.000 
#    0.000    0.000    0.000    0.000    0.000    0.000 
#
# Total GULP energy -247810.352318 kJ/mol
# GULP energy per Si atom -12390.517616 kJ/mol
# Density = 2.622508 g / cm^3
# Si number density = 26.284909 Si / 1000 Ang^3
#
#
#
# Elastic Constant Matrix: (Units=GPa)
#
#
# Indices 1 2 3 4 5 6 
#
# 1 199.3181 14.2471 14.7177 0.0000 0.0000 0.0000
# 2 14.2471 99.3379 -7.8051 0.0000 0.0000 0.0000
# 3 14.7177 -7.8051 48.8819 0.0000 0.0000 0.0000
# 4 0.0000 0.0000 0.0000 38.7915 0.0000 0.0000
# 5 0.0000 0.0000 0.0000 0.0000 29.2041 0.0000
# 6 0.0000 0.0000 0.0000 0.0000 0.0000 22.6392
#
#
#
# Elastic Compliance Matrix: (Units=1/GPa)
#
#
# Indices 1 2 3 4 5 6 
#
# 1 0.005206 -0.000881 -0.001708 0.000000 0.000000 0.000000
# 2 -0.000881 0.010344 0.001917 0.000000 0.000000 0.000000
# 3 -0.001708 0.001917 0.021278 0.000000 0.000000 0.000000
# 4 0.000000 0.000000 0.000000 0.025779 0.000000 0.000000
# 5 0.000000 0.000000 0.000000 0.000000 0.034242 0.000000
# 6 0.000000 0.000000 0.000000 0.000000 0.000000 0.044171
#
#
# Mechanical properties :
#
#
# Convention : Reuss Voigt Hill
#
# Bulk Modulus (GPa) = 28.18242 43.31749 35.74995
# Shear Modulus (GPa) = 32.42720 39.88551 36.15635
#
# Velocity S-wave (km/s) = 3.51619 3.89965 3.71287
# Velocity P-wave (km/s) = 5.21823 6.06565 5.65783
#
# Compressibility (1/GPa) = 0.03548312
#
# Stress axis : x y z
#
# Youngs Moduli (GPa) = 192.07853 96.67814 46.99727
#
# Poissons Ratio (x) = 0.08516 0.08028
# Poissons Ratio (y) = 0.16920 -0.09008
# Poissons Ratio (z) = 0.32810 -0.18531
#
# Static dielectric constant tensor:
#      x y z
#    x 4.592190 0.000000 0.000000 
#    y 0.000000 4.683640 0.000000 
#    z 0.000000 0.000000 4.236180 
# 
# 
# High freq. dielectric constant tensor:
#      x y z
#    x 2.048350 0.000000 0.000000 
#    y 0.000000 2.073290 0.000000 
#    z 0.000000 0.000000 2.015580 
# 
# From -- ./inp_files/11954.got.cif
#   From: 2010.03.12/outbox.cif.g09.slc.cpg/sg36_6_cif.got.tgz:11954.got - 2010.04.14 02:13:53.
