data_PCOD8176752
_publ_section_title
;
Structure prediction by ZEFSAII (Michael W. Deem and Ramdas Pophale) SiO2 
 PCOD8176752
Probable space group: C C C 2
;
_chemical_formula_sum "Si O2"
_cell_formula_units_Z 40
_cell_length_a 11.248872
_cell_length_b 12.431069
_cell_length_c 13.909939
_cell_angle_alpha 90.000000
_cell_angle_beta 90.000000
_cell_angle_gamma 90.000000
_cell_volume 1945.103331
_symmetry_space_group_name_H-M "C C C 2"
_symmetry_group_IT_number 37
_symmetry_cell_setting 'orthorhombic'
loop_
_space_group_symop_operation_xyz
x,y,z
-x,-y,z
-x,y,1/2+z
x,-y,1/2+z
1/2+x,1/2+y,z
1/2-x,1/2-y,z
1/2-x,1/2+y,1/2+z
1/2+x,1/2-y,1/2+z
loop_
_atom_site_type_symbol
_atom_site_label
_atom_site_fract_x
_atom_site_fract_y
_atom_site_fract_z
Si Si1 0.707205 0.864570 0.046610
Si Si2 0.979040 0.694642 0.435555
Si Si3 0.000000 0.500000 0.804562
Si Si4 0.163965 0.846960 0.357606
Si Si5 0.250000 0.250000 0.548957
Si Si6 0.772907 0.552984 0.689962
O O1 0.750000 0.750000 0.084072
O O2 0.733380 0.940364 0.135939
O O3 0.569119 0.854922 0.015490
O O4 0.784763 0.902025 0.954419
O O5 0.865778 0.749076 0.482998
O O6 0.940623 0.594634 0.368346
O O7 0.035601 0.794206 0.375470
O O8 0.900848 0.559314 0.740955
O O9 0.250000 0.750000 0.325290
O O10 0.168724 0.934297 0.271092
O O11 0.245981 0.355601 0.612427
#
# Coordination Sequence:
#
# PCOD8176752 Si02
#       6
#     8   8   4   8   4   8
#     4   9  20  41  66  90 128 171 211 267 324 385
#     4  10  21  40  63  91 135 172 213 263 335 381
#     4  12  20  38  70  96 122 170 226 286 306 374
#     4   9  18  41  63  88 130 169 200 266 332 372
#     4  12  24  36  64 102 130 170 216 266 324 404
#     4  12  21  37  68 102 125 163 226 268 325 381
#
# _framework density 20.564461000000001
#
# number of rings (size 3 to 8) (size 9 to 14) (size 15 to 20)
#    0.000    2.000    5.000    2.400    0.000    0.000 
#    1.800    4.000    8.800    0.000    0.000    0.000 
#    0.000    0.000    0.000    0.000    0.000    0.000 
#
# Total GULP energy -247894.201169 kJ/mol
# GULP energy per Si atom -12394.710058 kJ/mol
# Density = 2.051766 g / cm^3
# Si number density = 20.564461 Si / 1000 Ang^3
#
#
#
# Elastic Constant Matrix: (Units=GPa)
#
#
# Indices 1 2 3 4 5 6 
#
# 1 113.4094 56.2036 63.6609 0.0000 0.0000 0.0000
# 2 56.2036 103.2078 81.7725 0.0000 0.0000 0.0000
# 3 63.6609 81.7725 131.6859 0.0000 0.0000 0.0000
# 4 0.0000 0.0000 0.0000 38.8635 0.0000 0.0000
# 5 0.0000 0.0000 0.0000 0.0000 21.4001 0.0000
# 6 0.0000 0.0000 0.0000 0.0000 0.0000 22.9457
#
#
#
# Elastic Compliance Matrix: (Units=1/GPa)
#
#
# Indices 1 2 3 4 5 6 
#
# 1 0.012931 -0.004112 -0.003698 0.000000 0.000000 0.000000
# 2 -0.004112 0.020381 -0.010668 0.000000 0.000000 0.000000
# 3 -0.003698 -0.010668 0.016006 0.000000 0.000000 0.000000
# 4 0.000000 0.000000 0.000000 0.025731 0.000000 0.000000
# 5 0.000000 0.000000 0.000000 0.000000 0.046729 0.000000
# 6 0.000000 0.000000 0.000000 0.000000 0.000000 0.043581
#
#
# Mechanical properties :
#
#
# Convention : Reuss Voigt Hill
#
# Bulk Modulus (GPa) = 80.89157 83.50856 82.20007
# Shear Modulus (GPa) = 24.22068 26.41960 25.32014
#
# Velocity S-wave (km/s) = 3.43562 3.58819 3.51273
# Velocity P-wave (km/s) = 7.42691 7.60678 7.51739
#
# Compressibility (1/GPa) = 0.01236223
#
# Stress axis : x y z
#
# Youngs Moduli (GPa) = 77.33209 49.06603 62.47714
#
# Poissons Ratio (x) = 0.20176 0.23103
# Poissons Ratio (y) = 0.31799 0.66650
# Poissons Ratio (z) = 0.28597 0.52343
#
# Static dielectric constant tensor:
#      x y z
#    x 3.596840 0.000000 0.000000 
#    y 0.000000 3.465200 0.000000 
#    z 0.000000 0.000000 3.953270 
# 
# 
# High freq. dielectric constant tensor:
#      x y z
#    x 1.781110 0.000000 0.000000 
#    y 0.000000 1.799450 0.000000 
#    z 0.000000 0.000000 1.811510 
# 
# From -- ./inp_files/7680.got.cif
#   From: 2010.03.12/outbox.cif.g09.slc.cpg/sg37_4_cif.got.tgz:7680.got - 2010.04.14 02:25:27.
