data_PCOD8176815
_publ_section_title
;
Structure prediction by ZEFSAII (Michael W. Deem and Ramdas Pophale) SiO2 
 PCOD8176815
Probable space group: C C C 2
;
_chemical_formula_sum "Si O2"
_cell_formula_units_Z 48
_cell_length_a 9.677911
_cell_length_b 24.580145
_cell_length_c 9.036917
_cell_angle_alpha 90.000000
_cell_angle_beta 90.000000
_cell_angle_gamma 90.000000
_cell_volume 2149.742082
_symmetry_space_group_name_H-M "C C C 2"
_symmetry_group_IT_number 37
_symmetry_cell_setting 'orthorhombic'
loop_
_space_group_symop_operation_xyz
x,y,z
-x,-y,z
-x,y,1/2+z
x,-y,1/2+z
1/2+x,1/2+y,z
1/2-x,1/2-y,z
1/2-x,1/2+y,1/2+z
1/2+x,1/2-y,1/2+z
loop_
_atom_site_type_symbol
_atom_site_label
_atom_site_fract_x
_atom_site_fract_y
_atom_site_fract_z
Si Si1 0.842128 0.352494 0.490080
Si Si2 0.750000 0.250000 0.109951
Si Si3 0.599564 0.926781 0.565592
Si Si4 0.012556 0.747152 0.906406
Si Si5 0.500000 0.000000 0.819710
Si Si6 0.090155 0.180490 0.147830
Si Si7 0.323019 0.636529 0.217405
O O1 0.750530 0.338004 0.635825
O O2 0.742239 0.383765 0.372603
O O3 0.963912 0.389802 0.549671
O O4 0.899440 0.300742 0.396242
O O5 0.684607 0.297197 0.209925
O O6 0.866143 0.277554 0.007601
O O7 0.740529 0.891807 0.581133
O O8 0.588879 0.960047 0.718104
O O9 0.607422 0.966714 0.424348
O O10 0.076769 0.765385 0.749476
O O11 0.950241 0.801712 0.980822
O O12 0.989967 0.129726 0.199174
#
# Coordination Sequence:
#
# PCOD8176815 Si02
#       7
#     8   4   8   8   4   8   8
#     4  12  23  41  65  94 130 188 230 273 343 405
#     4  10  22  36  58  94 142 170 234 268 324 404
#     4  11  23  43  76  96 136 166 229 294 352 411
#     4  11  23  37  58  90 135 184 227 268 315 390
#     4  10  24  44  68 114 122 166 230 310 350 398
#     4  11  25  38  60  89 143 180 225 276 317 404
#     4  11  22  43  60  97 133 184 217 285 329 415
#
# _framework density 22.328258999999999
#
# number of rings (size 3 to 8) (size 9 to 14) (size 15 to 20)
#    0.000    1.000    5.000    2.500    2.333    2.667 
#    0.000    0.000    0.000    6.000    0.000    0.000 
#    0.000    0.000    0.000    0.000    0.000    0.000 
#
# Total GULP energy -297465.359281 kJ/mol
# GULP energy per Si atom -12394.389970 kJ/mol
# Density = 2.227744 g / cm^3
# Si number density = 22.328259 Si / 1000 Ang^3
#
#
#
# Elastic Constant Matrix: (Units=GPa)
#
#
# Indices 1 2 3 4 5 6 
#
# 1 109.5944 31.5737 29.6561 0.0000 0.0000 0.0000
# 2 31.5737 76.8335 26.2394 0.0000 0.0000 0.0000
# 3 29.6561 26.2394 100.5534 0.0000 0.0000 0.0000
# 4 0.0000 0.0000 0.0000 27.8983 0.0000 0.0000
# 5 0.0000 0.0000 0.0000 0.0000 34.0612 0.0000
# 6 0.0000 0.0000 0.0000 0.0000 0.0000 22.7150
#
#
#
# Elastic Compliance Matrix: (Units=1/GPa)
#
#
# Indices 1 2 3 4 5 6 
#
# 1 0.010784 -0.003673 -0.002222 0.000000 0.000000 0.000000
# 2 -0.003673 0.015539 -0.002972 0.000000 0.000000 0.000000
# 3 -0.002222 -0.002972 0.011376 0.000000 0.000000 0.000000
# 4 0.000000 0.000000 0.000000 0.035844 0.000000 0.000000
# 5 0.000000 0.000000 0.000000 0.000000 0.029359 0.000000
# 6 0.000000 0.000000 0.000000 0.000000 0.000000 0.044024
#
#
# Mechanical properties :
#
#
# Convention : Reuss Voigt Hill
#
# Bulk Modulus (GPa) = 50.08536 51.32440 50.70488
# Shear Modulus (GPa) = 29.18608 30.23572 29.71090
#
# Velocity S-wave (km/s) = 3.61936 3.68386 3.65175
# Velocity P-wave (km/s) = 6.32032 6.41332 6.36699
#
# Compressibility (1/GPa) = 0.01996591
#
# Stress axis : x y z
#
# Youngs Moduli (GPa) = 92.73058 64.35304 87.90572
#
# Poissons Ratio (x) = 0.23635 0.19534
# Poissons Ratio (y) = 0.34057 0.26124
# Poissons Ratio (z) = 0.20606 0.19124
#
# Static dielectric constant tensor:
#      x y z
#    x 4.306240 0.000000 0.000000 
#    y 0.000000 3.776890 0.000000 
#    z 0.000000 0.000000 4.031420 
# 
# 
# High freq. dielectric constant tensor:
#      x y z
#    x 1.883690 0.000000 0.000000 
#    y 0.000000 1.829340 0.000000 
#    z 0.000000 0.000000 1.892770 
# 
# From -- ./inp_files/2943.got.cif
#   From: 2010.03.12/outbox.cif.g09.slc.cpg/sg37_2_cif.got.tgz:2943.got - 2010.04.14 02:25:27.
