data_PCOD8176103
_publ_section_title
;
Structure prediction by ZEFSAII (Michael W. Deem and Ramdas Pophale) SiO2 
 PCOD8176103
Probable space group: C M C 21
;
_chemical_formula_sum "Si O2"
_cell_formula_units_Z 64
_cell_length_a 8.814969
_cell_length_b 29.244384
_cell_length_c 12.436823
_cell_angle_alpha 90.000000
_cell_angle_beta 90.000000
_cell_angle_gamma 90.000000
_cell_volume 3206.067936
_symmetry_space_group_name_H-M "C M C 21"
_symmetry_group_IT_number 36
_symmetry_cell_setting 'orthorhombic'
loop_
_space_group_symop_operation_xyz
x,y,z
-x,-y,1/2+z
x,-y,1/2+z
-x,y,z
1/2+x,1/2+y,z
1/2-x,1/2-y,1/2+z
1/2+x,1/2-y,1/2+z
1/2-x,1/2+y,z
loop_
_atom_site_type_symbol
_atom_site_label
_atom_site_fract_x
_atom_site_fract_y
_atom_site_fract_z
Si Si1 0.178596 0.369290 0.016920
Si Si2 0.822400 0.437110 0.838193
Si Si3 0.822032 0.027854 0.903629
Si Si4 0.321831 0.777185 0.110961
Si Si5 0.668435 0.082550 0.725098
Si Si6 0.676543 0.679803 0.044728
Si Si7 0.679064 0.085220 0.097538
Si Si8 0.167154 0.679185 0.831066
O O1 0.245232 0.317705 0.033087
O O2 0.240488 0.404237 0.109049
O O3 0.000000 0.366101 0.040319
O O4 0.215611 0.389005 0.898783
O O5 0.731052 0.475500 0.903219
O O6 0.771437 0.434128 0.714119
O O7 0.000000 0.448046 0.847877
O O8 0.776378 0.047450 0.787041
O O9 0.000000 0.031259 0.918652
O O10 0.749124 0.054618 0.003523
O O11 0.500000 0.773801 0.090119
O O12 0.252517 0.727149 0.089973
O O13 0.282285 0.788949 0.233127
O O14 0.500000 0.060260 0.712724
O O15 0.654753 0.127141 0.797004
O O16 0.500000 0.673223 0.071198
O O17 0.767373 0.637477 0.093644
O O18 0.700547 0.683076 0.917526
O O19 0.500000 0.084289 0.083274
O O20 0.000000 0.694149 0.874506
#
# Coordination Sequence:
#
# PCOD8176103 Si02
#       8
#     8   8   8   8   8   8   8   8
#     4   8  16  35  61  87 114 150 199 248 290 343
#     4  10  23  41  63  88 116 157 206 249 292 353
#     4  12  25  39  59  87 121 153 191 247 308 361
#     4   8  17  33  55  85 118 155 197 241 298 356
#     4   9  17  33  60  85 108 145 195 245 289 348
#     4  11  21  34  57  88 122 155 193 251 309 351
#     4  11  24  42  62  86 120 161 207 246 289 361
#     4   9  17  33  55  78 109 152 198 241 287 353
#
# _framework density 19.962146000000001
#
# number of rings (size 3 to 8) (size 9 to 14) (size 15 to 20)
#    0.000    2.250    1.250    3.375    1.750    2.000 
#    0.000    2.500    0.000    3.750    0.000    0.000 
#    0.000    0.000    0.000    0.000    0.000    0.000 
#
# Total GULP energy -396638.728323 kJ/mol
# GULP energy per Si atom -12394.960260 kJ/mol
# Density = 1.991671 g / cm^3
# Si number density = 19.962146 Si / 1000 Ang^3
#
#
#
# Elastic Constant Matrix: (Units=GPa)
#
#
# Indices 1 2 3 4 5 6 
#
# 1 64.4770 35.9745 32.1528 0.0000 0.0000 0.0000
# 2 35.9745 124.1101 52.1246 0.0000 0.0000 0.0000
# 3 32.1528 52.1246 91.7297 0.0000 0.0000 0.0000
# 4 0.0000 0.0000 0.0000 22.1739 0.0000 0.0000
# 5 0.0000 0.0000 0.0000 0.0000 9.2449 0.0000
# 6 0.0000 0.0000 0.0000 0.0000 0.0000 23.5196
#
#
#
# Elastic Compliance Matrix: (Units=1/GPa)
#
#
# Indices 1 2 3 4 5 6 
#
# 1 0.020044 -0.003756 -0.004892 0.000000 0.000000 0.000000
# 2 -0.003756 0.011287 -0.005097 0.000000 0.000000 0.000000
# 3 -0.004892 -0.005097 0.015513 0.000000 0.000000 0.000000
# 4 0.000000 0.000000 0.000000 0.045098 0.000000 0.000000
# 5 0.000000 0.000000 0.000000 0.000000 0.108167 0.000000
# 6 0.000000 0.000000 0.000000 0.000000 0.000000 0.042518
#
#
# Mechanical properties :
#
#
# Convention : Reuss Voigt Hill
#
# Bulk Modulus (GPa) = 51.66742 57.86899 54.76821
# Shear Modulus (GPa) = 18.07879 21.65868 19.86873
#
# Velocity S-wave (km/s) = 3.01267 3.29749 3.15829
# Velocity P-wave (km/s) = 6.16770 6.59926 6.38712
#
# Compressibility (1/GPa) = 0.01935456
#
# Stress axis : x y z
#
# Youngs Moduli (GPa) = 49.88981 88.59996 64.46341
#
# Poissons Ratio (x) = 0.33274 0.31534
# Poissons Ratio (y) = 0.18736 0.32858
# Poissons Ratio (z) = 0.24405 0.45161
#
# Static dielectric constant tensor:
#      x y z
#    x 3.344990 0.000000 0.000000 
#    y 0.000000 3.839890 0.000000 
#    z 0.000000 0.000000 3.750790 
# 
# 
# High freq. dielectric constant tensor:
#      x y z
#    x 1.744170 0.000000 0.000000 
#    y 0.000000 1.785300 0.000000 
#    z 0.000000 0.000000 1.779910 
# 
# From -- ./inp_files/7230.got.cif
#   From: 2010.03.12/outbox.cif.g09.slc.cpg/sg36_4_cif.got.tgz:7230.got - 2010.04.14 02:13:53.
