data_PCOD8176676
_publ_section_title
;
Structure prediction by ZEFSAII (Michael W. Deem and Ramdas Pophale) SiO2 
 PCOD8176676
Probable space group: C C C 2
;
_chemical_formula_sum "Si O2"
_cell_formula_units_Z 60
_cell_length_a 14.701510
_cell_length_b 24.861757
_cell_length_c 8.416642
_cell_angle_alpha 90.000000
_cell_angle_beta 90.000000
_cell_angle_gamma 90.000000
_cell_volume 3076.327841
_symmetry_space_group_name_H-M "C C C 2"
_symmetry_group_IT_number 37
_symmetry_cell_setting 'orthorhombic'
loop_
_space_group_symop_operation_xyz
x,y,z
-x,-y,z
-x,y,1/2+z
x,-y,1/2+z
1/2+x,1/2+y,z
1/2-x,1/2-y,z
1/2-x,1/2+y,1/2+z
1/2+x,1/2-y,1/2+z
loop_
_atom_site_type_symbol
_atom_site_label
_atom_site_fract_x
_atom_site_fract_y
_atom_site_fract_z
Si Si1 0.750000 0.250000 0.205971
Si Si2 0.093113 0.063506 0.795218
Si Si3 0.590968 0.279539 0.984959
Si Si4 0.919293 0.100825 0.957326
Si Si5 0.771216 0.566456 0.956257
Si Si6 0.283964 0.468079 0.286773
Si Si7 0.960450 0.285702 0.694723
Si Si8 0.622211 0.168992 0.387078
O O1 0.701282 0.207052 0.319487
O O2 0.681612 0.281449 0.090029
O O3 0.077949 0.101852 0.646655
O O4 0.171195 0.088774 0.908151
O O5 0.999562 0.062406 0.893156
O O6 0.127623 0.004393 0.733126
O O7 0.569400 0.337296 0.906707
O O8 0.600515 0.238264 0.837310
O O9 0.508271 0.262400 0.098651
O O10 0.821529 0.078863 0.900045
O O11 0.786534 0.507023 0.880144
O O12 0.847119 0.606842 0.890309
O O13 0.771448 0.559909 0.145790
O O14 0.896965 0.317035 0.571131
O O15 0.034597 0.326086 0.773097
#
# Coordination Sequence:
#
# PCOD8176676 Si02
#       8
#     4   8   8   8   8   8   8   8
#     4  10  22  36  58  90 126 150 198 256 298 356
#     4  10  21  33  50  82 117 159 198 239 273 355
#     4  10  21  36  56  88 118 157 196 250 295 362
#     4  12  20  33  55  77 122 165 197 227 296 354
#     4  10  21  38  58  81 111 152 196 244 303 339
#     4  10  21  36  51  82 115 150 198 246 282 355
#     4   9  21  41  60  86 121 152 207 250 296 361
#     4  10  21  41  66  85 118 160 196 251 309 359
#
# _framework density 19.503774
#
# number of rings (size 3 to 8) (size 9 to 14) (size 15 to 20)
#    0.800    1.067    1.333    2.800    0.000    5.867 
#    0.000    4.000    0.000    2.400    0.000    0.000 
#    0.000    0.000    0.000    0.000    0.000    0.000 
#
# Total GULP energy -371858.424181 kJ/mol
# GULP energy per Si atom -12395.280806 kJ/mol
# Density = 1.945938 g / cm^3
# Si number density = 19.503774 Si / 1000 Ang^3
#
#
#
# Elastic Constant Matrix: (Units=GPa)
#
#
# Indices 1 2 3 4 5 6 
#
# 1 59.3776 36.4767 34.7897 0.0000 0.0000 0.0000
# 2 36.4767 100.0499 32.9323 0.0000 0.0000 0.0000
# 3 34.7897 32.9323 118.7118 0.0000 0.0000 0.0000
# 4 0.0000 0.0000 0.0000 25.5265 0.0000 0.0000
# 5 0.0000 0.0000 0.0000 0.0000 29.2767 0.0000
# 6 0.0000 0.0000 0.0000 0.0000 0.0000 26.3368
#
#
#
# Elastic Compliance Matrix: (Units=1/GPa)
#
#
# Indices 1 2 3 4 5 6 
#
# 1 0.024233 -0.007150 -0.005118 0.000000 0.000000 0.000000
# 2 -0.007150 0.013109 -0.001541 0.000000 0.000000 0.000000
# 3 -0.005118 -0.001541 0.010351 0.000000 0.000000 0.000000
# 4 0.000000 0.000000 0.000000 0.039175 0.000000 0.000000
# 5 0.000000 0.000000 0.000000 0.000000 0.034157 0.000000
# 6 0.000000 0.000000 0.000000 0.000000 0.000000 0.037970
#
#
# Mechanical properties :
#
#
# Convention : Reuss Voigt Hill
#
# Bulk Modulus (GPa) = 49.81562 54.05965 51.93764
# Shear Modulus (GPa) = 25.86592 27.82405 26.84498
#
# Velocity S-wave (km/s) = 3.64565 3.78113 3.71401
# Velocity P-wave (km/s) = 6.58164 6.84400 6.71410
#
# Compressibility (1/GPa) = 0.02007403
#
# Stress axis : x y z
#
# Youngs Moduli (GPa) = 41.26688 76.28255 96.60703
#
# Poissons Ratio (x) = 0.54543 0.49444
# Poissons Ratio (y) = 0.29506 0.14889
# Poissons Ratio (z) = 0.21121 0.11757
#
# Static dielectric constant tensor:
#      x y z
#    x 3.285710 0.000000 0.000000 
#    y 0.000000 3.287500 0.000000 
#    z 0.000000 0.000000 3.580170 
# 
# 
# High freq. dielectric constant tensor:
#      x y z
#    x 1.726070 0.000000 0.000000 
#    y 0.000000 1.746580 0.000000 
#    z 0.000000 0.000000 1.772790 
# 
# From -- ./inp_files/3736.got.cif
#   From: 2010.03.12/outbox.cif.g09.slc.cpg/sg37_2_cif.got.tgz:3736.got - 2010.04.14 02:25:27.
