data_PCOD8176863
_publ_section_title
;
Structure prediction by ZEFSAII (Michael W. Deem and Ramdas Pophale) SiO2 
 PCOD8176863
Probable space group: C C C 2
;
_chemical_formula_sum "Si O2"
_cell_formula_units_Z 44
_cell_length_a 24.635285
_cell_length_b 10.191973
_cell_length_c 8.672904
_cell_angle_alpha 90.000000
_cell_angle_beta 90.000000
_cell_angle_gamma 90.000000
_cell_volume 2177.611466
_symmetry_space_group_name_H-M "C C C 2"
_symmetry_group_IT_number 37
_symmetry_cell_setting 'orthorhombic'
loop_
_space_group_symop_operation_xyz
x,y,z
-x,-y,z
-x,y,1/2+z
x,-y,1/2+z
1/2+x,1/2+y,z
1/2-x,1/2-y,z
1/2-x,1/2+y,1/2+z
1/2+x,1/2-y,1/2+z
loop_
_atom_site_type_symbol
_atom_site_label
_atom_site_fract_x
_atom_site_fract_y
_atom_site_fract_z
Si Si1 0.795398 0.144666 0.933370
Si Si2 0.793410 0.133579 0.571522
Si Si3 0.017451 0.686047 0.525552
Si Si4 0.908498 0.831521 0.560693
Si Si5 0.000000 0.500000 0.775847
Si Si6 0.905669 0.108539 0.419254
O O1 0.750000 0.250000 0.960099
O O2 0.807137 0.120892 0.752438
O O3 0.847382 0.210556 0.017841
O O4 0.774267 0.009196 0.011044
O O5 0.750000 0.250000 0.539156
O O6 0.847950 0.163912 0.476203
O O7 0.036012 0.595814 0.381597
O O8 0.049447 0.820030 0.522724
O O9 0.952596 0.718198 0.523461
O O10 0.035511 0.598607 0.671587
O O11 0.913376 0.868206 0.739209
O O12 0.917265 0.957316 0.451942
#
# Coordination Sequence:
#
# PCOD8176863 Si02
#       6
#     8   8   8   8   4   8
#     4  10  22  41  62  90 120 157 201 250 299 356
#     4  10  22  41  62  90 120 157 201 250 299 356
#     4  11  23  42  60  88 121 161 196 242 300 355
#     4  11  23  38  64  90 118 155 201 251 297 350
#     4  10  24  42  58  82 132 158 196 240 288 368
#     4  11  23  38  64  90 118 155 201 251 297 350
#
# _framework density 20.205624
#
# number of rings (size 3 to 8) (size 9 to 14) (size 15 to 20)
#    0.000    1.455    1.818    4.909    5.091    4.364 
#    6.545    0.000    0.000    0.000    0.000    0.000 
#    0.000    0.000    0.000    0.000    0.000    0.000 
#
# Total GULP energy -272600.963090 kJ/mol
# GULP energy per Si atom -12390.952868 kJ/mol
# Density = 2.015964 g / cm^3
# Si number density = 20.205624 Si / 1000 Ang^3
#
#
#
# Elastic Constant Matrix: (Units=GPa)
#
#
# Indices 1 2 3 4 5 6 
#
# 1 87.6175 61.6460 29.4389 0.0000 0.0000 0.0000
# 2 61.6460 83.8597 37.0462 0.0000 0.0000 0.0000
# 3 29.4389 37.0462 121.6296 0.0000 0.0000 0.0000
# 4 0.0000 0.0000 0.0000 -10.9631 0.0000 0.0000
# 5 0.0000 0.0000 0.0000 0.0000 22.6594 0.0000
# 6 0.0000 0.0000 0.0000 0.0000 0.0000 25.6708
#
#
#
# Elastic Compliance Matrix: (Units=1/GPa)
#
#
# Indices 1 2 3 4 5 6 
#
# 1 0.023666 -0.017178 -0.000496 0.000000 0.000000 0.000000
# 2 -0.017178 0.026247 -0.003837 0.000000 0.000000 0.000000
# 3 -0.000496 -0.003837 0.009510 0.000000 0.000000 0.000000
# 4 0.000000 0.000000 0.000000 -0.091215 0.000000 0.000000
# 5 0.000000 0.000000 0.000000 0.000000 0.044132 0.000000
# 6 0.000000 0.000000 0.000000 0.000000 0.000000 0.038955
#
#
# Mechanical properties :
#
#
# Convention : Reuss Voigt Hill
#
# Bulk Modulus (GPa) = 60.96720 61.04100 61.00410
# Shear Modulus (GPa) = 50.10835 18.47181 34.29008
#
# Velocity S-wave (km/s) = 4.98528 3.02684 4.12400
# Velocity P-wave (km/s) = 7.96092 6.51853 7.27556
#
# Compressibility (1/GPa) = 0.01640226
#
# Stress axis : x y z
#
# Youngs Moduli (GPa) = 42.25475 38.09912 105.14886
#
# Poissons Ratio (x) = 0.65447 0.05215
# Poissons Ratio (y) = 0.72585 0.40343
# Poissons Ratio (z) = 0.02096 0.14618
#
# Static dielectric constant tensor:
#      x y z
#    x 3.652410 0.000000 0.000000 
#    y 0.000000 3.830360 0.000000 
#    z 0.000000 0.000000 4.026450 
# 
# 
# High freq. dielectric constant tensor:
#      x y z
#    x 1.766800 0.000000 0.000000 
#    y 0.000000 1.796910 0.000000 
#    z 0.000000 0.000000 1.814500 
# 
# From -- ./inp_files/4573.got.cif
#   From: 2010.03.12/outbox.cif.g09.slc.cpg/sg37_3_cif.got.tgz:4573.got - 2010.04.14 02:25:27.
