data_PCOD8176903
_publ_section_title
;
Structure prediction by ZEFSAII (Michael W. Deem and Ramdas Pophale) SiO2 
 PCOD8176903
Probable space group: C C C 2
;
_chemical_formula_sum "Si O2"
_cell_formula_units_Z 32
_cell_length_a 10.346111
_cell_length_b 12.947712
_cell_length_c 9.665134
_cell_angle_alpha 90.000000
_cell_angle_beta 90.000000
_cell_angle_gamma 90.000000
_cell_volume 1294.726520
_symmetry_space_group_name_H-M "C C C 2"
_symmetry_group_IT_number 37
_symmetry_cell_setting 'orthorhombic'
loop_
_space_group_symop_operation_xyz
x,y,z
-x,-y,z
-x,y,1/2+z
x,-y,1/2+z
1/2+x,1/2+y,z
1/2-x,1/2-y,z
1/2-x,1/2+y,1/2+z
1/2+x,1/2-y,1/2+z
loop_
_atom_site_type_symbol
_atom_site_label
_atom_site_fract_x
_atom_site_fract_y
_atom_site_fract_z
Si Si1 0.018831 0.747748 0.542300
Si Si2 0.020119 0.121695 0.774529
Si Si3 0.292479 0.897904 0.147288
Si Si4 0.367341 0.949387 0.442739
O O1 0.073917 0.813898 0.672002
O O2 0.884984 0.689375 0.581807
O O3 0.994101 0.832769 0.424593
O O4 0.130793 0.669814 0.491831
O O5 0.161071 0.148894 0.710008
O O6 0.000000 0.000000 0.776084
O O7 0.356385 0.957441 0.277914
O O8 0.260219 0.984089 0.027583
O O9 0.500000 0.000000 0.492618
#
# Coordination Sequence:
#
# PCOD8176903 Si02
#       4
#     8   8   8   8
#     4  11  24  47  74 102 148 197 253 312 373 464
#     4  12  28  48  69 108 157 198 247 318 383 458
#     4  11  25  46  76 107 146 192 252 313 384 447
#     4  10  22  43  75 107 139 190 249 314 367 452
#
# _framework density 24.715644999999999
#
# number of rings (size 3 to 8) (size 9 to 14) (size 15 to 20)
#    0.000    1.000    2.500    3.750   10.500    0.000 
#    0.000    0.000    0.000    0.000    0.000    0.000 
#    0.000    0.000    0.000    0.000    0.000    0.000 
#
# Total GULP energy -198251.179927 kJ/mol
# GULP energy per Si atom -12390.698745 kJ/mol
# Density = 2.465939 g / cm^3
# Si number density = 24.715645 Si / 1000 Ang^3
#
#
#
# Elastic Constant Matrix: (Units=GPa)
#
#
# Indices 1 2 3 4 5 6 
#
# 1 43.6512 8.8907 10.9885 0.0000 0.0000 0.0000
# 2 8.8907 162.0395 62.6572 0.0000 0.0000 0.0000
# 3 10.9885 62.6572 136.8564 0.0000 0.0000 0.0000
# 4 0.0000 0.0000 0.0000 72.2366 0.0000 0.0000
# 5 0.0000 0.0000 0.0000 0.0000 28.5414 0.0000
# 6 0.0000 0.0000 0.0000 0.0000 0.0000 30.0902
#
#
#
# Elastic Compliance Matrix: (Units=1/GPa)
#
#
# Indices 1 2 3 4 5 6 
#
# 1 0.023443 -0.000679 -0.001572 0.000000 0.000000 0.000000
# 2 -0.000679 0.007519 -0.003388 0.000000 0.000000 0.000000
# 3 -0.001572 -0.003388 0.008984 0.000000 0.000000 0.000000
# 4 0.000000 0.000000 0.000000 0.013843 0.000000 0.000000
# 5 0.000000 0.000000 0.000000 0.000000 0.035037 0.000000
# 6 0.000000 0.000000 0.000000 0.000000 0.000000 0.033233
#
#
# Mechanical properties :
#
#
# Convention : Reuss Voigt Hill
#
# Bulk Modulus (GPa) = 34.88017 56.40223 45.64120
# Shear Modulus (GPa) = 34.99164 43.50770 39.24967
#
# Velocity S-wave (km/s) = 3.76675 4.20018 3.98936
# Velocity P-wave (km/s) = 5.74988 6.81117 6.30290
#
# Compressibility (1/GPa) = 0.02866959
#
# Stress axis : x y z
#
# Youngs Moduli (GPa) = 42.65720 133.00468 111.30737
#
# Poissons Ratio (x) = 0.09025 0.17493
# Poissons Ratio (y) = 0.02894 0.37708
# Poissons Ratio (z) = 0.06704 0.45059
#
# Static dielectric constant tensor:
#      x y z
#    x 4.178370 0.000000 0.000000 
#    y 0.000000 4.866500 0.000000 
#    z 0.000000 0.000000 4.802660 
# 
# 
# High freq. dielectric constant tensor:
#      x y z
#    x 1.943910 0.000000 0.000000 
#    y 0.000000 2.012120 0.000000 
#    z 0.000000 0.000000 2.004000 
# 
# From -- ./inp_files/2578.got.cif
#   From: 2010.03.12/outbox.cif.g09.slc.cpg/sg37_2_cif.got.tgz:2578.got - 2010.04.14 02:25:27.
