data_PCOD8176512
_publ_section_title
;
Structure prediction by ZEFSAII (Michael W. Deem and Ramdas Pophale) SiO2 
 PCOD8176512
Probable space group: C C C 2
;
_chemical_formula_sum "Si O2"
_cell_formula_units_Z 64
_cell_length_a 10.822978
_cell_length_b 15.772475
_cell_length_c 18.256265
_cell_angle_alpha 90.000000
_cell_angle_beta 90.000000
_cell_angle_gamma 90.000000
_cell_volume 3116.438454
_symmetry_space_group_name_H-M "C C C 2"
_symmetry_group_IT_number 37
_symmetry_cell_setting 'orthorhombic'
loop_
_space_group_symop_operation_xyz
x,y,z
-x,-y,z
-x,y,1/2+z
x,-y,1/2+z
1/2+x,1/2+y,z
1/2-x,1/2-y,z
1/2-x,1/2+y,1/2+z
1/2+x,1/2-y,1/2+z
loop_
_atom_site_type_symbol
_atom_site_label
_atom_site_fract_x
_atom_site_fract_y
_atom_site_fract_z
Si Si1 0.780560 0.381510 0.622570
Si Si2 0.040073 0.237853 0.287704
Si Si3 0.773323 0.371932 0.784797
Si Si4 0.633839 0.042365 0.055626
Si Si5 0.553924 0.635449 0.918003
Si Si6 0.424149 0.274409 0.064379
Si Si7 0.197770 0.034929 0.420125
Si Si8 0.621561 0.211313 0.150676
O O1 0.826520 0.397467 0.705513
O O2 0.772207 0.472987 0.586668
O O3 0.645316 0.340601 0.616766
O O4 0.875101 0.320970 0.578396
O O5 0.124992 0.311538 0.324483
O O6 0.142216 0.170016 0.262579
O O7 0.946684 0.191088 0.343724
O O8 0.966834 0.282173 0.221392
O O9 0.751526 0.450499 0.838660
O O10 0.630068 0.117974 0.114891
O O11 0.500000 0.000000 0.044299
O O12 0.696414 0.064169 0.977420
O O13 0.420768 0.594388 0.933693
O O14 0.660055 0.563861 0.919557
O O15 0.589418 0.702675 0.980006
O O16 0.567280 0.273948 0.088096
O O17 0.750000 0.250000 0.175698
#
# Coordination Sequence:
#
# PCOD8176512 Si02
#       8
#     8   8   8   8   8   8   8   8
#     4  11  21  40  71  91 120 177 226 262 320 400
#     4  10  20  40  63  93 122 170 219 272 321 392
#     4  10  19  40  69  90 122 168 226 265 326 393
#     4  12  24  43  64  97 139 170 220 277 332 392
#     4  10  22  40  66  93 134 168 222 276 322 389
#     4  11  20  41  67  92 124 170 228 264 317 393
#     4  10  23  41  62  99 132 173 216 271 335 391
#     4  12  25  41  63  98 135 169 219 278 328 386
#
# _framework density 20.536263000000002
#
# number of rings (size 3 to 8) (size 9 to 14) (size 15 to 20)
#    0.000    1.250    5.000    1.500    1.750    1.000 
#    2.250    4.375    0.000    0.000    0.000    0.000 
#    0.000    0.000    0.000    0.000    0.000    0.000 
#
# Total GULP energy -396497.028810 kJ/mol
# GULP energy per Si atom -12390.532150 kJ/mol
# Density = 2.048952 g / cm^3
# Si number density = 20.536263 Si / 1000 Ang^3
#
#
#
# Elastic Constant Matrix: (Units=GPa)
#
#
# Indices 1 2 3 4 5 6 
#
# 1 80.6931 40.8753 32.3137 0.0000 0.0000 0.0000
# 2 40.8753 99.7832 70.5420 0.0000 0.0000 0.0000
# 3 32.3137 70.5420 139.4994 0.0000 0.0000 0.0000
# 4 0.0000 0.0000 0.0000 34.6043 0.0000 0.0000
# 5 0.0000 0.0000 0.0000 0.0000 34.9986 0.0000
# 6 0.0000 0.0000 0.0000 0.0000 0.0000 24.8522
#
#
#
# Elastic Compliance Matrix: (Units=1/GPa)
#
#
# Indices 1 2 3 4 5 6 
#
# 1 0.015669 -0.005997 -0.000597 0.000000 0.000000 0.000000
# 2 -0.005997 0.017893 -0.007659 0.000000 0.000000 0.000000
# 3 -0.000597 -0.007659 0.011180 0.000000 0.000000 0.000000
# 4 0.000000 0.000000 0.000000 0.028898 0.000000 0.000000
# 5 0.000000 0.000000 0.000000 0.000000 0.028573 0.000000
# 6 0.000000 0.000000 0.000000 0.000000 0.000000 0.040238
#
#
# Mechanical properties :
#
#
# Convention : Reuss Voigt Hill
#
# Bulk Modulus (GPa) = 61.59041 67.49305 64.54173
# Shear Modulus (GPa) = 28.34981 30.64068 29.49525
#
# Velocity S-wave (km/s) = 3.71951 3.86687 3.79390
# Velocity P-wave (km/s) = 6.96437 7.27142 7.11955
#
# Compressibility (1/GPa) = 0.01623629
#
# Stress axis : x y z
#
# Youngs Moduli (GPa) = 63.81866 55.88891 89.44702
#
# Poissons Ratio (x) = 0.33514 0.05343
# Poissons Ratio (y) = 0.38269 0.68507
# Poissons Ratio (z) = 0.03812 0.42805
#
# Static dielectric constant tensor:
#      x y z
#    x 3.913040 0.000000 0.000000 
#    y 0.000000 3.675950 0.000000 
#    z 0.000000 0.000000 3.767480 
# 
# 
# High freq. dielectric constant tensor:
#      x y z
#    x 1.803750 0.000000 0.000000 
#    y 0.000000 1.794050 0.000000 
#    z 0.000000 0.000000 1.802550 
# 
# From -- ./inp_files/15083.got.cif
#   From: 2010.03.12/outbox.cif.g09.slc.cpg/sg37_8_cif.got.tgz:15083.got - 2010.04.14 02:25:27.
