data_PCOD8176240
_publ_section_title
;
Structure prediction by ZEFSAII (Michael W. Deem and Ramdas Pophale) SiO2 
 PCOD8176240
Probable space group: C M C 21
;
_chemical_formula_sum "Si O2"
_cell_formula_units_Z 40
_cell_length_a 10.929960
_cell_length_b 18.656746
_cell_length_c 9.289800
_cell_angle_alpha 90.000000
_cell_angle_beta 90.000000
_cell_angle_gamma 90.000000
_cell_volume 1894.352675
_symmetry_space_group_name_H-M "C M C 21"
_symmetry_group_IT_number 36
_symmetry_cell_setting 'orthorhombic'
loop_
_space_group_symop_operation_xyz
x,y,z
-x,-y,1/2+z
x,-y,1/2+z
-x,y,z
1/2+x,1/2+y,z
1/2-x,1/2-y,1/2+z
1/2+x,1/2-y,1/2+z
1/2-x,1/2+y,z
loop_
_atom_site_type_symbol
_atom_site_label
_atom_site_fract_x
_atom_site_fract_y
_atom_site_fract_z
Si Si1 0.764293 0.580626 0.862340
Si Si2 0.354929 0.770586 0.469525
Si Si3 0.242405 0.831847 0.742976
Si Si4 0.000000 0.092248 0.182322
Si Si5 0.500000 0.538507 0.878568
Si Si6 0.639794 0.968279 0.655070
O O1 0.820890 0.659033 0.878466
O O2 0.620200 0.580895 0.822627
O O3 0.837070 0.543137 0.733074
O O4 0.780261 0.536379 0.010512
O O5 0.500000 0.757213 0.464875
O O6 0.309468 0.776989 0.633729
O O7 0.283071 0.704452 0.396615
O O8 0.115448 0.855557 0.670373
O O9 0.325433 0.902818 0.763294
O O10 0.000000 0.036221 0.051335
O O11 0.000000 0.044177 0.326651
O O12 0.500000 0.960614 0.608632
#
# Coordination Sequence:
#
# PCOD8176240 Si02
#       6
#     8   8   8   4   4   8
#     4  11  22  39  64  90 123 162 207 262 321 378
#     4  11  24  44  65  93 131 174 218 272 330 400
#     4  11  23  44  64  91 132 171 215 274 329 387
#     4  12  22  44  68  96 134 165 215 280 330 397
#     4  12  20  42  68  96 132 163 217 274 332 387
#     4  11  22  40  63  90 123 161 210 262 318 387
#
# _framework density 21.115392
#
# number of rings (size 3 to 8) (size 9 to 14) (size 15 to 20)
#    0.000    0.800    7.000    3.600    0.000    1.600 
#   10.800    2.000    0.000    0.000    0.000    0.000 
#    0.000    0.000    0.000    0.000    0.000    0.000 
#
# Total GULP energy -248025.307513 kJ/mol
# GULP energy per Si atom -12401.265376 kJ/mol
# Density = 2.106733 g / cm^3
# Si number density = 21.115392 Si / 1000 Ang^3
#
#
#
# Elastic Constant Matrix: (Units=GPa)
#
#
# Indices 1 2 3 4 5 6 
#
# 1 127.2693 3.4530 5.8488 0.0000 0.0000 0.0000
# 2 3.4530 24.2110 11.1418 0.0000 0.0000 0.0000
# 3 5.8488 11.1418 40.3490 0.0000 0.0000 0.0000
# 4 0.0000 0.0000 0.0000 43.9175 0.0000 0.0000
# 5 0.0000 0.0000 0.0000 0.0000 28.8620 0.0000
# 6 0.0000 0.0000 0.0000 0.0000 0.0000 33.5674
#
#
#
# Elastic Compliance Matrix: (Units=1/GPa)
#
#
# Indices 1 2 3 4 5 6 
#
# 1 0.007920 -0.000689 -0.000958 0.000000 0.000000 0.000000
# 2 -0.000689 0.047376 -0.012982 0.000000 0.000000 0.000000
# 3 -0.000958 -0.012982 0.028508 0.000000 0.000000 0.000000
# 4 0.000000 0.000000 0.000000 0.022770 0.000000 0.000000
# 5 0.000000 0.000000 0.000000 0.000000 0.034648 0.000000
# 6 0.000000 0.000000 0.000000 0.000000 0.000000 0.029791
#
#
# Mechanical properties :
#
#
# Convention : Reuss Voigt Hill
#
# Bulk Modulus (GPa) = 18.33326 25.85738 22.09532
# Shear Modulus (GPa) = 22.88830 32.69508 27.79169
#
# Velocity S-wave (km/s) = 3.29593 3.93924 3.63186
# Velocity P-wave (km/s) = 4.81513 5.74130 5.29849
#
# Compressibility (1/GPa) = 0.05454569
#
# Stress axis : x y z
#
# Youngs Moduli (GPa) = 126.26164 21.10764 35.07847
#
# Poissons Ratio (x) = 0.01454 0.03360
# Poissons Ratio (y) = 0.08697 0.45540
# Poissons Ratio (z) = 0.12094 0.27403
#
# Static dielectric constant tensor:
#      x y z
#    x 4.037110 0.000000 0.000000 
#    y 0.000000 3.701970 0.000000 
#    z 0.000000 0.000000 3.644310 
# 
# 
# High freq. dielectric constant tensor:
#      x y z
#    x 1.848910 0.000000 0.000000 
#    y 0.000000 1.812260 0.000000 
#    z 0.000000 0.000000 1.812300 
# 
# From -- ./inp_files/3100.got.cif
#   From: 2010.03.12/outbox.cif.g09.slc.cpg/sg36_2_cif.got.tgz:3100.got - 2010.04.14 02:13:53.
