data_PCOD8176769
_publ_section_title
;
Structure prediction by ZEFSAII (Michael W. Deem and Ramdas Pophale) SiO2 
 PCOD8176769
Probable space group: C C C 2
;
_chemical_formula_sum "Si O2"
_cell_formula_units_Z 64
_cell_length_a 6.662565
_cell_length_b 18.177472
_cell_length_c 26.778127
_cell_angle_alpha 90.000000
_cell_angle_beta 90.000000
_cell_angle_gamma 90.000000
_cell_volume 3243.061170
_symmetry_space_group_name_H-M "C C C 2"
_symmetry_group_IT_number 37
_symmetry_cell_setting 'orthorhombic'
loop_
_space_group_symop_operation_xyz
x,y,z
-x,-y,z
-x,y,1/2+z
x,-y,1/2+z
1/2+x,1/2+y,z
1/2-x,1/2-y,z
1/2-x,1/2+y,1/2+z
1/2+x,1/2-y,1/2+z
loop_
_atom_site_type_symbol
_atom_site_label
_atom_site_fract_x
_atom_site_fract_y
_atom_site_fract_z
Si Si1 0.619203 0.925057 0.523150
Si Si2 0.445099 0.920489 0.280071
Si Si3 0.096485 0.075994 0.850440
Si Si4 0.238594 0.163369 0.043479
Si Si5 0.483181 0.417218 0.464946
Si Si6 0.439305 0.579790 0.110444
Si Si7 0.663526 0.327973 0.784742
Si Si8 0.164706 0.169035 0.706081
O O1 0.467768 0.861304 0.538310
O O2 0.745665 0.899487 0.473568
O O3 0.777243 0.934921 0.567592
O O4 0.500000 0.000000 0.511826
O O5 0.329946 0.925478 0.333673
O O6 0.656767 0.883820 0.287227
O O7 0.311877 0.876842 0.240936
O O8 0.500000 0.000000 0.258262
O O9 0.064247 0.083950 0.909076
O O10 0.997614 0.147517 0.825757
O O11 0.000000 0.000000 0.830503
O O12 0.250000 0.250000 0.051997
O O13 0.133323 0.123775 0.090325
O O14 0.118509 0.141981 0.993556
O O15 0.500000 0.500000 0.487541
O O16 0.500000 0.500000 0.132167
O O17 0.342602 0.628292 0.153617
O O18 0.750000 0.250000 0.800435
O O19 0.556781 0.325972 0.730542
O O20 0.250000 0.250000 0.697475
#
# Coordination Sequence:
#
# PCOD8176769 Si02
#       8
#     8   8   8   8   8   8   8   8
#     4  11  20  42  68  86 126 172 206 253 320 371
#     4  11  23  42  66  90 127 168 210 261 321 378
#     4  10  22  40  64  96 124 159 218 263 308 384
#     4  11  24  42  62  94 128 165 209 266 315 373
#     4  10  21  41  64  93 124 163 214 259 308 381
#     4  11  25  41  64  95 127 164 216 263 310 382
#     4  11  23  44  63  89 128 170 206 263 328 380
#     4  11  26  42  63  94 128 167 215 267 319 382
#
# _framework density 19.734442000000001
#
# number of rings (size 3 to 8) (size 9 to 14) (size 15 to 20)
#    0.000    1.250    5.000    0.750    3.500    4.500 
#    4.500    0.000    0.000    0.000    0.000    0.000 
#    0.000    0.000    0.000    0.000    0.000    0.000 
#
# Total GULP energy -396767.701083 kJ/mol
# GULP energy per Si atom -12398.990659 kJ/mol
# Density = 1.968953 g / cm^3
# Si number density = 19.734442 Si / 1000 Ang^3
#
#
#
# Elastic Constant Matrix: (Units=GPa)
#
#
# Indices 1 2 3 4 5 6 
#
# 1 108.7733 37.3661 29.1843 0.0000 0.0000 0.0000
# 2 37.3661 146.9905 32.8871 0.0000 0.0000 0.0000
# 3 29.1843 32.8871 94.5579 0.0000 0.0000 0.0000
# 4 0.0000 0.0000 0.0000 30.1784 0.0000 0.0000
# 5 0.0000 0.0000 0.0000 0.0000 -0.5483 0.0000
# 6 0.0000 0.0000 0.0000 0.0000 0.0000 40.0573
#
#
#
# Elastic Compliance Matrix: (Units=1/GPa)
#
#
# Indices 1 2 3 4 5 6 
#
# 1 0.010604 -0.002129 -0.002532 0.000000 0.000000 0.000000
# 2 -0.002129 0.007805 -0.002057 0.000000 0.000000 0.000000
# 3 -0.002532 -0.002057 0.012073 0.000000 0.000000 0.000000
# 4 0.000000 0.000000 0.000000 0.033136 0.000000 0.000000
# 5 0.000000 0.000000 0.000000 0.000000 -1.823719 0.000000
# 6 0.000000 0.000000 0.000000 0.000000 0.000000 0.024964
#
#
# Mechanical properties :
#
#
# Convention : Reuss Voigt Hill
#
# Bulk Modulus (GPa) = 58.67178 61.02185 59.84682
# Shear Modulus (GPa) = -2.91372 30.66308 13.87468
#
# Velocity S-wave (km/s) = -1.21642 3.94608 2.65442
# Velocity P-wave (km/s) = 5.27468 7.19380 6.30766
#
# Compressibility (1/GPa) = 0.01704397
#
# Stress axis : x y z
#
# Youngs Moduli (GPa) = 94.30150 128.12799 82.83176
#
# Poissons Ratio (x) = 0.27280 0.20976
# Poissons Ratio (y) = 0.20078 0.17041
# Poissons Ratio (z) = 0.23881 0.26360
#
# Static dielectric constant tensor:
#      x y z
#    x 4.040870 0.000000 0.000000 
#    y 0.000000 3.650670 0.000000 
#    z 0.000000 0.000000 3.447820 
# 
# 
# High freq. dielectric constant tensor:
#      x y z
#    x 1.786520 0.000000 0.000000 
#    y 0.000000 1.777760 0.000000 
#    z 0.000000 0.000000 1.754980 
# 
# From -- ./inp_files/20258.got.cif
#   From: 2010.03.12/outbox.cif.g09.slc.cpg/sg37_11_cif.got.tgz:20258.got - 2010.04.14 02:25:27.
