data_PCOD8176182
_publ_section_title
;
Structure prediction by ZEFSAII (Michael W. Deem and Ramdas Pophale) SiO2 
 PCOD8176182
Probable space group: C M C 21
;
_chemical_formula_sum "Si O2"
_cell_formula_units_Z 64
_cell_length_a 9.016355
_cell_length_b 19.398540
_cell_length_c 22.111178
_cell_angle_alpha 90.000000
_cell_angle_beta 90.000000
_cell_angle_gamma 90.000000
_cell_volume 3867.336199
_symmetry_space_group_name_H-M "C M C 21"
_symmetry_group_IT_number 36
_symmetry_cell_setting 'orthorhombic'
loop_
_space_group_symop_operation_xyz
x,y,z
-x,-y,1/2+z
x,-y,1/2+z
-x,y,z
1/2+x,1/2+y,z
1/2-x,1/2-y,1/2+z
1/2+x,1/2-y,1/2+z
1/2-x,1/2+y,z
loop_
_atom_site_type_symbol
_atom_site_label
_atom_site_fract_x
_atom_site_fract_y
_atom_site_fract_z
Si Si1 0.665315 0.520040 0.378140
Si Si2 0.173041 0.704511 0.571024
Si Si3 0.324363 0.984342 0.574960
Si Si4 0.323841 0.161892 0.032467
Si Si5 0.171430 0.408120 0.975319
Si Si6 0.323696 0.081194 0.802519
Si Si7 0.666495 0.371999 0.412355
Si Si8 0.823783 0.407197 0.166686
O O1 0.500000 0.540273 0.356458
O O2 0.736929 0.585287 0.412800
O O3 0.764082 0.495663 0.320403
O O4 0.660076 0.454486 0.424213
O O5 0.269163 0.773680 0.571683
O O6 0.201598 0.664640 0.507811
O O7 0.229523 0.658471 0.627457
O O8 0.000000 0.722703 0.577663
O O9 0.500000 0.982744 0.576776
O O10 0.265104 0.906466 0.567323
O O11 0.273810 0.030751 0.518759
O O12 0.264503 0.021438 0.636199
O O13 0.500000 0.162604 0.025878
O O14 0.253926 0.165912 0.965682
O O15 0.000000 0.416835 0.958817
O O16 0.500000 0.082613 0.807695
O O17 0.253075 0.138374 0.848097
O O18 0.266153 0.098516 0.735156
O O19 0.500000 0.341036 0.407999
O O20 0.000000 0.408525 0.164967
#
# Coordination Sequence:
#
# PCOD8176182 Si02
#       8
#     8   8   8   8   8   8   8   8
#     4   9  17  26  42  68  95 118 143 189 240 272
#     4   9  19  32  47  68  99 130 156 191 237 284
#     4   8  14  25  44  67  89 113 149 189 223 263
#     4  11  19  29  48  72  97 125 158 196 235 282
#     4   9  15  28  48  67  89 121 153 185 225 273
#     4   9  15  26  47  71  90 115 158 199 231 278
#     4   9  18  29  44  68  95 121 148 190 240 277
#     4   8  15  29  48  69  90 121 159 195 231 275
#
# _framework density 16.548857999999999
#
# number of rings (size 3 to 8) (size 9 to 14) (size 15 to 20)
#    0.750    2.250    1.250    2.625    0.000    0.500 
#    0.000    1.250    0.000    6.000    0.000    5.250 
#    0.000    0.000    0.000    0.000    0.000    0.000 
#
# Total GULP energy -396422.395981 kJ/mol
# GULP energy per Si atom -12388.199874 kJ/mol
# Density = 1.651119 g / cm^3
# Si number density = 16.548858 Si / 1000 Ang^3
#
#
#
# Elastic Constant Matrix: (Units=GPa)
#
#
# Indices 1 2 3 4 5 6 
#
# 1 71.5249 26.1449 36.6528 0.0000 0.0000 0.0000
# 2 26.1449 82.8111 43.1047 0.0000 0.0000 0.0000
# 3 36.6528 43.1047 108.9148 0.0000 0.0000 0.0000
# 4 0.0000 0.0000 0.0000 17.9945 0.0000 0.0000
# 5 0.0000 0.0000 0.0000 0.0000 13.7962 0.0000
# 6 0.0000 0.0000 0.0000 0.0000 0.0000 22.6282
#
#
#
# Elastic Compliance Matrix: (Units=1/GPa)
#
#
# Indices 1 2 3 4 5 6 
#
# 1 0.017504 -0.003098 -0.004664 0.000000 0.000000 0.000000
# 2 -0.003098 0.015757 -0.005193 0.000000 0.000000 0.000000
# 3 -0.004664 -0.005193 0.012807 0.000000 0.000000 0.000000
# 4 0.000000 0.000000 0.000000 0.055572 0.000000 0.000000
# 5 0.000000 0.000000 0.000000 0.000000 0.072483 0.000000
# 6 0.000000 0.000000 0.000000 0.000000 0.000000 0.044193
#
#
# Mechanical properties :
#
#
# Convention : Reuss Voigt Hill
#
# Bulk Modulus (GPa) = 49.61471 52.78395 51.19933
# Shear Modulus (GPa) = 19.92451 21.37368 20.64910
#
# Velocity S-wave (km/s) = 3.47361 3.59771 3.53620
# Velocity P-wave (km/s) = 6.79218 7.01592 6.90496
#
# Compressibility (1/GPa) = 0.02015531
#
# Stress axis : x y z
#
# Youngs Moduli (GPa) = 57.12994 63.46310 78.08517
#
# Poissons Ratio (x) = 0.19664 0.36421
# Poissons Ratio (y) = 0.17701 0.40553
# Poissons Ratio (z) = 0.26647 0.32959
#
# Static dielectric constant tensor:
#      x y z
#    x 2.911150 0.000000 0.000000 
#    y 0.000000 2.961660 0.000000 
#    z 0.000000 0.000000 3.117510 
# 
# 
# High freq. dielectric constant tensor:
#      x y z
#    x 1.624800 0.000000 0.000000 
#    y 0.000000 1.607120 0.000000 
#    z 0.000000 0.000000 1.620320 
# 
# From -- ./inp_files/16714.got.cif
#   From: 2010.03.12/outbox.cif.g09.slc.cpg/sg36_9_cif.got.tgz:16714.got - 2010.04.14 02:13:53.
