data_PCOD8176357
_publ_section_title
;
Structure prediction by ZEFSAII (Michael W. Deem and Ramdas Pophale) SiO2 
 PCOD8176357
Probable space group: C C C 2
;
_chemical_formula_sum "Si O2"
_cell_formula_units_Z 56
_cell_length_a 26.757851
_cell_length_b 17.283295
_cell_length_c 5.347494
_cell_angle_alpha 90.000000
_cell_angle_beta 90.000000
_cell_angle_gamma 90.000000
_cell_volume 2473.022569
_symmetry_space_group_name_H-M "C C C 2"
_symmetry_group_IT_number 37
_symmetry_cell_setting 'orthorhombic'
loop_
_space_group_symop_operation_xyz
x,y,z
-x,-y,z
-x,y,1/2+z
x,-y,1/2+z
1/2+x,1/2+y,z
1/2-x,1/2-y,z
1/2-x,1/2+y,1/2+z
1/2+x,1/2-y,1/2+z
loop_
_atom_site_type_symbol
_atom_site_label
_atom_site_fract_x
_atom_site_fract_y
_atom_site_fract_z
Si Si1 0.209032 0.978749 0.792200
Si Si2 0.303638 0.906294 0.292200
Si Si3 0.944267 0.784019 0.292195
Si Si4 0.944283 0.032330 0.792176
Si Si5 0.943796 0.718967 0.792195
Si Si6 0.084459 0.455770 0.792198
Si Si7 0.269968 0.164276 0.292200
O O1 0.220262 0.888273 0.792199
O O2 0.177889 0.000000 0.542200
O O3 0.260781 0.028322 0.792200
O O4 0.355783 0.950408 0.292199
O O5 0.301323 0.852676 0.539946
O O6 0.301323 0.852675 0.044455
O O7 0.944612 0.875789 0.292204
O O8 0.916527 0.752333 0.542217
O O9 0.999907 0.749938 0.292191
O O10 0.916527 0.752336 0.042170
O O11 0.916909 0.000006 0.542168
O O12 0.000000 0.000000 0.792142
O O13 0.942364 0.626910 0.792200
O O14 0.066538 0.500000 0.542197
O O15 0.250000 0.250000 0.292200
#
# Coordination Sequence:
#
# PCOD8176357 Si02
#       7
#     8   8   8   8   8   8   8
#     4   8  14  25  41  61  89 123 146 172 228 277
#     4  10  19  33  50  70 103 133 155 201 253 288
#     4  10  19  35  49  70 110 138 163 223 286 325
#     4  10  16  25  46  74  98 122 153 195 252 321
#     4  10  20  34  51  69  97 141 177 215 275 326
#     4  12  23  37  54  75  97 135 188 227 256 312
#     4  10  18  29  48  75 102 124 151 191 239 299
#
# _framework density 22.644352000000001
#
# number of rings (size 3 to 8) (size 9 to 14) (size 15 to 20)
#    0.000    2.000    0.000    9.000    0.000    0.000 
#    0.000    8.571    0.000    0.000    0.000    0.000 
#    0.000  130.286    0.000    0.000    0.000    0.000 
#
# Total GULP energy -346958.184054 kJ/mol
# GULP energy per Si atom -12391.363716 kJ/mol
# Density = 2.259281 g / cm^3
# Si number density = 22.644352 Si / 1000 Ang^3
#
#
#
# Elastic Constant Matrix: (Units=GPa)
#
#
# Indices 1 2 3 4 5 6 
#
# 1 26.5455 13.5106 -1.2779 0.0000 0.0000 0.0000
# 2 13.5106 215.8541 96.6940 0.0000 0.0000 0.0000
# 3 -1.2779 96.6940 293.5191 0.0000 0.0000 0.0000
# 4 0.0000 0.0000 0.0000 46.0185 0.0000 0.0000
# 5 0.0000 0.0000 0.0000 0.0000 -8.5025 0.0000
# 6 0.0000 0.0000 0.0000 0.0000 0.0000 17.1409
#
#
#
# Elastic Compliance Matrix: (Units=1/GPa)
#
#
# Indices 1 2 3 4 5 6 
#
# 1 0.039239 -0.002971 0.001150 0.000000 0.000000 0.000000
# 2 -0.002971 0.005660 -0.001877 0.000000 0.000000 0.000000
# 3 0.001150 -0.001877 0.004030 0.000000 0.000000 0.000000
# 4 0.000000 0.000000 0.000000 0.021730 0.000000 0.000000
# 5 0.000000 0.000000 0.000000 0.000000 -0.117613 0.000000
# 6 0.000000 0.000000 0.000000 0.000000 0.000000 0.058340
#
#
# Mechanical properties :
#
#
# Convention : Reuss Voigt Hill
#
# Bulk Modulus (GPa) = 24.07834 83.75244 53.91539
# Shear Modulus (GPa) = 153.24434 39.39752 96.32093
#
# Velocity S-wave (km/s) = 8.23537 4.17566 6.52907
# Velocity P-wave (km/s) = 10.05409 7.76624 8.98330
#
# Compressibility (1/GPa) = 0.04153110
#
# Stress axis : x y z
#
# Youngs Moduli (GPa) = 25.48512 176.68706 248.11339
#
# Poissons Ratio (x) = 0.52493 -0.28522
# Poissons Ratio (y) = 0.07572 0.46581
# Poissons Ratio (z) = -0.02930 0.33172
#
# Static dielectric constant tensor:
#      x y z
#    x 3.320560 0.000000 0.000000 
#    y 0.000000 3.948160 0.000000 
#    z 0.000000 0.000000 7.156940 
# 
# 
# High freq. dielectric constant tensor:
#      x y z
#    x 1.825770 0.000000 0.000000 
#    y 0.000000 1.897580 0.000000 
#    z 0.000000 0.000000 1.944140 
# 
# From -- ./inp_files/1480.got.cif
#   From: 2010.03.12/outbox.cif.g09.slc.cpg/sg37_1_cif.got.tgz:1480.got - 2010.04.14 02:25:27.
