data_PCOD8176974
_publ_section_title
;
Structure prediction by ZEFSAII (Michael W. Deem and Ramdas Pophale) SiO2 
 PCOD8176974
Probable space group: C C C 2
;
_chemical_formula_sum "Si O2"
_cell_formula_units_Z 48
_cell_length_a 11.214557
_cell_length_b 17.932584
_cell_length_c 10.642785
_cell_angle_alpha 90.000000
_cell_angle_beta 90.000000
_cell_angle_gamma 90.000000
_cell_volume 2140.327765
_symmetry_space_group_name_H-M "C C C 2"
_symmetry_group_IT_number 37
_symmetry_cell_setting 'orthorhombic'
loop_
_space_group_symop_operation_xyz
x,y,z
-x,-y,z
-x,y,1/2+z
x,-y,1/2+z
1/2+x,1/2+y,z
1/2-x,1/2-y,z
1/2-x,1/2+y,1/2+z
1/2+x,1/2-y,1/2+z
loop_
_atom_site_type_symbol
_atom_site_label
_atom_site_fract_x
_atom_site_fract_y
_atom_site_fract_z
Si Si1 0.799418 0.100554 0.729090
Si Si2 0.000000 0.500000 0.587442
Si Si3 0.785124 0.443364 0.243283
Si Si4 0.949695 0.861818 0.720251
Si Si5 0.004811 0.228579 0.972314
Si Si6 0.750000 0.750000 0.374121
Si Si7 0.345596 0.125791 0.989251
O O1 0.754547 0.174886 0.794947
O O2 0.762978 0.110850 0.583897
O O3 0.939175 0.083571 0.747503
O O4 0.737376 0.027951 0.790230
O O5 0.093909 0.448480 0.663834
O O6 0.061587 0.558808 0.498451
O O7 0.666769 0.408802 0.175960
O O8 0.796432 0.381378 0.349925
O O9 0.998668 0.818138 0.599422
O O10 0.939583 0.811556 0.847987
O O11 0.093944 0.294879 0.008293
O O12 0.870135 0.257876 0.954499
#
# Coordination Sequence:
#
# PCOD8176974 Si02
#       7
#     8   4   8   8   8   4   8
#     4  10  23  45  66  99 140 187 225 299 360 416
#     4  10  26  40  64 100 138 178 224 298 362 410
#     4  11  25  42  71  99 135 182 241 288 351 433
#     4  11  25  45  69 104 137 185 239 289 352 419
#     4  11  26  42  71 103 141 190 233 292 355 421
#     4  10  24  40  68  98 146 178 236 288 358 422
#     4  11  24  42  69  96 141 182 232 289 352 428
#
# _framework density 22.426469999999998
#
# number of rings (size 3 to 8) (size 9 to 14) (size 15 to 20)
#    0.000    1.333    0.000    4.000   11.667    6.000 
#    0.000    6.667    0.000    0.000    0.000    0.000 
#    0.000    0.000    0.000    0.000    0.000    0.000 
#
# Total GULP energy -297346.625453 kJ/mol
# GULP energy per Si atom -12389.442727 kJ/mol
# Density = 2.237543 g / cm^3
# Si number density = 22.426470 Si / 1000 Ang^3
#
#
#
# Elastic Constant Matrix: (Units=GPa)
#
#
# Indices 1 2 3 4 5 6 
#
# 1 113.6711 22.7474 0.8617 0.0000 0.0000 0.0000
# 2 22.7474 92.4902 19.4846 0.0000 0.0000 0.0000
# 3 0.8617 19.4846 74.8986 0.0000 0.0000 0.0000
# 4 0.0000 0.0000 0.0000 21.1289 0.0000 0.0000
# 5 0.0000 0.0000 0.0000 0.0000 21.9293 0.0000
# 6 0.0000 0.0000 0.0000 0.0000 0.0000 40.5043
#
#
#
# Elastic Compliance Matrix: (Units=1/GPa)
#
#
# Indices 1 2 3 4 5 6 
#
# 1 0.009271 -0.002389 0.000515 0.000000 0.000000 0.000000
# 2 -0.002389 0.012054 -0.003108 0.000000 0.000000 0.000000
# 3 0.000515 -0.003108 0.014154 0.000000 0.000000 0.000000
# 4 0.000000 0.000000 0.000000 0.047329 0.000000 0.000000
# 5 0.000000 0.000000 0.000000 0.000000 0.045601 0.000000
# 6 0.000000 0.000000 0.000000 0.000000 0.000000 0.024689
#
#
# Mechanical properties :
#
#
# Convention : Reuss Voigt Hill
#
# Bulk Modulus (GPa) = 39.19247 40.80527 39.99887
# Shear Modulus (GPa) = 29.14300 32.57692 30.85996
#
# Velocity S-wave (km/s) = 3.60876 3.81545 3.71354
# Velocity P-wave (km/s) = 5.90577 6.13554 6.02175
#
# Compressibility (1/GPa) = 0.02551510
#
# Stress axis : x y z
#
# Youngs Moduli (GPa) = 107.85836 82.95814 70.65094
#
# Poissons Ratio (x) = 0.19816 -0.03637
# Poissons Ratio (y) = 0.25764 0.21961
# Poissons Ratio (z) = -0.05552 0.25787
#
# Static dielectric constant tensor:
#      x y z
#    x 4.461390 0.000000 0.000000 
#    y 0.000000 4.096050 0.000000 
#    z 0.000000 0.000000 3.908340 
# 
# 
# High freq. dielectric constant tensor:
#      x y z
#    x 1.910930 0.000000 0.000000 
#    y 0.000000 1.887950 0.000000 
#    z 0.000000 0.000000 1.872170 
# 
# From -- ./inp_files/7213.got.cif
#   From: 2010.03.12/outbox.cif.g09.slc.cpg/sg37_4_cif.got.tgz:7213.got - 2010.04.14 02:25:27.
