data_PCOD8176650
_publ_section_title
;
Structure prediction by ZEFSAII (Michael W. Deem and Ramdas Pophale) SiO2 
 PCOD8176650
Probable space group: C C C 2
;
_chemical_formula_sum "Si O2"
_cell_formula_units_Z 60
_cell_length_a 27.260973
_cell_length_b 10.169813
_cell_length_c 9.596457
_cell_angle_alpha 90.000000
_cell_angle_beta 90.000000
_cell_angle_gamma 90.000000
_cell_volume 2660.512119
_symmetry_space_group_name_H-M "C C C 2"
_symmetry_group_IT_number 37
_symmetry_cell_setting 'orthorhombic'
loop_
_space_group_symop_operation_xyz
x,y,z
-x,-y,z
-x,y,1/2+z
x,-y,1/2+z
1/2+x,1/2+y,z
1/2-x,1/2-y,z
1/2-x,1/2+y,1/2+z
1/2+x,1/2-y,1/2+z
loop_
_atom_site_type_symbol
_atom_site_label
_atom_site_fract_x
_atom_site_fract_y
_atom_site_fract_z
Si Si1 0.306294 0.774499 0.946610
Si Si2 0.500000 0.500000 0.120229
Si Si3 0.158754 0.998542 0.819129
Si Si4 0.290639 0.414217 0.066107
Si Si5 0.613613 0.052357 0.054853
Si Si6 0.554854 0.631554 0.867518
Si Si7 0.447019 0.932412 0.320475
Si Si8 0.191729 0.377007 0.161336
O O1 0.250000 0.750000 0.001366
O O2 0.333291 0.646514 0.883639
O O3 0.303581 0.887835 0.828174
O O4 0.344619 0.833114 0.059960
O O5 0.476326 0.605004 0.227146
O O6 0.536490 0.575722 0.015972
O O7 0.172580 0.008020 0.655620
O O8 0.105572 0.057754 0.841202
O O9 0.196954 0.088549 0.903865
O O10 0.234917 0.464357 0.090630
O O11 0.297984 0.271507 0.124867
O O12 0.570391 0.086412 0.161964
O O13 0.638908 0.918023 0.105904
O O14 0.589707 0.029277 0.903776
O O15 0.555145 0.788324 0.890474
O O16 0.500000 0.000000 0.322552
#
# Coordination Sequence:
#
# PCOD8176650 Si02
#       8
#     8   4   8   8   8   8   8   8
#     4  11  22  44  68 103 148 196 228 286 369 442
#     4  10  26  48  74  98 144 180 232 308 370 440
#     4  11  22  39  67  97 134 180 228 287 341 426
#     4  10  21  37  66  92 138 178 223 275 344 410
#     4  12  26  45  73 105 140 192 247 302 364 452
#     4  11  26  47  72 106 136 185 242 300 377 438
#     4  12  30  49  74 105 144 192 253 314 380 442
#     4  10  20  42  62  96 138 187 228 274 348 429
#
# _framework density 22.552050999999999
#
# number of rings (size 3 to 8) (size 9 to 14) (size 15 to 20)
#    0.000    1.067    4.000    2.800    7.467    2.133 
#    0.000    0.000    0.000    0.000    0.000    0.000 
#    0.000    0.000    0.000    0.000    0.000    0.000 
#
# Total GULP energy -371736.154304 kJ/mol
# GULP energy per Si atom -12391.205143 kJ/mol
# Density = 2.250072 g / cm^3
# Si number density = 22.552051 Si / 1000 Ang^3
#
#
#
# Elastic Constant Matrix: (Units=GPa)
#
#
# Indices 1 2 3 4 5 6 
#
# 1 143.4706 46.3009 29.8113 0.0000 0.0000 0.0000
# 2 46.3009 62.7058 11.8066 0.0000 0.0000 0.0000
# 3 29.8113 11.8066 93.6670 0.0000 0.0000 0.0000
# 4 0.0000 0.0000 0.0000 13.0513 0.0000 0.0000
# 5 0.0000 0.0000 0.0000 0.0000 -24.7743 0.0000
# 6 0.0000 0.0000 0.0000 0.0000 0.0000 40.3126
#
#
#
# Elastic Compliance Matrix: (Units=1/GPa)
#
#
# Indices 1 2 3 4 5 6 
#
# 1 0.009577 -0.006656 -0.002209 0.000000 0.000000 0.000000
# 2 -0.006656 0.020960 -0.000524 0.000000 0.000000 0.000000
# 3 -0.002209 -0.000524 0.011445 0.000000 0.000000 0.000000
# 4 0.000000 0.000000 0.000000 0.076621 0.000000 0.000000
# 5 0.000000 0.000000 0.000000 0.000000 -0.040364 0.000000
# 6 0.000000 0.000000 0.000000 0.000000 0.000000 0.024806
#
#
# Mechanical properties :
#
#
# Convention : Reuss Voigt Hill
#
# Bulk Modulus (GPa) = 43.09277 52.85345 47.97311
# Shear Modulus (GPa) = 38.59306 19.84625 29.21965
#
# Velocity S-wave (km/s) = 4.14126 2.96973 3.60342
# Velocity P-wave (km/s) = 6.48200 5.93685 6.21540
#
# Compressibility (1/GPa) = 0.02320575
#
# Stress axis : x y z
#
# Youngs Moduli (GPa) = 104.41722 47.70897 87.37257
#
# Poissons Ratio (x) = 0.31753 0.19302
# Poissons Ratio (y) = 0.69495 0.04576
# Poissons Ratio (z) = 0.23067 0.02499
#
# Static dielectric constant tensor:
#      x y z
#    x 4.423660 0.000000 0.000000 
#    y 0.000000 4.331700 0.000000 
#    z 0.000000 0.000000 4.332740 
# 
# 
# High freq. dielectric constant tensor:
#      x y z
#    x 1.897420 0.000000 0.000000 
#    y 0.000000 1.883070 0.000000 
#    z 0.000000 0.000000 1.895040 
# 
# From -- ./inp_files/4816.got.cif
#   From: 2010.03.12/outbox.cif.g09.slc.cpg/sg37_3_cif.got.tgz:4816.got - 2010.04.14 02:25:27.
