data_PCOD8176420
_publ_section_title
;
Structure prediction by ZEFSAII (Michael W. Deem and Ramdas Pophale) SiO2 
 PCOD8176420
Probable space group: C C C 2
;
_chemical_formula_sum "Si O2"
_cell_formula_units_Z 64
_cell_length_a 14.323967
_cell_length_b 8.599134
_cell_length_c 23.003706
_cell_angle_alpha 90.000000
_cell_angle_beta 90.000000
_cell_angle_gamma 90.000000
_cell_volume 2833.451850
_symmetry_space_group_name_H-M "C C C 2"
_symmetry_group_IT_number 37
_symmetry_cell_setting 'orthorhombic'
loop_
_space_group_symop_operation_xyz
x,y,z
-x,-y,z
-x,y,1/2+z
x,-y,1/2+z
1/2+x,1/2+y,z
1/2-x,1/2-y,z
1/2-x,1/2+y,1/2+z
1/2+x,1/2-y,1/2+z
loop_
_atom_site_type_symbol
_atom_site_label
_atom_site_fract_x
_atom_site_fract_y
_atom_site_fract_z
Si Si1 0.344809 0.664196 0.631740
Si Si2 0.028833 0.759950 0.407650
Si Si3 0.991884 0.820207 0.035582
Si Si4 0.441852 0.364368 0.242968
Si Si5 0.348449 0.699988 0.122710
Si Si6 0.632803 0.561518 0.362405
Si Si7 0.077601 0.619270 0.233724
Si Si8 0.186647 0.595304 0.343917
O O1 0.250000 0.750000 0.619386
O O2 0.405783 0.714294 0.577306
O O3 0.384419 0.727412 0.693353
O O4 0.340542 0.479907 0.639577
O O5 0.023025 0.725202 0.476340
O O6 0.091039 0.617753 0.381402
O O7 0.919994 0.780791 0.385229
O O8 0.083815 0.918225 0.394130
O O9 0.082880 0.764462 0.069742
O O10 0.000000 0.000000 0.018658
O O11 0.500000 0.500000 0.209828
O O12 0.380364 0.443116 0.292847
O O13 0.518450 0.247514 0.270807
O O14 0.250000 0.750000 0.097317
O O15 0.372837 0.802714 0.178828
O O16 0.746269 0.543947 0.369927
O O17 0.154411 0.549536 0.278252
O O18 0.000000 0.500000 0.210580
O O19 0.250000 0.750000 0.341864
#
# Coordination Sequence:
#
# PCOD8176420 Si02
#       8
#     8   8   8   8   8   8   8   8
#     4  11  25  40  64 100 132 165 227 280 333 407
#     4  10  18  36  67  95 130 176 224 279 336 397
#     4  10  20  42  65  91 128 176 228 278 329 398
#     4  12  19  40  64  92 133 174 209 280 343 398
#     4  11  25  42  65  92 132 179 221 279 342 409
#     4  10  19  33  64  97 127 165 221 274 337 398
#     4  12  25  40  66  93 139 178 219 276 349 416
#     4  10  21  37  62  99 127 169 225 271 334 419
#
# _framework density 22.587291
#
# number of rings (size 3 to 8) (size 9 to 14) (size 15 to 20)
#    0.000    1.250    6.250    1.500    3.500    1.500 
#    0.000    0.000    2.750    0.000    0.000    0.000 
#    0.000    0.000    0.000    0.000    0.000    0.000 
#
# Total GULP energy -396517.830353 kJ/mol
# GULP energy per Si atom -12391.182199 kJ/mol
# Density = 2.253588 g / cm^3
# Si number density = 22.587291 Si / 1000 Ang^3
#
#
#
# Elastic Constant Matrix: (Units=GPa)
#
#
# Indices 1 2 3 4 5 6 
#
# 1 185.0696 49.2519 76.4036 0.0000 0.0000 0.0000
# 2 49.2519 36.4262 22.8421 0.0000 0.0000 0.0000
# 3 76.4036 22.8421 161.4840 0.0000 0.0000 0.0000
# 4 0.0000 0.0000 0.0000 -0.5322 0.0000 0.0000
# 5 0.0000 0.0000 0.0000 0.0000 10.5366 0.0000
# 6 0.0000 0.0000 0.0000 0.0000 0.0000 43.5645
#
#
#
# Elastic Compliance Matrix: (Units=1/GPa)
#
#
# Indices 1 2 3 4 5 6 
#
# 1 0.009579 -0.011094 -0.002963 0.000000 0.000000 0.000000
# 2 -0.011094 0.042973 -0.000830 0.000000 0.000000 0.000000
# 3 -0.002963 -0.000830 0.007712 0.000000 0.000000 0.000000
# 4 0.000000 0.000000 0.000000 -1.879124 0.000000 0.000000
# 5 0.000000 0.000000 0.000000 0.000000 0.094907 0.000000
# 6 0.000000 0.000000 0.000000 0.000000 0.000000 0.022954
#
#
# Mechanical properties :
#
#
# Convention : Reuss Voigt Hill
#
# Bulk Modulus (GPa) = 32.79672 75.55280 54.17476
# Shear Modulus (GPa) = -3.01012 26.34593 11.66791
#
# Velocity S-wave (km/s) = -1.15566 3.41897 2.27528
# Velocity P-wave (km/s) = 3.57362 7.00769 5.56230
#
# Compressibility (1/GPa) = 0.03049085
#
# Stress axis : x y z
#
# Youngs Moduli (GPa) = 104.39644 23.27054 129.67179
#
# Poissons Ratio (x) = 0.25815 0.38420
# Poissons Ratio (y) = 1.15814 0.10760
# Poissons Ratio (z) = 0.30931 0.01931
#
# Static dielectric constant tensor:
#      x y z
#    x 4.518110 0.000000 0.000000 
#    y 0.000000 3.890700 0.000000 
#    z 0.000000 0.000000 3.813040 
# 
# 
# High freq. dielectric constant tensor:
#      x y z
#    x 1.902910 0.000000 0.000000 
#    y 0.000000 1.862930 0.000000 
#    z 0.000000 0.000000 1.879430 
# 
# From -- ./inp_files/18931.got.cif
#   From: 2010.03.12/outbox.cif.g09.slc.cpg/sg37_10_cif.got.tgz:18931.got - 2010.04.14 02:25:27.
