data_PCOD8176358
_publ_section_title
;
Structure prediction by ZEFSAII (Michael W. Deem and Ramdas Pophale) SiO2 
 PCOD8176358
Probable space group: C C C 2
;
_chemical_formula_sum "Si O2"
_cell_formula_units_Z 56
_cell_length_a 16.435133
_cell_length_b 5.321936
_cell_length_c 31.007797
_cell_angle_alpha 90.000000
_cell_angle_beta 90.000000
_cell_angle_gamma 90.000000
_cell_volume 2712.150483
_symmetry_space_group_name_H-M "C C C 2"
_symmetry_group_IT_number 37
_symmetry_cell_setting 'orthorhombic'
loop_
_space_group_symop_operation_xyz
x,y,z
-x,-y,z
-x,y,1/2+z
x,-y,1/2+z
1/2+x,1/2+y,z
1/2-x,1/2-y,z
1/2-x,1/2+y,1/2+z
1/2+x,1/2-y,1/2+z
loop_
_atom_site_type_symbol
_atom_site_label
_atom_site_fract_x
_atom_site_fract_y
_atom_site_fract_z
Si Si1 0.446817 0.750000 0.656740
Si Si2 0.405885 0.750000 0.925347
Si Si3 0.346000 0.250000 0.520434
Si Si4 0.345540 0.250000 0.071242
Si Si5 0.594065 0.750000 0.251925
Si Si6 0.912849 0.750000 0.787887
Si Si7 0.413200 0.250000 0.889354
O O1 0.500000 0.500000 0.654502
O O2 0.384053 0.750000 0.618007
O O3 0.394452 0.750000 0.700621
O O4 0.500000 0.000000 0.654502
O O5 0.364671 0.500076 0.904468
O O6 0.500750 0.750000 0.913632
O O7 0.364671 0.999924 0.904468
O O8 0.395243 0.750000 0.976269
O O9 0.250000 0.250000 0.510912
O O10 0.373190 0.499203 0.546090
O O11 0.373190 0.000797 0.546090
O O12 0.250000 0.250000 0.077946
O O13 0.635440 0.500524 0.272711
O O14 0.498869 0.750000 0.263685
O O15 0.635440 0.999476 0.272711
O O16 0.927368 0.750000 0.838617
#
# Coordination Sequence:
#
# PCOD8176358 Si02
#       7
#     8   8   8   8   8   8   8
#     4  12  21  37  54  89 117 133 184 242 280 319
#     4  10  18  32  48  75 103 133 168 226 260 309
#     4  10  21  40  59  74  99 145 197 223 260 334
#     4  10  23  42  59  77 108 153 190 220 276 350
#     4  10  16  27  46  72 108 131 172 210 259 310
#     4  10  16  28  46  70 107 150 166 197 264 334
#     4  10  19  30  48  77 115 133 171 208 277 322
#
# _framework density 20.647821
#
# number of rings (size 3 to 8) (size 9 to 14) (size 15 to 20)
#    0.000    1.714    2.857    6.000    0.000    0.000 
#   15.429    0.000    0.000    0.000    0.000   11.000 
#    0.000    0.000    0.000    0.000    0.000    0.000 
#
# Total GULP energy -347062.619496 kJ/mol
# GULP energy per Si atom -12395.093553 kJ/mol
# Density = 2.060083 g / cm^3
# Si number density = 20.647821 Si / 1000 Ang^3
#
#
#
# Elastic Constant Matrix: (Units=GPa)
#
#
# Indices 1 2 3 4 5 6 
#
# 1 13.4693 17.6929 34.8890 0.0000 0.0000 0.0000
# 2 17.6929 256.0565 88.5606 0.0000 0.0000 0.0000
# 3 34.8890 88.5606 215.5346 0.0000 0.0000 0.0000
# 4 0.0000 0.0000 0.0000 43.2668 0.0000 0.0000
# 5 0.0000 0.0000 0.0000 0.0000 -43.5764 0.0000
# 6 0.0000 0.0000 0.0000 0.0000 0.0000 5.0180
#
#
#
# Elastic Compliance Matrix: (Units=1/GPa)
#
#
# Indices 1 2 3 4 5 6 
#
# 1 0.128693 -0.001967 -0.020024 0.000000 0.000000 0.000000
# 2 -0.001967 0.004582 -0.001564 0.000000 0.000000 0.000000
# 3 -0.020024 -0.001564 0.008524 0.000000 0.000000 0.000000
# 4 0.000000 0.000000 0.000000 0.023112 0.000000 0.000000
# 5 0.000000 0.000000 0.000000 0.000000 -0.022948 0.000000
# 6 0.000000 0.000000 0.000000 0.000000 0.000000 0.199282
#
#
# Mechanical properties :
#
#
# Convention : Reuss Voigt Hill
#
# Bulk Modulus (GPa) = 10.56087 85.26063 47.91075
# Shear Modulus (GPa) = 11.90707 23.86954 17.88831
#
# Velocity S-wave (km/s) = 2.40401 3.40374 2.94658
# Velocity P-wave (km/s) = 3.58212 7.53854 5.90175
#
# Compressibility (1/GPa) = 0.09468914
#
# Stress axis : x y z
#
# Youngs Moduli (GPa) = 7.77042 218.22687 117.31983
#
# Poissons Ratio (x) = 0.42925 2.34917
# Poissons Ratio (y) = 0.01528 0.18354
# Poissons Ratio (z) = 0.15559 0.34141
#
# Static dielectric constant tensor:
#      x y z
#    x 2.991120 0.000000 0.000000 
#    y 0.000000 7.936330 0.000000 
#    z 0.000000 0.000000 3.801030 
# 
# 
# High freq. dielectric constant tensor:
#      x y z
#    x 1.728450 0.000000 0.000000 
#    y 0.000000 1.855360 0.000000 
#    z 0.000000 0.000000 1.823170 
# 
# From -- ./inp_files/20536.got.cif
#   From: 2010.03.12/outbox.cif.g09.slc.cpg/sg37_11_cif.got.tgz:20536.got - 2010.04.14 02:25:27.
