data_PCOD8176197
_publ_section_title
;
Structure prediction by ZEFSAII (Michael W. Deem and Ramdas Pophale) SiO2 
 PCOD8176197
Probable space group: C M C 21
;
_chemical_formula_sum "Si O2"
_cell_formula_units_Z 64
_cell_length_a 19.777660
_cell_length_b 11.412048
_cell_length_c 14.470569
_cell_angle_alpha 90.000000
_cell_angle_beta 90.000000
_cell_angle_gamma 90.000000
_cell_volume 3266.059593
_symmetry_space_group_name_H-M "C M C 21"
_symmetry_group_IT_number 36
_symmetry_cell_setting 'orthorhombic'
loop_
_space_group_symop_operation_xyz
x,y,z
-x,-y,1/2+z
x,-y,1/2+z
-x,y,z
1/2+x,1/2+y,z
1/2-x,1/2-y,1/2+z
1/2+x,1/2-y,1/2+z
1/2-x,1/2+y,z
loop_
_atom_site_type_symbol
_atom_site_label
_atom_site_fract_x
_atom_site_fract_y
_atom_site_fract_z
Si Si1 0.200445 0.324776 0.675740
Si Si2 0.806458 0.508519 0.516446
Si Si3 0.663202 0.410487 0.238771
Si Si4 0.658855 0.750353 0.095527
Si Si5 0.656629 0.492843 0.541495
Si Si6 0.808456 0.465959 0.307487
Si Si7 0.422053 0.788006 0.260628
Si Si8 0.421651 0.560937 0.373760
O O1 0.177823 0.402791 0.587679
O O2 0.147507 0.219887 0.698559
O O3 0.273027 0.265091 0.656457
O O4 0.200177 0.404008 0.767142
O O5 0.846510 0.624737 0.545236
O O6 0.728273 0.546862 0.512907
O O7 0.826635 0.467539 0.415155
O O8 0.651150 0.497001 0.152445
O O9 0.738510 0.402612 0.281510
O O10 0.614627 0.455063 0.319675
O O11 0.654968 0.646596 0.019692
O O12 0.592343 0.735095 0.159554
O O13 0.599681 0.558184 0.481687
O O14 0.872431 0.399425 0.264654
O O15 0.500000 0.827317 0.270456
O O16 0.402988 0.689638 0.336402
O O17 0.500000 0.535905 0.363953
#
# Coordination Sequence:
#
# PCOD8176197 Si02
#       8
#     8   8   8   8   8   8   8   8
#     4  11  21  37  62  97 124 158 208 262 313 369
#     4  11  23  36  63  99 126 160 205 263 322 378
#     4  12  22  39  66  94 127 166 211 266 316 369
#     4  11  20  41  62  93 125 160 213 257 318 376
#     4  11  22  36  63  94 128 160 204 264 314 373
#     4  12  23  39  65  95 126 163 214 262 314 375
#     4  11  23  43  66  86 125 173 214 260 315 384
#     4  11  26  43  63  96 129 172 217 258 324 384
#
# _framework density 19.595479000000001
#
# number of rings (size 3 to 8) (size 9 to 14) (size 15 to 20)
#    0.000    0.750    8.750    0.000    3.500    1.000 
#    0.000    1.250    0.000    0.000    0.000    0.000 
#    0.000    0.000    0.000    0.000    0.000    0.000 
#
# Total GULP energy -396662.324926 kJ/mol
# GULP energy per Si atom -12395.697654 kJ/mol
# Density = 1.955088 g / cm^3
# Si number density = 19.595479 Si / 1000 Ang^3
#
#
#
# Elastic Constant Matrix: (Units=GPa)
#
#
# Indices 1 2 3 4 5 6 
#
# 1 75.0405 27.8784 24.8059 0.0000 0.0000 0.0000
# 2 27.8784 90.7532 20.3884 0.0000 0.0000 0.0000
# 3 24.8059 20.3884 91.1664 0.0000 0.0000 0.0000
# 4 0.0000 0.0000 0.0000 30.9201 0.0000 0.0000
# 5 0.0000 0.0000 0.0000 0.0000 21.9240 0.0000
# 6 0.0000 0.0000 0.0000 0.0000 0.0000 22.9071
#
#
#
# Elastic Compliance Matrix: (Units=1/GPa)
#
#
# Indices 1 2 3 4 5 6 
#
# 1 0.015999 -0.004145 -0.003426 0.000000 0.000000 0.000000
# 2 -0.004145 0.012676 -0.001707 0.000000 0.000000 0.000000
# 3 -0.003426 -0.001707 0.012283 0.000000 0.000000 0.000000
# 4 0.000000 0.000000 0.000000 0.032341 0.000000 0.000000
# 5 0.000000 0.000000 0.000000 0.000000 0.045612 0.000000
# 6 0.000000 0.000000 0.000000 0.000000 0.000000 0.043655
#
#
# Mechanical properties :
#
#
# Convention : Reuss Voigt Hill
#
# Bulk Modulus (GPa) = 44.64061 44.78949 44.71505
# Shear Modulus (GPa) = 26.51276 27.40939 26.96107
#
# Velocity S-wave (km/s) = 3.68231 3.74406 3.71331
# Velocity P-wave (km/s) = 6.39607 6.44960 6.42289
#
# Compressibility (1/GPa) = 0.02240113
#
# Stress axis : x y z
#
# Youngs Moduli (GPa) = 62.50558 78.89146 81.41373
#
# Poissons Ratio (x) = 0.32700 0.27894
# Poissons Ratio (y) = 0.25908 0.13897
# Poissons Ratio (z) = 0.21415 0.13467
#
# Static dielectric constant tensor:
#      x y z
#    x 3.276290 0.000000 0.000000 
#    y 0.000000 3.733250 0.000000 
#    z 0.000000 0.000000 3.696430 
# 
# 
# High freq. dielectric constant tensor:
#      x y z
#    x 1.722100 0.000000 0.000000 
#    y 0.000000 1.773770 0.000000 
#    z 0.000000 0.000000 1.769310 
# 
# From -- ./inp_files/12647.got.cif
#   From: 2010.03.12/outbox.cif.g09.slc.cpg/sg36_7_cif.got.tgz:12647.got - 2010.04.14 02:13:53.
