data_PCOD8176774
_publ_section_title
;
Structure prediction by ZEFSAII (Michael W. Deem and Ramdas Pophale) SiO2 
 PCOD8176774
Probable space group: C C C 2
;
_chemical_formula_sum "Si O2"
_cell_formula_units_Z 56
_cell_length_a 21.745355
_cell_length_b 8.199328
_cell_length_c 14.441714
_cell_angle_alpha 90.000000
_cell_angle_beta 90.000000
_cell_angle_gamma 90.000000
_cell_volume 2574.918586
_symmetry_space_group_name_H-M "C C C 2"
_symmetry_group_IT_number 37
_symmetry_cell_setting 'orthorhombic'
loop_
_space_group_symop_operation_xyz
x,y,z
-x,-y,z
-x,y,1/2+z
x,-y,1/2+z
1/2+x,1/2+y,z
1/2-x,1/2-y,z
1/2-x,1/2+y,1/2+z
1/2+x,1/2-y,1/2+z
loop_
_atom_site_type_symbol
_atom_site_label
_atom_site_fract_x
_atom_site_fract_y
_atom_site_fract_z
Si Si1 0.569155 0.871956 0.602840
Si Si2 0.538764 0.341415 0.661978
Si Si3 0.368594 0.053889 0.947647
Si Si4 0.437069 0.931345 0.788033
Si Si5 0.760904 0.064712 0.988316
Si Si6 0.315174 0.659180 0.343752
Si Si7 0.354416 0.433654 0.639413
O O1 0.500108 0.790555 0.599647
O O2 0.617852 0.726984 0.590092
O O3 0.579419 0.013112 0.525252
O O4 0.580259 0.955249 0.701239
O O5 0.500000 0.500000 0.687841
O O6 0.555158 0.255731 0.758591
O O7 0.602223 0.408381 0.617626
O O8 0.365892 0.233391 0.900597
O O9 0.382316 0.932507 0.862199
O O10 0.303208 0.028249 0.994781
O O11 0.500000 0.000000 0.833815
O O12 0.750000 0.250000 0.964341
O O13 0.790143 0.033489 0.089232
O O14 0.803654 0.998271 0.906465
O O15 0.250000 0.750000 0.324945
O O16 0.344995 0.598448 0.248072
#
# Coordination Sequence:
#
# PCOD8176774 Si02
#       7
#     8   8   8   8   8   8   8
#     4  10  21  41  67  94 135 174 228 281 344 416
#     4   9  22  40  63  98 132 176 227 278 342 428
#     4  11  23  42  69  97 136 176 233 283 340 430
#     4  10  22  41  65  98 128 179 223 279 347 409
#     4  11  24  41  63  99 133 174 231 282 345 414
#     4  10  24  42  65  97 132 185 236 282 345 418
#     4  11  21  42  68  91 139 183 217 290 356 406
#
# _framework density 21.748259999999998
#
# number of rings (size 3 to 8) (size 9 to 14) (size 15 to 20)
#    0.000    1.714    2.857    0.429    4.000    1.714 
#    0.000    4.286    0.000    0.000    0.000    0.000 
#    0.000    0.000    0.000    0.000    0.000    0.000 
#
# Total GULP energy -346977.391074 kJ/mol
# GULP energy per Si atom -12392.049681 kJ/mol
# Density = 2.169876 g / cm^3
# Si number density = 21.748260 Si / 1000 Ang^3
#
#
#
# Elastic Constant Matrix: (Units=GPa)
#
#
# Indices 1 2 3 4 5 6 
#
# 1 105.4605 55.3826 65.9928 0.0000 0.0000 0.0000
# 2 55.3826 59.3245 51.8223 0.0000 0.0000 0.0000
# 3 65.9928 51.8223 127.8703 0.0000 0.0000 0.0000
# 4 0.0000 0.0000 0.0000 27.8077 0.0000 0.0000
# 5 0.0000 0.0000 0.0000 0.0000 27.5528 0.0000
# 6 0.0000 0.0000 0.0000 0.0000 0.0000 37.6870
#
#
#
# Elastic Compliance Matrix: (Units=1/GPa)
#
#
# Indices 1 2 3 4 5 6 
#
# 1 0.019999 -0.014945 -0.004265 0.000000 0.000000 0.000000
# 2 -0.014945 0.037263 -0.007388 0.000000 0.000000 0.000000
# 3 -0.004265 -0.007388 0.013016 0.000000 0.000000 0.000000
# 4 0.000000 0.000000 0.000000 0.035961 0.000000 0.000000
# 5 0.000000 0.000000 0.000000 0.000000 0.036294 0.000000
# 6 0.000000 0.000000 0.000000 0.000000 0.000000 0.026534
#
#
# Mechanical properties :
#
#
# Convention : Reuss Voigt Hill
#
# Bulk Modulus (GPa) = 58.54379 71.00564 64.77472
# Shear Modulus (GPa) = 21.93394 26.57334 24.25364
#
# Velocity S-wave (km/s) = 3.17919 3.49930 3.34308
# Velocity P-wave (km/s) = 6.36032 7.00333 6.68955
#
# Compressibility (1/GPa) = 0.01708123
#
# Stress axis : x y z
#
# Youngs Moduli (GPa) = 50.00187 26.83654 76.83021
#
# Poissons Ratio (x) = 0.40107 0.32765
# Poissons Ratio (y) = 0.74728 0.56766
# Poissons Ratio (z) = 0.21324 0.19828
#
# Static dielectric constant tensor:
#      x y z
#    x 4.120260 0.000000 0.000000 
#    y 0.000000 4.248930 0.000000 
#    z 0.000000 0.000000 3.698370 
# 
# 
# High freq. dielectric constant tensor:
#      x y z
#    x 1.858790 0.000000 0.000000 
#    y 0.000000 1.860870 0.000000 
#    z 0.000000 0.000000 1.839680 
# 
# From -- ./inp_files/12937.got.cif
#   From: 2010.03.12/outbox.cif.g09.slc.cpg/sg37_7_cif.got.tgz:12937.got - 2010.04.14 02:25:27.
