data_PCOD8176874
_publ_section_title
;
Structure prediction by ZEFSAII (Michael W. Deem and Ramdas Pophale) SiO2 
 PCOD8176874
Probable space group: C C C 2
;
_chemical_formula_sum "Si O2"
_cell_formula_units_Z 60
_cell_length_a 12.945936
_cell_length_b 24.199383
_cell_length_c 8.903607
_cell_angle_alpha 90.000000
_cell_angle_beta 90.000000
_cell_angle_gamma 90.000000
_cell_volume 2789.354620
_symmetry_space_group_name_H-M "C C C 2"
_symmetry_group_IT_number 37
_symmetry_cell_setting 'orthorhombic'
loop_
_space_group_symop_operation_xyz
x,y,z
-x,-y,z
-x,y,1/2+z
x,-y,1/2+z
1/2+x,1/2+y,z
1/2-x,1/2-y,z
1/2-x,1/2+y,1/2+z
1/2+x,1/2-y,1/2+z
loop_
_atom_site_type_symbol
_atom_site_label
_atom_site_fract_x
_atom_site_fract_y
_atom_site_fract_z
Si Si1 0.422408 0.048915 0.646150
Si Si2 0.461294 0.288333 0.801648
Si Si3 0.441696 0.636635 0.031038
Si Si4 0.750000 0.750000 0.970230
Si Si5 0.412390 0.808496 0.640492
Si Si6 0.809291 0.043941 0.128027
Si Si7 0.491161 0.878255 0.884604
Si Si8 0.084272 0.958091 0.432603
O O1 0.308762 0.026610 0.627238
O O2 0.421691 0.096353 0.774181
O O3 0.448625 0.072452 0.483192
O O4 0.500000 0.000000 0.690485
O O5 0.547176 0.310318 0.921282
O O6 0.439418 0.340812 0.699047
O O7 0.349207 0.271023 0.873452
O O8 0.515072 0.240316 0.704570
O O9 0.540327 0.597749 0.005203
O O10 0.338982 0.597244 0.021638
O O11 0.703667 0.794314 0.088597
O O12 0.403350 0.854616 0.770785
O O13 0.466668 0.828954 0.487053
O O14 0.839925 0.057799 0.298291
O O15 0.861713 0.988367 0.070959
O O16 0.000000 0.000000 0.363395
#
# Coordination Sequence:
#
# PCOD8176874 Si02
#       8
#     8   8   8   4   8   8   8   8
#     4  11  26  46  68 102 138 184 240 293 342 428
#     4  12  24  45  70 106 143 178 243 304 348 442
#     4  11  23  43  71 101 139 178 231 299 354 421
#     4  12  26  42  78 100 144 192 234 302 378 410
#     4  11  23  47  70 102 138 185 235 295 359 427
#     4  11  25  40  70  99 138 187 226 288 367 419
#     4  10  24  46  70  90 143 180 228 290 348 412
#     4  10  22  42  64  99 140 173 224 286 358 425
#
# _framework density 21.510352000000001
#
# number of rings (size 3 to 8) (size 9 to 14) (size 15 to 20)
#    0.000    1.067    4.000    1.600    7.467    1.067 
#    2.400    1.333    0.000    0.000    0.000    0.000 
#    0.000    0.000    0.000    0.000    0.000    0.000 
#
# Total GULP energy -371689.529426 kJ/mol
# GULP energy per Si atom -12389.650981 kJ/mol
# Density = 2.146139 g / cm^3
# Si number density = 21.510352 Si / 1000 Ang^3
#
#
#
# Elastic Constant Matrix: (Units=GPa)
#
#
# Indices 1 2 3 4 5 6 
#
# 1 115.7828 33.3583 38.7013 0.0000 0.0000 0.0000
# 2 33.3583 87.7918 45.7222 0.0000 0.0000 0.0000
# 3 38.7013 45.7222 121.3206 0.0000 0.0000 0.0000
# 4 0.0000 0.0000 0.0000 39.6485 0.0000 0.0000
# 5 0.0000 0.0000 0.0000 0.0000 24.2446 0.0000
# 6 0.0000 0.0000 0.0000 0.0000 0.0000 24.2357
#
#
#
# Elastic Compliance Matrix: (Units=1/GPa)
#
#
# Indices 1 2 3 4 5 6 
#
# 1 0.010158 -0.002703 -0.002222 0.000000 0.000000 0.000000
# 2 -0.002703 0.014891 -0.004750 0.000000 0.000000 0.000000
# 3 -0.002222 -0.004750 0.010742 0.000000 0.000000 0.000000
# 4 0.000000 0.000000 0.000000 0.025222 0.000000 0.000000
# 5 0.000000 0.000000 0.000000 0.000000 0.041246 0.000000
# 6 0.000000 0.000000 0.000000 0.000000 0.000000 0.041262
#
#
# Mechanical properties :
#
#
# Convention : Reuss Voigt Hill
#
# Bulk Modulus (GPa) = 60.81980 62.27321 61.54651
# Shear Modulus (GPa) = 29.69998 31.43329 30.56663
#
# Velocity S-wave (km/s) = 3.71985 3.82686 3.77373
# Velocity P-wave (km/s) = 6.84001 6.96704 6.90382
#
# Compressibility (1/GPa) = 0.01644201
#
# Stress axis : x y z
#
# Youngs Moduli (GPa) = 98.44238 67.15328 93.09657
#
# Poissons Ratio (x) = 0.18149 0.20685
# Poissons Ratio (y) = 0.26605 0.44220
# Poissons Ratio (z) = 0.21873 0.31897
#
# Static dielectric constant tensor:
#      x y z
#    x 3.681680 0.000000 0.000000 
#    y 0.000000 4.006220 0.000000 
#    z 0.000000 0.000000 4.147790 
# 
# 
# High freq. dielectric constant tensor:
#      x y z
#    x 1.815720 0.000000 0.000000 
#    y 0.000000 1.857510 0.000000 
#    z 0.000000 0.000000 1.864550 
# 
# From -- ./inp_files/3061.got.cif
#   From: 2010.03.12/outbox.cif.g09.slc.cpg/sg37_2_cif.got.tgz:3061.got - 2010.04.14 02:25:27.
