data_PCOD8176944
_publ_section_title
;
Structure prediction by ZEFSAII (Michael W. Deem and Ramdas Pophale) SiO2 
 PCOD8176944
Probable space group: C C C 2
;
_chemical_formula_sum "Si O2"
_cell_formula_units_Z 52
_cell_length_a 8.289569
_cell_length_b 25.324657
_cell_length_c 11.696289
_cell_angle_alpha 90.000000
_cell_angle_beta 90.000000
_cell_angle_gamma 90.000000
_cell_volume 2455.407700
_symmetry_space_group_name_H-M "C C C 2"
_symmetry_group_IT_number 37
_symmetry_cell_setting 'orthorhombic'
loop_
_space_group_symop_operation_xyz
x,y,z
-x,-y,z
-x,y,1/2+z
x,-y,1/2+z
1/2+x,1/2+y,z
1/2-x,1/2-y,z
1/2-x,1/2+y,1/2+z
1/2+x,1/2-y,1/2+z
loop_
_atom_site_type_symbol
_atom_site_label
_atom_site_fract_x
_atom_site_fract_y
_atom_site_fract_z
Si Si1 0.768712 0.582909 0.700370
Si Si2 0.597029 0.834510 0.532120
Si Si3 0.933939 0.127227 0.638632
Si Si4 0.827261 0.590981 0.963508
Si Si5 0.000000 0.500000 0.088432
Si Si6 0.665023 0.303329 0.838148
Si Si7 0.566495 0.731928 0.009899
O O1 0.864114 0.632068 0.645419
O O2 0.583276 0.587083 0.658149
O O3 0.759207 0.585842 0.836402
O O4 0.861840 0.528902 0.664828
O O5 0.447026 0.859616 0.463772
O O6 0.745543 0.828580 0.446725
O O7 0.540286 0.776881 0.570005
O O8 0.815736 0.097179 0.553936
O O9 0.845823 0.146125 0.755016
O O10 0.983535 0.182731 0.586287
O O11 0.919338 0.539068 0.999854
O O12 0.750000 0.250000 0.785985
O O13 0.489659 0.282584 0.880748
O O14 0.750000 0.750000 0.007646
#
# Coordination Sequence:
#
# PCOD8176944 Si02
#       7
#     8   8   8   8   4   8   8
#     4  11  25  46  73  99 136 176 224 296 348 420
#     4  10  23  40  67  97 140 184 231 274 327 408
#     4  12  24  41  67 105 140 179 228 281 338 412
#     4  11  25  45  73 102 130 178 227 287 362 412
#     4  10  26  52  72 102 126 168 240 288 368 428
#     4  10  23  40  60  96 146 191 227 273 322 394
#     4  11  21  40  60 100 144 186 231 271 325 398
#
# _framework density 21.177745999999999
#
# number of rings (size 3 to 8) (size 9 to 14) (size 15 to 20)
#    0.000    1.231    3.077    1.846    4.308    1.846 
#    0.000    1.538    0.000    0.000    0.000    0.000 
#    0.000    0.000    0.000    0.000    0.000    0.000 
#
# Total GULP energy -322234.059534 kJ/mol
# GULP energy per Si atom -12393.617674 kJ/mol
# Density = 2.112954 g / cm^3
# Si number density = 21.177746 Si / 1000 Ang^3
#
#
#
# Elastic Constant Matrix: (Units=GPa)
#
#
# Indices 1 2 3 4 5 6 
#
# 1 126.2567 34.5192 56.0577 0.0000 0.0000 0.0000
# 2 34.5192 87.3742 32.3380 0.0000 0.0000 0.0000
# 3 56.0577 32.3380 107.2072 0.0000 0.0000 0.0000
# 4 0.0000 0.0000 0.0000 90.4215 0.0000 0.0000
# 5 0.0000 0.0000 0.0000 0.0000 20.1741 0.0000
# 6 0.0000 0.0000 0.0000 0.0000 0.0000 35.0065
#
#
#
# Elastic Compliance Matrix: (Units=1/GPa)
#
#
# Indices 1 2 3 4 5 6 
#
# 1 0.010759 -0.002441 -0.004889 0.000000 0.000000 0.000000
# 2 -0.002441 0.013437 -0.002777 0.000000 0.000000 0.000000
# 3 -0.004889 -0.002777 0.012722 0.000000 0.000000 0.000000
# 4 0.000000 0.000000 0.000000 0.011059 0.000000 0.000000
# 5 0.000000 0.000000 0.000000 0.000000 0.049568 0.000000
# 6 0.000000 0.000000 0.000000 0.000000 0.000000 0.028566
#
#
# Mechanical properties :
#
#
# Convention : Reuss Voigt Hill
#
# Bulk Modulus (GPa) = 59.86754 62.96309 61.41532
# Shear Modulus (GPa) = 32.91785 42.31531 37.61658
#
# Velocity S-wave (km/s) = 3.94682 4.47486 4.21911
# Velocity P-wave (km/s) = 7.00716 7.51628 7.26618
#
# Compressibility (1/GPa) = 0.01670354
#
# Stress axis : x y z
#
# Youngs Moduli (GPa) = 92.94942 74.42091 78.60456
#
# Poissons Ratio (x) = 0.18165 0.38432
# Poissons Ratio (y) = 0.22688 0.21827
# Poissons Ratio (z) = 0.45446 0.20666
#
# Static dielectric constant tensor:
#      x y z
#    x 4.016640 0.000000 0.000000 
#    y 0.000000 1.342570 0.000000 
#    z 0.000000 0.000000 3.806110 
# 
# 
# High freq. dielectric constant tensor:
#      x y z
#    x 1.842270 0.000000 0.000000 
#    y 0.000000 1.829090 0.000000 
#    z 0.000000 0.000000 1.827310 
# 
# From -- ./inp_files/6496.got.cif
#   From: 2010.03.12/outbox.cif.g09.slc.cpg/sg37_4_cif.got.tgz:6496.got - 2010.04.14 02:25:27.
