data_PCOD8176580
_publ_section_title
;
Structure prediction by ZEFSAII (Michael W. Deem and Ramdas Pophale) SiO2 
 PCOD8176580
Probable space group: C C C 2
;
_chemical_formula_sum "Si O2"
_cell_formula_units_Z 48
_cell_length_a 8.128823
_cell_length_b 17.674321
_cell_length_c 16.329991
_cell_angle_alpha 90.000000
_cell_angle_beta 90.000000
_cell_angle_gamma 90.000000
_cell_volume 2346.153111
_symmetry_space_group_name_H-M "C C C 2"
_symmetry_group_IT_number 37
_symmetry_cell_setting 'orthorhombic'
loop_
_space_group_symop_operation_xyz
x,y,z
-x,-y,z
-x,y,1/2+z
x,-y,1/2+z
1/2+x,1/2+y,z
1/2-x,1/2-y,z
1/2-x,1/2+y,1/2+z
1/2+x,1/2-y,1/2+z
loop_
_atom_site_type_symbol
_atom_site_label
_atom_site_fract_x
_atom_site_fract_y
_atom_site_fract_z
Si Si1 0.124472 0.311266 0.153840
Si Si2 0.351331 0.401708 0.264540
Si Si3 0.594130 0.197772 0.300371
Si Si4 0.290634 0.568057 0.229141
Si Si5 0.601973 0.924034 0.565519
Si Si6 0.691726 0.170219 0.917617
O O1 0.250000 0.250000 0.114228
O O2 0.228763 0.377992 0.193392
O O3 0.016491 0.269308 0.225123
O O4 0.011449 0.351132 0.086378
O O5 0.311774 0.489902 0.277652
O O6 0.537220 0.387277 0.234558
O O7 0.320050 0.354213 0.346942
O O8 0.750000 0.250000 0.318965
O O9 0.648775 0.113948 0.274295
O O10 0.489945 0.185394 0.382122
O O11 0.238249 0.558114 0.134403
O O12 0.694190 0.897234 0.483516
O O13 0.500000 0.000000 0.547873
O O14 0.750000 0.250000 0.956529
#
# Coordination Sequence:
#
# PCOD8176580 Si02
#       6
#     8   8   8   8   8   8
#     4  10  20  36  64  90 121 166 213 266 304 372
#     4  10  20  40  64  93 123 158 220 262 310 367
#     4  10  20  36  62  92 122 164 220 262 311 376
#     4  10  21  38  67  92 117 168 213 264 306 376
#     4  11  24  42  62  94 132 170 208 259 330 386
#     4  11  25  40  62  91 133 168 203 264 324 383
#
# _framework density 20.459022000000001
#
# number of rings (size 3 to 8) (size 9 to 14) (size 15 to 20)
#    0.000    1.667    1.667    4.000    2.333    4.667 
#    0.000    5.000    0.000    0.000    0.000    0.000 
#    0.000    0.000    0.000    0.000    0.000    0.000 
#
# Total GULP energy -297604.519081 kJ/mol
# GULP energy per Si atom -12400.188295 kJ/mol
# Density = 2.041246 g / cm^3
# Si number density = 20.459022 Si / 1000 Ang^3
#
#
#
# Elastic Constant Matrix: (Units=GPa)
#
#
# Indices 1 2 3 4 5 6 
#
# 1 104.1649 30.9828 25.3982 0.0000 0.0000 0.0000
# 2 30.9828 85.5810 34.1615 0.0000 0.0000 0.0000
# 3 25.3982 34.1615 71.6489 0.0000 0.0000 0.0000
# 4 0.0000 0.0000 0.0000 26.8283 0.0000 0.0000
# 5 0.0000 0.0000 0.0000 0.0000 20.1379 0.0000
# 6 0.0000 0.0000 0.0000 0.0000 0.0000 46.0722
#
#
#
# Elastic Compliance Matrix: (Units=1/GPa)
#
#
# Indices 1 2 3 4 5 6 
#
# 1 0.011108 -0.003026 -0.002495 0.000000 0.000000 0.000000
# 2 -0.003026 0.015256 -0.006201 0.000000 0.000000 0.000000
# 3 -0.002495 -0.006201 0.017798 0.000000 0.000000 0.000000
# 4 0.000000 0.000000 0.000000 0.037274 0.000000 0.000000
# 5 0.000000 0.000000 0.000000 0.000000 0.049658 0.000000
# 6 0.000000 0.000000 0.000000 0.000000 0.000000 0.021705
#
#
# Mechanical properties :
#
#
# Convention : Reuss Voigt Hill
#
# Bulk Modulus (GPa) = 48.26669 49.16444 48.71557
# Shear Modulus (GPa) = 27.30020 29.99782 28.64901
#
# Velocity S-wave (km/s) = 3.65689 3.83330 3.74613
# Velocity P-wave (km/s) = 6.43999 6.60872 6.52490
#
# Compressibility (1/GPa) = 0.02071822
#
# Stress axis : x y z
#
# Youngs Moduli (GPa) = 90.02125 65.55005 56.18581
#
# Poissons Ratio (x) = 0.19833 0.14019
# Poissons Ratio (y) = 0.27237 0.34842
# Poissons Ratio (z) = 0.22462 0.40649
#
# Static dielectric constant tensor:
#      x y z
#    x 3.940500 0.000000 0.000000 
#    y 0.000000 3.718520 0.000000 
#    z 0.000000 0.000000 3.331400 
# 
# 
# High freq. dielectric constant tensor:
#      x y z
#    x 1.810570 0.000000 0.000000 
#    y 0.000000 1.816360 0.000000 
#    z 0.000000 0.000000 1.765590 
# 
# From -- ./inp_files/10568.got.cif
#   From: 2010.03.12/outbox.cif.g09.slc.cpg/sg37_6_cif.got.tgz:10568.got - 2010.04.14 02:25:27.
