data_PCOD8176048
_publ_section_title
;
Structure prediction by ZEFSAII (Michael W. Deem and Ramdas Pophale) SiO2 
 PCOD8176048
Probable space group: C M C 21
;
_chemical_formula_sum "Si O2"
_cell_formula_units_Z 64
_cell_length_a 16.993964
_cell_length_b 14.389339
_cell_length_c 11.918519
_cell_angle_alpha 90.000000
_cell_angle_beta 90.000000
_cell_angle_gamma 90.000000
_cell_volume 2914.458203
_symmetry_space_group_name_H-M "C M C 21"
_symmetry_group_IT_number 36
_symmetry_cell_setting 'orthorhombic'
loop_
_space_group_symop_operation_xyz
x,y,z
-x,-y,1/2+z
x,-y,1/2+z
-x,y,z
1/2+x,1/2+y,z
1/2-x,1/2-y,1/2+z
1/2+x,1/2-y,1/2+z
1/2-x,1/2+y,z
loop_
_atom_site_type_symbol
_atom_site_label
_atom_site_fract_x
_atom_site_fract_y
_atom_site_fract_z
Si Si1 0.675932 0.358906 0.460150
Si Si2 0.153016 0.352095 0.432117
Si Si3 0.911706 0.235676 0.250294
Si Si4 0.907775 0.677315 0.527184
Si Si5 0.410586 0.186995 0.169633
Si Si6 0.688520 0.559839 0.193486
Si Si7 0.592807 0.607564 0.749394
Si Si8 0.343376 0.053475 0.345334
O O1 0.756858 0.323810 0.402550
O O2 0.612698 0.280625 0.487994
O O3 0.710563 0.417107 0.564971
O O4 0.626373 0.419973 0.372266
O O5 0.097393 0.276325 0.374457
O O6 0.140784 0.346965 0.565405
O O7 0.129216 0.450740 0.377878
O O8 0.890779 0.318735 0.161139
O O9 0.859537 0.145136 0.242220
O O10 0.000000 0.202074 0.229017
O O11 0.847159 0.607152 0.465838
O O12 0.000000 0.654888 0.500435
O O13 0.500000 0.194044 0.130490
O O14 0.381623 0.287503 0.215165
O O15 0.404088 0.109362 0.266615
O O16 0.636307 0.467814 0.172779
O O17 0.760517 0.548014 0.280254
O O18 0.500000 0.593816 0.742874
#
# Coordination Sequence:
#
# PCOD8176048 Si02
#       8
#     8   8   8   8   8   8   8   8
#     4  11  22  43  66  99 131 179 227 283 342 414
#     4  12  26  43  67 100 143 182 229 290 348 410
#     4  10  24  43  65  99 139 181 229 286 351 410
#     4  10  22  41  68  95 130 182 235 283 341 412
#     4  11  26  47  71 101 136 183 238 288 350 414
#     4  11  24  43  70 102 138 176 232 285 351 422
#     4  11  24  45  72 101 137 179 233 293 352 419
#     4  12  24  43  67 101 136 182 233 288 343 413
#
# _framework density 21.959485000000001
#
# number of rings (size 3 to 8) (size 9 to 14) (size 15 to 20)
#    0.000    1.000    3.750    2.250    1.750    4.500 
#    2.250    1.250    0.000    0.000    0.000    0.000 
#    0.000    0.000    0.000    0.000    0.000    0.000 
#
# Total GULP energy -396568.857933 kJ/mol
# GULP energy per Si atom -12392.776810 kJ/mol
# Density = 2.190950 g / cm^3
# Si number density = 21.959485 Si / 1000 Ang^3
#
#
#
# Elastic Constant Matrix: (Units=GPa)
#
#
# Indices 1 2 3 4 5 6 
#
# 1 90.0879 38.5173 23.2376 0.0000 0.0000 0.0000
# 2 38.5173 102.0552 42.8338 0.0000 0.0000 0.0000
# 3 23.2376 42.8338 83.4137 0.0000 0.0000 0.0000
# 4 0.0000 0.0000 0.0000 25.4057 0.0000 0.0000
# 5 0.0000 0.0000 0.0000 0.0000 31.9663 0.0000
# 6 0.0000 0.0000 0.0000 0.0000 0.0000 30.3728
#
#
#
# Elastic Compliance Matrix: (Units=1/GPa)
#
#
# Indices 1 2 3 4 5 6 
#
# 1 0.013371 -0.004440 -0.001445 0.000000 0.000000 0.000000
# 2 -0.004440 0.013965 -0.005934 0.000000 0.000000 0.000000
# 3 -0.001445 -0.005934 0.015438 0.000000 0.000000 0.000000
# 4 0.000000 0.000000 0.000000 0.039361 0.000000 0.000000
# 5 0.000000 0.000000 0.000000 0.000000 0.031283 0.000000
# 6 0.000000 0.000000 0.000000 0.000000 0.000000 0.032924
#
#
# Mechanical properties :
#
#
# Convention : Reuss Voigt Hill
#
# Bulk Modulus (GPa) = 52.25749 53.85935 53.05842
# Shear Modulus (GPa) = 28.35102 28.94683 28.64892
#
# Velocity S-wave (km/s) = 3.59703 3.63463 3.61588
# Velocity P-wave (km/s) = 6.41096 6.49569 6.45346
#
# Compressibility (1/GPa) = 0.01913601
#
# Stress axis : x y z
#
# Youngs Moduli (GPa) = 74.78670 71.60725 64.77392
#
# Poissons Ratio (x) = 0.31794 0.09360
# Poissons Ratio (y) = 0.33206 0.38439
# Poissons Ratio (z) = 0.10807 0.42494
#
# Static dielectric constant tensor:
#      x y z
#    x 3.871220 0.000000 0.000000 
#    y 0.000000 3.893740 0.000000 
#    z 0.000000 0.000000 4.201900 
# 
# 
# High freq. dielectric constant tensor:
#      x y z
#    x 1.868380 0.000000 0.000000 
#    y 0.000000 1.855420 0.000000 
#    z 0.000000 0.000000 1.874360 
# 
# From -- ./inp_files/8995.got.cif
#   From: 2010.03.12/outbox.cif.g09.slc.cpg/sg36_5_cif.got.tgz:8995.got - 2010.04.14 02:13:53.
