data_PCOD8176324
_publ_section_title
;
Structure prediction by ZEFSAII (Michael W. Deem and Ramdas Pophale) SiO2 
 PCOD8176324
Probable space group: C M C 21
;
_chemical_formula_sum "Si O2"
_cell_formula_units_Z 56
_cell_length_a 23.155276
_cell_length_b 14.053940
_cell_length_c 8.259525
_cell_angle_alpha 90.000000
_cell_angle_beta 90.000000
_cell_angle_gamma 90.000000
_cell_volume 2687.838244
_symmetry_space_group_name_H-M "C M C 21"
_symmetry_group_IT_number 36
_symmetry_cell_setting 'orthorhombic'
loop_
_space_group_symop_operation_xyz
x,y,z
-x,-y,1/2+z
x,-y,1/2+z
-x,y,z
1/2+x,1/2+y,z
1/2-x,1/2-y,1/2+z
1/2+x,1/2-y,1/2+z
1/2-x,1/2+y,z
loop_
_atom_site_type_symbol
_atom_site_label
_atom_site_fract_x
_atom_site_fract_y
_atom_site_fract_z
Si Si1 0.500000 0.940781 0.856180
Si Si2 0.500000 0.854977 0.213865
Si Si3 0.380519 0.884752 0.709043
Si Si4 0.161769 0.546811 0.528879
Si Si5 0.697101 0.361271 0.523650
Si Si6 0.315733 0.254585 0.022003
Si Si7 0.787483 0.055850 0.666324
Si Si8 0.119216 0.277551 0.194601
O O1 0.445433 0.892049 0.769637
O O2 0.500000 0.056781 0.843443
O O3 0.500000 0.908360 0.041311
O O4 0.551741 0.777584 0.242025
O O5 0.361970 0.778658 0.658751
O O6 0.369564 0.944586 0.543890
O O7 0.334793 0.925872 0.840641
O O8 0.221450 0.546881 0.619892
O O9 0.120330 0.617654 0.622239
O O10 0.754280 0.297431 0.555450
O O11 0.701424 0.405814 0.345802
O O12 0.687551 0.449679 0.646518
O O13 0.640262 0.295726 0.553277
O O14 0.313200 0.367968 0.040471
O O15 0.337030 0.235202 0.841965
#
# Coordination Sequence:
#
# PCOD8176324 Si02
#       8
#     4   4   8   8   8   8   8   8
#     4  12  24  40  64  95 127 182 214 268 322 394
#     4  12  28  44  68  95 139 178 226 270 332 390
#     4  12  24  37  60  94 138 172 220 264 327 398
#     4  12  21  37  61  94 135 174 213 267 324 398
#     4  12  24  42  66  97 136 174 219 275 334 395
#     4  12  25  39  66  98 133 175 216 274 332 399
#     4  12  25  40  67  98 133 175 217 271 340 401
#     4  12  25  44  64  96 136 176 222 269 331 398
#
# _framework density 20.834586999999999
#
# number of rings (size 3 to 8) (size 9 to 14) (size 15 to 20)
#    0.000    0.000    7.143    3.429    4.000    0.000 
#    0.000    0.000    0.000    4.286    0.000    0.000 
#    0.000    0.000    0.000    0.000    0.000    0.000 
#
# Total GULP energy -347015.519132 kJ/mol
# GULP energy per Si atom -12393.411398 kJ/mol
# Density = 2.078717 g / cm^3
# Si number density = 20.834587 Si / 1000 Ang^3
#
#
#
# Elastic Constant Matrix: (Units=GPa)
#
#
# Indices 1 2 3 4 5 6 
#
# 1 92.7666 62.5786 12.0569 0.0000 0.0000 0.0000
# 2 62.5786 76.0169 11.9792 0.0000 0.0000 0.0000
# 3 12.0569 11.9792 70.7930 0.0000 0.0000 0.0000
# 4 0.0000 0.0000 0.0000 32.4253 0.0000 0.0000
# 5 0.0000 0.0000 0.0000 0.0000 19.3682 0.0000
# 6 0.0000 0.0000 0.0000 0.0000 0.0000 38.8067
#
#
#
# Elastic Compliance Matrix: (Units=1/GPa)
#
#
# Indices 1 2 3 4 5 6 
#
# 1 0.024283 -0.019869 -0.000774 0.000000 0.000000 0.000000
# 2 -0.019869 0.029772 -0.001654 0.000000 0.000000 0.000000
# 3 -0.000774 -0.001654 0.014537 0.000000 0.000000 0.000000
# 4 0.000000 0.000000 0.000000 0.030840 0.000000 0.000000
# 5 0.000000 0.000000 0.000000 0.000000 0.051631 0.000000
# 6 0.000000 0.000000 0.000000 0.000000 0.000000 0.025769
#
#
# Mechanical properties :
#
#
# Convention : Reuss Voigt Hill
#
# Bulk Modulus (GPa) = 41.66667 45.86732 43.76700
# Shear Modulus (GPa) = 21.79364 28.31749 25.05557
#
# Velocity S-wave (km/s) = 3.23775 3.69068 3.47161
# Velocity P-wave (km/s) = 5.83263 6.34226 6.09277
#
# Compressibility (1/GPa) = 0.02400000
#
# Stress axis : x y z
#
# Youngs Moduli (GPa) = 41.18062 33.58881 68.78839
#
# Poissons Ratio (x) = 0.66736 0.05322
# Poissons Ratio (y) = 0.81820 0.11377
# Poissons Ratio (z) = 0.03186 0.05555
#
# Static dielectric constant tensor:
#      x y z
#    x 3.880900 0.000000 0.000000 
#    y 0.000000 4.658290 0.000000 
#    z 0.000000 0.000000 4.025350 
# 
# 
# High freq. dielectric constant tensor:
#      x y z
#    x 1.794990 0.000000 0.000000 
#    y 0.000000 1.809750 0.000000 
#    z 0.000000 0.000000 1.833070 
# 
# From -- ./inp_files/5631.got.cif
#   From: 2010.03.12/outbox.cif.g09.slc.cpg/sg36_3_cif.got.tgz:5631.got - 2010.04.14 02:13:53.
