data_PCOD8176130
_publ_section_title
;
Structure prediction by ZEFSAII (Michael W. Deem and Ramdas Pophale) SiO2 
 PCOD8176130
Probable space group: C M C 21
;
_chemical_formula_sum "Si O2"
_cell_formula_units_Z 56
_cell_length_a 20.319869
_cell_length_b 14.720480
_cell_length_c 8.417955
_cell_angle_alpha 90.000000
_cell_angle_beta 90.000000
_cell_angle_gamma 90.000000
_cell_volume 2517.963760
_symmetry_space_group_name_H-M "C M C 21"
_symmetry_group_IT_number 36
_symmetry_cell_setting 'orthorhombic'
loop_
_space_group_symop_operation_xyz
x,y,z
-x,-y,1/2+z
x,-y,1/2+z
-x,y,z
1/2+x,1/2+y,z
1/2-x,1/2-y,1/2+z
1/2+x,1/2-y,1/2+z
1/2-x,1/2+y,z
loop_
_atom_site_type_symbol
_atom_site_label
_atom_site_fract_x
_atom_site_fract_y
_atom_site_fract_z
Si Si1 0.699826 0.215073 0.891310
Si Si2 0.371970 0.137083 0.625014
Si Si3 0.928058 0.794407 0.426532
Si Si4 0.365627 0.964894 0.797960
Si Si5 0.774449 0.913759 0.842459
Si Si6 0.188369 0.086059 0.014980
Si Si7 0.074224 0.309727 0.605323
O O1 0.689719 0.192300 0.702224
O O2 0.736385 0.312387 0.912490
O O3 0.745953 0.140174 0.968095
O O4 0.627644 0.217392 0.973024
O O5 0.421305 0.212482 0.556273
O O6 0.358790 0.065752 0.482903
O O7 0.391974 0.069247 0.773975
O O8 0.875396 0.873824 0.431712
O O9 0.920609 0.760904 0.247873
O O10 0.000000 0.836128 0.456027
O O11 0.289483 0.953176 0.748274
O O12 0.412940 0.907004 0.686077
O O13 0.827486 0.906127 0.701467
O O14 0.802652 0.980226 0.975191
O O15 0.000000 0.309983 0.532148
#
# Coordination Sequence:
#
# PCOD8176130 Si02
#       7
#     8   8   8   8   8   8   8
#     4  12  24  42  69 102 138 179 227 284 345 411
#     4  11  22  40  66  98 137 180 220 283 345 411
#     4  10  24  46  68  93 135 183 228 282 345 409
#     4  11  21  39  65 100 137 173 228 278 345 410
#     4  12  26  40  70 102 133 180 228 286 347 408
#     4  12  26  44  69 102 138 174 230 290 344 405
#     4  10  23  43  67  97 136 183 225 273 339 416
#
# _framework density 22.240192
#
# number of rings (size 3 to 8) (size 9 to 14) (size 15 to 20)
#    0.000    0.857    4.286    3.429    2.000    1.143 
#    0.000    4.286    0.000    0.000    0.000    0.000 
#    0.000    0.000    0.000    0.000    0.000    0.000 
#
# Total GULP energy -346898.850100 kJ/mol
# GULP energy per Si atom -12389.244646 kJ/mol
# Density = 2.218957 g / cm^3
# Si number density = 22.240192 Si / 1000 Ang^3
#
#
#
# Elastic Constant Matrix: (Units=GPa)
#
#
# Indices 1 2 3 4 5 6 
#
# 1 93.4392 11.6965 16.6317 0.0000 0.0000 0.0000
# 2 11.6965 106.2590 24.6568 0.0000 0.0000 0.0000
# 3 16.6317 24.6568 81.2819 0.0000 0.0000 0.0000
# 4 0.0000 0.0000 0.0000 26.4275 0.0000 0.0000
# 5 0.0000 0.0000 0.0000 0.0000 28.9612 0.0000
# 6 0.0000 0.0000 0.0000 0.0000 0.0000 19.7322
#
#
#
# Elastic Compliance Matrix: (Units=1/GPa)
#
#
# Indices 1 2 3 4 5 6 
#
# 1 0.011162 -0.000752 -0.002056 0.000000 0.000000 0.000000
# 2 -0.000752 0.010174 -0.002933 0.000000 0.000000 0.000000
# 3 -0.002056 -0.002933 0.013613 0.000000 0.000000 0.000000
# 4 0.000000 0.000000 0.000000 0.037839 0.000000 0.000000
# 5 0.000000 0.000000 0.000000 0.000000 0.034529 0.000000
# 6 0.000000 0.000000 0.000000 0.000000 0.000000 0.050679
#
#
# Mechanical properties :
#
#
# Convention : Reuss Voigt Hill
#
# Bulk Modulus (GPa) = 42.60895 42.99447 42.80171
# Shear Modulus (GPa) = 28.20083 30.22384 29.21233
#
# Velocity S-wave (km/s) = 3.56478 3.69043 3.62815
# Velocity P-wave (km/s) = 6.01196 6.12640 6.06945
#
# Compressibility (1/GPa) = 0.02346925
#
# Stress axis : x y z
#
# Youngs Moduli (GPa) = 89.58817 98.28799 73.45843
#
# Poissons Ratio (x) = 0.07387 0.15103
# Poissons Ratio (y) = 0.06733 0.21542
# Poissons Ratio (z) = 0.18419 0.28823
#
# Static dielectric constant tensor:
#      x y z
#    x 3.830920 0.000000 0.000000 
#    y 0.000000 4.050050 0.000000 
#    z 0.000000 0.000000 4.184460 
# 
# 
# High freq. dielectric constant tensor:
#      x y z
#    x 1.845200 0.000000 0.000000 
#    y 0.000000 1.877030 0.000000 
#    z 0.000000 0.000000 1.889720 
# 
# From -- ./inp_files/5204.got.cif
#   From: 2010.03.12/outbox.cif.g09.slc.cpg/sg36_3_cif.got.tgz:5204.got - 2010.04.14 02:13:53.
