data_PCOD8176565
_publ_section_title
;
Structure prediction by ZEFSAII (Michael W. Deem and Ramdas Pophale) SiO2 
 PCOD8176565
Probable space group: C C C 2
;
_chemical_formula_sum "Si O2"
_cell_formula_units_Z 64
_cell_length_a 15.527631
_cell_length_b 9.253446
_cell_length_c 21.913050
_cell_angle_alpha 90.000000
_cell_angle_beta 90.000000
_cell_angle_gamma 90.000000
_cell_volume 3148.556757
_symmetry_space_group_name_H-M "C C C 2"
_symmetry_group_IT_number 37
_symmetry_cell_setting 'orthorhombic'
loop_
_space_group_symop_operation_xyz
x,y,z
-x,-y,z
-x,y,1/2+z
x,-y,1/2+z
1/2+x,1/2+y,z
1/2-x,1/2-y,z
1/2-x,1/2+y,1/2+z
1/2+x,1/2-y,1/2+z
loop_
_atom_site_type_symbol
_atom_site_label
_atom_site_fract_x
_atom_site_fract_y
_atom_site_fract_z
Si Si1 0.341143 0.173684 0.617950
Si Si2 0.418505 0.400063 0.395075
Si Si3 0.410185 0.584150 0.036584
Si Si4 0.831623 0.350208 0.255344
Si Si5 0.752813 0.421411 0.835156
Si Si6 0.684003 0.131026 0.428107
Si Si7 0.969514 0.659066 0.854855
Si Si8 0.741725 0.091034 0.563644
O O1 0.250000 0.250000 0.612215
O O2 0.408415 0.266589 0.576563
O O3 0.371781 0.159882 0.687758
O O4 0.328412 0.008238 0.597175
O O5 0.500000 0.500000 0.391628
O O6 0.390743 0.377521 0.465809
O O7 0.343693 0.471426 0.354151
O O8 0.443669 0.250650 0.361994
O O9 0.500000 0.500000 0.045521
O O10 0.336112 0.478233 0.061019
O O11 0.750000 0.250000 0.262508
O O12 0.792679 0.509093 0.273391
O O13 0.907849 0.295215 0.298888
O O14 0.750000 0.250000 0.830601
O O15 0.810266 0.479719 0.891427
O O16 0.750000 0.250000 0.400443
O O17 0.585361 0.182189 0.417556
O O18 0.700335 0.110673 0.498050
O O19 0.000000 0.500000 0.840989
O O20 0.750000 0.250000 0.594846
#
# Coordination Sequence:
#
# PCOD8176565 Si02
#       8
#     8   8   8   8   8   8   8   8
#     4   9  21  41  65  85 115 168 212 253 297 366
#     4  11  21  34  55  88 122 147 184 251 310 359
#     4  10  22  38  59  91 125 153 203 258 314 371
#     4  10  21  43  63  79 115 166 209 238 293 368
#     4  11  21  33  58  90 114 154 193 247 299 358
#     4  10  20  36  56  81 119 161 193 234 298 374
#     4  11  23  36  56  86 122 149 193 242 305 360
#     4  10  21  37  61  88 120 158 205 247 302 366
#
# _framework density 20.326772999999999
#
# number of rings (size 3 to 8) (size 9 to 14) (size 15 to 20)
#    0.000    1.750    1.250    4.500    8.750    0.500 
#    0.000    6.250    0.000    0.000    0.000    0.000 
#    0.000    0.000    0.000    0.000    0.000    0.000 
#
# Total GULP energy -396547.015773 kJ/mol
# GULP energy per Si atom -12392.094243 kJ/mol
# Density = 2.028051 g / cm^3
# Si number density = 20.326773 Si / 1000 Ang^3
#
#
#
# Elastic Constant Matrix: (Units=GPa)
#
#
# Indices 1 2 3 4 5 6 
#
# 1 67.7334 4.6161 24.8001 0.0000 0.0000 0.0000
# 2 4.6161 116.3863 36.1672 0.0000 0.0000 0.0000
# 3 24.8001 36.1672 87.1007 0.0000 0.0000 0.0000
# 4 0.0000 0.0000 0.0000 29.8457 0.0000 0.0000
# 5 0.0000 0.0000 0.0000 0.0000 12.1902 0.0000
# 6 0.0000 0.0000 0.0000 0.0000 0.0000 33.2090
#
#
#
# Elastic Compliance Matrix: (Units=1/GPa)
#
#
# Indices 1 2 3 4 5 6 
#
# 1 0.016569 0.000929 -0.005103 0.000000 0.000000 0.000000
# 2 0.000929 0.009917 -0.004382 0.000000 0.000000 0.000000
# 3 -0.005103 -0.004382 0.014754 0.000000 0.000000 0.000000
# 4 0.000000 0.000000 0.000000 0.033506 0.000000 0.000000
# 5 0.000000 0.000000 0.000000 0.000000 0.082033 0.000000
# 6 0.000000 0.000000 0.000000 0.000000 0.000000 0.030112
#
#
# Mechanical properties :
#
#
# Convention : Reuss Voigt Hill
#
# Bulk Modulus (GPa) = 41.44920 44.70968 43.07944
# Shear Modulus (GPa) = 23.57970 28.75812 26.16891
#
# Velocity S-wave (km/s) = 3.40962 3.76545 3.59194
# Velocity P-wave (km/s) = 5.99469 6.39907 6.20018
#
# Compressibility (1/GPa) = 0.02412592
#
# Stress axis : x y z
#
# Youngs Moduli (GPa) = 60.35356 100.83642 67.77951
#
# Poissons Ratio (x) = -0.09365 0.34590
# Poissons Ratio (y) = -0.05605 0.29703
# Poissons Ratio (z) = 0.30800 0.44190
#
# Static dielectric constant tensor:
#      x y z
#    x 3.597460 0.000000 0.000000 
#    y 0.000000 3.725230 0.000000 
#    z 0.000000 0.000000 3.631840 
# 
# 
# High freq. dielectric constant tensor:
#      x y z
#    x 1.794020 0.000000 0.000000 
#    y 0.000000 1.803700 0.000000 
#    z 0.000000 0.000000 1.771420 
# 
# From -- ./inp_files/18891.got.cif
#   From: 2010.03.12/outbox.cif.g09.slc.cpg/sg37_10_cif.got.tgz:18891.got - 2010.04.14 02:25:27.
