data_PCOD8176601
_publ_section_title
;
Structure prediction by ZEFSAII (Michael W. Deem and Ramdas Pophale) SiO2 
 PCOD8176601
Probable space group: C C C 2
;
_chemical_formula_sum "Si O2"
_cell_formula_units_Z 48
_cell_length_a 8.575205
_cell_length_b 15.944045
_cell_length_c 16.357877
_cell_angle_alpha 90.000000
_cell_angle_beta 90.000000
_cell_angle_gamma 90.000000
_cell_volume 2236.505450
_symmetry_space_group_name_H-M "C C C 2"
_symmetry_group_IT_number 37
_symmetry_cell_setting 'orthorhombic'
loop_
_space_group_symop_operation_xyz
x,y,z
-x,-y,z
-x,y,1/2+z
x,-y,1/2+z
1/2+x,1/2+y,z
1/2-x,1/2-y,z
1/2-x,1/2+y,1/2+z
1/2+x,1/2-y,1/2+z
loop_
_atom_site_type_symbol
_atom_site_label
_atom_site_fract_x
_atom_site_fract_y
_atom_site_fract_z
Si Si1 0.567715 0.246152 0.218820
Si Si2 0.444619 0.413922 0.900082
Si Si3 0.399656 0.084522 0.155366
Si Si4 0.570405 0.751745 0.396420
Si Si5 0.065586 0.083397 0.215829
Si Si6 0.328882 0.159221 0.986318
O O1 0.750000 0.250000 0.203875
O O2 0.507449 0.162618 0.176435
O O3 0.530961 0.243000 0.314478
O O4 0.487561 0.328012 0.175778
O O5 0.500000 0.500000 0.942748
O O6 0.539476 0.337278 0.940913
O O7 0.484896 0.417641 0.804495
O O8 0.262230 0.394908 0.917123
O O9 0.254070 0.078654 0.218460
O O10 0.500000 0.000000 0.159185
O O11 0.329022 0.100880 0.065872
O O12 0.750000 0.750000 0.373884
O O13 0.507608 0.826135 0.454960
O O14 0.000000 0.000000 0.169122
O O15 0.250000 0.250000 0.001499
#
# Coordination Sequence:
#
# PCOD8176601 Si02
#       6
#     8   8   8   8   8   8
#     4  11  21  39  65  92 124 164 210 261 311 366
#     4   9  19  37  62  90 118 155 201 250 308 368
#     4  12  26  41  60  92 130 168 209 255 309 370
#     4  10  20  37  63  91 120 158 210 260 309 366
#     4  10  20  39  65  94 124 158 205 255 310 370
#     4  10  22  41  61  85 124 167 204 253 313 370
#
# _framework density 21.462052
#
# number of rings (size 3 to 8) (size 9 to 14) (size 15 to 20)
#    0.000    1.667    0.000    7.000    0.000    4.000 
#    0.000    4.167    0.000    0.000    0.000    0.000 
#    0.000    0.000    0.000    0.000    0.000    0.000 
#
# Total GULP energy -297390.372734 kJ/mol
# GULP energy per Si atom -12391.265531 kJ/mol
# Density = 2.141320 g / cm^3
# Si number density = 21.462052 Si / 1000 Ang^3
#
#
#
# Elastic Constant Matrix: (Units=GPa)
#
#
# Indices 1 2 3 4 5 6 
#
# 1 167.4960 77.5545 34.0961 0.0000 0.0000 0.0000
# 2 77.5545 184.3845 33.0384 0.0000 0.0000 0.0000
# 3 34.0961 33.0384 66.4968 0.0000 0.0000 0.0000
# 4 0.0000 0.0000 0.0000 11.8662 0.0000 0.0000
# 5 0.0000 0.0000 0.0000 0.0000 24.9358 0.0000
# 6 0.0000 0.0000 0.0000 0.0000 0.0000 36.5306
#
#
#
# Elastic Compliance Matrix: (Units=1/GPa)
#
#
# Indices 1 2 3 4 5 6 
#
# 1 0.007804 -0.002816 -0.002602 0.000000 0.000000 0.000000
# 2 -0.002816 0.006970 -0.002019 0.000000 0.000000 0.000000
# 3 -0.002602 -0.002019 0.017376 0.000000 0.000000 0.000000
# 4 0.000000 0.000000 0.000000 0.084273 0.000000 0.000000
# 5 0.000000 0.000000 0.000000 0.000000 0.040103 0.000000
# 6 0.000000 0.000000 0.000000 0.000000 0.000000 0.027374
#
#
# Mechanical properties :
#
#
# Convention : Reuss Voigt Hill
#
# Bulk Modulus (GPa) = 57.88798 78.63950 68.26374
# Shear Modulus (GPa) = 24.44597 32.91240 28.67918
#
# Velocity S-wave (km/s) = 3.37862 3.92026 3.65947
# Velocity P-wave (km/s) = 6.50007 7.56386 7.05205
#
# Compressibility (1/GPa) = 0.01727474
#
# Stress axis : x y z
#
# Youngs Moduli (GPa) = 128.13987 143.47799 57.55168
#
# Poissons Ratio (x) = 0.40406 0.14977
# Poissons Ratio (y) = 0.36086 0.11619
# Poissons Ratio (z) = 0.33346 0.28966
#
# Static dielectric constant tensor:
#      x y z
#    x 3.924560 0.000000 0.000000 
#    y 0.000000 5.445970 0.000000 
#    z 0.000000 0.000000 3.520750 
# 
# 
# High freq. dielectric constant tensor:
#      x y z
#    x 1.844980 0.000000 0.000000 
#    y 0.000000 1.863950 0.000000 
#    z 0.000000 0.000000 1.808510 
# 
# From -- ./inp_files/14473.got.cif
#   From: 2010.03.12/outbox.cif.g09.slc.cpg/sg37_8_cif.got.tgz:14473.got - 2010.04.14 02:25:27.
