data_PCOD8176894
_publ_section_title
;
Structure prediction by ZEFSAII (Michael W. Deem and Ramdas Pophale) SiO2 
 PCOD8176894
Probable space group: C C C 2
;
_chemical_formula_sum "Si O2"
_cell_formula_units_Z 40
_cell_length_a 13.709810
_cell_length_b 4.926890
_cell_length_c 26.010543
_cell_angle_alpha 90.000000
_cell_angle_beta 90.000000
_cell_angle_gamma 90.000000
_cell_volume 1756.927016
_symmetry_space_group_name_H-M "C C C 2"
_symmetry_group_IT_number 37
_symmetry_cell_setting 'orthorhombic'
loop_
_space_group_symop_operation_xyz
x,y,z
-x,-y,z
-x,y,1/2+z
x,-y,1/2+z
1/2+x,1/2+y,z
1/2-x,1/2-y,z
1/2-x,1/2+y,1/2+z
1/2+x,1/2-y,1/2+z
loop_
_atom_site_type_symbol
_atom_site_label
_atom_site_fract_x
_atom_site_fract_y
_atom_site_fract_z
Si Si1 0.938090 0.737146 0.256190
Si Si2 0.500000 0.000000 0.528475
Si Si3 0.000000 0.000000 0.100020
Si Si4 0.314253 0.484240 0.168866
Si Si5 0.183519 0.509698 0.457787
Si Si6 0.684394 0.007438 0.343746
O O1 0.849001 0.843345 0.221890
O O2 0.903116 0.570825 0.306150
O O3 0.000000 0.500000 0.226055
O O4 0.000000 0.000000 0.273120
O O5 0.474309 0.749873 0.564381
O O6 0.407291 0.059471 0.493473
O O7 0.907291 0.069320 0.135444
O O8 0.250000 0.250000 0.140674
O O9 0.250000 0.750000 0.180372
O O10 0.250000 0.750000 0.480969
O O11 0.145103 0.592508 0.400494
O O12 0.250000 0.250000 0.456004
O O13 0.750000 0.750000 0.351892
O O14 0.750000 0.250000 0.319884
#
# Coordination Sequence:
#
# PCOD8176894 Si02
#       6
#     8   4   4   8   8   8
#     4  12  25  42  70 106 144 184 238 292 343 425
#     4  12  26  44  76 102 136 182 226 302 356 408
#     4  12  28  48  70 108 136 170 250 292 348 426
#     4  12  27  48  75  99 142 189 227 291 360 415
#     4  10  23  44  70 102 142 180 230 282 344 423
#     4  10  22  43  65 100 143 186 232 278 339 423
#
# _framework density 22.767026999999999
#
# number of rings (size 3 to 8) (size 9 to 14) (size 15 to 20)
#    0.000    0.800    1.000    5.400    2.800    6.400 
#    1.800    0.000    0.000    0.000    0.000    0.000 
#    0.000    0.000    0.000    0.000    0.000    0.000 
#
# Total GULP energy -248007.993994 kJ/mol
# GULP energy per Si atom -12400.399700 kJ/mol
# Density = 2.271521 g / cm^3
# Si number density = 22.767027 Si / 1000 Ang^3
#
#
#
# Elastic Constant Matrix: (Units=GPa)
#
#
# Indices 1 2 3 4 5 6 
#
# 1 134.6447 53.6767 56.9102 0.0000 0.0000 0.0000
# 2 53.6767 165.4535 33.2599 0.0000 0.0000 0.0000
# 3 56.9102 33.2599 97.3122 0.0000 0.0000 0.0000
# 4 0.0000 0.0000 0.0000 35.5807 0.0000 0.0000
# 5 0.0000 0.0000 0.0000 0.0000 22.9686 0.0000
# 6 0.0000 0.0000 0.0000 0.0000 0.0000 53.5826
#
#
#
# Elastic Compliance Matrix: (Units=1/GPa)
#
#
# Indices 1 2 3 4 5 6 
#
# 1 0.010666 -0.002369 -0.005428 0.000000 0.000000 0.000000
# 2 -0.002369 0.007016 -0.001013 0.000000 0.000000 0.000000
# 3 -0.005428 -0.001013 0.013797 0.000000 0.000000 0.000000
# 4 0.000000 0.000000 0.000000 0.028105 0.000000 0.000000
# 5 0.000000 0.000000 0.000000 0.000000 0.043538 0.000000
# 6 0.000000 0.000000 0.000000 0.000000 0.000000 0.018663
#
#
# Mechanical properties :
#
#
# Convention : Reuss Voigt Hill
#
# Bulk Modulus (GPa) = 72.15239 76.12266 74.13753
# Shear Modulus (GPa) = 34.71687 39.33061 37.02374
#
# Velocity S-wave (km/s) = 3.90920 4.16086 4.03699
# Velocity P-wave (km/s) = 7.22054 7.52275 7.37319
#
# Compressibility (1/GPa) = 0.01385955
#
# Stress axis : x y z
#
# Youngs Moduli (GPa) = 93.76023 142.52928 72.48209
#
# Poissons Ratio (x) = 0.33766 0.39341
# Poissons Ratio (y) = 0.22212 0.07339
# Poissons Ratio (z) = 0.50890 0.14432
#
# Static dielectric constant tensor:
#      x y z
#    x 4.119510 0.000000 0.000000 
#    y 0.000000 4.279090 0.000000 
#    z 0.000000 0.000000 4.206610 
# 
# 
# High freq. dielectric constant tensor:
#      x y z
#    x 1.904900 0.000000 0.000000 
#    y 0.000000 1.922650 0.000000 
#    z 0.000000 0.000000 1.889340 
# 
# From -- ./inp_files/19710.got.cif
#   From: 2010.03.12/outbox.cif.g09.slc.cpg/sg37_10_cif.got.tgz:19710.got - 2010.04.14 02:25:27.
