data_PCOD8176980
_publ_section_title
;
Structure prediction by ZEFSAII (Michael W. Deem and Ramdas Pophale) SiO2 
 PCOD8176980
Probable space group: C C C 2
;
_chemical_formula_sum "Si O2"
_cell_formula_units_Z 60
_cell_length_a 26.798252
_cell_length_b 11.066667
_cell_length_c 8.273631
_cell_angle_alpha 90.000000
_cell_angle_beta 90.000000
_cell_angle_gamma 90.000000
_cell_volume 2453.688664
_symmetry_space_group_name_H-M "C C C 2"
_symmetry_group_IT_number 37
_symmetry_cell_setting 'orthorhombic'
loop_
_space_group_symop_operation_xyz
x,y,z
-x,-y,z
-x,y,1/2+z
x,-y,1/2+z
1/2+x,1/2+y,z
1/2-x,1/2-y,z
1/2-x,1/2+y,1/2+z
1/2+x,1/2-y,1/2+z
loop_
_atom_site_type_symbol
_atom_site_label
_atom_site_fract_x
_atom_site_fract_y
_atom_site_fract_z
Si Si1 0.500000 0.500000 0.398630
Si Si2 0.881342 0.729951 0.219483
Si Si3 0.754382 0.943831 0.722405
Si Si4 0.903018 0.100532 0.989183
Si Si5 0.041548 0.770961 0.228771
Si Si6 0.211897 0.648801 0.909615
Si Si7 0.679225 0.598268 0.002881
Si Si8 0.031040 0.375813 0.032921
O O1 0.548482 0.516607 0.511739
O O2 0.510858 0.381936 0.295983
O O3 0.910190 0.834255 0.315649
O O4 0.844410 0.680673 0.359629
O O5 0.851706 0.785980 0.065815
O O6 0.920820 0.628636 0.155118
O O7 0.722393 0.857675 0.603481
O O8 0.718292 0.013380 0.844819
O O9 0.779962 0.056238 0.630784
O O10 0.794510 0.868193 0.831115
O O11 0.905087 0.188338 0.148196
O O12 0.853478 0.022412 0.980207
O O13 0.050501 0.661370 0.354955
O O14 0.008398 0.725601 0.079774
O O15 0.250000 0.750000 0.839232
O O16 0.000000 0.500000 0.031626
#
# Coordination Sequence:
#
# PCOD8176980 Si02
#       8
#     4   8   8   8   8   8   8   8
#     4  12  22  42  68 110 152 180 246 328 410 452
#     4  12  24  47  77 109 153 206 266 326 386 477
#     4  10  23  45  76 109 149 194 241 326 415 466
#     4  12  24  41  72 115 150 189 248 322 406 475
#     4  12  25  45  71 103 153 198 251 330 396 448
#     4  11  23  51  74 108 153 193 248 324 396 485
#     4  11  21  42  74 117 152 189 248 329 414 497
#     4  12  27  50  71 102 153 224 273 316 373 471
#
# _framework density 24.45298
#
# number of rings (size 3 to 8) (size 9 to 14) (size 15 to 20)
#    0.000    0.533    5.333    3.200    1.867    0.000 
#   12.000    0.667    0.000    0.000    0.000    0.000 
#    0.000    0.000    0.000    0.000    0.000    0.000 
#
# Total GULP energy -371735.290886 kJ/mol
# GULP energy per Si atom -12391.176363 kJ/mol
# Density = 2.439732 g / cm^3
# Si number density = 24.452980 Si / 1000 Ang^3
#
#
#
# Elastic Constant Matrix: (Units=GPa)
#
#
# Indices 1 2 3 4 5 6 
#
# 1 105.2148 36.8500 55.8774 0.0000 0.0000 0.0000
# 2 36.8500 99.9600 50.6115 0.0000 0.0000 0.0000
# 3 55.8774 50.6115 141.4500 0.0000 0.0000 0.0000
# 4 0.0000 0.0000 0.0000 38.6471 0.0000 0.0000
# 5 0.0000 0.0000 0.0000 0.0000 40.8483 0.0000
# 6 0.0000 0.0000 0.0000 0.0000 0.0000 34.7374
#
#
#
# Elastic Compliance Matrix: (Units=1/GPa)
#
#
# Indices 1 2 3 4 5 6 
#
# 1 0.012552 -0.002585 -0.004033 0.000000 0.000000 0.000000
# 2 -0.002585 0.012750 -0.003541 0.000000 0.000000 0.000000
# 3 -0.004033 -0.003541 0.009930 0.000000 0.000000 0.000000
# 4 0.000000 0.000000 0.000000 0.025875 0.000000 0.000000
# 5 0.000000 0.000000 0.000000 0.000000 0.024481 0.000000
# 6 0.000000 0.000000 0.000000 0.000000 0.000000 0.028787
#
#
# Mechanical properties :
#
#
# Convention : Reuss Voigt Hill
#
# Bulk Modulus (GPa) = 67.05555 70.36693 68.71124
# Shear Modulus (GPa) = 35.80016 36.39895 36.09956
#
# Velocity S-wave (km/s) = 3.83043 3.86233 3.84641
# Velocity P-wave (km/s) = 6.85891 6.98062 6.92003
#
# Compressibility (1/GPa) = 0.01491301
#
# Stress axis : x y z
#
# Youngs Moduli (GPa) = 79.66982 78.43329 100.70611
#
# Poissons Ratio (x) = 0.20275 0.40619
# Poissons Ratio (y) = 0.20594 0.35658
# Poissons Ratio (z) = 0.32135 0.27771
#
# Static dielectric constant tensor:
#      x y z
#    x 3.292560 0.000000 0.000000 
#    y 0.000000 4.263060 0.000000 
#    z 0.000000 0.000000 4.604530 
# 
# 
# High freq. dielectric constant tensor:
#      x y z
#    x 1.962340 0.000000 0.000000 
#    y 0.000000 1.951420 0.000000 
#    z 0.000000 0.000000 1.986020 
# 
# From -- ./inp_files/4807.got.cif
#   From: 2010.03.12/outbox.cif.g09.slc.cpg/sg37_3_cif.got.tgz:4807.got - 2010.04.14 02:25:27.
