data_PCOD8176460
_publ_section_title
;
Structure prediction by ZEFSAII (Michael W. Deem and Ramdas Pophale) SiO2 
 PCOD8176460
Probable space group: C C C 2
;
_chemical_formula_sum "Si O2"
_cell_formula_units_Z 48
_cell_length_a 11.950324
_cell_length_b 18.482244
_cell_length_c 11.332850
_cell_angle_alpha 90.000000
_cell_angle_beta 90.000000
_cell_angle_gamma 90.000000
_cell_volume 2503.073026
_symmetry_space_group_name_H-M "C C C 2"
_symmetry_group_IT_number 37
_symmetry_cell_setting 'orthorhombic'
loop_
_space_group_symop_operation_xyz
x,y,z
-x,-y,z
-x,y,1/2+z
x,-y,1/2+z
1/2+x,1/2+y,z
1/2-x,1/2-y,z
1/2-x,1/2+y,1/2+z
1/2+x,1/2-y,1/2+z
loop_
_atom_site_type_symbol
_atom_site_label
_atom_site_fract_x
_atom_site_fract_y
_atom_site_fract_z
Si Si1 0.914042 0.241819 0.389100
Si Si2 0.854381 0.712576 0.319443
Si Si3 0.127086 0.475460 0.933491
Si Si4 0.814687 0.379249 0.039276
Si Si5 0.239977 0.360342 0.789261
Si Si6 0.564939 0.151288 0.592363
O O1 0.858451 0.301780 0.304806
O O2 0.848211 0.166006 0.367147
O O3 0.910151 0.272324 0.523987
O O4 0.043837 0.233139 0.351642
O O5 0.750000 0.750000 0.254796
O O6 0.798606 0.677931 0.435324
O O7 0.898374 0.652896 0.228276
O O8 0.194500 0.440247 0.823833
O O9 0.000000 0.500000 0.898673
O O10 0.199798 0.541386 0.983629
O O11 0.131681 0.413158 0.031491
O O12 0.729583 0.364942 0.148835
O O13 0.936895 0.370551 0.093128
#
# Coordination Sequence:
#
# PCOD8176460 Si02
#       6
#     8   8   8   8   8   8
#     4   9  20  36  55  79 108 151 184 222 284 344
#     4  11  23  34  55  84 114 142 190 241 285 330
#     4   9  20  32  53  82 112 145 183 230 286 334
#     4  10  21  34  54  82 114 144 181 236 288 334
#     4  10  19  34  59  77 111 145 186 220 284 350
#     4   9  19  36  52  81 114 142 183 231 281 347
#
# _framework density 19.176428999999999
#
# number of rings (size 3 to 8) (size 9 to 14) (size 15 to 20)
#    0.000    2.333    1.667    1.000    9.333    0.667 
#    0.000    0.000    0.000    1.000    0.000    0.000 
#    0.000    0.000    0.000    0.000    0.000    0.000 
#
# Total GULP energy -297375.633007 kJ/mol
# GULP energy per Si atom -12390.651375 kJ/mol
# Density = 1.913278 g / cm^3
# Si number density = 19.176429 Si / 1000 Ang^3
#
#
#
# Elastic Constant Matrix: (Units=GPa)
#
#
# Indices 1 2 3 4 5 6 
#
# 1 75.1562 34.0923 14.6540 0.0000 0.0000 0.0000
# 2 34.0923 78.1049 25.3761 0.0000 0.0000 0.0000
# 3 14.6540 25.3761 87.7072 0.0000 0.0000 0.0000
# 4 0.0000 0.0000 0.0000 19.7728 0.0000 0.0000
# 5 0.0000 0.0000 0.0000 0.0000 21.3714 0.0000
# 6 0.0000 0.0000 0.0000 0.0000 0.0000 25.1036
#
#
#
# Elastic Compliance Matrix: (Units=1/GPa)
#
#
# Indices 1 2 3 4 5 6 
#
# 1 0.016635 -0.007018 -0.000749 0.000000 0.000000 0.000000
# 2 -0.007018 0.017092 -0.003773 0.000000 0.000000 0.000000
# 3 -0.000749 -0.003773 0.012618 0.000000 0.000000 0.000000
# 4 0.000000 0.000000 0.000000 0.050575 0.000000 0.000000
# 5 0.000000 0.000000 0.000000 0.000000 0.046791 0.000000
# 6 0.000000 0.000000 0.000000 0.000000 0.000000 0.039835
#
#
# Mechanical properties :
#
#
# Convention : Reuss Voigt Hill
#
# Bulk Modulus (GPa) = 42.97989 43.24590 43.11289
# Shear Modulus (GPa) = 23.32297 24.37262 23.84779
#
# Velocity S-wave (km/s) = 3.49123 3.56893 3.53030
# Velocity P-wave (km/s) = 6.22199 6.29155 6.25687
#
# Compressibility (1/GPa) = 0.02326669
#
# Stress axis : x y z
#
# Youngs Moduli (GPa) = 60.11412 58.50604 79.25019
#
# Poissons Ratio (x) = 0.41058 0.05935
# Poissons Ratio (y) = 0.42187 0.29899
# Poissons Ratio (z) = 0.04502 0.22073
#
# Static dielectric constant tensor:
#      x y z
#    x 3.295990 0.000000 0.000000 
#    y 0.000000 3.407470 0.000000 
#    z 0.000000 0.000000 3.627790 
# 
# 
# High freq. dielectric constant tensor:
#      x y z
#    x 1.709920 0.000000 0.000000 
#    y 0.000000 1.721770 0.000000 
#    z 0.000000 0.000000 1.755710 
# 
# From -- ./inp_files/7169.got.cif
#   From: 2010.03.12/outbox.cif.g09.slc.cpg/sg37_4_cif.got.tgz:7169.got - 2010.04.14 02:25:27.
