data_PCOD8176808
_publ_section_title
;
Structure prediction by ZEFSAII (Michael W. Deem and Ramdas Pophale) SiO2 
 PCOD8176808
Probable space group: C C C 2
;
_chemical_formula_sum "Si O2"
_cell_formula_units_Z 32
_cell_length_a 8.070964
_cell_length_b 15.020102
_cell_length_c 10.179486
_cell_angle_alpha 90.000000
_cell_angle_beta 90.000000
_cell_angle_gamma 90.000000
_cell_volume 1234.025521
_symmetry_space_group_name_H-M "C C C 2"
_symmetry_group_IT_number 37
_symmetry_cell_setting 'orthorhombic'
loop_
_space_group_symop_operation_xyz
x,y,z
-x,-y,z
-x,y,1/2+z
x,-y,1/2+z
1/2+x,1/2+y,z
1/2-x,1/2-y,z
1/2-x,1/2+y,1/2+z
1/2+x,1/2-y,1/2+z
loop_
_atom_site_type_symbol
_atom_site_label
_atom_site_fract_x
_atom_site_fract_y
_atom_site_fract_z
Si Si1 0.190840 0.520068 0.791300
Si Si2 0.820134 0.160579 0.598917
Si Si3 0.167330 0.164126 0.804264
Si Si4 0.355074 0.661904 0.953708
O O1 0.227003 0.580601 0.667066
O O2 0.285365 0.430915 0.745343
O O3 0.000000 0.500000 0.811639
O O4 0.253821 0.570733 0.925431
O O5 0.750000 0.250000 0.667223
O O6 0.751823 0.159395 0.450179
O O7 0.033343 0.174067 0.319693
O O8 0.250000 0.250000 0.731158
O O9 0.026414 0.153264 0.585430
O O10 0.250000 0.750000 0.973557
#
# Coordination Sequence:
#
# PCOD8176808 Si02
#       4
#     8   8   8   8
#     4  12  24  42  75 110 144 188 243 296 362 440
#     4   9  23  47  70 104 148 186 243 294 367 430
#     4   9  21  45  71  99 149 186 236 296 365 423
#     4  10  21  45  73 102 143 190 236 302 356 423
#
# _framework density 25.931394999999998
#
# number of rings (size 3 to 8) (size 9 to 14) (size 15 to 20)
#    1.500    0.500    0.000    3.000    0.000    1.000 
#    9.000    2.500    0.000    0.000    0.000    0.000 
#    0.000    0.000    0.000    0.000    0.000    0.000 
#
# Total GULP energy -198284.523627 kJ/mol
# GULP energy per Si atom -12392.782727 kJ/mol
# Density = 2.587237 g / cm^3
# Si number density = 25.931395 Si / 1000 Ang^3
#
#
#
# Elastic Constant Matrix: (Units=GPa)
#
#
# Indices 1 2 3 4 5 6 
#
# 1 196.0712 84.2491 43.9804 0.0000 0.0000 0.0000
# 2 84.2491 232.2191 43.0875 0.0000 0.0000 0.0000
# 3 43.9804 43.0875 62.4197 0.0000 0.0000 0.0000
# 4 0.0000 0.0000 0.0000 16.0739 0.0000 0.0000
# 5 0.0000 0.0000 0.0000 0.0000 29.2112 0.0000
# 6 0.0000 0.0000 0.0000 0.0000 0.0000 64.3215
#
#
#
# Elastic Compliance Matrix: (Units=1/GPa)
#
#
# Indices 1 2 3 4 5 6 
#
# 1 0.006634 -0.001766 -0.003455 0.000000 0.000000 0.000000
# 2 -0.001766 0.005409 -0.002490 0.000000 0.000000 0.000000
# 3 -0.003455 -0.002490 0.020174 0.000000 0.000000 0.000000
# 4 0.000000 0.000000 0.000000 0.062213 0.000000 0.000000
# 5 0.000000 0.000000 0.000000 0.000000 0.034233 0.000000
# 6 0.000000 0.000000 0.000000 0.000000 0.000000 0.015547
#
#
# Mechanical properties :
#
#
# Convention : Reuss Voigt Hill
#
# Bulk Modulus (GPa) = 59.54071 92.59378 76.06724
# Shear Modulus (GPa) = 30.26103 43.21419 36.73761
#
# Velocity S-wave (km/s) = 3.41979 4.08668 3.76802
# Velocity P-wave (km/s) = 6.21321 7.61923 6.95186
#
# Compressibility (1/GPa) = 0.01679523
#
# Stress axis : x y z
#
# Youngs Moduli (GPa) = 150.73988 184.88438 49.56943
#
# Poissons Ratio (x) = 0.32644 0.17128
# Poissons Ratio (y) = 0.26615 0.12341
# Poissons Ratio (z) = 0.52087 0.46028
#
# Static dielectric constant tensor:
#      x y z
#    x 4.606700 0.000000 0.000000 
#    y 0.000000 5.005260 0.000000 
#    z 0.000000 0.000000 4.973030 
# 
# 
# High freq. dielectric constant tensor:
#      x y z
#    x 2.033680 0.000000 0.000000 
#    y 0.000000 2.047000 0.000000 
#    z 0.000000 0.000000 2.066590 
# 
# From -- ./inp_files/5949.got.cif
#   From: 2010.03.12/outbox.cif.g09.slc.cpg/sg37_3_cif.got.tgz:5949.got - 2010.04.14 02:25:27.
