data_PCOD8176884
_publ_section_title
;
Structure prediction by ZEFSAII (Michael W. Deem and Ramdas Pophale) SiO2 
 PCOD8176884
Probable space group: C C C 2
;
_chemical_formula_sum "Si O2"
_cell_formula_units_Z 60
_cell_length_a 12.193930
_cell_length_b 23.163339
_cell_length_c 9.033534
_cell_angle_alpha 90.000000
_cell_angle_beta 90.000000
_cell_angle_gamma 90.000000
_cell_volume 2551.540959
_symmetry_space_group_name_H-M "C C C 2"
_symmetry_group_IT_number 37
_symmetry_cell_setting 'orthorhombic'
loop_
_space_group_symop_operation_xyz
x,y,z
-x,-y,z
-x,y,1/2+z
x,-y,1/2+z
1/2+x,1/2+y,z
1/2-x,1/2-y,z
1/2-x,1/2+y,1/2+z
1/2+x,1/2-y,1/2+z
loop_
_atom_site_type_symbol
_atom_site_label
_atom_site_fract_x
_atom_site_fract_y
_atom_site_fract_z
Si Si1 0.064229 0.153003 0.027470
Si Si2 0.369345 0.569320 0.049066
Si Si3 0.787737 0.987929 0.272594
Si Si4 0.750000 0.750000 0.485820
Si Si5 0.958011 0.225420 0.803337
Si Si6 0.027956 0.645886 0.355488
Si Si7 0.784141 0.419280 0.509268
Si Si8 0.150600 0.635815 0.071861
O O1 0.063967 0.209990 0.132276
O O2 0.177209 0.119941 0.021032
O O3 0.970534 0.109786 0.082794
O O4 0.037809 0.175619 0.864128
O O5 0.362992 0.552777 0.876083
O O6 0.376907 0.514948 0.159245
O O7 0.252581 0.595380 0.094756
O O8 0.723420 0.033680 0.376771
O O9 0.702062 0.951498 0.168896
O O10 0.840983 0.780589 0.384599
O O11 0.808434 0.702055 0.587727
O O12 0.019228 0.285485 0.831655
O O13 0.116861 0.625429 0.478287
O O14 0.061587 0.620068 0.197567
O O15 0.908497 0.624735 0.413089
#
# Coordination Sequence:
#
# PCOD8176884 Si02
#       8
#     8   8   8   4   8   8   8   8
#     4  12  25  42  71 107 141 183 232 291 355 435
#     4  11  23  45  70 100 141 180 232 291 360 408
#     4  10  24  45  70 101 138 183 239 297 355 419
#     4  10  22  42  70  98 144 186 228 290 356 424
#     4  11  24  41  66 105 142 188 232 280 355 427
#     4  11  26  44  69 103 142 189 232 283 348 424
#     4  11  25  44  70 103 139 183 240 295 354 419
#     4  11  24  45  70  97 139 183 231 288 346 420
#
# _framework density 23.515201000000001
#
# number of rings (size 3 to 8) (size 9 to 14) (size 15 to 20)
#    0.000    1.067    2.667    3.200    1.867    5.867 
#    0.000    4.000    0.000    0.000    0.000    0.000 
#    0.000    0.000    0.000    0.000    0.000    0.000 
#
# Total GULP energy -371872.024135 kJ/mol
# GULP energy per Si atom -12395.734138 kJ/mol
# Density = 2.346168 g / cm^3
# Si number density = 23.515201 Si / 1000 Ang^3
#
#
#
# Elastic Constant Matrix: (Units=GPa)
#
#
# Indices 1 2 3 4 5 6 
#
# 1 95.5928 26.6934 11.2646 0.0000 0.0000 0.0000
# 2 26.6934 72.3375 19.4830 0.0000 0.0000 0.0000
# 3 11.2646 19.4830 102.6432 0.0000 0.0000 0.0000
# 4 0.0000 0.0000 0.0000 44.4713 0.0000 0.0000
# 5 0.0000 0.0000 0.0000 0.0000 42.1861 0.0000
# 6 0.0000 0.0000 0.0000 0.0000 0.0000 26.3125
#
#
#
# Elastic Compliance Matrix: (Units=1/GPa)
#
#
# Indices 1 2 3 4 5 6 
#
# 1 0.011686 -0.004181 -0.000489 0.000000 0.000000 0.000000
# 2 -0.004181 0.016064 -0.002590 0.000000 0.000000 0.000000
# 3 -0.000489 -0.002590 0.010288 0.000000 0.000000 0.000000
# 4 0.000000 0.000000 0.000000 0.022486 0.000000 0.000000
# 5 0.000000 0.000000 0.000000 0.000000 0.023704 0.000000
# 6 0.000000 0.000000 0.000000 0.000000 0.000000 0.038005
#
#
# Mechanical properties :
#
#
# Convention : Reuss Voigt Hill
#
# Bulk Modulus (GPa) = 42.51996 42.82841 42.67419
# Shear Modulus (GPa) = 34.57971 36.80283 35.69127
#
# Velocity S-wave (km/s) = 3.83890 3.96038 3.90012
# Velocity P-wave (km/s) = 6.14579 6.25823 6.20227
#
# Compressibility (1/GPa) = 0.02351836
#
# Stress axis : x y z
#
# Youngs Moduli (GPa) = 85.57210 62.24914 97.20207
#
# Poissons Ratio (x) = 0.26024 0.04753
# Poissons Ratio (y) = 0.35774 0.25180
# Poissons Ratio (z) = 0.04184 0.16125
#
# Static dielectric constant tensor:
#      x y z
#    x 4.091910 0.000000 0.000000 
#    y 0.000000 4.355800 0.000000 
#    z 0.000000 0.000000 4.393460 
# 
# 
# High freq. dielectric constant tensor:
#      x y z
#    x 1.920800 0.000000 0.000000 
#    y 0.000000 1.933400 0.000000 
#    z 0.000000 0.000000 1.942750 
# 
# From -- ./inp_files/3052.got.cif
#   From: 2010.03.12/outbox.cif.g09.slc.cpg/sg37_2_cif.got.tgz:3052.got - 2010.04.14 02:25:27.
