data_PCOD8176647
_publ_section_title
;
Structure prediction by ZEFSAII (Michael W. Deem and Ramdas Pophale) SiO2 
 PCOD8176647
Probable space group: C C C 2
;
_chemical_formula_sum "Si O2"
_cell_formula_units_Z 40
_cell_length_a 23.560789
_cell_length_b 6.309357
_cell_length_c 12.729576
_cell_angle_alpha 90.000000
_cell_angle_beta 90.000000
_cell_angle_gamma 90.000000
_cell_volume 1892.295122
_symmetry_space_group_name_H-M "C C C 2"
_symmetry_group_IT_number 37
_symmetry_cell_setting 'orthorhombic'
loop_
_space_group_symop_operation_xyz
x,y,z
-x,-y,z
-x,y,1/2+z
x,-y,1/2+z
1/2+x,1/2+y,z
1/2-x,1/2-y,z
1/2-x,1/2+y,1/2+z
1/2+x,1/2-y,1/2+z
loop_
_atom_site_type_symbol
_atom_site_label
_atom_site_fract_x
_atom_site_fract_y
_atom_site_fract_z
Si Si1 0.898584 0.845532 0.670800
Si Si2 0.750000 0.250000 0.339639
Si Si3 0.802222 0.868033 0.213247
Si Si4 0.952317 0.347053 0.967939
Si Si5 0.353507 0.015053 0.834010
Si Si6 0.000000 0.000000 0.814251
O O1 0.924067 0.785902 0.559487
O O2 0.871018 0.643597 0.728812
O O3 0.946815 0.943564 0.743030
O O4 0.851946 0.028358 0.642923
O O5 0.728028 0.440770 0.270226
O O6 0.804673 0.351623 0.399303
O O7 0.750000 0.750000 0.150624
O O8 0.830814 0.714157 0.299306
O O9 0.905652 0.492710 0.912108
O O10 0.000000 0.500000 0.017608
O O11 0.982786 0.198189 0.884376
#
# Coordination Sequence:
#
# PCOD8176647 Si02
#       6
#     8   4   8   8   8   4
#     4  11  24  40  67  96 132 173 221 276 334 397
#     4   8  18  36  70  92 118 176 214 266 344 390
#     4   9  18  39  71  90 127 171 211 274 341 388
#     4  12  26  40  66  99 133 178 228 268 344 408
#     4  10  20  41  67  91 131 167 217 280 332 395
#     4  12  24  44  62  98 134 176 224 278 328 400
#
# _framework density 21.138351
#
# number of rings (size 3 to 8) (size 9 to 14) (size 15 to 20)
#    0.000    1.600    4.000    0.600    2.800    1.600 
#    0.000    0.000   52.800    0.000    0.000    0.000 
#    0.000    0.000    0.000    0.000    0.000    0.000 
#
# Total GULP energy -247797.330983 kJ/mol
# GULP energy per Si atom -12389.866549 kJ/mol
# Density = 2.109024 g / cm^3
# Si number density = 21.138351 Si / 1000 Ang^3
#
#
#
# Elastic Constant Matrix: (Units=GPa)
#
#
# Indices 1 2 3 4 5 6 
#
# 1 178.4368 76.4784 49.9352 0.0000 0.0000 0.0000
# 2 76.4784 118.1877 27.7153 0.0000 0.0000 0.0000
# 3 49.9352 27.7153 67.6712 0.0000 0.0000 0.0000
# 4 0.0000 0.0000 0.0000 178.4750 0.0000 0.0000
# 5 0.0000 0.0000 0.0000 0.0000 6.0573 0.0000
# 6 0.0000 0.0000 0.0000 0.0000 0.0000 63.7293
#
#
#
# Elastic Compliance Matrix: (Units=1/GPa)
#
#
# Indices 1 2 3 4 5 6 
#
# 1 0.008912 -0.004674 -0.004662 0.000000 0.000000 0.000000
# 2 -0.004674 0.011811 -0.001389 0.000000 0.000000 0.000000
# 3 -0.004662 -0.001389 0.018786 0.000000 0.000000 0.000000
# 4 0.000000 0.000000 0.000000 0.005603 0.000000 0.000000
# 5 0.000000 0.000000 0.000000 0.000000 0.165089 0.000000
# 6 0.000000 0.000000 0.000000 0.000000 0.000000 0.015691
#
#
# Mechanical properties :
#
#
# Convention : Reuss Voigt Hill
#
# Bulk Modulus (GPa) = 55.36913 74.72816 65.04864
# Shear Modulus (GPa) = 19.73463 63.66345 41.69904
#
# Velocity S-wave (km/s) = 3.05879 5.49390 4.44630
# Velocity P-wave (km/s) = 6.22298 8.69900 7.56300
#
# Compressibility (1/GPa) = 0.01806061
#
# Stress axis : x y z
#
# Youngs Moduli (GPa) = 112.20760 84.66667 53.23036
#
# Poissons Ratio (x) = 0.39570 0.24817
# Poissons Ratio (y) = 0.52442 0.07391
# Poissons Ratio (z) = 0.52313 0.11757
#
# Static dielectric constant tensor:
#      x y z
#    x 4.773470 0.000000 0.000000 
#    y 0.000000 4.129860 0.000000 
#    z 0.000000 0.000000 3.234550 
# 
# 
# High freq. dielectric constant tensor:
#      x y z
#    x 1.871740 0.000000 0.000000 
#    y 0.000000 1.854670 0.000000 
#    z 0.000000 0.000000 1.769800 
# 
# From -- ./inp_files/5543.got.cif
#   From: 2010.03.12/outbox.cif.g09.slc.cpg/sg37_3_cif.got.tgz:5543.got - 2010.04.14 02:25:27.
