data_PCOD8176161
_publ_section_title
;
Structure prediction by ZEFSAII (Michael W. Deem and Ramdas Pophale) SiO2 
 PCOD8176161
Probable space group: C M C 21
;
_chemical_formula_sum "Si O2"
_cell_formula_units_Z 32
_cell_length_a 14.733995
_cell_length_b 9.966289
_cell_length_c 9.024808
_cell_angle_alpha 90.000000
_cell_angle_beta 90.000000
_cell_angle_gamma 90.000000
_cell_volume 1325.232158
_symmetry_space_group_name_H-M "C M C 21"
_symmetry_group_IT_number 36
_symmetry_cell_setting 'orthorhombic'
loop_
_space_group_symop_operation_xyz
x,y,z
-x,-y,1/2+z
x,-y,1/2+z
-x,y,z
1/2+x,1/2+y,z
1/2-x,1/2-y,1/2+z
1/2+x,1/2-y,1/2+z
1/2-x,1/2+y,z
loop_
_atom_site_type_symbol
_atom_site_label
_atom_site_fract_x
_atom_site_fract_y
_atom_site_fract_z
Si Si1 0.306981 0.313466 0.228780
Si Si2 0.000000 0.399998 0.343898
Si Si3 0.000000 0.674648 0.184802
Si Si4 0.626068 0.319428 0.744808
Si Si5 0.152769 0.989184 0.489596
O O1 0.410601 0.263480 0.213448
O O2 0.235615 0.191333 0.227232
O O3 0.289652 0.391236 0.383476
O O4 0.284615 0.416523 0.094538
O O5 0.000000 0.386396 0.520470
O O6 0.913663 0.328072 0.267583
O O7 0.000000 0.555404 0.304253
O O8 0.590408 0.395448 0.596695
O O9 0.595050 0.411231 0.884007
#
# Coordination Sequence:
#
# PCOD8176161 Si02
#       5
#     8   4   4   8   8
#     4  11  25  45  72 104 144 185 235 291 354 413
#     4  12  30  47  71 106 146 185 234 290 358 425
#     4  12  30  47  71 106 146 185 234 290 358 425
#     4  11  25  45  72 104 144 185 235 291 354 413
#     4  10  24  43  74  99 138 190 238 287 350 415
#
# _framework density 24.146713999999999
#
# number of rings (size 3 to 8) (size 9 to 14) (size 15 to 20)
#    0.000    1.000    2.500    1.500   10.500    6.000 
#    0.000    0.000    0.000    0.000    0.000    0.000 
#    0.000    0.000    0.000    0.000    0.000    0.000 
#
# Total GULP energy -198270.615583 kJ/mol
# GULP energy per Si atom -12391.913474 kJ/mol
# Density = 2.409175 g / cm^3
# Si number density = 24.146714 Si / 1000 Ang^3
#
#
#
# Elastic Constant Matrix: (Units=GPa)
#
#
# Indices 1 2 3 4 5 6 
#
# 1 136.8107 42.6734 28.5559 0.0000 0.0000 0.0000
# 2 42.6734 131.1847 63.7928 0.0000 0.0000 0.0000
# 3 28.5559 63.7928 193.3070 0.0000 0.0000 0.0000
# 4 0.0000 0.0000 0.0000 45.5679 0.0000 0.0000
# 5 0.0000 0.0000 0.0000 0.0000 10.1784 0.0000
# 6 0.0000 0.0000 0.0000 0.0000 0.0000 8.5699
#
#
#
# Elastic Compliance Matrix: (Units=1/GPa)
#
#
# Indices 1 2 3 4 5 6 
#
# 1 0.008160 -0.002463 -0.000392 0.000000 0.000000 0.000000
# 2 -0.002463 0.009824 -0.002878 0.000000 0.000000 0.000000
# 3 -0.000392 -0.002878 0.006181 0.000000 0.000000 0.000000
# 4 0.000000 0.000000 0.000000 0.021945 0.000000 0.000000
# 5 0.000000 0.000000 0.000000 0.000000 0.098247 0.000000
# 6 0.000000 0.000000 0.000000 0.000000 0.000000 0.116687
#
#
# Mechanical properties :
#
#
# Convention : Reuss Voigt Hill
#
# Bulk Modulus (GPa) = 78.76185 81.26073 80.01129
# Shear Modulus (GPa) = 18.06727 34.61528 26.34128
#
# Velocity S-wave (km/s) = 2.73835 3.79032 3.30644
# Velocity P-wave (km/s) = 6.53352 7.27196 6.91261
#
# Compressibility (1/GPa) = 0.01269650
#
# Stress axis : x y z
#
# Youngs Moduli (GPa) = 122.55401 101.79471 161.79025
#
# Poissons Ratio (x) = 0.25077 0.06349
# Poissons Ratio (y) = 0.30191 0.46563
# Poissons Ratio (z) = 0.04809 0.29296
#
# Static dielectric constant tensor:
#      x y z
#    x 3.843710 0.000000 0.000000 
#    y 0.000000 4.388690 0.000000 
#    z 0.000000 0.000000 4.721980 
# 
# 
# High freq. dielectric constant tensor:
#      x y z
#    x 1.919200 0.000000 0.000000 
#    y 0.000000 1.975210 0.000000 
#    z 0.000000 0.000000 1.984740 
# 
# From -- ./inp_files/3688.got.cif
#   From: 2010.03.12/outbox.cif.g09.slc.cpg/sg36_2_cif.got.tgz:3688.got - 2010.04.14 02:13:53.
