data_PCOD8176931
_publ_section_title
;
Structure prediction by ZEFSAII (Michael W. Deem and Ramdas Pophale) SiO2 
 PCOD8176931
Probable space group: C C C 2
;
_chemical_formula_sum "Si O2"
_cell_formula_units_Z 48
_cell_length_a 16.089916
_cell_length_b 11.028380
_cell_length_c 11.858627
_cell_angle_alpha 90.000000
_cell_angle_beta 90.000000
_cell_angle_gamma 90.000000
_cell_volume 2104.262462
_symmetry_space_group_name_H-M "C C C 2"
_symmetry_group_IT_number 37
_symmetry_cell_setting 'orthorhombic'
loop_
_space_group_symop_operation_xyz
x,y,z
-x,-y,z
-x,y,1/2+z
x,-y,1/2+z
1/2+x,1/2+y,z
1/2-x,1/2-y,z
1/2-x,1/2+y,1/2+z
1/2+x,1/2-y,1/2+z
loop_
_atom_site_type_symbol
_atom_site_label
_atom_site_fract_x
_atom_site_fract_y
_atom_site_fract_z
Si Si1 0.658286 0.075762 0.167640
Si Si2 0.346167 0.457870 0.627966
Si Si3 0.405479 0.277117 0.790539
Si Si4 0.653977 0.717708 0.035524
Si Si5 0.924072 0.343664 0.738989
Si Si6 0.153544 0.261658 0.467839
O O1 0.749667 0.021289 0.156900
O O2 0.671163 0.197601 0.242543
O O3 0.592569 0.988798 0.235458
O O4 0.628714 0.119994 0.042610
O O5 0.396042 0.413954 0.740702
O O6 0.372408 0.589847 0.588853
O O7 0.371310 0.363234 0.529759
O O8 0.481903 0.201697 0.735521
O O9 0.403353 0.275643 0.924652
O O10 0.750000 0.750000 0.007474
O O11 0.623718 0.815883 0.123443
O O12 0.887676 0.274675 0.846738
O O13 0.250000 0.250000 0.445110
#
# Coordination Sequence:
#
# PCOD8176931 Si02
#       6
#     8   8   8   8   8   8
#     4  10  22  46  73  98 139 187 240 300 357 439
#     4  10  23  47  71  98 141 188 241 293 353 440
#     4  11  27  45  69 108 148 184 232 309 380 417
#     4  12  26  46  75 104 139 193 253 288 355 456
#     4  12  26  43  71 108 143 183 242 298 369 434
#     4   9  22  42  70 100 135 187 240 293 363 428
#
# _framework density 22.810841
#
# number of rings (size 3 to 8) (size 9 to 14) (size 15 to 20)
#    0.000    1.333    1.667    3.500    9.333    2.000 
#    0.000    0.000    0.000    0.000    0.000    0.000 
#    0.000    0.000    0.000    0.000    0.000    0.000 
#
# Total GULP energy -297367.590564 kJ/mol
# GULP energy per Si atom -12390.316274 kJ/mol
# Density = 2.275892 g / cm^3
# Si number density = 22.810841 Si / 1000 Ang^3
#
#
#
# Elastic Constant Matrix: (Units=GPa)
#
#
# Indices 1 2 3 4 5 6 
#
# 1 57.6242 27.1511 31.0868 0.0000 0.0000 0.0000
# 2 27.1511 88.4892 15.2219 0.0000 0.0000 0.0000
# 3 31.0868 15.2219 124.3506 0.0000 0.0000 0.0000
# 4 0.0000 0.0000 0.0000 31.7996 0.0000 0.0000
# 5 0.0000 0.0000 0.0000 0.0000 27.0132 0.0000
# 6 0.0000 0.0000 0.0000 0.0000 0.0000 32.6727
#
#
#
# Elastic Compliance Matrix: (Units=1/GPa)
#
#
# Indices 1 2 3 4 5 6 
#
# 1 0.022956 -0.006187 -0.004982 0.000000 0.000000 0.000000
# 2 -0.006187 0.013211 -0.000071 0.000000 0.000000 0.000000
# 3 -0.004982 -0.000071 0.009296 0.000000 0.000000 0.000000
# 4 0.000000 0.000000 0.000000 0.031447 0.000000 0.000000
# 5 0.000000 0.000000 0.000000 0.000000 0.037019 0.000000
# 6 0.000000 0.000000 0.000000 0.000000 0.000000 0.030607
#
#
# Mechanical properties :
#
#
# Convention : Reuss Voigt Hill
#
# Bulk Modulus (GPa) = 43.50561 46.37594 44.94078
# Shear Modulus (GPa) = 28.62453 31.43072 30.02762
#
# Velocity S-wave (km/s) = 3.54625 3.71601 3.63212
# Velocity P-wave (km/s) = 5.99013 6.22788 6.11016
#
# Compressibility (1/GPa) = 0.02298554
#
# Stress axis : x y z
#
# Youngs Moduli (GPa) = 43.56101 75.69328 107.57572
#
# Poissons Ratio (x) = 0.46829 0.53590
# Poissons Ratio (y) = 0.26950 0.00759
# Poissons Ratio (z) = 0.21700 0.00534
#
# Static dielectric constant tensor:
#      x y z
#    x 3.931190 0.000000 0.000000 
#    y 0.000000 4.109880 0.000000 
#    z 0.000000 0.000000 4.160760 
# 
# 
# High freq. dielectric constant tensor:
#      x y z
#    x 1.890020 0.000000 0.000000 
#    y 0.000000 1.908850 0.000000 
#    z 0.000000 0.000000 1.901800 
# 
# From -- ./inp_files/8240.got.cif
#   From: 2010.03.12/outbox.cif.g09.slc.cpg/sg37_5_cif.got.tgz:8240.got - 2010.04.14 02:25:27.
