data_PCOD8176365
_publ_section_title
;
Structure prediction by ZEFSAII (Michael W. Deem and Ramdas Pophale) SiO2 
 PCOD8176365
Probable space group: C C C 2
;
_chemical_formula_sum "Si O2"
_cell_formula_units_Z 64
_cell_length_a 19.112541
_cell_length_b 33.830466
_cell_length_c 5.331318
_cell_angle_alpha 90.000000
_cell_angle_beta 90.000000
_cell_angle_gamma 90.000000
_cell_volume 3447.156479
_symmetry_space_group_name_H-M "C C C 2"
_symmetry_group_IT_number 37
_symmetry_cell_setting 'orthorhombic'
loop_
_space_group_symop_operation_xyz
x,y,z
-x,-y,z
-x,y,1/2+z
x,-y,1/2+z
1/2+x,1/2+y,z
1/2-x,1/2-y,z
1/2-x,1/2+y,1/2+z
1/2+x,1/2-y,1/2+z
loop_
_atom_site_type_symbol
_atom_site_label
_atom_site_fract_x
_atom_site_fract_y
_atom_site_fract_z
Si Si1 0.738732 0.087246 0.580200
Si Si2 0.529036 0.043082 0.115416
Si Si3 0.314734 0.668280 0.586771
Si Si4 0.189474 0.551306 0.079881
Si Si5 0.033059 0.234562 0.597681
Si Si6 0.817052 0.988485 0.080917
Si Si7 0.309756 0.718260 0.091373
Si Si8 0.974338 0.146834 0.577903
O O1 0.760928 0.132456 0.582611
O O2 0.697231 0.078902 0.324329
O O3 0.805893 0.058295 0.581965
O O4 0.695768 0.078288 0.832224
O O5 0.506628 0.065426 0.375873
O O6 0.611153 0.035875 0.081919
O O7 0.500000 0.000000 0.170303
O O8 0.295870 0.696670 0.355459
O O9 0.392353 0.652136 0.547506
O O10 0.308470 0.688944 0.855431
O O11 0.243533 0.514088 0.079625
O O12 0.116138 0.240840 0.599792
O O13 0.000144 0.254519 0.347644
O O14 0.015848 0.188154 0.604327
O O15 0.860147 0.000144 0.330630
O O16 0.250000 0.750000 0.047755
O O17 0.005563 0.123646 0.335177
#
# Coordination Sequence:
#
# PCOD8176365 Si02
#       8
#     8   8   8   8   8   8   8   8
#     4  10  21  31  51  72 102 153 162 210 276 321
#     4  10  21  27  46  75 100 121 176 240 287 305
#     4  12  21  36  53  82 116 137 183 210 269 343
#     4  10  19  34  48  72 110 133 177 220 276 323
#     4  10  16  32  54  79 103 144 164 207 286 319
#     4   8  16  27  47  63  96 132 170 200 252 305
#     4  12  23  35  55  84 118 139 178 232 276 320
#     4  10  16  30  54  77 106 138 157 214 270 317
#
# _framework density 18.566026999999998
#
# number of rings (size 3 to 8) (size 9 to 14) (size 15 to 20)
#    0.000    1.750    5.000    1.875   10.500    0.000 
#    0.000    0.000    0.000    0.000    0.000   17.500 
#    0.000   27.000    0.000    0.000    0.000    0.000 
#
# Total GULP energy -396474.340813 kJ/mol
# GULP energy per Si atom -12389.823150 kJ/mol
# Density = 1.852377 g / cm^3
# Si number density = 18.566027 Si / 1000 Ang^3
#
#
#
# Elastic Constant Matrix: (Units=GPa)
#
#
# Indices 1 2 3 4 5 6 
#
# 1 67.5546 20.7898 6.2380 0.0000 0.0000 0.0000
# 2 20.7898 31.1357 9.4076 0.0000 0.0000 0.0000
# 3 6.2380 9.4076 173.1479 0.0000 0.0000 0.0000
# 4 0.0000 0.0000 0.0000 9.9095 0.0000 0.0000
# 5 0.0000 0.0000 0.0000 0.0000 23.4763 0.0000
# 6 0.0000 0.0000 0.0000 0.0000 0.0000 16.7721
#
#
#
# Elastic Compliance Matrix: (Units=1/GPa)
#
#
# Indices 1 2 3 4 5 6 
#
# 1 0.018631 -0.012442 0.000005 0.000000 0.000000 0.000000
# 2 -0.012442 0.040962 -0.001777 0.000000 0.000000 0.000000
# 3 0.000005 -0.001777 0.005872 0.000000 0.000000 0.000000
# 4 0.000000 0.000000 0.000000 0.100913 0.000000 0.000000
# 5 0.000000 0.000000 0.000000 0.000000 0.042596 0.000000
# 6 0.000000 0.000000 0.000000 0.000000 0.000000 0.059623
#
#
# Mechanical properties :
#
#
# Convention : Reuss Voigt Hill
#
# Bulk Modulus (GPa) = 27.00051 38.30101 32.65076
# Shear Modulus (GPa) = 16.16180 25.72511 20.94345
#
# Velocity S-wave (km/s) = 2.95363 3.72640 3.36229
# Velocity P-wave (km/s) = 5.11922 6.26013 5.71820
#
# Compressibility (1/GPa) = 0.03703634
#
# Stress axis : x y z
#
# Youngs Moduli (GPa) = 53.67293 24.41282 170.30531
#
# Poissons Ratio (x) = 0.30374 -0.00081
# Poissons Ratio (y) = 0.66779 0.30269
# Poissons Ratio (z) = -0.00026 0.04339
#
# Static dielectric constant tensor:
#      x y z
#    x 3.172320 0.000000 0.000000 
#    y 0.000000 2.862880 0.000000 
#    z 0.000000 0.000000 5.103730 
# 
# 
# High freq. dielectric constant tensor:
#      x y z
#    x 1.693320 0.000000 0.000000 
#    y 0.000000 1.650050 0.000000 
#    z 0.000000 0.000000 1.772130 
# 
# From -- ./inp_files/897.got.cif
#   From: 2010.03.12/outbox.cif.g09.slc.cpg/sg37_1_cif.got.tgz:897.got - 2010.04.14 02:25:27.
