data_PCOD8176739
_publ_section_title
;
Structure prediction by ZEFSAII (Michael W. Deem and Ramdas Pophale) SiO2 
 PCOD8176739
Probable space group: C C C 2
;
_chemical_formula_sum "Si O2"
_cell_formula_units_Z 64
_cell_length_a 8.768633
_cell_length_b 27.919726
_cell_length_c 13.071449
_cell_angle_alpha 90.000000
_cell_angle_beta 90.000000
_cell_angle_gamma 90.000000
_cell_volume 3200.123789
_symmetry_space_group_name_H-M "C C C 2"
_symmetry_group_IT_number 37
_symmetry_cell_setting 'orthorhombic'
loop_
_space_group_symop_operation_xyz
x,y,z
-x,-y,z
-x,y,1/2+z
x,-y,1/2+z
1/2+x,1/2+y,z
1/2-x,1/2-y,z
1/2-x,1/2+y,1/2+z
1/2+x,1/2-y,1/2+z
loop_
_atom_site_type_symbol
_atom_site_label
_atom_site_fract_x
_atom_site_fract_y
_atom_site_fract_z
Si Si1 0.508118 0.142568 0.420180
Si Si2 0.240227 0.306580 0.287620
Si Si3 0.759773 0.193420 0.552513
Si Si4 0.673824 0.517002 0.068435
Si Si5 0.734578 0.075685 0.968967
Si Si6 0.991882 0.142568 0.919953
Si Si7 0.673824 0.982998 0.271699
Si Si8 0.265423 0.575685 0.371166
O O1 0.417102 0.174601 0.337534
O O2 0.615423 0.174750 0.489731
O O3 0.392677 0.115093 0.497204
O O4 0.602441 0.101430 0.361008
O O5 0.250000 0.250000 0.294714
O O6 0.250000 0.323846 0.170067
O O7 0.384577 0.325250 0.350402
O O8 0.750000 0.250000 0.545419
O O9 0.917102 0.174602 0.502600
O O10 0.500000 0.500000 0.079021
O O11 0.750003 0.538111 0.170066
O O12 0.774754 0.470136 0.041430
O O13 0.698674 0.558948 0.987081
O O14 0.897559 0.101431 0.979127
O O15 0.698678 0.058948 0.853052
O O16 0.107322 0.115093 0.842930
O O17 0.774756 0.029864 0.298703
O O18 0.500000 0.000000 0.261118
#
# Coordination Sequence:
#
# PCOD8176739 Si02
#       8
#     8   8   8   8   8   8   8   8
#     4  10  21  39  64  87 121 161 196 256 302 356
#     4  10  22  41  66  93 122 156 199 249 310 374
#     4  10  22  41  66  93 122 156 199 249 310 374
#     4  11  24  37  58  84 119 164 202 247 301 348
#     4  10  22  40  56  82 122 155 205 245 291 356
#     4  10  21  39  64  87 121 161 196 256 302 356
#     4  11  24  37  58  84 119 164 202 247 301 348
#     4  10  22  40  56  82 122 155 205 245 291 356
#
# _framework density 19.999227000000001
#
# number of rings (size 3 to 8) (size 9 to 14) (size 15 to 20)
#    0.000    1.750    2.500    0.750    3.500    6.000 
#    0.000    3.750    0.000   13.500    0.000    0.000 
#    0.000    0.000    0.000    0.000    0.000    0.000 
#
# Total GULP energy -396717.869964 kJ/mol
# GULP energy per Si atom -12397.433436 kJ/mol
# Density = 1.995371 g / cm^3
# Si number density = 19.999227 Si / 1000 Ang^3
#
#
#
# Elastic Constant Matrix: (Units=GPa)
#
#
# Indices 1 2 3 4 5 6 
#
# 1 121.1437 34.7748 47.6868 0.0000 0.0000 0.0000
# 2 34.7748 73.7814 29.4949 0.0000 0.0000 0.0000
# 3 47.6868 29.4949 112.9810 0.0000 0.0000 0.0000
# 4 0.0000 0.0000 0.0000 14.2828 0.0000 0.0000
# 5 0.0000 0.0000 0.0000 0.0000 26.6823 0.0000
# 6 0.0000 0.0000 0.0000 0.0000 0.0000 32.2226
#
#
#
# Elastic Compliance Matrix: (Units=1/GPa)
#
#
# Indices 1 2 3 4 5 6 
#
# 1 0.010698 -0.003614 -0.003572 0.000000 0.000000 0.000000
# 2 -0.003614 0.016354 -0.002744 0.000000 0.000000 0.000000
# 3 -0.003572 -0.002744 0.011075 0.000000 0.000000 0.000000
# 4 0.000000 0.000000 0.000000 0.070014 0.000000 0.000000
# 5 0.000000 0.000000 0.000000 0.000000 0.037478 0.000000
# 6 0.000000 0.000000 0.000000 0.000000 0.000000 0.031034
#
#
# Mechanical properties :
#
#
# Convention : Reuss Voigt Hill
#
# Bulk Modulus (GPa) = 54.74379 59.09102 56.91740
# Shear Modulus (GPa) = 24.67881 27.70083 26.18982
#
# Velocity S-wave (km/s) = 3.51663 3.72572 3.62268
# Velocity P-wave (km/s) = 6.62731 6.93677 6.78381
#
# Compressibility (1/GPa) = 0.01826691
#
# Stress axis : x y z
#
# Youngs Moduli (GPa) = 93.47335 61.14721 90.29363
#
# Poissons Ratio (x) = 0.22101 0.32252
# Poissons Ratio (y) = 0.33785 0.24775
# Poissons Ratio (z) = 0.33388 0.16778
#
# Static dielectric constant tensor:
#      x y z
#    x 3.787750 0.000000 0.000000 
#    y 0.000000 3.733770 0.000000 
#    z 0.000000 0.000000 3.437540 
# 
# 
# High freq. dielectric constant tensor:
#      x y z
#    x 1.796080 0.000000 0.000000 
#    y 0.000000 1.794590 0.000000 
#    z 0.000000 0.000000 1.758010 
# 
# From -- ./inp_files/6618.got.cif
#   From: 2010.03.12/outbox.cif.g09.slc.cpg/sg37_4_cif.got.tgz:6618.got - 2010.04.14 02:25:27.
