data_PCOD8176520
_publ_section_title
;
Structure prediction by ZEFSAII (Michael W. Deem and Ramdas Pophale) SiO2 
 PCOD8176520
Probable space group: C C C 2
;
_chemical_formula_sum "Si O2"
_cell_formula_units_Z 64
_cell_length_a 11.266514
_cell_length_b 11.266624
_cell_length_c 23.930019
_cell_angle_alpha 90.000000
_cell_angle_beta 90.000000
_cell_angle_gamma 90.000000
_cell_volume 3037.570770
_symmetry_space_group_name_H-M "C C C 2"
_symmetry_group_IT_number 37
_symmetry_cell_setting 'orthorhombic'
loop_
_space_group_symop_operation_xyz
x,y,z
-x,-y,z
-x,y,1/2+z
x,-y,1/2+z
1/2+x,1/2+y,z
1/2-x,1/2-y,z
1/2-x,1/2+y,1/2+z
1/2+x,1/2-y,1/2+z
loop_
_atom_site_type_symbol
_atom_site_label
_atom_site_fract_x
_atom_site_fract_y
_atom_site_fract_z
Si Si1 0.746516 0.557753 0.950390
Si Si2 0.562632 0.243950 0.837645
Si Si3 0.256054 0.937368 0.837645
Si Si4 0.100511 0.899491 0.272588
Si Si5 0.942249 0.753487 0.950390
Si Si6 0.243358 0.443580 0.074869
Si Si7 0.599989 0.400013 0.145893
Si Si8 0.056418 0.743361 0.574869
O O1 0.753943 0.455944 0.904267
O O2 0.845560 0.654443 0.936653
O O3 0.616453 0.616452 0.947011
O O4 0.767738 0.503559 0.012201
O O5 0.613148 0.113151 0.820880
O O6 0.661504 0.338498 0.821354
O O7 0.443863 0.279049 0.803457
O O8 0.544058 0.246062 0.904267
O O9 0.220955 0.056135 0.803457
O O10 0.132972 0.867031 0.209135
O O11 0.000000 0.000000 0.275823
O O12 0.996443 0.732266 0.012201
O O13 0.280620 0.550455 0.116143
O O14 0.118173 0.381823 0.093271
O O15 0.342586 0.342586 0.074172
O O16 0.500000 0.500000 0.143577
O O17 0.550458 0.280623 0.116143
#
# Coordination Sequence:
#
# PCOD8176520 Si02
#       8
#     8   8   8   8   8   8   8   8
#     4   9  17  30  49  73 101 130 165 217 275 324
#     4  10  20  32  48  73 102 138 180 220 271 324
#     4  10  20  32  48  73 102 138 180 220 271 324
#     4   9  18  32  45  67 105 143 181 226 265 312
#     4   9  17  30  49  73 101 130 165 217 275 324
#     4   8  15  26  41  69 102 131 173 223 266 319
#     4   9  16  26  44  69  99 143 183 209 268 325
#     4   8  15  26  41  69 102 131 173 223 266 319
#
# _framework density 21.069469000000002
#
# number of rings (size 3 to 8) (size 9 to 14) (size 15 to 20)
#    0.000    3.000    1.250    1.500    1.750    1.500 
#    0.000    5.000    0.000    0.000    0.000    3.500 
#    0.000    4.000    0.000    0.000    0.000    0.000 
#
# Total GULP energy -396547.267416 kJ/mol
# GULP energy per Si atom -12392.102107 kJ/mol
# Density = 2.102151 g / cm^3
# Si number density = 21.069469 Si / 1000 Ang^3
#
#
#
# Elastic Constant Matrix: (Units=GPa)
#
#
# Indices 1 2 3 4 5 6 
#
# 1 62.1275 53.1594 54.3589 0.0000 0.0000 0.0000
# 2 53.1594 62.1339 54.3610 0.0000 0.0000 0.0000
# 3 54.3589 54.3610 159.5146 0.0000 0.0000 0.0000
# 4 0.0000 0.0000 0.0000 6.0100 0.0000 0.0000
# 5 0.0000 0.0000 0.0000 0.0000 6.0094 0.0000
# 6 0.0000 0.0000 0.0000 0.0000 0.0000 34.4415
#
#
#
# Elastic Compliance Matrix: (Units=1/GPa)
#
#
# Indices 1 2 3 4 5 6 
#
# 1 0.062127 -0.049343 -0.004356 0.000000 0.000000 0.000000
# 2 -0.049343 0.062120 -0.004355 0.000000 0.000000 0.000000
# 3 -0.004356 -0.004355 0.009238 0.000000 0.000000 0.000000
# 4 0.000000 0.000000 0.000000 0.166388 0.000000 0.000000
# 5 0.000000 0.000000 0.000000 0.000000 0.166405 0.000000
# 6 0.000000 0.000000 0.000000 0.000000 0.000000 0.029035
#
#
# Mechanical properties :
#
#
# Convention : Reuss Voigt Hill
#
# Bulk Modulus (GPa) = 57.54551 67.50385 62.52468
# Shear Modulus (GPa) = 8.10093 17.41864 12.75978
#
# Velocity S-wave (km/s) = 1.96296 2.87840 2.46357
# Velocity P-wave (km/s) = 5.70168 6.56926 6.15079
#
# Compressibility (1/GPa) = 0.01737755
#
# Stress axis : x y z
#
# Youngs Moduli (GPa) = 16.09601 16.09781 108.25245
#
# Poissons Ratio (x) = 0.79431 0.47155
# Poissons Ratio (y) = 0.79422 0.47146
# Poissons Ratio (z) = 0.07012 0.07011
#
# Static dielectric constant tensor:
#      x y z
#    x 3.673070 0.000000 0.000000 
#    y 0.000000 3.673090 0.000000 
#    z 0.000000 0.000000 3.822720 
# 
# 
# High freq. dielectric constant tensor:
#      x y z
#    x 1.798580 0.000000 0.000000 
#    y 0.000000 1.798580 0.000000 
#    z 0.000000 0.000000 1.816850 
# 
# From -- ./inp_files/18773.got.cif
#   From: 2010.03.12/outbox.cif.g09.slc.cpg/sg37_10_cif.got.tgz:18773.got - 2010.04.14 02:25:27.
