data_PCOD8176541
_publ_section_title
;
Structure prediction by ZEFSAII (Michael W. Deem and Ramdas Pophale) SiO2 
 PCOD8176541
Probable space group: C C C 2
;
_chemical_formula_sum "Si O2"
_cell_formula_units_Z 64
_cell_length_a 8.841715
_cell_length_b 17.159577
_cell_length_c 21.198182
_cell_angle_alpha 90.000000
_cell_angle_beta 90.000000
_cell_angle_gamma 90.000000
_cell_volume 3216.190067
_symmetry_space_group_name_H-M "C C C 2"
_symmetry_group_IT_number 37
_symmetry_cell_setting 'orthorhombic'
loop_
_space_group_symop_operation_xyz
x,y,z
-x,-y,z
-x,y,1/2+z
x,-y,1/2+z
1/2+x,1/2+y,z
1/2-x,1/2-y,z
1/2-x,1/2+y,1/2+z
1/2+x,1/2-y,1/2+z
loop_
_atom_site_type_symbol
_atom_site_label
_atom_site_fract_x
_atom_site_fract_y
_atom_site_fract_z
Si Si1 0.073609 0.584921 0.089410
Si Si2 0.216404 0.426937 0.902988
Si Si3 0.884845 0.593794 0.440593
Si Si4 0.581112 0.244240 0.593505
Si Si5 0.610425 0.705241 0.951779
Si Si6 0.064751 0.082755 0.787064
Si Si7 0.330842 0.332486 0.662669
Si Si8 0.152941 0.185297 0.364072
O O1 0.231469 0.602162 0.125736
O O2 0.000000 0.500000 0.107076
O O3 0.965240 0.655790 0.110029
O O4 0.097838 0.591928 0.015303
O O5 0.199585 0.515213 0.921943
O O6 0.334229 0.385449 0.952012
O O7 0.291648 0.422023 0.833783
O O8 0.046617 0.391174 0.906577
O O9 0.767675 0.657191 0.417985
O O10 0.750000 0.250000 0.619679
O O11 0.570675 0.260030 0.519231
O O12 0.481427 0.312473 0.623854
O O13 0.750000 0.750000 0.920304
O O14 0.477453 0.725091 0.904578
O O15 0.122684 0.132101 0.728875
O O16 0.916195 0.122256 0.817402
O O17 0.000000 0.000000 0.764796
O O18 0.250000 0.250000 0.673909
O O19 0.250000 0.250000 0.324907
#
# Coordination Sequence:
#
# PCOD8176541 Si02
#       8
#     8   8   8   8   8   8   8   8
#     4  11  22  39  65  96 127 161 202 260 320 379
#     4  10  21  37  61  90 127 162 193 254 315 370
#     4  11  20  37  64  95 130 153 202 253 323 377
#     4  10  21  39  64  90 125 162 212 258 315 373
#     4  10  20  34  58  91 129 159 201 251 321 376
#     4  11  24  45  61  87 126 166 210 261 303 367
#     4  10  25  46  63  86 123 173 216 259 306 367
#     4  11  22  36  63  92 121 161 210 255 315 376
#
# _framework density 19.899321
#
# number of rings (size 3 to 8) (size 9 to 14) (size 15 to 20)
#    0.000    1.500    2.500    3.750    0.000    5.500 
#    2.250    2.500    0.000    0.000    0.000    0.000 
#    0.000    0.000    0.000    0.000    0.000    0.000 
#
# Total GULP energy -396499.136168 kJ/mol
# GULP energy per Si atom -12390.598005 kJ/mol
# Density = 1.985403 g / cm^3
# Si number density = 19.899321 Si / 1000 Ang^3
#
#
#
# Elastic Constant Matrix: (Units=GPa)
#
#
# Indices 1 2 3 4 5 6 
#
# 1 117.6120 60.4723 40.5408 0.0000 0.0000 0.0000
# 2 60.4723 90.1666 38.7486 0.0000 0.0000 0.0000
# 3 40.5408 38.7486 62.5770 0.0000 0.0000 0.0000
# 4 0.0000 0.0000 0.0000 28.6160 0.0000 0.0000
# 5 0.0000 0.0000 0.0000 0.0000 22.6633 0.0000
# 6 0.0000 0.0000 0.0000 0.0000 0.0000 38.0913
#
#
#
# Elastic Compliance Matrix: (Units=1/GPa)
#
#
# Indices 1 2 3 4 5 6 
#
# 1 0.013804 -0.007378 -0.004374 0.000000 0.000000 0.000000
# 2 -0.007378 0.019055 -0.007019 0.000000 0.000000 0.000000
# 3 -0.004374 -0.007019 0.023161 0.000000 0.000000 0.000000
# 4 0.000000 0.000000 0.000000 0.034945 0.000000 0.000000
# 5 0.000000 0.000000 0.000000 0.000000 0.044124 0.000000
# 6 0.000000 0.000000 0.000000 0.000000 0.000000 0.026253
#
#
# Mechanical properties :
#
#
# Convention : Reuss Voigt Hill
#
# Bulk Modulus (GPa) = 54.12310 61.09768 57.61039
# Shear Modulus (GPa) = 24.38487 26.58038 25.48263
#
# Velocity S-wave (km/s) = 3.50439 3.65875 3.58240
# Velocity P-wave (km/s) = 6.60544 6.97271 6.79155
#
# Compressibility (1/GPa) = 0.01847640
#
# Stress axis : x y z
#
# Youngs Moduli (GPa) = 72.44312 52.47845 43.17640
#
# Poissons Ratio (x) = 0.38719 0.18887
# Poissons Ratio (y) = 0.53449 0.30308
# Poissons Ratio (z) = 0.31689 0.36837
#
# Static dielectric constant tensor:
#      x y z
#    x 4.018180 0.000000 0.000000 
#    y 0.000000 3.991330 0.000000 
#    z 0.000000 0.000000 3.467590 
# 
# 
# High freq. dielectric constant tensor:
#      x y z
#    x 1.796210 0.000000 0.000000 
#    y 0.000000 1.794780 0.000000 
#    z 0.000000 0.000000 1.748010 
# 
# From -- ./inp_files/16540.got.cif
#   From: 2010.03.12/outbox.cif.g09.slc.cpg/sg37_9_cif.got.tgz:16540.got - 2010.04.14 02:25:27.
