data_PCOD8176111
_publ_section_title
;
Structure prediction by ZEFSAII (Michael W. Deem and Ramdas Pophale) SiO2 
 PCOD8176111
Probable space group: C M C 21
;
_chemical_formula_sum "Si O2"
_cell_formula_units_Z 64
_cell_length_a 9.087990
_cell_length_b 23.284801
_cell_length_c 14.293583
_cell_angle_alpha 90.000000
_cell_angle_beta 90.000000
_cell_angle_gamma 90.000000
_cell_volume 3024.694238
_symmetry_space_group_name_H-M "C M C 21"
_symmetry_group_IT_number 36
_symmetry_cell_setting 'orthorhombic'
loop_
_space_group_symop_operation_xyz
x,y,z
-x,-y,1/2+z
x,-y,1/2+z
-x,y,z
1/2+x,1/2+y,z
1/2-x,1/2-y,1/2+z
1/2+x,1/2-y,1/2+z
1/2-x,1/2+y,z
loop_
_atom_site_type_symbol
_atom_site_label
_atom_site_fract_x
_atom_site_fract_y
_atom_site_fract_z
Si Si1 0.830570 0.454596 0.947540
Si Si2 0.174426 0.913286 0.775949
Si Si3 0.834264 0.604747 0.736871
Si Si4 0.828373 0.275988 0.543719
Si Si5 0.673075 0.203759 0.257259
Si Si6 0.673353 0.011286 0.135654
Si Si7 0.663214 0.835453 0.047265
Si Si8 0.672661 0.317529 0.371221
O O1 0.728980 0.458496 0.855547
O O2 0.000000 0.462681 0.917348
O O3 0.787277 0.502103 0.025811
O O4 0.802686 0.392990 0.992409
O O5 0.239764 0.850540 0.798840
O O6 0.000000 0.910774 0.773663
O O7 0.235974 0.934756 0.675529
O O8 0.779150 0.544556 0.694995
O O9 0.828578 0.653221 0.657385
O O10 0.728443 0.625141 0.819664
O O11 0.000000 0.598529 0.775670
O O12 0.780712 0.289263 0.649392
O O13 0.783226 0.211094 0.517894
O O14 0.744339 0.318594 0.473914
O O15 0.000000 0.283551 0.527930
O O16 0.500000 0.192053 0.267531
O O17 0.720031 0.260247 0.314693
O O18 0.500000 0.022877 0.145981
O O19 0.500000 0.812350 0.020628
O O20 0.500000 0.321991 0.381129
#
# Coordination Sequence:
#
# PCOD8176111 Si02
#       8
#     8   8   8   8   8   8   8   8
#     4   9  19  38  64  90 115 155 203 241 290 358
#     4  12  25  39  60  91 123 156 197 251 306 347
#     4   9  18  35  60  86 111 144 190 238 287 345
#     4  11  22  36  55  84 118 157 200 237 287 354
#     4  10  23  42  60  82 120 165 203 237 288 359
#     4   9  20  41  66  88 114 155 201 242 290 355
#     4   9  17  32  57  86 115 146 188 243 290 338
#     4  11  22  37  58  87 120 156 194 239 296 352
#
# _framework density 21.159165000000002
#
# number of rings (size 3 to 8) (size 9 to 14) (size 15 to 20)
#    0.000    2.000    1.250    4.125    0.000    6.500 
#    2.250    2.500    0.000    0.000    0.000    0.000 
#    0.000    0.000    0.000    0.000    0.000    0.000 
#
# Total GULP energy -396825.847162 kJ/mol
# GULP energy per Si atom -12400.807724 kJ/mol
# Density = 2.111101 g / cm^3
# Si number density = 21.159165 Si / 1000 Ang^3
#
#
#
# Elastic Constant Matrix: (Units=GPa)
#
#
# Indices 1 2 3 4 5 6 
#
# 1 69.8660 12.5327 29.6675 0.0000 0.0000 0.0000
# 2 12.5327 30.5002 -6.1626 0.0000 0.0000 0.0000
# 3 29.6675 -6.1626 85.7953 0.0000 0.0000 0.0000
# 4 0.0000 0.0000 0.0000 27.1055 0.0000 0.0000
# 5 0.0000 0.0000 0.0000 0.0000 30.3030 0.0000
# 6 0.0000 0.0000 0.0000 0.0000 0.0000 29.7776
#
#
#
# Elastic Compliance Matrix: (Units=1/GPa)
#
#
# Indices 1 2 3 4 5 6 
#
# 1 0.019065 -0.009301 -0.007260 0.000000 0.000000 0.000000
# 2 -0.009301 0.037807 0.005932 0.000000 0.000000 0.000000
# 3 -0.007260 0.005932 0.014592 0.000000 0.000000 0.000000
# 4 0.000000 0.000000 0.000000 0.036893 0.000000 0.000000
# 5 0.000000 0.000000 0.000000 0.000000 0.033000 0.000000
# 6 0.000000 0.000000 0.000000 0.000000 0.000000 0.033582
#
#
# Mechanical properties :
#
#
# Convention : Reuss Voigt Hill
#
# Bulk Modulus (GPa) = 19.91835 28.69296 24.30566
# Shear Modulus (GPa) = 23.48160 27.44549 25.46355
#
# Velocity S-wave (km/s) = 3.33492 3.60543 3.47281
# Velocity P-wave (km/s) = 4.92574 5.56077 5.25286
#
# Compressibility (1/GPa) = 0.05020497
#
# Stress axis : x y z
#
# Youngs Moduli (GPa) = 52.45350 26.45021 68.52912
#
# Poissons Ratio (x) = 0.24601 0.49755
# Poissons Ratio (y) = 0.48785 -0.40650
# Poissons Ratio (z) = 0.38084 -0.15690
#
# Static dielectric constant tensor:
#      x y z
#    x 3.577240 0.000000 0.000000 
#    y 0.000000 3.625460 0.000000 
#    z 0.000000 0.000000 4.037040 
# 
# 
# High freq. dielectric constant tensor:
#      x y z
#    x 1.810540 0.000000 0.000000 
#    y 0.000000 1.815490 0.000000 
#    z 0.000000 0.000000 1.840080 
# 
# From -- ./inp_files/11024.got.cif
#   From: 2010.03.12/outbox.cif.g09.slc.cpg/sg36_6_cif.got.tgz:11024.got - 2010.04.14 02:13:53.
