data_PCOD8176921
_publ_section_title
;
Structure prediction by ZEFSAII (Michael W. Deem and Ramdas Pophale) SiO2 
 PCOD8176921
Probable space group: C C C 2
;
_chemical_formula_sum "Si O2"
_cell_formula_units_Z 64
_cell_length_a 7.730974
_cell_length_b 27.695467
_cell_length_c 13.248317
_cell_angle_alpha 90.000000
_cell_angle_beta 90.000000
_cell_angle_gamma 90.000000
_cell_volume 2836.636041
_symmetry_space_group_name_H-M "C C C 2"
_symmetry_group_IT_number 37
_symmetry_cell_setting 'orthorhombic'
loop_
_space_group_symop_operation_xyz
x,y,z
-x,-y,z
-x,y,1/2+z
x,-y,1/2+z
1/2+x,1/2+y,z
1/2-x,1/2-y,z
1/2-x,1/2+y,1/2+z
1/2+x,1/2-y,1/2+z
loop_
_atom_site_type_symbol
_atom_site_label
_atom_site_fract_x
_atom_site_fract_y
_atom_site_fract_z
Si Si1 0.745738 0.549519 0.549060
Si Si2 0.804431 0.381654 0.225980
Si Si3 0.338736 0.699824 0.879905
Si Si4 0.920925 0.138275 0.700688
Si Si5 0.151846 0.059840 0.054515
Si Si6 0.078487 0.780052 0.534316
Si Si7 0.048972 0.397375 0.938343
Si Si8 0.900219 0.684966 0.555700
O O1 0.815725 0.572260 0.652545
O O2 0.549107 0.564737 0.520030
O O3 0.732251 0.492913 0.571334
O O4 0.883680 0.567371 0.463436
O O5 0.603703 0.373811 0.253122
O O6 0.935915 0.388574 0.318741
O O7 0.868394 0.334228 0.167376
O O8 0.250000 0.750000 0.847372
O O9 0.308460 0.663322 0.787877
O O10 0.539327 0.707035 0.915834
O O11 0.260899 0.675664 0.980996
O O12 0.827799 0.089717 0.659725
O O13 0.935313 0.174269 0.606312
O O14 0.266627 0.079959 0.964585
O O15 0.250000 0.750000 0.545874
O O16 0.931230 0.741742 0.566637
O O17 0.049784 0.346678 0.000224
#
# Coordination Sequence:
#
# PCOD8176921 Si02
#       8
#     8   8   8   8   8   8   8   8
#     4   9  22  47  69  97 142 176 227 296 354 424
#     4  10  23  41  68 100 135 177 227 286 356 420
#     4  10  23  42  62  95 137 182 229 288 349 406
#     4  11  23  39  69  98 135 183 234 290 344 426
#     4  10  22  45  71  98 134 183 227 292 359 420
#     4  11  23  40  63  94 133 180 238 284 341 412
#     4  11  23  40  70 103 134 180 237 283 359 427
#     4  10  23  44  61  92 138 178 217 288 345 413
#
# _framework density 22.561935999999999
#
# number of rings (size 3 to 8) (size 9 to 14) (size 15 to 20)
#    0.000    1.750    1.250    1.500    3.500    5.000 
#    0.000   16.250    0.000    0.000    0.000    0.000 
#    0.000    0.000    0.000    0.000    0.000    0.000 
#
# Total GULP energy -396500.476385 kJ/mol
# GULP energy per Si atom -12390.639887 kJ/mol
# Density = 2.251058 g / cm^3
# Si number density = 22.561936 Si / 1000 Ang^3
#
#
#
# Elastic Constant Matrix: (Units=GPa)
#
#
# Indices 1 2 3 4 5 6 
#
# 1 74.6930 15.8997 38.9529 0.0000 0.0000 0.0000
# 2 15.8997 108.4405 40.6186 0.0000 0.0000 0.0000
# 3 38.9529 40.6186 116.9729 0.0000 0.0000 0.0000
# 4 0.0000 0.0000 0.0000 24.6258 0.0000 0.0000
# 5 0.0000 0.0000 0.0000 0.0000 21.5854 0.0000
# 6 0.0000 0.0000 0.0000 0.0000 0.0000 25.0281
#
#
#
# Elastic Compliance Matrix: (Units=1/GPa)
#
#
# Indices 1 2 3 4 5 6 
#
# 1 0.016218 -0.000408 -0.005259 0.000000 0.000000 0.000000
# 2 -0.000408 0.010611 -0.003549 0.000000 0.000000 0.000000
# 3 -0.005259 -0.003549 0.011533 0.000000 0.000000 0.000000
# 4 0.000000 0.000000 0.000000 0.040608 0.000000 0.000000
# 5 0.000000 0.000000 0.000000 0.000000 0.046328 0.000000
# 6 0.000000 0.000000 0.000000 0.000000 0.000000 0.039955
#
#
# Mechanical properties :
#
#
# Convention : Reuss Voigt Hill
#
# Bulk Modulus (GPa) = 50.17663 54.56097 52.36880
# Shear Modulus (GPa) = 26.27079 27.89022 27.08051
#
# Velocity S-wave (km/s) = 3.41601 3.51972 3.46826
# Velocity P-wave (km/s) = 6.15196 6.38382 6.26896
#
# Compressibility (1/GPa) = 0.01992960
#
# Stress axis : x y z
#
# Youngs Moduli (GPa) = 61.66163 94.24452 86.71142
#
# Poissons Ratio (x) = 0.03845 0.45601
# Poissons Ratio (y) = 0.02516 0.30771
# Poissons Ratio (z) = 0.32427 0.33444
#
# Static dielectric constant tensor:
#      x y z
#    x 4.329060 0.000000 0.000000 
#    y 0.000000 4.568140 0.000000 
#    z 0.000000 0.000000 3.766350 
# 
# 
# High freq. dielectric constant tensor:
#      x y z
#    x 1.899010 0.000000 0.000000 
#    y 0.000000 1.899980 0.000000 
#    z 0.000000 0.000000 1.867730 
# 
# From -- ./inp_files/6647.got.cif
#   From: 2010.03.12/outbox.cif.g09.slc.cpg/sg37_4_cif.got.tgz:6647.got - 2010.04.14 02:25:27.
