data_PCOD8176886
_publ_section_title
;
Structure prediction by ZEFSAII (Michael W. Deem and Ramdas Pophale) SiO2 
 PCOD8176886
Probable space group: C C C 2
;
_chemical_formula_sum "Si O2"
_cell_formula_units_Z 64
_cell_length_a 11.227290
_cell_length_b 30.800147
_cell_length_c 8.306906
_cell_angle_alpha 90.000000
_cell_angle_beta 90.000000
_cell_angle_gamma 90.000000
_cell_volume 2872.546224
_symmetry_space_group_name_H-M "C C C 2"
_symmetry_group_IT_number 37
_symmetry_cell_setting 'orthorhombic'
loop_
_space_group_symop_operation_xyz
x,y,z
-x,-y,z
-x,y,1/2+z
x,-y,1/2+z
1/2+x,1/2+y,z
1/2-x,1/2-y,z
1/2-x,1/2+y,1/2+z
1/2+x,1/2-y,1/2+z
loop_
_atom_site_type_symbol
_atom_site_label
_atom_site_fract_x
_atom_site_fract_y
_atom_site_fract_z
Si Si1 0.452192 0.100144 0.436760
Si Si2 0.141424 0.222344 0.460733
Si Si3 0.943437 0.264566 0.266388
Si Si4 0.148775 0.970962 0.330170
Si Si5 0.389535 0.822354 0.547439
Si Si6 0.922138 0.057769 0.687464
Si Si7 0.085333 0.458845 0.712968
Si Si8 0.280010 0.359060 0.287828
O O1 0.532472 0.134138 0.533674
O O2 0.409772 0.056385 0.528697
O O3 0.533259 0.083910 0.293124
O O4 0.336106 0.122435 0.369631
O O5 0.250000 0.250000 0.383628
O O6 0.137430 0.234216 0.651311
O O7 0.161983 0.171765 0.423528
O O8 0.015284 0.233229 0.383828
O O9 0.866170 0.298006 0.376602
O O10 0.036689 0.291754 0.164272
O O11 0.124527 0.954835 0.511205
O O12 0.286102 0.966633 0.287457
O O13 0.066730 0.943303 0.204067
O O14 0.121049 0.022150 0.317676
O O15 0.260853 0.833231 0.626398
O O16 0.874941 0.104735 0.737428
O O17 0.000000 0.500000 0.731336
#
# Coordination Sequence:
#
# PCOD8176886 Si02
#       8
#     8   8   8   8   8   8   8   8
#     4  12  24  42  68 110 140 185 236 307 368 418
#     4  11  23  46  69 104 139 191 231 304 365 435
#     4  10  22  42  71  99 141 180 241 283 379 438
#     4  11  26  47  71 102 147 203 253 290 377 437
#     4  11  19  42  69 103 137 185 230 304 367 437
#     4  11  26  46  72 103 144 206 247 299 354 447
#     4  12  27  42  71 104 147 186 242 304 368 425
#     4  12  24  42  77 103 153 186 252 302 362 438
#
# _framework density 22.279886000000001
#
# number of rings (size 3 to 8) (size 9 to 14) (size 15 to 20)
#    0.000    0.750    3.750    4.125    7.000    1.000 
#    4.500    0.000    0.000    0.000    0.000    0.000 
#    0.000    0.000    0.000    0.000    0.000    0.000 
#
# Total GULP energy -396694.053640 kJ/mol
# GULP energy per Si atom -12396.689176 kJ/mol
# Density = 2.222918 g / cm^3
# Si number density = 22.279886 Si / 1000 Ang^3
#
#
#
# Elastic Constant Matrix: (Units=GPa)
#
#
# Indices 1 2 3 4 5 6 
#
# 1 183.6265 26.1366 51.8767 0.0000 0.0000 0.0000
# 2 26.1366 156.1303 59.2955 0.0000 0.0000 0.0000
# 3 51.8767 59.2955 113.5796 0.0000 0.0000 0.0000
# 4 0.0000 0.0000 0.0000 49.3687 0.0000 0.0000
# 5 0.0000 0.0000 0.0000 0.0000 29.3691 0.0000
# 6 0.0000 0.0000 0.0000 0.0000 0.0000 34.7343
#
#
#
# Elastic Compliance Matrix: (Units=1/GPa)
#
#
# Indices 1 2 3 4 5 6 
#
# 1 0.006253 0.000047 -0.002881 0.000000 0.000000 0.000000
# 2 0.000047 0.007989 -0.004192 0.000000 0.000000 0.000000
# 3 -0.002881 -0.004192 0.012309 0.000000 0.000000 0.000000
# 4 0.000000 0.000000 0.000000 0.020256 0.000000 0.000000
# 5 0.000000 0.000000 0.000000 0.000000 0.034049 0.000000
# 6 0.000000 0.000000 0.000000 0.000000 0.000000 0.028790
#
#
# Mechanical properties :
#
#
# Convention : Reuss Voigt Hill
#
# Bulk Modulus (GPa) = 80.00449 80.88377 80.44413
# Shear Modulus (GPa) = 39.10398 43.76292 41.43345
#
# Velocity S-wave (km/s) = 4.19397 4.43678 4.31708
# Velocity P-wave (km/s) = 7.70969 7.91385 7.81243
#
# Compressibility (1/GPa) = 0.01249930
#
# Stress axis : x y z
#
# Youngs Moduli (GPa) = 159.92503 125.16876 81.24243
#
# Poissons Ratio (x) = -0.00592 0.23403
# Poissons Ratio (y) = -0.00756 0.34060
# Poissons Ratio (z) = 0.46069 0.52476
#
# Static dielectric constant tensor:
#      x y z
#    x 3.978040 0.000000 0.000000 
#    y 0.000000 4.076670 0.000000 
#    z 0.000000 0.000000 4.329490 
# 
# 
# High freq. dielectric constant tensor:
#      x y z
#    x 1.873250 0.000000 0.000000 
#    y 0.000000 1.879010 0.000000 
#    z 0.000000 0.000000 1.887870 
# 
# From -- ./inp_files/3123.got.cif
#   From: 2010.03.12/outbox.cif.g09.slc.cpg/sg37_2_cif.got.tgz:3123.got - 2010.04.14 02:25:27.
