data_PCOD8176375
_publ_section_title
;
Structure prediction by ZEFSAII (Michael W. Deem and Ramdas Pophale) SiO2 
 PCOD8176375
Probable space group: C C C 2
;
_chemical_formula_sum "Si O2"
_cell_formula_units_Z 52
_cell_length_a 13.918965
_cell_length_b 19.608622
_cell_length_c 9.467489
_cell_angle_alpha 90.000000
_cell_angle_beta 90.000000
_cell_angle_gamma 90.000000
_cell_volume 2583.978088
_symmetry_space_group_name_H-M "C C C 2"
_symmetry_group_IT_number 37
_symmetry_cell_setting 'orthorhombic'
loop_
_space_group_symop_operation_xyz
x,y,z
-x,-y,z
-x,y,1/2+z
x,-y,1/2+z
1/2+x,1/2+y,z
1/2-x,1/2-y,z
1/2-x,1/2+y,1/2+z
1/2+x,1/2-y,1/2+z
loop_
_atom_site_type_symbol
_atom_site_label
_atom_site_fract_x
_atom_site_fract_y
_atom_site_fract_z
Si Si1 0.250921 0.913169 0.414570
Si Si2 0.921914 0.680713 0.991797
Si Si3 0.250000 0.750000 0.806427
Si Si4 0.764059 0.534319 0.220896
Si Si5 0.607928 0.363206 0.752036
Si Si6 0.900974 0.648116 0.314671
Si Si7 0.441918 0.337247 0.957193
O O1 0.324738 0.851618 0.432383
O O2 0.262746 0.962691 0.550721
O O3 0.145203 0.881650 0.394592
O O4 0.272409 0.956718 0.273734
O O5 0.920505 0.757846 0.939091
O O6 0.010087 0.639908 0.919886
O O7 0.931182 0.678129 0.161399
O O8 0.311751 0.695429 0.715370
O O9 0.173493 0.702373 0.890292
O O10 0.663549 0.565995 0.275407
O O11 0.853814 0.574645 0.289232
O O12 0.544479 0.351333 0.888124
O O13 0.539318 0.362190 0.616684
#
# Coordination Sequence:
#
# PCOD8176375 Si02
#       7
#     8   8   4   8   8   8   8
#     4  10  23  38  61  79 122 152 199 229 285 340
#     4  11  20  37  60  92 111 153 186 242 286 345
#     4  10  16  36  56  82 108 152 174 234 274 350
#     4   9  22  41  56  85 110 168 187 235 280 343
#     4  10  21  35  63  82 120 145 195 231 291 336
#     4  10  21  35  63  82 120 145 195 231 291 336
#     4  11  20  37  60  92 111 153 186 242 286 345
#
# _framework density 20.124009999999998
#
# number of rings (size 3 to 8) (size 9 to 14) (size 15 to 20)
#    0.000    1.846    3.077    1.385    0.000    3.692 
#    0.000    7.692    0.000    0.000    0.000    0.000 
#    0.000    0.000    0.000    0.000    0.000    0.000 
#
# Total GULP energy -322242.826177 kJ/mol
# GULP energy per Si atom -12393.954853 kJ/mol
# Density = 2.007821 g / cm^3
# Si number density = 20.124010 Si / 1000 Ang^3
#
#
#
# Elastic Constant Matrix: (Units=GPa)
#
#
# Indices 1 2 3 4 5 6 
#
# 1 79.9452 1.7109 33.9054 0.0000 0.0000 0.0000
# 2 1.7109 42.1911 12.4892 0.0000 0.0000 0.0000
# 3 33.9054 12.4892 55.0421 0.0000 0.0000 0.0000
# 4 0.0000 0.0000 0.0000 27.5640 0.0000 0.0000
# 5 0.0000 0.0000 0.0000 0.0000 32.8630 0.0000
# 6 0.0000 0.0000 0.0000 0.0000 0.0000 24.1456
#
#
#
# Elastic Compliance Matrix: (Units=1/GPa)
#
#
# Indices 1 2 3 4 5 6 
#
# 1 0.017197 0.002614 -0.011186 0.000000 0.000000 0.000000
# 2 0.002614 0.025806 -0.007465 0.000000 0.000000 0.000000
# 3 -0.011186 -0.007465 0.026752 0.000000 0.000000 0.000000
# 4 0.000000 0.000000 0.000000 0.036279 0.000000 0.000000
# 5 0.000000 0.000000 0.000000 0.000000 0.030429 0.000000
# 6 0.000000 0.000000 0.000000 0.000000 0.000000 0.041415
#
#
# Mechanical properties :
#
#
# Convention : Reuss Voigt Hill
#
# Bulk Modulus (GPa) = 26.53976 30.37660 28.45818
# Shear Modulus (GPa) = 22.47051 25.51938 23.99494
#
# Velocity S-wave (km/s) = 3.34518 3.56491 3.45679
# Velocity P-wave (km/s) = 5.30444 5.66324 5.48677
#
# Compressibility (1/GPa) = 0.03767931
#
# Stress axis : x y z
#
# Youngs Moduli (GPa) = 58.15053 38.75129 37.37988
#
# Poissons Ratio (x) = -0.10129 0.41814
# Poissons Ratio (y) = -0.15200 0.27906
# Poissons Ratio (z) = 0.65048 0.28930
#
# Static dielectric constant tensor:
#      x y z
#    x 3.791490 0.000000 0.000000 
#    y 0.000000 3.567650 0.000000 
#    z 0.000000 0.000000 3.412010 
# 
# 
# High freq. dielectric constant tensor:
#      x y z
#    x 1.794210 0.000000 0.000000 
#    y 0.000000 1.784190 0.000000 
#    z 0.000000 0.000000 1.759740 
# 
# From -- ./inp_files/3604.got.cif
#   From: 2010.03.12/outbox.cif.g09.slc.cpg/sg37_2_cif.got.tgz:3604.got - 2010.04.14 02:25:27.
