data_PCOD8176640
_publ_section_title
;
Structure prediction by ZEFSAII (Michael W. Deem and Ramdas Pophale) SiO2 
 PCOD8176640
Probable space group: C C C 2
;
_chemical_formula_sum "Si O2"
_cell_formula_units_Z 40
_cell_length_a 8.319283
_cell_length_b 26.018341
_cell_length_c 8.800354
_cell_angle_alpha 90.000000
_cell_angle_beta 90.000000
_cell_angle_gamma 90.000000
_cell_volume 1904.871314
_symmetry_space_group_name_H-M "C C C 2"
_symmetry_group_IT_number 37
_symmetry_cell_setting 'orthorhombic'
loop_
_space_group_symop_operation_xyz
x,y,z
-x,-y,z
-x,y,1/2+z
x,-y,1/2+z
1/2+x,1/2+y,z
1/2-x,1/2-y,z
1/2-x,1/2+y,1/2+z
1/2+x,1/2-y,1/2+z
loop_
_atom_site_type_symbol
_atom_site_label
_atom_site_fract_x
_atom_site_fract_y
_atom_site_fract_z
Si Si1 0.085295 0.446148 0.479710
Si Si2 0.400900 0.153090 0.060144
Si Si3 0.823132 0.098788 0.774608
Si Si4 0.630069 0.602530 0.609853
Si Si5 0.196950 0.306915 0.748597
O O1 0.181659 0.442694 0.316972
O O2 0.217520 0.437070 0.615008
O O3 0.000000 0.500000 0.499277
O O4 0.952748 0.401310 0.485517
O O5 0.255185 0.144920 0.178211
O O6 0.545274 0.180447 0.144826
O O7 0.343213 0.190193 0.926426
O O8 0.969975 0.074774 0.676148
O O9 0.894649 0.120039 0.934162
O O10 0.660792 0.653138 0.710108
O O11 0.250000 0.250000 0.706695
#
# Coordination Sequence:
#
# PCOD8176640 Si02
#       5
#     8   8   8   8   8
#     4   9  21  40  69  99 127 185 225 272 347 418
#     4  11  21  43  64  97 136 179 229 284 333 416
#     4  10  20  40  70  92 140 173 220 287 341 393
#     4   9  21  40  65 102 132 172 219 295 331 404
#     4  11  23  41  64  97 136 180 233 275 349 407
#
# _framework density 20.998794
#
# number of rings (size 3 to 8) (size 9 to 14) (size 15 to 20)
#    1.200    0.800    2.000    1.200    0.000    4.000 
#    0.000    3.000    4.400    3.600    0.000    0.000 
#    0.000    0.000    0.000    0.000    0.000    0.000 
#
# Total GULP energy -247841.709034 kJ/mol
# GULP energy per Si atom -12392.085452 kJ/mol
# Density = 2.095100 g / cm^3
# Si number density = 20.998794 Si / 1000 Ang^3
#
#
#
# Elastic Constant Matrix: (Units=GPa)
#
#
# Indices 1 2 3 4 5 6 
#
# 1 101.7429 47.1201 47.5156 0.0000 0.0000 0.0000
# 2 47.1201 117.3274 37.5006 0.0000 0.0000 0.0000
# 3 47.5156 37.5006 123.0791 0.0000 0.0000 0.0000
# 4 0.0000 0.0000 0.0000 22.5639 0.0000 0.0000
# 5 0.0000 0.0000 0.0000 0.0000 52.9318 0.0000
# 6 0.0000 0.0000 0.0000 0.0000 0.0000 24.5572
#
#
#
# Elastic Compliance Matrix: (Units=1/GPa)
#
#
# Indices 1 2 3 4 5 6 
#
# 1 0.013636 -0.004203 -0.003984 0.000000 0.000000 0.000000
# 2 -0.004203 0.010738 -0.001649 0.000000 0.000000 0.000000
# 3 -0.003984 -0.001649 0.010165 0.000000 0.000000 0.000000
# 4 0.000000 0.000000 0.000000 0.044319 0.000000 0.000000
# 5 0.000000 0.000000 0.000000 0.000000 0.018892 0.000000
# 6 0.000000 0.000000 0.000000 0.000000 0.000000 0.040721
#
#
# Mechanical properties :
#
#
# Convention : Reuss Voigt Hill
#
# Bulk Modulus (GPa) = 67.26027 67.38021 67.32024
# Shear Modulus (GPa) = 30.65631 34.01145 32.33388
#
# Velocity S-wave (km/s) = 3.82502 4.02890 3.92828
# Velocity P-wave (km/s) = 7.18386 7.33485 7.25974
#
# Compressibility (1/GPa) = 0.01486762
#
# Stress axis : x y z
#
# Youngs Moduli (GPa) = 73.33742 93.12497 98.37464
#
# Poissons Ratio (x) = 0.39140 0.39188
# Poissons Ratio (y) = 0.30824 0.16224
# Poissons Ratio (z) = 0.29214 0.15358
#
# Static dielectric constant tensor:
#      x y z
#    x 3.948920 0.000000 0.000000 
#    y 0.000000 3.331070 0.000000 
#    z 0.000000 0.000000 3.863630 
# 
# 
# High freq. dielectric constant tensor:
#      x y z
#    x 1.834550 0.000000 0.000000 
#    y 0.000000 1.775030 0.000000 
#    z 0.000000 0.000000 1.833210 
# 
# From -- ./inp_files/2219.got.cif
#   From: 2010.03.12/outbox.cif.g09.slc.cpg/sg37_2_cif.got.tgz:2219.got - 2010.04.14 02:25:27.
