data_PCOD8176480
_publ_section_title
;
Structure prediction by ZEFSAII (Michael W. Deem and Ramdas Pophale) SiO2 
 PCOD8176480
Probable space group: C C C 2
;
_chemical_formula_sum "Si O2"
_cell_formula_units_Z 48
_cell_length_a 28.721505
_cell_length_b 9.560628
_cell_length_c 8.453724
_cell_angle_alpha 90.000000
_cell_angle_beta 90.000000
_cell_angle_gamma 90.000000
_cell_volume 2321.355625
_symmetry_space_group_name_H-M "C C C 2"
_symmetry_group_IT_number 37
_symmetry_cell_setting 'orthorhombic'
loop_
_space_group_symop_operation_xyz
x,y,z
-x,-y,z
-x,y,1/2+z
x,-y,1/2+z
1/2+x,1/2+y,z
1/2-x,1/2-y,z
1/2-x,1/2+y,1/2+z
1/2+x,1/2-y,1/2+z
loop_
_atom_site_type_symbol
_atom_site_label
_atom_site_fract_x
_atom_site_fract_y
_atom_site_fract_z
Si Si1 0.163110 0.366274 0.532150
Si Si2 0.500000 0.500000 0.635433
Si Si3 0.363088 0.406110 0.412040
Si Si4 0.750000 0.750000 0.337093
Si Si5 0.438142 0.370673 0.895797
Si Si6 0.315106 0.613044 0.603321
Si Si7 0.143370 0.341237 0.889994
O O1 0.126392 0.245989 0.483671
O O2 0.211600 0.328024 0.444091
O O3 0.167632 0.364934 0.720788
O O4 0.140580 0.511183 0.478036
O O5 0.461721 0.413836 0.732323
O O6 0.522467 0.373699 0.531394
O O7 0.404071 0.508333 0.455679
O O8 0.315687 0.470691 0.497671
O O9 0.358796 0.396668 0.223356
O O10 0.729542 0.632204 0.216797
O O11 0.408730 0.226158 0.880198
O O12 0.321287 0.744703 0.487754
#
# Coordination Sequence:
#
# PCOD8176480 Si02
#       7
#     8   4   8   4   8   8   8
#     4  11  23  38  61  87 120 166 205 250 304 347
#     4  10  20  34  66 100 118 148 190 260 310 340
#     4  10  19  36  60  87 117 160 199 237 294 370
#     4  10  24  40  58  92 124 152 212 264 296 350
#     4  10  20  38  63  92 122 148 199 246 298 371
#     4  10  21  36  58  84 117 158 201 252 301 340
#     4  11  23  41  60  86 121 167 205 243 306 377
#
# _framework density 20.677572999999999
#
# number of rings (size 3 to 8) (size 9 to 14) (size 15 to 20)
#    0.000    1.667    0.000    7.000    0.000    6.000 
#    0.000    0.000    0.000   17.000    0.000    0.000 
#    0.000    0.000    0.000    0.000    0.000    0.000 
#
# Total GULP energy -297369.436697 kJ/mol
# GULP energy per Si atom -12390.393196 kJ/mol
# Density = 2.063051 g / cm^3
# Si number density = 20.677573 Si / 1000 Ang^3
#
#
#
# Elastic Constant Matrix: (Units=GPa)
#
#
# Indices 1 2 3 4 5 6 
#
# 1 82.4066 31.0661 37.5296 0.0000 0.0000 0.0000
# 2 31.0661 140.3562 51.8645 0.0000 0.0000 0.0000
# 3 37.5296 51.8645 160.2626 0.0000 0.0000 0.0000
# 4 0.0000 0.0000 0.0000 35.3452 0.0000 0.0000
# 5 0.0000 0.0000 0.0000 0.0000 30.4672 0.0000
# 6 0.0000 0.0000 0.0000 0.0000 0.0000 28.8026
#
#
#
# Elastic Compliance Matrix: (Units=1/GPa)
#
#
# Indices 1 2 3 4 5 6 
#
# 1 0.014140 -0.002165 -0.002611 0.000000 0.000000 0.000000
# 2 -0.002165 0.008424 -0.002219 0.000000 0.000000 0.000000
# 3 -0.002611 -0.002219 0.007569 0.000000 0.000000 0.000000
# 4 0.000000 0.000000 0.000000 0.028292 0.000000 0.000000
# 5 0.000000 0.000000 0.000000 0.000000 0.032822 0.000000
# 6 0.000000 0.000000 0.000000 0.000000 0.000000 0.034719
#
#
# Mechanical properties :
#
#
# Convention : Reuss Voigt Hill
#
# Bulk Modulus (GPa) = 61.94392 69.32732 65.63562
# Shear Modulus (GPa) = 34.40260 36.42734 35.41497
#
# Velocity S-wave (km/s) = 4.08335 4.20179 4.14300
# Velocity P-wave (km/s) = 7.22868 7.55915 7.39576
#
# Compressibility (1/GPa) = 0.01614363
#
# Stress axis : x y z
#
# Youngs Moduli (GPa) = 70.72105 118.70882 132.11309
#
# Poissons Ratio (x) = 0.25701 0.34489
# Poissons Ratio (y) = 0.15312 0.29318
# Poissons Ratio (z) = 0.18462 0.26344
#
# Static dielectric constant tensor:
#      x y z
#    x 3.792220 0.000000 0.000000 
#    y 0.000000 3.799480 0.000000 
#    z 0.000000 0.000000 4.036890 
# 
# 
# High freq. dielectric constant tensor:
#      x y z
#    x 1.784490 0.000000 0.000000 
#    y 0.000000 1.797460 0.000000 
#    z 0.000000 0.000000 1.842930 
# 
# From -- ./inp_files/2441.got.cif
#   From: 2010.03.12/outbox.cif.g09.slc.cpg/sg37_2_cif.got.tgz:2441.got - 2010.04.14 02:25:27.
