data_PCOD8176148
_publ_section_title
;
Structure prediction by ZEFSAII (Michael W. Deem and Ramdas Pophale) SiO2 
 PCOD8176148
Probable space group: C M C 21
;
_chemical_formula_sum "Si O2"
_cell_formula_units_Z 40
_cell_length_a 30.225711
_cell_length_b 11.206144
_cell_length_c 4.940103
_cell_angle_alpha 90.000000
_cell_angle_beta 90.000000
_cell_angle_gamma 90.000000
_cell_volume 1673.280417
_symmetry_space_group_name_H-M "C M C 21"
_symmetry_group_IT_number 36
_symmetry_cell_setting 'orthorhombic'
loop_
_space_group_symop_operation_xyz
x,y,z
-x,-y,1/2+z
x,-y,1/2+z
-x,y,z
1/2+x,1/2+y,z
1/2-x,1/2-y,1/2+z
1/2+x,1/2-y,1/2+z
1/2-x,1/2+y,z
loop_
_atom_site_type_symbol
_atom_site_label
_atom_site_fract_x
_atom_site_fract_y
_atom_site_fract_z
Si Si1 0.145257 0.921208 0.615490
Si Si2 0.572081 0.750000 0.006028
Si Si3 0.645257 0.921208 0.896565
Si Si4 0.221335 0.250000 0.006028
Si Si5 0.500000 0.915798 0.238415
Si Si6 0.000000 0.915798 0.273641
O O1 0.103941 0.834848 0.684133
O O2 0.191571 0.852535 0.643961
O O3 0.142428 0.965227 0.307332
O O4 0.603941 0.834849 0.827923
O O5 0.542705 0.832029 0.203472
O O6 0.542705 0.667971 0.808584
O O7 0.691571 0.852534 0.868093
O O8 0.642428 0.965227 0.204723
O O9 0.250000 0.301897 0.256028
O O10 0.500000 0.970292 0.538249
O O11 0.000000 0.970292 0.973806
#
# Coordination Sequence:
#
# PCOD8176148 Si02
#       6
#     8   8   8   8   4   4
#     4  11  24  41  63  90 123 161 201 249 303 358
#     4  10  24  41  64  92 124 160 204 249 298 360
#     4  11  24  41  63  90 123 161 201 249 303 358
#     4  11  24  41  62  91 122 157 204 251 300 361
#     4  11  24  41  64  92 124 161 202 249 300 356
#     4  11  24  41  64  92 124 161 202 249 300 356
#
# _framework density 23.905138999999998
#
# number of rings (size 3 to 8) (size 9 to 14) (size 15 to 20)
#    0.000    1.200    0.000    4.800    0.000   16.000 
#    0.000    0.000    0.000    0.000    0.000    0.000 
#    0.000    0.000    0.000    0.000    0.000    0.000 
#
# Total GULP energy -248087.972229 kJ/mol
# GULP energy per Si atom -12404.398611 kJ/mol
# Density = 2.385073 g / cm^3
# Si number density = 23.905139 Si / 1000 Ang^3
#
#
#
# Elastic Constant Matrix: (Units=GPa)
#
#
# Indices 1 2 3 4 5 6 
#
# 1 162.1418 55.1967 28.6609 0.0000 0.0000 0.0000
# 2 55.1967 114.1819 16.4958 0.0000 0.0000 0.0000
# 3 28.6609 16.4958 74.1482 0.0000 0.0000 0.0000
# 4 0.0000 0.0000 0.0000 27.5450 0.0000 0.0000
# 5 0.0000 0.0000 0.0000 0.0000 14.5807 0.0000
# 6 0.0000 0.0000 0.0000 0.0000 0.0000 3.7322
#
#
#
# Elastic Compliance Matrix: (Units=1/GPa)
#
#
# Indices 1 2 3 4 5 6 
#
# 1 0.007722 -0.003411 -0.002226 0.000000 0.000000 0.000000
# 2 -0.003411 0.010556 -0.001030 0.000000 0.000000 0.000000
# 3 -0.002226 -0.001030 0.014576 0.000000 0.000000 0.000000
# 4 0.000000 0.000000 0.000000 0.036304 0.000000 0.000000
# 5 0.000000 0.000000 0.000000 0.000000 0.068584 0.000000
# 6 0.000000 0.000000 0.000000 0.000000 0.000000 0.267937
#
#
# Mechanical properties :
#
#
# Convention : Reuss Voigt Hill
#
# Bulk Modulus (GPa) = 51.22996 61.24207 56.23602
# Shear Modulus (GPa) = 11.75034 25.84615 18.79824
#
# Velocity S-wave (km/s) = 2.21948 3.29172 2.80727
# Velocity P-wave (km/s) = 5.29577 6.33417 5.83810
#
# Compressibility (1/GPa) = 0.01951983
#
# Stress axis : x y z
#
# Youngs Moduli (GPa) = 129.49611 94.73428 68.60590
#
# Poissons Ratio (x) = 0.32318 0.15271
# Poissons Ratio (y) = 0.44177 0.07065
# Poissons Ratio (z) = 0.28825 0.09755
#
# Static dielectric constant tensor:
#      x y z
#    x 4.589050 0.000000 0.000000 
#    y 0.000000 4.339860 0.000000 
#    z 0.000000 0.000000 3.745010 
# 
# 
# High freq. dielectric constant tensor:
#      x y z
#    x 1.969430 0.000000 0.000000 
#    y 0.000000 1.958110 0.000000 
#    z 0.000000 0.000000 1.927610 
# 
# From -- ./inp_files/1696.got.cif
#   From: 2010.03.12/outbox.cif.g09.slc.cpg/sg36_1_cif.got.tgz:1696.got - 2010.04.14 02:13:53.
