data_PCOD8176584
_publ_section_title
;
Structure prediction by ZEFSAII (Michael W. Deem and Ramdas Pophale) SiO2 
 PCOD8176584
Probable space group: C C C 2
;
_chemical_formula_sum "Si O2"
_cell_formula_units_Z 56
_cell_length_a 15.003791
_cell_length_b 12.011371
_cell_length_c 15.001476
_cell_angle_alpha 90.000000
_cell_angle_beta 90.000000
_cell_angle_gamma 90.000000
_cell_volume 2703.507501
_symmetry_space_group_name_H-M "C C C 2"
_symmetry_group_IT_number 37
_symmetry_cell_setting 'orthorhombic'
loop_
_space_group_symop_operation_xyz
x,y,z
-x,-y,z
-x,y,1/2+z
x,-y,1/2+z
1/2+x,1/2+y,z
1/2-x,1/2-y,z
1/2-x,1/2+y,1/2+z
1/2+x,1/2-y,1/2+z
loop_
_atom_site_type_symbol
_atom_site_label
_atom_site_fract_x
_atom_site_fract_y
_atom_site_fract_z
Si Si1 0.378246 0.232023 0.944630
Si Si2 0.234293 0.375579 0.501447
Si Si3 0.272875 0.573893 0.375654
Si Si4 0.729822 0.504964 0.677197
Si Si5 0.418672 0.918813 0.728709
Si Si6 0.449087 0.105564 0.431513
Si Si7 0.653154 0.279174 0.647325
O O1 0.356857 0.352346 0.904754
O O2 0.320593 0.135252 0.896995
O O3 0.482953 0.209724 0.928488
O O4 0.351800 0.235202 0.047124
O O5 0.250000 0.250000 0.471930
O O6 0.276411 0.456310 0.426508
O O7 0.274921 0.404314 0.598040
O O8 0.127446 0.379977 0.503912
O O9 0.287703 0.562687 0.270773
O O10 0.829943 0.456903 0.677438
O O11 0.651366 0.413586 0.657330
O O12 0.406530 0.921421 0.834938
O O13 0.426394 0.787330 0.699970
O O14 0.500000 0.000000 0.699939
O O15 0.500000 0.000000 0.469451
O O16 0.750000 0.250000 0.688425
#
# Coordination Sequence:
#
# PCOD8176584 Si02
#       7
#     8   8   8   8   8   8   8
#     4  11  21  40  67  96 131 168 219 272 336 385
#     4  12  26  42  64  99 135 169 224 269 326 389
#     4  11  21  42  68  90 132 177 219 269 322 401
#     4  11  23  40  63  94 129 179 222 261 330 399
#     4  10  21  36  62  99 127 157 220 278 329 376
#     4  11  23  41  65 100 129 165 215 279 330 376
#     4  10  20  36  64  93 126 172 217 265 326 396
#
# _framework density 20.713830999999999
#
# number of rings (size 3 to 8) (size 9 to 14) (size 15 to 20)
#    0.000    1.143    5.714    1.714    6.000    0.000 
#    0.000    0.714    0.000    1.714    0.000    0.000 
#    0.000    0.000    0.000    0.000    0.000    0.000 
#
# Total GULP energy -347031.076544 kJ/mol
# GULP energy per Si atom -12393.967019 kJ/mol
# Density = 2.066669 g / cm^3
# Si number density = 20.713831 Si / 1000 Ang^3
#
#
#
# Elastic Constant Matrix: (Units=GPa)
#
#
# Indices 1 2 3 4 5 6 
#
# 1 64.6993 46.3806 23.3614 0.0000 0.0000 0.0000
# 2 46.3806 153.6464 51.4439 0.0000 0.0000 0.0000
# 3 23.3614 51.4439 103.9308 0.0000 0.0000 0.0000
# 4 0.0000 0.0000 0.0000 4.4491 0.0000 0.0000
# 5 0.0000 0.0000 0.0000 0.0000 103.5913 0.0000
# 6 0.0000 0.0000 0.0000 0.0000 0.0000 40.2926
#
#
#
# Elastic Compliance Matrix: (Units=1/GPa)
#
#
# Indices 1 2 3 4 5 6 
#
# 1 0.020004 -0.005433 -0.001807 0.000000 0.000000 0.000000
# 2 -0.005433 0.009277 -0.003371 0.000000 0.000000 0.000000
# 3 -0.001807 -0.003371 0.011696 0.000000 0.000000 0.000000
# 4 0.000000 0.000000 0.000000 0.224763 0.000000 0.000000
# 5 0.000000 0.000000 0.000000 0.000000 0.009653 0.000000
# 6 0.000000 0.000000 0.000000 0.000000 0.000000 0.024818
#
#
# Mechanical properties :
#
#
# Convention : Reuss Voigt Hill
#
# Bulk Modulus (GPa) = 50.62003 62.73871 56.67937
# Shear Modulus (GPa) = 15.24300 43.07266 29.15783
#
# Velocity S-wave (km/s) = 2.71566 4.56501 3.75594
# Velocity P-wave (km/s) = 5.85866 7.62495 6.79940
#
# Compressibility (1/GPa) = 0.01975503
#
# Stress axis : x y z
#
# Youngs Moduli (GPa) = 49.99112 107.79112 85.49638
#
# Poissons Ratio (x) = 0.58567 0.15449
# Poissons Ratio (y) = 0.27162 0.28819
# Poissons Ratio (z) = 0.09033 0.36334
#
# Static dielectric constant tensor:
#      x y z
#    x 0.322870 0.000000 0.000000 
#    y 0.000000 4.172220 0.000000 
#    z 0.000000 0.000000 3.647350 
# 
# 
# High freq. dielectric constant tensor:
#      x y z
#    x 1.777670 0.000000 0.000000 
#    y 0.000000 1.813990 0.000000 
#    z 0.000000 0.000000 1.816080 
# 
# From -- ./inp_files/12133.got.cif
#   From: 2010.03.12/outbox.cif.g09.slc.cpg/sg37_7_cif.got.tgz:12133.got - 2010.04.14 02:25:27.
