data_PCOD8176700
_publ_section_title
;
Structure prediction by ZEFSAII (Michael W. Deem and Ramdas Pophale) SiO2 
 PCOD8176700
Probable space group: C C C 2
;
_chemical_formula_sum "Si O2"
_cell_formula_units_Z 64
_cell_length_a 14.544293
_cell_length_b 24.159482
_cell_length_c 8.782680
_cell_angle_alpha 90.000000
_cell_angle_beta 90.000000
_cell_angle_gamma 90.000000
_cell_volume 3086.080801
_symmetry_space_group_name_H-M "C C C 2"
_symmetry_group_IT_number 37
_symmetry_cell_setting 'orthorhombic'
loop_
_space_group_symop_operation_xyz
x,y,z
-x,-y,z
-x,y,1/2+z
x,-y,1/2+z
1/2+x,1/2+y,z
1/2-x,1/2-y,z
1/2-x,1/2+y,1/2+z
1/2+x,1/2-y,1/2+z
loop_
_atom_site_type_symbol
_atom_site_label
_atom_site_fract_x
_atom_site_fract_y
_atom_site_fract_z
Si Si1 0.899123 0.156703 0.683910
Si Si2 0.900556 0.265081 0.826286
Si Si3 0.731119 0.557115 0.183824
Si Si4 0.600050 0.112417 0.825667
Si Si5 0.768883 0.057116 0.324115
Si Si6 0.599440 0.234920 0.181651
Si Si7 0.600874 0.656702 0.824034
Si Si8 0.899949 0.612418 0.682274
O O1 0.849071 0.213123 0.746446
O O2 0.838541 0.104843 0.736708
O O3 0.906814 0.160467 0.503972
O O4 0.999997 0.149304 0.753974
O O5 0.857869 0.325782 0.796000
O O6 0.999997 0.266148 0.753963
O O7 0.906530 0.252198 0.003968
O O8 0.832503 0.568832 0.248090
O O9 0.694096 0.500000 0.253970
O O10 0.736558 0.552131 0.003970
O O11 0.500000 0.105314 0.753972
O O12 0.592354 0.100097 0.003971
O O13 0.838545 0.104843 0.271234
O O14 0.667499 0.068833 0.259849
O O15 0.650924 0.286878 0.261495
O O16 0.642129 0.174219 0.211941
#
# Coordination Sequence:
#
# PCOD8176700 Si02
#       8
#     8   8   8   8   8   8   8   8
#     4  10  21  37  59  86 116 150 187 232 284 337
#     4   9  17  31  55  86 117 148 183 225 277 337
#     4  11  25  42  59  82 112 149 195 241 283 333
#     4  10  21  38  61  88 118 151 187 231 282 336
#     4  11  25  42  59  82 112 149 195 241 283 333
#     4   9  17  31  55  86 117 148 183 225 277 337
#     4  10  21  37  59  86 116 150 187 232 284 337
#     4  10  21  38  61  88 118 151 187 231 282 336
#
# _framework density 20.738278000000001
#
# number of rings (size 3 to 8) (size 9 to 14) (size 15 to 20)
#    0.000    2.000    0.000    4.500    0.000    9.000 
#    0.000   10.000    0.000    0.000    0.000    0.000 
#    0.000    0.000    0.000    0.000    0.000    0.000 
#
# Total GULP energy -396686.680898 kJ/mol
# GULP energy per Si atom -12396.458778 kJ/mol
# Density = 2.069108 g / cm^3
# Si number density = 20.738278 Si / 1000 Ang^3
#
#
#
# Elastic Constant Matrix: (Units=GPa)
#
#
# Indices 1 2 3 4 5 6 
#
# 1 40.7806 7.2103 10.5171 0.0000 0.0000 0.0000
# 2 7.2103 94.3181 27.6152 0.0000 0.0000 0.0000
# 3 10.5171 27.6152 88.4863 0.0000 0.0000 0.0000
# 4 0.0000 0.0000 0.0000 39.2817 0.0000 0.0000
# 5 0.0000 0.0000 0.0000 0.0000 15.9983 0.0000
# 6 0.0000 0.0000 0.0000 0.0000 0.0000 34.4143
#
#
#
# Elastic Compliance Matrix: (Units=1/GPa)
#
#
# Indices 1 2 3 4 5 6 
#
# 1 0.025413 -0.001165 -0.002657 0.000000 0.000000 0.000000
# 2 -0.001165 0.011722 -0.003520 0.000000 0.000000 0.000000
# 3 -0.002657 -0.003520 0.012715 0.000000 0.000000 0.000000
# 4 0.000000 0.000000 0.000000 0.025457 0.000000 0.000000
# 5 0.000000 0.000000 0.000000 0.000000 0.062507 0.000000
# 6 0.000000 0.000000 0.000000 0.000000 0.000000 0.029058
#
#
# Mechanical properties :
#
#
# Convention : Reuss Voigt Hill
#
# Bulk Modulus (GPa) = 28.43573 34.91890 31.67731
# Shear Modulus (GPa) = 25.86961 29.82169 27.84565
#
# Velocity S-wave (km/s) = 3.53573 3.79621 3.66829
# Velocity P-wave (km/s) = 5.51453 6.00745 5.76626
#
# Compressibility (1/GPa) = 0.03516702
#
# Stress axis : x y z
#
# Youngs Moduli (GPa) = 39.35058 85.30947 78.64441
#
# Poissons Ratio (x) = 0.09937 0.20895
# Poissons Ratio (y) = 0.04583 0.27681
# Poissons Ratio (z) = 0.10455 0.30027
#
# Static dielectric constant tensor:
#      x y z
#    x 3.497890 0.000000 0.000000 
#    y 0.000000 4.499720 0.000000 
#    z 0.000000 0.000000 3.818050 
# 
# 
# High freq. dielectric constant tensor:
#      x y z
#    x 1.790790 0.000000 0.000000 
#    y 0.000000 1.827230 0.000000 
#    z 0.000000 0.000000 1.824710 
# 
# From -- ./inp_files/3767.got.cif
#   From: 2010.03.12/outbox.cif.g09.slc.cpg/sg37_2_cif.got.tgz:3767.got - 2010.04.14 02:25:27.
