data_PCOD8176028
_publ_section_title
;
Structure prediction by ZEFSAII (Michael W. Deem and Ramdas Pophale) SiO2 
 PCOD8176028
Probable space group: C M C 21
;
_chemical_formula_sum "Si O2"
_cell_formula_units_Z 64
_cell_length_a 8.608982
_cell_length_b 30.597410
_cell_length_c 11.966279
_cell_angle_alpha 90.000000
_cell_angle_beta 90.000000
_cell_angle_gamma 90.000000
_cell_volume 3152.068089
_symmetry_space_group_name_H-M "C M C 21"
_symmetry_group_IT_number 36
_symmetry_cell_setting 'orthorhombic'
loop_
_space_group_symop_operation_xyz
x,y,z
-x,-y,1/2+z
x,-y,1/2+z
-x,y,z
1/2+x,1/2+y,z
1/2-x,1/2-y,1/2+z
1/2+x,1/2-y,1/2+z
1/2-x,1/2+y,z
loop_
_atom_site_type_symbol
_atom_site_label
_atom_site_fract_x
_atom_site_fract_y
_atom_site_fract_z
Si Si1 0.682824 0.951467 0.338670
Si Si2 0.183535 0.291216 0.795802
Si Si3 0.684634 0.695296 0.845167
Si Si4 0.315242 0.875659 0.930688
Si Si5 0.315224 0.379443 0.178834
Si Si6 0.816287 0.956834 0.792859
Si Si7 0.181667 0.579081 0.084736
Si Si8 0.682657 0.669919 0.086555
O O1 0.500000 0.956402 0.318697
O O2 0.756370 0.923138 0.239687
O O3 0.722212 0.929261 0.456561
O O4 0.761960 0.998412 0.348557
O O5 0.250639 0.244340 0.833848
O O6 0.245923 0.330447 0.874617
O O7 0.239840 0.295555 0.669004
O O8 0.000000 0.290854 0.799218
O O9 0.500000 0.695354 0.844850
O O10 0.743891 0.663227 0.746969
O O11 0.748937 0.677453 0.962517
O O12 0.500000 0.878037 0.928638
O O13 0.249773 0.916668 0.863610
O O14 0.256403 0.877031 0.056773
O O15 0.500000 0.381382 0.171075
O O16 0.748507 0.958135 0.666485
O O17 0.000000 0.953992 0.790812
O O18 0.268278 0.622236 0.127005
O O19 0.000000 0.584306 0.104967
O O20 0.500000 0.675860 0.091877
#
# Coordination Sequence:
#
# PCOD8176028 Si02
#       8
#     8   8   8   8   8   8   8   8
#     4  11  25  44  67  94 127 165 210 256 314 380
#     4  10  22  41  63  89 126 169 209 255 313 373
#     4   9  21  40  62  91 127 166 206 258 315 369
#     4  11  24  42  64  90 129 170 211 258 313 377
#     4  11  23  42  65  91 128 168 211 261 316 371
#     4  12  26  43  67  95 127 164 211 260 313 373
#     4  11  23  42  67  93 125 164 207 258 316 376
#     4  11  21  38  65  93 123 160 209 264 314 367
#
# _framework density 20.304129
#
# number of rings (size 3 to 8) (size 9 to 14) (size 15 to 20)
#    0.000    1.250    2.500    3.000    3.500    2.000 
#    0.000    1.875    0.000    0.000    0.000    0.000 
#    0.000    0.000    0.000    0.000    0.000    0.000 
#
# Total GULP energy -396892.335136 kJ/mol
# GULP energy per Si atom -12402.885473 kJ/mol
# Density = 2.025792 g / cm^3
# Si number density = 20.304129 Si / 1000 Ang^3
#
#
#
# Elastic Constant Matrix: (Units=GPa)
#
#
# Indices 1 2 3 4 5 6 
#
# 1 109.7142 41.2981 36.1839 0.0000 0.0000 0.0000
# 2 41.2981 139.4488 48.5736 0.0000 0.0000 0.0000
# 3 36.1839 48.5736 136.1107 0.0000 0.0000 0.0000
# 4 0.0000 0.0000 0.0000 23.1237 0.0000 0.0000
# 5 0.0000 0.0000 0.0000 0.0000 35.7152 0.0000
# 6 0.0000 0.0000 0.0000 0.0000 0.0000 26.3813
#
#
#
# Elastic Compliance Matrix: (Units=1/GPa)
#
#
# Indices 1 2 3 4 5 6 
#
# 1 0.010696 -0.002486 -0.001956 0.000000 0.000000 0.000000
# 2 -0.002486 0.008767 -0.002468 0.000000 0.000000 0.000000
# 3 -0.001956 -0.002468 0.008748 0.000000 0.000000 0.000000
# 4 0.000000 0.000000 0.000000 0.043246 0.000000 0.000000
# 5 0.000000 0.000000 0.000000 0.000000 0.027999 0.000000
# 6 0.000000 0.000000 0.000000 0.000000 0.000000 0.037906
#
#
# Mechanical properties :
#
#
# Convention : Reuss Voigt Hill
#
# Bulk Modulus (GPa) = 69.49186 70.82054 70.15620
# Shear Modulus (GPa) = 32.05594 34.32526 33.19060
#
# Velocity S-wave (km/s) = 3.97771 4.11610 4.04749
# Velocity P-wave (km/s) = 7.44285 7.58586 7.51469
#
# Compressibility (1/GPa) = 0.01439017
#
# Stress axis : x y z
#
# Youngs Moduli (GPa) = 93.49697 114.06484 114.31678
#
# Poissons Ratio (x) = 0.28358 0.22361
# Poissons Ratio (y) = 0.23245 0.28210
# Poissons Ratio (z) = 0.18289 0.28148
#
# Static dielectric constant tensor:
#      x y z
#    x 3.581580 0.000000 0.000000 
#    y 0.000000 3.887670 0.000000 
#    z 0.000000 0.000000 3.842630 
# 
# 
# High freq. dielectric constant tensor:
#      x y z
#    x 1.788450 0.000000 0.000000 
#    y 0.000000 1.803180 0.000000 
#    z 0.000000 0.000000 1.808230 
# 
# From -- ./inp_files/7191.got.cif
#   From: 2010.03.12/outbox.cif.g09.slc.cpg/sg36_4_cif.got.tgz:7191.got - 2010.04.14 02:13:53.
