data_PCOD8176636
_publ_section_title
;
Structure prediction by ZEFSAII (Michael W. Deem and Ramdas Pophale) SiO2 
 PCOD8176636
Probable space group: C C C 2
;
_chemical_formula_sum "Si O2"
_cell_formula_units_Z 64
_cell_length_a 14.516308
_cell_length_b 8.960169
_cell_length_c 20.917205
_cell_angle_alpha 90.000000
_cell_angle_beta 90.000000
_cell_angle_gamma 90.000000
_cell_volume 2720.671004
_symmetry_space_group_name_H-M "C C C 2"
_symmetry_group_IT_number 37
_symmetry_cell_setting 'orthorhombic'
loop_
_space_group_symop_operation_xyz
x,y,z
-x,-y,z
-x,y,1/2+z
x,-y,1/2+z
1/2+x,1/2+y,z
1/2-x,1/2-y,z
1/2-x,1/2+y,1/2+z
1/2+x,1/2-y,1/2+z
loop_
_atom_site_type_symbol
_atom_site_label
_atom_site_fract_x
_atom_site_fract_y
_atom_site_fract_z
Si Si1 0.107344 0.699768 0.522460
Si Si2 0.584528 0.268427 0.061076
Si Si3 0.659084 0.340426 0.928786
Si Si4 0.345095 0.684034 0.385840
Si Si5 0.110784 0.949884 0.622202
Si Si6 0.519821 0.172374 0.844571
Si Si7 0.142953 0.281740 0.221375
Si Si8 0.313617 0.985678 0.116940
O O1 0.133715 0.723488 0.449682
O O2 0.133467 0.844647 0.562755
O O3 0.166679 0.561015 0.547599
O O4 0.997828 0.671725 0.530917
O O5 0.542374 0.408191 0.103846
O O6 0.641480 0.175897 0.112497
O O7 0.648076 0.342725 0.005748
O O8 0.750000 0.250000 0.908790
O O9 0.659971 0.506400 0.898288
O O10 0.571871 0.249715 0.903206
O O11 0.250000 0.750000 0.357602
O O12 0.425514 0.731047 0.335821
O O13 0.093218 0.860796 0.687948
O O14 0.207274 0.036820 0.631694
O O15 0.584105 0.179466 0.782808
O O16 0.500000 0.000000 0.861153
O O17 0.250000 0.250000 0.239057
O O18 0.136537 0.418947 0.172247
#
# Coordination Sequence:
#
# PCOD8176636 Si02
#       8
#     8   8   8   8   8   8   8   8
#     4  11  22  37  60  95 146 183 227 279 359 428
#     4  12  23  36  65 109 150 181 229 291 356 440
#     4  12  26  45  70 106 153 193 239 300 372 445
#     4  12  26  46  71 103 149 195 247 310 372 441
#     4  10  20  40  68 101 138 185 228 282 355 431
#     4  12  27  47  75 103 141 192 261 307 370 439
#     4   9  22  47  74 100 144 195 240 298 363 435
#     4  10  22  40  65 103 138 184 233 285 356 433
#
# _framework density 23.523607999999999
#
# number of rings (size 3 to 8) (size 9 to 14) (size 15 to 20)
#    0.000    1.000    2.500    5.250    3.500    2.000 
#    0.000    7.500    0.000    3.000    0.000    0.000 
#    0.000    0.000    0.000    0.000    0.000    0.000 
#
# Total GULP energy -396733.769989 kJ/mol
# GULP energy per Si atom -12397.930312 kJ/mol
# Density = 2.347007 g / cm^3
# Si number density = 23.523608 Si / 1000 Ang^3
#
#
#
# Elastic Constant Matrix: (Units=GPa)
#
#
# Indices 1 2 3 4 5 6 
#
# 1 109.4548 37.4054 15.8308 0.0000 0.0000 0.0000
# 2 37.4054 150.9010 29.5600 0.0000 0.0000 0.0000
# 3 15.8308 29.5600 78.0309 0.0000 0.0000 0.0000
# 4 0.0000 0.0000 0.0000 22.9037 0.0000 0.0000
# 5 0.0000 0.0000 0.0000 0.0000 37.9533 0.0000
# 6 0.0000 0.0000 0.0000 0.0000 0.0000 44.9707
#
#
#
# Elastic Compliance Matrix: (Units=1/GPa)
#
#
# Indices 1 2 3 4 5 6 
#
# 1 0.010082 -0.002267 -0.001187 0.000000 0.000000 0.000000
# 2 -0.002267 0.007668 -0.002445 0.000000 0.000000 0.000000
# 3 -0.001187 -0.002445 0.013982 0.000000 0.000000 0.000000
# 4 0.000000 0.000000 0.000000 0.043661 0.000000 0.000000
# 5 0.000000 0.000000 0.000000 0.000000 0.026348 0.000000
# 6 0.000000 0.000000 0.000000 0.000000 0.000000 0.022237
#
#
# Mechanical properties :
#
#
# Convention : Reuss Voigt Hill
#
# Bulk Modulus (GPa) = 50.16121 55.99769 53.07945
# Shear Modulus (GPa) = 35.10728 38.20490 36.65609
#
# Velocity S-wave (km/s) = 3.86739 4.03440 3.95177
# Velocity P-wave (km/s) = 6.42746 6.74969 6.59055
#
# Compressibility (1/GPa) = 0.01993573
#
# Stress axis : x y z
#
# Youngs Moduli (GPa) = 99.18180 130.41784 71.51861
#
# Poissons Ratio (x) = 0.29563 0.08488
# Poissons Ratio (y) = 0.22482 0.17485
# Poissons Ratio (z) = 0.11771 0.31885
#
# Static dielectric constant tensor:
#      x y z
#    x 4.635660 0.000000 0.000000 
#    y 0.000000 4.336950 0.000000 
#    z 0.000000 0.000000 3.896660 
# 
# 
# High freq. dielectric constant tensor:
#      x y z
#    x 1.957940 0.000000 0.000000 
#    y 0.000000 1.944480 0.000000 
#    z 0.000000 0.000000 1.898790 
# 
# From -- ./inp_files/18930.got.cif
#   From: 2010.03.12/outbox.cif.g09.slc.cpg/sg37_10_cif.got.tgz:18930.got - 2010.04.14 02:25:27.
