data_PCOD8176376
_publ_section_title
;
Structure prediction by ZEFSAII (Michael W. Deem and Ramdas Pophale) SiO2 
 PCOD8176376
Probable space group: C C C 2
;
_chemical_formula_sum "Si O2"
_cell_formula_units_Z 56
_cell_length_a 20.318593
_cell_length_b 15.419191
_cell_length_c 8.854137
_cell_angle_alpha 90.000000
_cell_angle_beta 90.000000
_cell_angle_gamma 90.000000
_cell_volume 2773.968064
_symmetry_space_group_name_H-M "C C C 2"
_symmetry_group_IT_number 37
_symmetry_cell_setting 'orthorhombic'
loop_
_space_group_symop_operation_xyz
x,y,z
-x,-y,z
-x,y,1/2+z
x,-y,1/2+z
1/2+x,1/2+y,z
1/2-x,1/2-y,z
1/2-x,1/2+y,1/2+z
1/2+x,1/2-y,1/2+z
loop_
_atom_site_type_symbol
_atom_site_label
_atom_site_fract_x
_atom_site_fract_y
_atom_site_fract_z
Si Si1 0.069880 0.090059 0.829760
Si Si2 0.814127 0.570958 0.075729
Si Si3 0.589624 0.783344 0.140397
Si Si4 0.041008 0.717466 0.309315
Si Si5 0.000000 0.000000 0.577227
Si Si6 0.341401 0.106654 0.730675
Si Si7 0.250000 0.250000 0.791893
Si Si8 0.176431 0.140044 0.024259
O O1 0.065065 0.186585 0.764303
O O2 0.138618 0.070498 0.916583
O O3 0.060731 0.025087 0.688387
O O4 0.016176 0.079539 0.965135
O O5 0.857842 0.639904 0.167465
O O6 0.833428 0.474092 0.120692
O O7 0.737141 0.593624 0.108304
O O8 0.826347 0.576125 0.899082
O O9 0.536389 0.790709 0.273610
O O10 0.627069 0.689441 0.141374
O O11 0.549495 0.798473 0.986597
O O12 0.085487 0.647553 0.217368
O O13 0.285294 0.177914 0.687514
O O14 0.194827 0.215566 0.906485
#
# Coordination Sequence:
#
# PCOD8176376 Si02
#       8
#     8   8   8   8   4   8   4   8
#     4  10  19  35  55  83 117 152 190 234 289 349
#     4  10  21  37  61  88 114 150 199 241 285 338
#     4  10  19  36  61  85 117 156 192 235 285 352
#     4  10  20  36  59  84 113 160 191 225 294 353
#     4  10  22  34  52  86 124 144 188 248 286 340
#     4  10  21  38  62  84 116 152 194 240 283 348
#     4  10  16  38  62  76 108 156 194 222 286 352
#     4  10  17  36  63  82 111 156 193 227 291 351
#
# _framework density 20.187687
#
# number of rings (size 3 to 8) (size 9 to 14) (size 15 to 20)
#    0.000    2.000    5.714    1.714    0.000    4.000 
#    0.000    2.857    6.286    0.000    0.000    0.000 
#    0.000    0.000    0.000    0.000    0.000    0.000 
#
# Total GULP energy -346975.670034 kJ/mol
# GULP energy per Si atom -12391.988215 kJ/mol
# Density = 2.014174 g / cm^3
# Si number density = 20.187687 Si / 1000 Ang^3
#
#
#
# Elastic Constant Matrix: (Units=GPa)
#
#
# Indices 1 2 3 4 5 6 
#
# 1 127.7437 39.5469 32.5177 0.0000 0.0000 0.0000
# 2 39.5469 101.1567 27.4571 0.0000 0.0000 0.0000
# 3 32.5177 27.4571 48.5196 0.0000 0.0000 0.0000
# 4 0.0000 0.0000 0.0000 24.7613 0.0000 0.0000
# 5 0.0000 0.0000 0.0000 0.0000 14.5351 0.0000
# 6 0.0000 0.0000 0.0000 0.0000 0.0000 35.3955
#
#
#
# Elastic Compliance Matrix: (Units=1/GPa)
#
#
# Indices 1 2 3 4 5 6 
#
# 1 0.009928 -0.002452 -0.005266 0.000000 0.000000 0.000000
# 2 -0.002452 0.012285 -0.005309 0.000000 0.000000 0.000000
# 3 -0.005266 -0.005309 0.027144 0.000000 0.000000 0.000000
# 4 0.000000 0.000000 0.000000 0.040386 0.000000 0.000000
# 5 0.000000 0.000000 0.000000 0.000000 0.068799 0.000000
# 6 0.000000 0.000000 0.000000 0.000000 0.000000 0.028252
#
#
# Mechanical properties :
#
#
# Convention : Reuss Voigt Hill
#
# Bulk Modulus (GPa) = 42.91272 52.94036 47.92654
# Shear Modulus (GPa) = 22.66390 26.79825 24.73107
#
# Velocity S-wave (km/s) = 3.35425 3.64738 3.50388
# Velocity P-wave (km/s) = 6.02531 6.63467 6.33732
#
# Compressibility (1/GPa) = 0.02330311
#
# Stress axis : x y z
#
# Youngs Moduli (GPa) = 100.72822 81.39872 36.84074
#
# Poissons Ratio (x) = 0.19958 0.19400
# Poissons Ratio (y) = 0.24697 0.19559
# Poissons Ratio (z) = 0.53044 0.43214
#
# Static dielectric constant tensor:
#      x y z
#    x 4.425200 0.000000 0.000000 
#    y 0.000000 3.829290 0.000000 
#    z 0.000000 0.000000 3.269280 
# 
# 
# High freq. dielectric constant tensor:
#      x y z
#    x 1.796810 0.000000 0.000000 
#    y 0.000000 1.784900 0.000000 
#    z 0.000000 0.000000 1.750750 
# 
# From -- ./inp_files/4144.got.cif
#   From: 2010.03.12/outbox.cif.g09.slc.cpg/sg37_3_cif.got.tgz:4144.got - 2010.04.14 02:25:27.
