data_PCOD8176908
_publ_section_title
;
Structure prediction by ZEFSAII (Michael W. Deem and Ramdas Pophale) SiO2 
 PCOD8176908
Probable space group: C C C 2
;
_chemical_formula_sum "Si O2"
_cell_formula_units_Z 56
_cell_length_a 10.321167
_cell_length_b 19.510330
_cell_length_c 11.626271
_cell_angle_alpha 90.000000
_cell_angle_beta 90.000000
_cell_angle_gamma 90.000000
_cell_volume 2341.174915
_symmetry_space_group_name_H-M "C C C 2"
_symmetry_group_IT_number 37
_symmetry_cell_setting 'orthorhombic'
loop_
_space_group_symop_operation_xyz
x,y,z
-x,-y,z
-x,y,1/2+z
x,-y,1/2+z
1/2+x,1/2+y,z
1/2-x,1/2-y,z
1/2-x,1/2+y,1/2+z
1/2+x,1/2-y,1/2+z
loop_
_atom_site_type_symbol
_atom_site_label
_atom_site_fract_x
_atom_site_fract_y
_atom_site_fract_z
Si Si1 0.115949 0.372339 0.158010
Si Si2 0.626133 0.841131 0.791097
Si Si3 0.222259 0.453323 0.957639
Si Si4 0.970100 0.746392 0.000161
Si Si5 0.299889 0.425823 0.335647
Si Si6 0.000000 0.000000 0.690899
Si Si7 0.750000 0.250000 0.110396
Si Si8 0.486789 0.397153 0.007987
O O1 0.230937 0.370925 0.252628
O O2 0.983201 0.384171 0.224959
O O3 0.139211 0.436408 0.071673
O O4 0.107281 0.300527 0.090608
O O5 0.702100 0.894746 0.865530
O O6 0.559442 0.781327 0.871074
O O7 0.728731 0.813272 0.697598
O O8 0.193533 0.530687 0.911591
O O9 0.377052 0.453598 0.979577
O O10 0.915362 0.823344 0.019997
O O11 0.123874 0.753302 0.028490
O O12 0.373501 0.484157 0.264647
O O13 0.400721 0.384904 0.414664
O O14 0.955941 0.930148 0.624077
#
# Coordination Sequence:
#
# PCOD8176908 Si02
#       8
#     8   8   8   8   8   4   4   8
#     4  10  24  47  66 102 141 188 239 294 357 438
#     4  10  23  45  68 100 144 185 240 287 363 430
#     4  11  22  44  69  98 141 183 236 296 349 436
#     4  10  25  43  70 103 137 188 244 288 364 438
#     4  12  23  42  72 101 145 184 234 294 357 427
#     4  12  22  42  64 106 138 176 240 280 352 426
#     4  10  22  44  66 100 138 190 234 298 354 432
#     4  12  23  41  67 106 137 179 235 300 353 426
#
# _framework density 23.919612999999998
#
# number of rings (size 3 to 8) (size 9 to 14) (size 15 to 20)
#    0.000    1.143    4.286    0.857    4.000    4.571 
#    2.571    2.857    0.000    0.000    0.000    0.000 
#    0.000    0.000    0.000    0.000    0.000    0.000 
#
# Total GULP energy -347012.250154 kJ/mol
# GULP energy per Si atom -12393.294648 kJ/mol
# Density = 2.386517 g / cm^3
# Si number density = 23.919613 Si / 1000 Ang^3
#
#
#
# Elastic Constant Matrix: (Units=GPa)
#
#
# Indices 1 2 3 4 5 6 
#
# 1 76.8529 25.1020 26.9430 0.0000 0.0000 0.0000
# 2 25.1020 98.4610 43.3233 0.0000 0.0000 0.0000
# 3 26.9430 43.3233 97.6646 0.0000 0.0000 0.0000
# 4 0.0000 0.0000 0.0000 21.5988 0.0000 0.0000
# 5 0.0000 0.0000 0.0000 0.0000 33.9543 0.0000
# 6 0.0000 0.0000 0.0000 0.0000 0.0000 38.5947
#
#
#
# Elastic Compliance Matrix: (Units=1/GPa)
#
#
# Indices 1 2 3 4 5 6 
#
# 1 0.014873 -0.002468 -0.003008 0.000000 0.000000 0.000000
# 2 -0.002468 0.013029 -0.005099 0.000000 0.000000 0.000000
# 3 -0.003008 -0.005099 0.013331 0.000000 0.000000 0.000000
# 4 0.000000 0.000000 0.000000 0.046299 0.000000 0.000000
# 5 0.000000 0.000000 0.000000 0.000000 0.029451 0.000000
# 6 0.000000 0.000000 0.000000 0.000000 0.000000 0.025910
#
#
# Mechanical properties :
#
#
# Convention : Reuss Voigt Hill
#
# Bulk Modulus (GPa) = 49.79454 51.52389 50.65922
# Shear Modulus (GPa) = 29.28486 30.67024 29.97755
#
# Velocity S-wave (km/s) = 3.50280 3.58470 3.54399
# Velocity P-wave (km/s) = 6.10099 6.22259 6.16209
#
# Compressibility (1/GPa) = 0.02008252
#
# Stress axis : x y z
#
# Youngs Moduli (GPa) = 67.23776 76.75212 75.01476
#
# Poissons Ratio (x) = 0.18943 0.22565
# Poissons Ratio (y) = 0.16595 0.38248
# Poissons Ratio (z) = 0.20226 0.39133
#
# Static dielectric constant tensor:
#      x y z
#    x 4.271340 0.000000 0.000000 
#    y 0.000000 4.138690 0.000000 
#    z 0.000000 0.000000 4.707270 
# 
# 
# High freq. dielectric constant tensor:
#      x y z
#    x 1.939860 0.000000 0.000000 
#    y 0.000000 1.937860 0.000000 
#    z 0.000000 0.000000 1.964640 
# 
# From -- ./inp_files/7320.got.cif
#   From: 2010.03.12/outbox.cif.g09.slc.cpg/sg37_4_cif.got.tgz:7320.got - 2010.04.14 02:25:27.
