data_PCOD8176399
_publ_section_title
;
Structure prediction by ZEFSAII (Michael W. Deem and Ramdas Pophale) SiO2 
 PCOD8176399
Probable space group: C C C 2
;
_chemical_formula_sum "Si O2"
_cell_formula_units_Z 64
_cell_length_a 26.415883
_cell_length_b 11.977342
_cell_length_c 10.166922
_cell_angle_alpha 90.000000
_cell_angle_beta 90.000000
_cell_angle_gamma 90.000000
_cell_volume 3216.733445
_symmetry_space_group_name_H-M "C C C 2"
_symmetry_group_IT_number 37
_symmetry_cell_setting 'orthorhombic'
loop_
_space_group_symop_operation_xyz
x,y,z
-x,-y,z
-x,y,1/2+z
x,-y,1/2+z
1/2+x,1/2+y,z
1/2-x,1/2-y,z
1/2-x,1/2+y,1/2+z
1/2+x,1/2-y,1/2+z
loop_
_atom_site_type_symbol
_atom_site_label
_atom_site_fract_x
_atom_site_fract_y
_atom_site_fract_z
Si Si1 0.113558 0.490650 0.183690
Si Si2 0.281874 0.492097 0.671906
Si Si3 0.694436 0.851663 0.776278
Si Si4 0.952080 0.306167 0.093338
Si Si5 0.197789 0.794756 0.815570
Si Si6 0.304753 0.859866 0.563815
Si Si7 0.353965 0.315714 0.575063
Si Si8 0.024279 0.621237 0.812964
O O1 0.154900 0.544979 0.281669
O O2 0.078546 0.579810 0.111732
O O3 0.144435 0.432900 0.066338
O O4 0.081400 0.398142 0.262793
O O5 0.250196 0.391539 0.735921
O O6 0.301333 0.573184 0.787136
O O7 0.245399 0.563405 0.575809
O O8 0.331079 0.440439 0.596115
O O9 0.676104 0.761444 0.674429
O O10 0.697423 0.799338 0.922709
O O11 0.914310 0.198503 0.102763
O O12 0.994470 0.301633 0.207120
O O13 0.977690 0.310884 0.949615
O O14 0.250000 0.750000 0.879682
O O15 0.189696 0.730359 0.679083
O O16 0.154779 0.774561 0.924838
O O17 0.000000 0.500000 0.833974
#
# Coordination Sequence:
#
# PCOD8176399 Si02
#       8
#     8   8   8   8   8   8   8   8
#     4   9  18  31  52  80 115 148 176 211 268 337
#     4  10  21  34  53  75 108 149 189 225 260 311
#     4  10  20  32  52  79 111 148 184 221 261 318
#     4  10  21  33  53  80 106 139 179 224 280 334
#     4  10  21  35  53  78 110 147 184 222 266 318
#     4  10  20  34  53  82 113 146 184 221 263 319
#     4  11  22  37  54  79 110 145 183 221 273 332
#     4  10  18  32  52  79 112 142 174 223 280 333
#
# _framework density 19.895961
#
# number of rings (size 3 to 8) (size 9 to 14) (size 15 to 20)
#    0.000    2.000    0.000    4.500    0.000   13.000 
#    0.000    0.000    0.000    0.000    0.000    7.000 
#    0.000    0.000    0.000    0.000    0.000    0.000 
#
# Total GULP energy -396629.730525 kJ/mol
# GULP energy per Si atom -12394.679079 kJ/mol
# Density = 1.985068 g / cm^3
# Si number density = 19.895961 Si / 1000 Ang^3
#
#
#
# Elastic Constant Matrix: (Units=GPa)
#
#
# Indices 1 2 3 4 5 6 
#
# 1 99.3290 28.8172 39.7925 0.0000 0.0000 0.0000
# 2 28.8172 44.5773 23.5094 0.0000 0.0000 0.0000
# 3 39.7925 23.5094 138.4995 0.0000 0.0000 0.0000
# 4 0.0000 0.0000 0.0000 10.4329 0.0000 0.0000
# 5 0.0000 0.0000 0.0000 0.0000 -22.1162 0.0000
# 6 0.0000 0.0000 0.0000 0.0000 0.0000 26.6682
#
#
#
# Elastic Compliance Matrix: (Units=1/GPa)
#
#
# Indices 1 2 3 4 5 6 
#
# 1 0.013175 -0.007162 -0.002570 0.000000 0.000000 0.000000
# 2 -0.007162 0.028532 -0.002785 0.000000 0.000000 0.000000
# 3 -0.002570 -0.002785 0.008431 0.000000 0.000000 0.000000
# 4 0.000000 0.000000 0.000000 0.095850 0.000000 0.000000
# 5 0.000000 0.000000 0.000000 0.000000 -0.045216 0.000000
# 6 0.000000 0.000000 0.000000 0.000000 0.000000 0.037498
#
#
# Mechanical properties :
#
#
# Convention : Reuss Voigt Hill
#
# Bulk Modulus (GPa) = 39.83390 51.84936 45.84163
# Shear Modulus (GPa) = 29.12536 15.68278 22.40407
#
# Velocity S-wave (km/s) = 3.83022 2.81061 3.35932
# Velocity P-wave (km/s) = 6.29487 6.05388 6.17555
#
# Compressibility (1/GPa) = 0.02510425
#
# Stress axis : x y z
#
# Youngs Moduli (GPa) = 75.90303 35.04879 118.60533
#
# Poissons Ratio (x) = 0.25101 0.30477
# Poissons Ratio (y) = 0.54359 0.33037
# Poissons Ratio (z) = 0.19504 0.09763
#
# Static dielectric constant tensor:
#      x y z
#    x 3.969430 0.000000 0.000000 
#    y 0.000000 3.469150 0.000000 
#    z 0.000000 0.000000 3.565950 
# 
# 
# High freq. dielectric constant tensor:
#      x y z
#    x 1.765640 0.000000 0.000000 
#    y 0.000000 1.739930 0.000000 
#    z 0.000000 0.000000 1.784770 
# 
# From -- ./inp_files/9104.got.cif
#   From: 2010.03.12/outbox.cif.g09.slc.cpg/sg37_5_cif.got.tgz:9104.got - 2010.04.14 02:25:27.
