data_PCOD8176255
_publ_section_title
;
Structure prediction by ZEFSAII (Michael W. Deem and Ramdas Pophale) SiO2 
 PCOD8176255
Probable space group: C M C 21
;
_chemical_formula_sum "Si O2"
_cell_formula_units_Z 48
_cell_length_a 19.495173
_cell_length_b 13.302772
_cell_length_c 9.511212
_cell_angle_alpha 90.000000
_cell_angle_beta 90.000000
_cell_angle_gamma 90.000000
_cell_volume 2466.636213
_symmetry_space_group_name_H-M "C M C 21"
_symmetry_group_IT_number 36
_symmetry_cell_setting 'orthorhombic'
loop_
_space_group_symop_operation_xyz
x,y,z
-x,-y,1/2+z
x,-y,1/2+z
-x,y,z
1/2+x,1/2+y,z
1/2-x,1/2-y,1/2+z
1/2+x,1/2-y,1/2+z
1/2-x,1/2+y,z
loop_
_atom_site_type_symbol
_atom_site_label
_atom_site_fract_x
_atom_site_fract_y
_atom_site_fract_z
Si Si1 0.171989 0.692256 0.279210
Si Si2 0.577864 0.238219 0.746614
Si Si3 0.418670 0.909179 0.998585
Si Si4 0.291109 0.599138 0.903729
Si Si5 0.813018 0.906679 0.731250
Si Si6 0.359261 0.121607 0.983436
O O1 0.113836 0.624492 0.351451
O O2 0.171180 0.801392 0.349099
O O3 0.246724 0.644631 0.300515
O O4 0.155673 0.696248 0.113454
O O5 0.500000 0.272066 0.724337
O O6 0.603383 0.171133 0.616058
O O7 0.621768 0.338272 0.763074
O O8 0.582975 0.171511 0.886848
O O9 0.500000 0.918172 0.981928
O O10 0.386752 0.015957 0.042915
O O11 0.322894 0.512713 0.806854
O O12 0.307393 0.575880 0.065366
O O13 0.208940 0.607555 0.888130
#
# Coordination Sequence:
#
# PCOD8176255 Si02
#       6
#     8   8   8   8   8   8
#     4  11  23  41  65  95 132 164 207 262 316 377
#     4  11  24  42  62  90 131 169 208 260 319 377
#     4  11  23  42  65  94 132 168 211 259 322 385
#     4  11  24  39  67  98 122 161 216 266 310 368
#     4  11  24  41  67  93 126 164 214 261 310 371
#     4  11  23  37  66  98 128 162 206 264 318 380
#
# _framework density 19.459697999999999
#
# number of rings (size 3 to 8) (size 9 to 14) (size 15 to 20)
#    0.000    1.000    5.000    1.500    4.667    2.667 
#    0.000    1.667    0.000    0.000    0.000    0.000 
#    0.000    0.000    0.000    0.000    0.000    0.000 
#
# Total GULP energy -297736.060847 kJ/mol
# GULP energy per Si atom -12405.669202 kJ/mol
# Density = 1.941541 g / cm^3
# Si number density = 19.459698 Si / 1000 Ang^3
#
#
#
# Elastic Constant Matrix: (Units=GPa)
#
#
# Indices 1 2 3 4 5 6 
#
# 1 80.1942 32.6522 31.8684 0.0000 0.0000 0.0000
# 2 32.6522 112.0974 51.0733 0.0000 0.0000 0.0000
# 3 31.8684 51.0733 95.6481 0.0000 0.0000 0.0000
# 4 0.0000 0.0000 0.0000 37.3863 0.0000 0.0000
# 5 0.0000 0.0000 0.0000 0.0000 25.5957 0.0000
# 6 0.0000 0.0000 0.0000 0.0000 0.0000 26.8848
#
#
#
# Elastic Compliance Matrix: (Units=1/GPa)
#
#
# Indices 1 2 3 4 5 6 
#
# 1 0.014994 -0.002764 -0.003520 0.000000 0.000000 0.000000
# 2 -0.002764 0.012298 -0.005646 0.000000 0.000000 0.000000
# 3 -0.003520 -0.005646 0.014643 0.000000 0.000000 0.000000
# 4 0.000000 0.000000 0.000000 0.026748 0.000000 0.000000
# 5 0.000000 0.000000 0.000000 0.000000 0.039069 0.000000
# 6 0.000000 0.000000 0.000000 0.000000 0.000000 0.037196
#
#
# Mechanical properties :
#
#
# Convention : Reuss Voigt Hill
#
# Bulk Modulus (GPa) = 55.32445 57.68085 56.50265
# Shear Modulus (GPa) = 28.59888 29.46306 29.03097
#
# Velocity S-wave (km/s) = 3.83776 3.89531 3.86664
# Velocity P-wave (km/s) = 6.93757 7.06659 7.00238
#
# Compressibility (1/GPa) = 0.01807519
#
# Stress axis : x y z
#
# Youngs Moduli (GPa) = 66.69422 81.31204 68.29369
#
# Poissons Ratio (x) = 0.22472 0.24039
# Poissons Ratio (y) = 0.18432 0.38559
# Poissons Ratio (z) = 0.23476 0.45910
#
# Static dielectric constant tensor:
#      x y z
#    x 3.426560 0.000000 0.000000 
#    y 0.000000 3.471470 0.000000 
#    z 0.000000 0.000000 3.543560 
# 
# 
# High freq. dielectric constant tensor:
#      x y z
#    x 1.749790 0.000000 0.000000 
#    y 0.000000 1.757890 0.000000 
#    z 0.000000 0.000000 1.767920 
# 
# From -- ./inp_files/4630.got.cif
#   From: 2010.03.12/outbox.cif.g09.slc.cpg/sg36_3_cif.got.tgz:4630.got - 2010.04.14 02:13:53.
