data_PCOD8176681
_publ_section_title
;
Structure prediction by ZEFSAII (Michael W. Deem and Ramdas Pophale) SiO2 
 PCOD8176681
Probable space group: C C C 2
;
_chemical_formula_sum "Si O2"
_cell_formula_units_Z 48
_cell_length_a 31.439300
_cell_length_b 9.200414
_cell_length_c 9.102246
_cell_angle_alpha 90.000000
_cell_angle_beta 90.000000
_cell_angle_gamma 90.000000
_cell_volume 2632.866306
_symmetry_space_group_name_H-M "C C C 2"
_symmetry_group_IT_number 37
_symmetry_cell_setting 'orthorhombic'
loop_
_space_group_symop_operation_xyz
x,y,z
-x,-y,z
-x,y,1/2+z
x,-y,1/2+z
1/2+x,1/2+y,z
1/2-x,1/2-y,z
1/2-x,1/2+y,1/2+z
1/2+x,1/2-y,1/2+z
loop_
_atom_site_type_symbol
_atom_site_label
_atom_site_fract_x
_atom_site_fract_y
_atom_site_fract_z
Si Si1 0.539108 0.654669 0.474870
Si Si2 0.790020 0.347099 0.318964
Si Si3 0.367138 0.652716 0.975639
Si Si4 0.632862 0.347284 0.316874
Si Si5 0.960892 0.845331 0.817645
Si Si6 0.290020 0.847099 0.973551
O O1 0.585882 0.723964 0.449796
O O2 0.528786 0.638187 0.646257
O O3 0.540855 0.499999 0.396259
O O4 0.500000 0.743507 0.396257
O O5 0.750000 0.250000 0.364978
O O6 0.832749 0.267561 0.375720
O O7 0.791592 0.374188 0.146257
O O8 0.785648 0.500000 0.396258
O O9 0.361050 0.500001 0.896256
O O10 0.359628 0.619902 0.146257
O O11 0.332749 0.767562 0.916794
O O12 0.585882 0.276036 0.342718
O O13 0.250000 0.750000 0.927537
#
# Coordination Sequence:
#
# PCOD8176681 Si02
#       6
#     8   8   8   8   8   8
#     4   9  15  24  40  64  94 124 156 194 234 275
#     4  10  21  36  53  74  99 126 159 198 239 286
#     4   9  18  31  48  72 100 128 160 199 239 282
#     4   9  18  31  48  72 100 128 160 199 239 282
#     4   9  15  24  40  64  94 124 156 194 234 275
#     4  10  21  36  53  74  99 126 159 198 239 286
#
# _framework density 18.231081
#
# number of rings (size 3 to 8) (size 9 to 14) (size 15 to 20)
#    0.000    2.667    0.000    3.000    0.000    3.333 
#    0.000    0.000    0.000    1.000    0.000    7.000 
#    0.000    0.000    0.000    0.000    0.000    0.000 
#
# Total GULP energy -297386.911326 kJ/mol
# GULP energy per Si atom -12391.121305 kJ/mol
# Density = 1.818959 g / cm^3
# Si number density = 18.231081 Si / 1000 Ang^3
#
#
#
# Elastic Constant Matrix: (Units=GPa)
#
#
# Indices 1 2 3 4 5 6 
#
# 1 196.0381 71.7273 60.3396 0.0000 0.0000 0.0000
# 2 71.7273 96.2168 39.6279 0.0000 0.0000 0.0000
# 3 60.3396 39.6279 72.9308 0.0000 0.0000 0.0000
# 4 0.0000 0.0000 0.0000 22.6989 0.0000 0.0000
# 5 0.0000 0.0000 0.0000 0.0000 28.5282 0.0000
# 6 0.0000 0.0000 0.0000 0.0000 0.0000 14.4451
#
#
#
# Elastic Compliance Matrix: (Units=1/GPa)
#
#
# Indices 1 2 3 4 5 6 
#
# 1 0.007948 -0.004144 -0.004324 0.000000 0.000000 0.000000
# 2 -0.004144 0.015551 -0.005021 0.000000 0.000000 0.000000
# 3 -0.004324 -0.005021 0.020017 0.000000 0.000000 0.000000
# 4 0.000000 0.000000 0.000000 0.044055 0.000000 0.000000
# 5 0.000000 0.000000 0.000000 0.000000 0.035053 0.000000
# 6 0.000000 0.000000 0.000000 0.000000 0.000000 0.069228
#
#
# Mechanical properties :
#
#
# Convention : Reuss Voigt Hill
#
# Bulk Modulus (GPa) = 60.46808 78.73059 69.59934
# Shear Modulus (GPa) = 22.28725 26.03381 24.16053
#
# Velocity S-wave (km/s) = 3.50020 3.78298 3.64433
# Velocity P-wave (km/s) = 7.04094 7.89682 7.48113
#
# Compressibility (1/GPa) = 0.01653765
#
# Stress axis : x y z
#
# Youngs Moduli (GPa) = 125.81177 64.30637 49.95651
#
# Poissons Ratio (x) = 0.26651 0.21602
# Poissons Ratio (y) = 0.52141 0.25082
# Poissons Ratio (z) = 0.54404 0.32287
#
# Static dielectric constant tensor:
#      x y z
#    x 4.737580 0.000000 0.000000 
#    y 0.000000 2.869830 0.000000 
#    z 0.000000 0.000000 3.370170 
# 
# 
# High freq. dielectric constant tensor:
#      x y z
#    x 1.742580 0.000000 0.000000 
#    y 0.000000 1.649720 0.000000 
#    z 0.000000 0.000000 1.708090 
# 
# From -- ./inp_files/2391.got.cif
#   From: 2010.03.12/outbox.cif.g09.slc.cpg/sg37_2_cif.got.tgz:2391.got - 2010.04.14 02:25:27.
