data_PCOD8176014
_publ_section_title
;
Structure prediction by ZEFSAII (Michael W. Deem and Ramdas Pophale) SiO2 
 PCOD8176014
Probable space group: C M C 21
;
_chemical_formula_sum "Si O2"
_cell_formula_units_Z 64
_cell_length_a 15.480536
_cell_length_b 11.337465
_cell_length_c 17.235179
_cell_angle_alpha 90.000000
_cell_angle_beta 90.000000
_cell_angle_gamma 90.000000
_cell_volume 3024.946871
_symmetry_space_group_name_H-M "C M C 21"
_symmetry_group_IT_number 36
_symmetry_cell_setting 'orthorhombic'
loop_
_space_group_symop_operation_xyz
x,y,z
-x,-y,1/2+z
x,-y,1/2+z
-x,y,z
1/2+x,1/2+y,z
1/2-x,1/2-y,1/2+z
1/2+x,1/2-y,1/2+z
1/2-x,1/2+y,z
loop_
_atom_site_type_symbol
_atom_site_label
_atom_site_fract_x
_atom_site_fract_y
_atom_site_fract_z
Si Si1 0.599114 0.133460 0.495680
Si Si2 0.787203 0.294165 0.674060
Si Si3 0.668677 0.624449 0.039346
Si Si4 0.903357 0.126566 0.581022
Si Si5 0.402825 0.663898 0.410039
Si Si6 0.173925 0.329916 0.289263
Si Si7 0.400945 0.020151 0.658724
Si Si8 0.743249 0.998123 0.907292
O O1 0.500000 0.103729 0.472635
O O2 0.606472 0.274546 0.504822
O O3 0.626824 0.065820 0.574161
O O4 0.665370 0.090633 0.429446
O O5 0.711329 0.323284 0.615444
O O6 0.837945 0.178249 0.644121
O O7 0.744889 0.262832 0.757148
O O8 0.849189 0.404910 0.684178
O O9 0.613697 0.510343 0.063137
O O10 0.742052 0.592360 0.976277
O O11 0.892493 0.200376 0.500675
O O12 0.000000 0.139582 0.613862
O O13 0.500000 0.615068 0.395980
O O14 0.387534 0.775835 0.355274
O O15 0.333460 0.565218 0.389523
O O16 0.115327 0.374028 0.218486
O O17 0.222517 0.439931 0.326715
O O18 0.500000 0.983521 0.659462
#
# Coordination Sequence:
#
# PCOD8176014 Si02
#       8
#     8   8   8   8   8   8   8   8
#     4  11  23  40  65  99 132 171 220 271 330 396
#     4  12  22  40  62  93 130 173 214 272 327 394
#     4  11  20  40  65  93 126 167 217 274 324 395
#     4  10  22  40  66  95 125 165 219 271 324 389
#     4  10  23  42  65  93 127 169 219 270 324 392
#     4  12  24  41  63  93 132 176 214 267 336 399
#     4  11  24  40  61  94 132 171 219 273 331 396
#     4  11  23  43  66  94 128 176 218 270 330 395
#
# _framework density 21.157397
#
# number of rings (size 3 to 8) (size 9 to 14) (size 15 to 20)
#    0.000    1.000    2.500    5.625    0.000    1.500 
#    0.000    2.500    0.000    0.000    0.000    0.000 
#    0.000    0.000    0.000    0.000    0.000    0.000 
#
# Total GULP energy -396900.722217 kJ/mol
# GULP energy per Si atom -12403.147569 kJ/mol
# Density = 2.110924 g / cm^3
# Si number density = 21.157397 Si / 1000 Ang^3
#
#
#
# Elastic Constant Matrix: (Units=GPa)
#
#
# Indices 1 2 3 4 5 6 
#
# 1 111.6479 35.7070 34.6009 0.0000 0.0000 0.0000
# 2 35.7070 97.2157 20.3218 0.0000 0.0000 0.0000
# 3 34.6009 20.3218 53.9079 0.0000 0.0000 0.0000
# 4 0.0000 0.0000 0.0000 37.0752 0.0000 0.0000
# 5 0.0000 0.0000 0.0000 0.0000 10.9073 0.0000
# 6 0.0000 0.0000 0.0000 0.0000 0.0000 38.6278
#
#
#
# Elastic Compliance Matrix: (Units=1/GPa)
#
#
# Indices 1 2 3 4 5 6 
#
# 1 0.011947 -0.003023 -0.006528 0.000000 0.000000 0.000000
# 2 -0.003023 0.011931 -0.002557 0.000000 0.000000 0.000000
# 3 -0.006528 -0.002557 0.023704 0.000000 0.000000 0.000000
# 4 0.000000 0.000000 0.000000 0.026972 0.000000 0.000000
# 5 0.000000 0.000000 0.000000 0.000000 0.091682 0.000000
# 6 0.000000 0.000000 0.000000 0.000000 0.000000 0.025888
#
#
# Mechanical properties :
#
#
# Convention : Reuss Voigt Hill
#
# Bulk Modulus (GPa) = 42.79962 49.33676 46.06819
# Shear Modulus (GPa) = 22.30839 28.79817 25.55328
#
# Velocity S-wave (km/s) = 3.25068 3.69337 3.47907
# Velocity P-wave (km/s) = 5.86193 6.44651 6.16116
#
# Compressibility (1/GPa) = 0.02336470
#
# Stress axis : x y z
#
# Youngs Moduli (GPa) = 83.70383 83.81213 42.18617
#
# Poissons Ratio (x) = 0.25340 0.27541
# Poissons Ratio (y) = 0.25307 0.10788
# Poissons Ratio (z) = 0.54645 0.21433
#
# Static dielectric constant tensor:
#      x y z
#    x 3.858250 0.000000 0.000000 
#    y 0.000000 3.819980 0.000000 
#    z 0.000000 0.000000 3.815250 
# 
# 
# High freq. dielectric constant tensor:
#      x y z
#    x 1.836610 0.000000 0.000000 
#    y 0.000000 1.832290 0.000000 
#    z 0.000000 0.000000 1.820810 
# 
# From -- ./inp_files/14703.got.cif
#   From: 2010.03.12/outbox.cif.g09.slc.cpg/sg36_8_cif.got.tgz:14703.got - 2010.04.14 02:13:53.
