data_PCOD8176791
_publ_section_title
;
Structure prediction by ZEFSAII (Michael W. Deem and Ramdas Pophale) SiO2 
 PCOD8176791
Probable space group: C C C 2
;
_chemical_formula_sum "Si O2"
_cell_formula_units_Z 40
_cell_length_a 12.079143
_cell_length_b 10.491416
_cell_length_c 14.051988
_cell_angle_alpha 90.000000
_cell_angle_beta 90.000000
_cell_angle_gamma 90.000000
_cell_volume 1780.770698
_symmetry_space_group_name_H-M "C C C 2"
_symmetry_group_IT_number 37
_symmetry_cell_setting 'orthorhombic'
loop_
_space_group_symop_operation_xyz
x,y,z
-x,-y,z
-x,y,1/2+z
x,-y,1/2+z
1/2+x,1/2+y,z
1/2-x,1/2-y,z
1/2-x,1/2+y,1/2+z
1/2+x,1/2-y,1/2+z
loop_
_atom_site_type_symbol
_atom_site_label
_atom_site_fract_x
_atom_site_fract_y
_atom_site_fract_z
Si Si1 0.000000 0.500000 0.780310
Si Si2 0.057574 0.242980 0.690688
Si Si3 0.675235 0.629474 0.184293
Si Si4 0.750000 0.250000 0.327276
Si Si5 0.221451 0.478628 0.368189
Si Si6 0.386345 0.565300 0.027328
O O1 0.952142 0.604841 0.706450
O O2 0.907426 0.439353 0.852088
O O3 0.150820 0.195955 0.762751
O O4 0.089313 0.198826 0.582733
O O5 0.944853 0.173862 0.719024
O O6 0.750000 0.750000 0.157055
O O7 0.724556 0.546300 0.267397
O O8 0.670100 0.537971 0.094571
O O9 0.781726 0.370063 0.392984
O O10 0.293759 0.403595 0.446881
O O11 0.500000 0.500000 0.986675
#
# Coordination Sequence:
#
# PCOD8176791 Si02
#       6
#     4   8   8   4   8   8
#     4  10  22  44  72 100 136 192 220 302 366 422
#     4  10  21  43  67  97 133 180 231 281 356 419
#     4  11  22  43  68  93 136 184 227 285 353 422
#     4  10  22  38  68  90 132 178 220 284 350 412
#     4  11  23  43  68  98 136 183 233 284 357 416
#     4  10  24  41  69 104 131 180 242 291 342 425
#
# _framework density 22.462185000000002
#
# number of rings (size 3 to 8) (size 9 to 14) (size 15 to 20)
#    0.000    1.600    4.000    0.000    4.200    0.000 
#    1.800    3.000    0.000    0.000    0.000    0.000 
#    0.000    0.000    0.000    0.000    0.000    0.000 
#
# Total GULP energy -247802.669123 kJ/mol
# GULP energy per Si atom -12390.133456 kJ/mol
# Density = 2.241106 g / cm^3
# Si number density = 22.462185 Si / 1000 Ang^3
#
#
#
# Elastic Constant Matrix: (Units=GPa)
#
#
# Indices 1 2 3 4 5 6 
#
# 1 160.7254 27.1083 56.8933 0.0000 0.0000 0.0000
# 2 27.1083 86.3937 26.0420 0.0000 0.0000 0.0000
# 3 56.8933 26.0420 71.9130 0.0000 0.0000 0.0000
# 4 0.0000 0.0000 0.0000 34.9215 0.0000 0.0000
# 5 0.0000 0.0000 0.0000 0.0000 43.6593 0.0000
# 6 0.0000 0.0000 0.0000 0.0000 0.0000 35.7285
#
#
#
# Elastic Compliance Matrix: (Units=1/GPa)
#
#
# Indices 1 2 3 4 5 6 
#
# 1 0.008683 -0.000734 -0.006604 0.000000 0.000000 0.000000
# 2 -0.000734 0.013055 -0.004147 0.000000 0.000000 0.000000
# 3 -0.006604 -0.004147 0.020632 0.000000 0.000000 0.000000
# 4 0.000000 0.000000 0.000000 0.028636 0.000000 0.000000
# 5 0.000000 0.000000 0.000000 0.000000 0.022905 0.000000
# 6 0.000000 0.000000 0.000000 0.000000 0.000000 0.027989
#
#
# Mechanical properties :
#
#
# Convention : Reuss Voigt Hill
#
# Bulk Modulus (GPa) = 51.54431 59.90214 55.72322
# Shear Modulus (GPa) = 33.03899 36.79443 34.91671
#
# Velocity S-wave (km/s) = 3.83936 4.05169 3.94695
# Velocity P-wave (km/s) = 6.53079 6.97238 6.75519
#
# Compressibility (1/GPa) = 0.01940078
#
# Stress axis : x y z
#
# Youngs Moduli (GPa) = 115.16500 76.59734 48.46832
#
# Poissons Ratio (x) = 0.05622 0.32008
# Poissons Ratio (y) = 0.08453 0.20100
# Poissons Ratio (z) = 0.76053 0.31765
#
# Static dielectric constant tensor:
#      x y z
#    x 4.472270 0.000000 0.000000 
#    y 0.000000 3.999200 0.000000 
#    z 0.000000 0.000000 3.697580 
# 
# 
# High freq. dielectric constant tensor:
#      x y z
#    x 1.907830 0.000000 0.000000 
#    y 0.000000 1.889550 0.000000 
#    z 0.000000 0.000000 1.846280 
# 
# From -- ./inp_files/11353.got.cif
#   From: 2010.03.12/outbox.cif.g09.slc.cpg/sg37_6_cif.got.tgz:11353.got - 2010.04.14 02:25:27.
