data_PCOD8176821
_publ_section_title
;
Structure prediction by ZEFSAII (Michael W. Deem and Ramdas Pophale) SiO2 
 PCOD8176821
Probable space group: C C C 2
;
_chemical_formula_sum "Si O2"
_cell_formula_units_Z 60
_cell_length_a 23.846126
_cell_length_b 8.741529
_cell_length_c 14.216801
_cell_angle_alpha 90.000000
_cell_angle_beta 90.000000
_cell_angle_gamma 90.000000
_cell_volume 2963.514943
_symmetry_space_group_name_H-M "C C C 2"
_symmetry_group_IT_number 37
_symmetry_cell_setting 'orthorhombic'
loop_
_space_group_symop_operation_xyz
x,y,z
-x,-y,z
-x,y,1/2+z
x,-y,1/2+z
1/2+x,1/2+y,z
1/2-x,1/2-y,z
1/2-x,1/2+y,1/2+z
1/2+x,1/2-y,1/2+z
loop_
_atom_site_type_symbol
_atom_site_label
_atom_site_fract_x
_atom_site_fract_y
_atom_site_fract_z
Si Si1 0.875711 0.947921 0.565820
Si Si2 0.559659 0.722406 0.153279
Si Si3 0.062923 0.552830 0.431992
Si Si4 0.606523 0.621988 0.888129
Si Si5 0.548699 0.169821 0.089666
Si Si6 0.500000 0.500000 0.784521
Si Si7 0.685260 0.734519 0.719671
Si Si8 0.891372 0.493502 0.238381
O O1 0.926527 0.830369 0.558202
O O2 0.825112 0.869322 0.625532
O O3 0.899882 0.092913 0.618448
O O4 0.859954 0.010885 0.461782
O O5 0.519569 0.816218 0.077579
O O6 0.512435 0.650435 0.222010
O O7 0.603768 0.836087 0.200219
O O8 0.078380 0.733273 0.442389
O O9 0.078010 0.460800 0.526377
O O10 0.103876 0.494376 0.350000
O O11 0.000000 0.500000 0.402983
O O12 0.554887 0.527409 0.846363
O O13 0.650796 0.665000 0.807358
O O14 0.560318 0.121035 0.197652
O O15 0.750000 0.750000 0.743900
O O16 0.666005 0.910750 0.704837
#
# Coordination Sequence:
#
# PCOD8176821 Si02
#       8
#     8   8   8   8   8   4   8   8
#     4  11  23  38  62  94 125 165 223 267 331 394
#     4  12  20  36  58  92 135 174 212 252 321 409
#     4  11  21  33  54  87 131 170 200 243 312 390
#     4  11  24  39  62  99 128 171 220 270 335 405
#     4  11  21  35  54  89 134 170 198 249 316 393
#     4  12  22  36  64  92 142 176 198 266 340 414
#     4  10  23  50  69  84 126 177 227 291 343 378
#     4  10  22  37  58  87 118 163 218 259 312 390
#
# _framework density 20.246229
#
# number of rings (size 3 to 8) (size 9 to 14) (size 15 to 20)
#    0.000    1.067    2.667    6.000    5.600    0.000 
#    0.000    7.333    0.000    0.000    0.000    0.000 
#    0.000    0.000    0.000    0.000    0.000    0.000 
#
# Total GULP energy -371725.145374 kJ/mol
# GULP energy per Si atom -12390.838179 kJ/mol
# Density = 2.020015 g / cm^3
# Si number density = 20.246229 Si / 1000 Ang^3
#
#
#
# Elastic Constant Matrix: (Units=GPa)
#
#
# Indices 1 2 3 4 5 6 
#
# 1 110.0883 35.5276 35.6537 0.0000 0.0000 0.0000
# 2 35.5276 112.1698 41.5089 0.0000 0.0000 0.0000
# 3 35.6537 41.5089 92.5211 0.0000 0.0000 0.0000
# 4 0.0000 0.0000 0.0000 31.3293 0.0000 0.0000
# 5 0.0000 0.0000 0.0000 0.0000 13.7705 0.0000
# 6 0.0000 0.0000 0.0000 0.0000 0.0000 19.5326
#
#
#
# Elastic Compliance Matrix: (Units=1/GPa)
#
#
# Indices 1 2 3 4 5 6 
#
# 1 0.010838 -0.002263 -0.003161 0.000000 0.000000 0.000000
# 2 -0.002263 0.011162 -0.004136 0.000000 0.000000 0.000000
# 3 -0.003161 -0.004136 0.013882 0.000000 0.000000 0.000000
# 4 0.000000 0.000000 0.000000 0.031919 0.000000 0.000000
# 5 0.000000 0.000000 0.000000 0.000000 0.072619 0.000000
# 6 0.000000 0.000000 0.000000 0.000000 0.000000 0.051196
#
#
# Mechanical properties :
#
#
# Convention : Reuss Voigt Hill
#
# Bulk Modulus (GPa) = 59.65786 60.01773 59.83779
# Shear Modulus (GPa) = 23.11352 26.39908 24.75630
#
# Velocity S-wave (km/s) = 3.38245 3.61487 3.50059
# Velocity P-wave (km/s) = 6.69214 6.86523 6.77924
#
# Compressibility (1/GPa) = 0.01676225
#
# Stress axis : x y z
#
# Youngs Moduli (GPa) = 92.27079 89.58766 72.03539
#
# Poissons Ratio (x) = 0.20272 0.22772
# Poissons Ratio (y) = 0.20879 0.29793
# Poissons Ratio (z) = 0.29168 0.37052
#
# Static dielectric constant tensor:
#      x y z
#    x 3.165020 0.000000 0.000000 
#    y 0.000000 4.216930 0.000000 
#    z 0.000000 0.000000 4.029080 
# 
# 
# High freq. dielectric constant tensor:
#      x y z
#    x 1.730320 0.000000 0.000000 
#    y 0.000000 1.816760 0.000000 
#    z 0.000000 0.000000 1.806670 
# 
# From -- ./inp_files/10930.got.cif
#   From: 2010.03.12/outbox.cif.g09.slc.cpg/sg37_6_cif.got.tgz:10930.got - 2010.04.14 02:25:27.
