data_PCOD8176010
_publ_section_title
;
Structure prediction by ZEFSAII (Michael W. Deem and Ramdas Pophale) SiO2 
 PCOD8176010
Probable space group: C M C 21
;
_chemical_formula_sum "Si O2"
_cell_formula_units_Z 56
_cell_length_a 15.570129
_cell_length_b 11.976001
_cell_length_c 13.952890
_cell_angle_alpha 90.000000
_cell_angle_beta 90.000000
_cell_angle_gamma 90.000000
_cell_volume 2601.765825
_symmetry_space_group_name_H-M "C M C 21"
_symmetry_group_IT_number 36
_symmetry_cell_setting 'orthorhombic'
loop_
_space_group_symop_operation_xyz
x,y,z
-x,-y,1/2+z
x,-y,1/2+z
-x,y,z
1/2+x,1/2+y,z
1/2-x,1/2-y,1/2+z
1/2+x,1/2-y,1/2+z
1/2-x,1/2+y,z
loop_
_atom_site_type_symbol
_atom_site_label
_atom_site_fract_x
_atom_site_fract_y
_atom_site_fract_z
Si Si1 0.670492 0.502997 0.658240
Si Si2 0.902526 0.752619 0.834967
Si Si3 0.403478 0.129872 0.024251
Si Si4 0.300146 0.079563 0.519527
Si Si5 0.595867 0.739285 0.122310
Si Si6 0.597678 0.272276 0.205892
Si Si7 0.233244 0.617732 0.309213
O O1 0.704981 0.564172 0.562275
O O2 0.619423 0.391260 0.630706
O O3 0.609090 0.593600 0.709628
O O4 0.751979 0.475367 0.727521
O O5 0.899848 0.701847 0.727202
O O6 0.829488 0.845757 0.838823
O O7 0.000000 0.799690 0.854669
O O8 0.877337 0.663341 0.915990
O O9 0.500000 0.088606 0.025329
O O10 0.387719 0.231825 0.096865
O O11 0.352172 0.023979 0.062322
O O12 0.338329 0.198905 0.551998
O O13 0.306419 0.067748 0.405372
O O14 0.500000 0.748206 0.079719
O O15 0.500000 0.243816 0.240165
O O16 0.669311 0.215173 0.273365
#
# Coordination Sequence:
#
# PCOD8176010 Si02
#       7
#     8   8   8   8   8   8   8
#     4  11  23  43  67  98 125 176 221 274 327 392
#     4   9  20  39  65  91 126 170 218 268 324 394
#     4  10  22  40  64  96 132 174 221 269 330 398
#     4  12  25  38  65  97 134 174 217 274 329 394
#     4  10  23  43  65  93 129 169 218 271 328 389
#     4  11  24  44  68  98 135 173 221 277 331 395
#     4  11  25  41  66  95 137 174 221 275 338 390
#
# _framework density 21.523844
#
# number of rings (size 3 to 8) (size 9 to 14) (size 15 to 20)
#    0.000    1.429    1.429    3.429    6.000    1.714 
#    0.000    0.714    0.000    3.429    0.000    0.000 
#    0.000    0.000    0.000    0.000    0.000    0.000 
#
# Total GULP energy -347038.876512 kJ/mol
# GULP energy per Si atom -12394.245590 kJ/mol
# Density = 2.147485 g / cm^3
# Si number density = 21.523844 Si / 1000 Ang^3
#
#
#
# Elastic Constant Matrix: (Units=GPa)
#
#
# Indices 1 2 3 4 5 6 
#
# 1 98.8032 38.8981 32.9173 0.0000 0.0000 0.0000
# 2 38.8981 98.7169 24.0365 0.0000 0.0000 0.0000
# 3 32.9173 24.0365 92.0895 0.0000 0.0000 0.0000
# 4 0.0000 0.0000 0.0000 26.0800 0.0000 0.0000
# 5 0.0000 0.0000 0.0000 0.0000 19.4709 0.0000
# 6 0.0000 0.0000 0.0000 0.0000 0.0000 27.2031
#
#
#
# Elastic Compliance Matrix: (Units=1/GPa)
#
#
# Indices 1 2 3 4 5 6 
#
# 1 0.012970 -0.004252 -0.003526 0.000000 0.000000 0.000000
# 2 -0.004252 0.012211 -0.001667 0.000000 0.000000 0.000000
# 3 -0.003526 -0.001667 0.012555 0.000000 0.000000 0.000000
# 4 0.000000 0.000000 0.000000 0.038344 0.000000 0.000000
# 5 0.000000 0.000000 0.000000 0.000000 0.051359 0.000000
# 6 0.000000 0.000000 0.000000 0.000000 0.000000 0.036761
#
#
# Mechanical properties :
#
#
# Convention : Reuss Voigt Hill
#
# Bulk Modulus (GPa) = 53.06565 53.47926 53.27246
# Shear Modulus (GPa) = 26.40309 27.46799 26.93554
#
# Velocity S-wave (km/s) = 3.50621 3.57622 3.54139
# Velocity P-wave (km/s) = 6.41087 6.47711 6.44407
#
# Compressibility (1/GPa) = 0.01884458
#
# Stress axis : x y z
#
# Youngs Moduli (GPa) = 77.10136 81.89043 79.65151
#
# Poissons Ratio (x) = 0.34820 0.28087
# Poissons Ratio (y) = 0.32784 0.13281
# Poissons Ratio (z) = 0.27188 0.13655
#
# Static dielectric constant tensor:
#      x y z
#    x 3.983080 0.000000 0.000000 
#    y 0.000000 3.578160 0.000000 
#    z 0.000000 0.000000 4.177110 
# 
# 
# High freq. dielectric constant tensor:
#      x y z
#    x 1.854740 0.000000 0.000000 
#    y 0.000000 1.829620 0.000000 
#    z 0.000000 0.000000 1.842780 
# 
# From -- ./inp_files/12157.got.cif
#   From: 2010.03.12/outbox.cif.g09.slc.cpg/sg36_7_cif.got.tgz:12157.got - 2010.04.14 02:13:53.
