data_PCOD8176883
_publ_section_title
;
Structure prediction by ZEFSAII (Michael W. Deem and Ramdas Pophale) SiO2 
 PCOD8176883
Probable space group: C C C 2
;
_chemical_formula_sum "Si O2"
_cell_formula_units_Z 60
_cell_length_a 11.274938
_cell_length_b 27.684144
_cell_length_c 8.623367
_cell_angle_alpha 90.000000
_cell_angle_beta 90.000000
_cell_angle_gamma 90.000000
_cell_volume 2691.671967
_symmetry_space_group_name_H-M "C C C 2"
_symmetry_group_IT_number 37
_symmetry_cell_setting 'orthorhombic'
loop_
_space_group_symop_operation_xyz
x,y,z
-x,-y,z
-x,y,1/2+z
x,-y,1/2+z
1/2+x,1/2+y,z
1/2-x,1/2-y,z
1/2-x,1/2+y,1/2+z
1/2+x,1/2-y,1/2+z
loop_
_atom_site_type_symbol
_atom_site_label
_atom_site_fract_x
_atom_site_fract_y
_atom_site_fract_z
Si Si1 0.844128 0.708771 0.512410
Si Si2 0.606091 0.307237 0.583786
Si Si3 0.446562 0.754676 0.307256
Si Si4 0.772109 0.137034 0.809098
Si Si5 0.000000 0.500000 0.985228
Si Si6 0.988275 0.902127 0.471459
Si Si7 0.108159 0.034344 0.730223
Si Si8 0.167516 0.536967 0.735407
O O1 0.750000 0.750000 0.469923
O O2 0.868804 0.709280 0.698730
O O3 0.791905 0.656383 0.465240
O O4 0.961160 0.715162 0.408432
O O5 0.633621 0.277222 0.426608
O O6 0.506020 0.280936 0.683726
O O7 0.724912 0.317423 0.686194
O O8 0.563602 0.361331 0.552420
O O9 0.713659 0.091071 0.730837
O O10 0.907940 0.123033 0.841879
O O11 0.914362 0.533446 0.085600
O O12 0.915600 0.466156 0.884704
O O13 0.893879 0.928133 0.587041
O O14 0.082698 0.939165 0.393928
O O15 0.230389 0.004263 0.739201
O O16 0.000000 0.000000 0.692180
#
# Coordination Sequence:
#
# PCOD8176883 Si02
#       8
#     8   8   8   8   4   8   8   8
#     4  11  23  45  68  97 134 181 225 290 353 426
#     4  11  19  40  64 103 140 176 215 287 362 434
#     4  10  22  42  70  95 139 178 229 278 357 430
#     4  12  23  39  72 100 144 176 233 297 356 417
#     4  10  26  50  66  86 142 208 252 272 342 406
#     4  12  22  37  65 110 147 174 216 289 365 437
#     4  12  24  38  67 108 144 177 228 285 371 420
#     4  11  25  45  69  96 139 198 241 297 337 421
#
# _framework density 22.290977000000002
#
# number of rings (size 3 to 8) (size 9 to 14) (size 15 to 20)
#    0.000    0.800    5.333    2.000    3.733    1.067 
#    4.800    0.000    0.000    0.000    0.000    0.000 
#    0.000    0.000    0.000    0.000    0.000    0.000 
#
# Total GULP energy -371877.121724 kJ/mol
# GULP energy per Si atom -12395.904057 kJ/mol
# Density = 2.224024 g / cm^3
# Si number density = 22.290977 Si / 1000 Ang^3
#
#
#
# Elastic Constant Matrix: (Units=GPa)
#
#
# Indices 1 2 3 4 5 6 
#
# 1 91.7066 28.1103 42.6764 0.0000 0.0000 0.0000
# 2 28.1103 61.0535 30.0989 0.0000 0.0000 0.0000
# 3 42.6764 30.0989 131.8215 0.0000 0.0000 0.0000
# 4 0.0000 0.0000 0.0000 42.8537 0.0000 0.0000
# 5 0.0000 0.0000 0.0000 0.0000 43.8981 0.0000
# 6 0.0000 0.0000 0.0000 0.0000 0.0000 18.5204
#
#
#
# Elastic Compliance Matrix: (Units=1/GPa)
#
#
# Indices 1 2 3 4 5 6 
#
# 1 0.013954 -0.004730 -0.003437 0.000000 0.000000 0.000000
# 2 -0.004730 0.020060 -0.003049 0.000000 0.000000 0.000000
# 3 -0.003437 -0.003049 0.009395 0.000000 0.000000 0.000000
# 4 0.000000 0.000000 0.000000 0.023335 0.000000 0.000000
# 5 0.000000 0.000000 0.000000 0.000000 0.022780 0.000000
# 6 0.000000 0.000000 0.000000 0.000000 0.000000 0.053995
#
#
# Mechanical properties :
#
#
# Convention : Reuss Voigt Hill
#
# Bulk Modulus (GPa) = 47.67361 54.03921 50.85641
# Shear Modulus (GPa) = 28.91114 33.30084 31.10599
#
# Velocity S-wave (km/s) = 3.60528 3.86931 3.73963
# Velocity P-wave (km/s) = 6.22608 6.65262 6.44288
#
# Compressibility (1/GPa) = 0.02097596
#
# Stress axis : x y z
#
# Youngs Moduli (GPa) = 71.66477 49.85041 106.43897
#
# Poissons Ratio (x) = 0.23579 0.36588
# Poissons Ratio (y) = 0.33897 0.32453
# Poissons Ratio (z) = 0.24635 0.15199
#
# Static dielectric constant tensor:
#      x y z
#    x 4.095980 0.000000 0.000000 
#    y 0.000000 3.661620 0.000000 
#    z 0.000000 0.000000 4.427190 
# 
# 
# High freq. dielectric constant tensor:
#      x y z
#    x 1.863260 0.000000 0.000000 
#    y 0.000000 1.869670 0.000000 
#    z 0.000000 0.000000 1.901230 
# 
# From -- ./inp_files/3108.got.cif
#   From: 2010.03.12/outbox.cif.g09.slc.cpg/sg37_2_cif.got.tgz:3108.got - 2010.04.14 02:25:27.
