data_PCOD8176131
_publ_section_title
;
Structure prediction by ZEFSAII (Michael W. Deem and Ramdas Pophale) SiO2 
 PCOD8176131
Probable space group: C M C 21
;
_chemical_formula_sum "Si O2"
_cell_formula_units_Z 48
_cell_length_a 12.040319
_cell_length_b 18.097512
_cell_length_c 10.004870
_cell_angle_alpha 90.000000
_cell_angle_beta 90.000000
_cell_angle_gamma 90.000000
_cell_volume 2180.059348
_symmetry_space_group_name_H-M "C M C 21"
_symmetry_group_IT_number 36
_symmetry_cell_setting 'orthorhombic'
loop_
_space_group_symop_operation_xyz
x,y,z
-x,-y,1/2+z
x,-y,1/2+z
-x,y,z
1/2+x,1/2+y,z
1/2-x,1/2-y,1/2+z
1/2+x,1/2-y,1/2+z
1/2-x,1/2+y,z
loop_
_atom_site_type_symbol
_atom_site_label
_atom_site_fract_x
_atom_site_fract_y
_atom_site_fract_z
Si Si1 0.706236 0.768298 0.791280
Si Si2 0.500000 0.588898 0.588877
Si Si3 0.128840 0.434996 0.192376
Si Si4 0.121778 0.604955 0.140710
Si Si5 0.208519 0.121791 0.917183
Si Si6 0.275798 0.330525 0.053025
Si Si7 0.500000 0.472184 0.374187
O O1 0.619282 0.834055 0.759644
O O2 0.652207 0.698735 0.870014
O O3 0.761154 0.735834 0.654693
O O4 0.792216 0.802739 0.900667
O O5 0.606790 0.640130 0.607388
O O6 0.500000 0.553235 0.440777
O O7 0.500000 0.528936 0.711762
O O8 0.144572 0.522835 0.192213
O O9 0.195231 0.404941 0.318203
O O10 0.183415 0.396218 0.061165
O O11 0.000000 0.412974 0.202150
O O12 0.000000 0.607126 0.069983
O O13 0.225983 0.630934 0.054556
O O14 0.110318 0.064080 0.934163
#
# Coordination Sequence:
#
# PCOD8176131 Si02
#       7
#     8   4   8   8   8   8   4
#     4  11  24  43  69 101 135 192 217 293 346 419
#     4  12  26  46  74 104 144 192 228 307 347 424
#     4  10  23  43  68 100 132 176 225 292 336 407
#     4  11  25  42  74 100 136 180 230 282 356 409
#     4  11  24  45  67  98 141 175 235 280 343 416
#     4  11  25  47  69  99 147 176 244 279 358 413
#     4  12  26  44  76 100 142 188 232 293 355 410
#
# _framework density 22.017748000000001
#
# number of rings (size 3 to 8) (size 9 to 14) (size 15 to 20)
#    0.000    1.000    5.000    1.500    7.000    0.667 
#    6.000    0.000    0.000    0.000    0.000    0.000 
#    0.000    0.000    0.000    0.000    0.000    0.000 
#
# Total GULP energy -297330.007983 kJ/mol
# GULP energy per Si atom -12388.750333 kJ/mol
# Density = 2.196763 g / cm^3
# Si number density = 22.017748 Si / 1000 Ang^3
#
#
#
# Elastic Constant Matrix: (Units=GPa)
#
#
# Indices 1 2 3 4 5 6 
#
# 1 132.2138 50.3276 39.2681 0.0000 0.0000 0.0000
# 2 50.3276 136.8404 39.4764 0.0000 0.0000 0.0000
# 3 39.2681 39.4764 106.0102 0.0000 0.0000 0.0000
# 4 0.0000 0.0000 0.0000 39.4606 0.0000 0.0000
# 5 0.0000 0.0000 0.0000 0.0000 26.4682 0.0000
# 6 0.0000 0.0000 0.0000 0.0000 0.0000 7.1434
#
#
#
# Elastic Compliance Matrix: (Units=1/GPa)
#
#
# Indices 1 2 3 4 5 6 
#
# 1 0.009326 -0.002726 -0.002439 0.000000 0.000000 0.000000
# 2 -0.002726 0.008984 -0.002336 0.000000 0.000000 0.000000
# 3 -0.002439 -0.002336 0.011206 0.000000 0.000000 0.000000
# 4 0.000000 0.000000 0.000000 0.025342 0.000000 0.000000
# 5 0.000000 0.000000 0.000000 0.000000 0.037781 0.000000
# 6 0.000000 0.000000 0.000000 0.000000 0.000000 0.139990
#
#
# Mechanical properties :
#
#
# Convention : Reuss Voigt Hill
#
# Bulk Modulus (GPa) = 68.89885 70.35651 69.62768
# Shear Modulus (GPa) = 19.80440 31.01392 25.40916
#
# Velocity S-wave (km/s) = 3.00238 3.75719 3.40079
# Velocity P-wave (km/s) = 6.58630 7.13062 6.86386
#
# Compressibility (1/GPa) = 0.01451403
#
# Stress axis : x y z
#
# Youngs Moduli (GPa) = 107.23070 111.30590 89.23479
#
# Poissons Ratio (x) = 0.30344 0.21766
# Poissons Ratio (y) = 0.29233 0.20843
# Poissons Ratio (z) = 0.26156 0.25999
#
# Static dielectric constant tensor:
#      x y z
#    x 3.858110 0.000000 0.000000 
#    y 0.000000 4.255110 0.000000 
#    z 0.000000 0.000000 3.986360 
# 
# 
# High freq. dielectric constant tensor:
#      x y z
#    x 1.846650 0.000000 0.000000 
#    y 0.000000 1.883460 0.000000 
#    z 0.000000 0.000000 1.864110 
# 
# From -- ./inp_files/7730.got.cif
#   From: 2010.03.12/outbox.cif.g09.slc.cpg/sg36_4_cif.got.tgz:7730.got - 2010.04.14 02:13:53.
