data_PCOD8176876
_publ_section_title
;
Structure prediction by ZEFSAII (Michael W. Deem and Ramdas Pophale) SiO2 
 PCOD8176876
Probable space group: C C C 2
;
_chemical_formula_sum "Si O2"
_cell_formula_units_Z 48
_cell_length_a 11.779128
_cell_length_b 19.521812
_cell_length_c 9.015629
_cell_angle_alpha 90.000000
_cell_angle_beta 90.000000
_cell_angle_gamma 90.000000
_cell_volume 2073.143188
_symmetry_space_group_name_H-M "C C C 2"
_symmetry_group_IT_number 37
_symmetry_cell_setting 'orthorhombic'
loop_
_space_group_symop_operation_xyz
x,y,z
-x,-y,z
-x,y,1/2+z
x,-y,1/2+z
1/2+x,1/2+y,z
1/2-x,1/2-y,z
1/2-x,1/2+y,1/2+z
1/2+x,1/2-y,1/2+z
loop_
_atom_site_type_symbol
_atom_site_label
_atom_site_fract_x
_atom_site_fract_y
_atom_site_fract_z
Si Si1 0.037351 0.398907 0.835640
Si Si2 0.000000 0.000000 0.789441
Si Si3 0.379428 0.776386 0.871100
Si Si4 0.753822 0.176936 0.397039
Si Si5 0.500000 0.000000 0.084362
Si Si6 0.442980 0.706203 0.161440
Si Si7 0.086037 0.911730 0.546638
O O1 0.129403 0.338652 0.835234
O O2 0.063286 0.446162 0.692063
O O3 0.914435 0.357845 0.840225
O O4 0.067114 0.448862 0.974405
O O5 0.093769 0.964343 0.682996
O O6 0.932668 0.946932 0.888406
O O7 0.250000 0.750000 0.843619
O O8 0.454010 0.729709 0.763818
O O9 0.409557 0.764694 0.043796
O O10 0.750000 0.250000 0.478870
O O11 0.836109 0.182077 0.256380
O O12 0.793376 0.125351 0.526048
O O13 0.482214 0.640021 0.068808
#
# Coordination Sequence:
#
# PCOD8176876 Si02
#       7
#     8   4   8   8   4   8   8
#     4  11  25  49  73 108 146 196 255 300 371 450
#     4  10  22  42  66  98 150 192 244 298 352 446
#     4  12  27  45  79 111 148 193 246 319 389 441
#     4  12  24  43  74 105 148 191 238 318 372 426
#     4  10  26  50  72  98 152 200 254 298 350 460
#     4  12  23  46  69 112 151 185 244 311 382 445
#     4  11  22  42  67 103 142 192 236 295 366 440
#
# _framework density 23.153248000000001
#
# number of rings (size 3 to 8) (size 9 to 14) (size 15 to 20)
#    0.000    0.667    5.000    1.500    2.333    4.667 
#    0.000    1.667    0.000    0.000    0.000    0.000 
#    0.000    0.000    0.000    0.000    0.000    0.000 
#
# Total GULP energy -297324.369815 kJ/mol
# GULP energy per Si atom -12388.515409 kJ/mol
# Density = 2.310055 g / cm^3
# Si number density = 23.153248 Si / 1000 Ang^3
#
#
#
# Elastic Constant Matrix: (Units=GPa)
#
#
# Indices 1 2 3 4 5 6 
#
# 1 126.6837 48.2686 40.7721 0.0000 0.0000 0.0000
# 2 48.2686 144.0862 54.7768 0.0000 0.0000 0.0000
# 3 40.7721 54.7768 140.4641 0.0000 0.0000 0.0000
# 4 0.0000 0.0000 0.0000 129.2206 0.0000 0.0000
# 5 0.0000 0.0000 0.0000 0.0000 -8.0800 0.0000
# 6 0.0000 0.0000 0.0000 0.0000 0.0000 30.5748
#
#
#
# Elastic Compliance Matrix: (Units=1/GPa)
#
#
# Indices 1 2 3 4 5 6 
#
# 1 0.009406 -0.002481 -0.001763 0.000000 0.000000 0.000000
# 2 -0.002481 0.008803 -0.002713 0.000000 0.000000 0.000000
# 3 -0.001763 -0.002713 0.008689 0.000000 0.000000 0.000000
# 4 0.000000 0.000000 0.000000 0.007739 0.000000 0.000000
# 5 0.000000 0.000000 0.000000 0.000000 -0.123763 0.000000
# 6 0.000000 0.000000 0.000000 0.000000 0.000000 0.032707
#
#
# Mechanical properties :
#
#
# Convention : Reuss Voigt Hill
#
# Bulk Modulus (GPa) = 77.01234 77.65211 77.33223
# Shear Modulus (GPa) = -130.96439 48.17085 -41.39677
#
# Velocity S-wave (km/s) = -7.52907 4.56622 -4.23300
# Velocity P-wave (km/s) = 6.49988 7.83656 3.09542
#
# Compressibility (1/GPa) = 0.01298493
#
# Stress axis : x y z
#
# Youngs Moduli (GPa) = 106.31160 113.60216 115.09063
#
# Poissons Ratio (x) = 0.28184 0.20289
# Poissons Ratio (y) = 0.26375 0.31220
# Poissons Ratio (z) = 0.18741 0.30816
#
# Static dielectric constant tensor:
#      x y z
#    x 4.006350 0.000000 0.000000 
#    y 0.000000 0.025460 0.000000 
#    z 0.000000 0.000000 4.432660 
# 
# 
# High freq. dielectric constant tensor:
#      x y z
#    x 1.879330 0.000000 0.000000 
#    y 0.000000 1.938050 0.000000 
#    z 0.000000 0.000000 1.935880 
# 
# From -- ./inp_files/2947.got.cif
#   From: 2010.03.12/outbox.cif.g09.slc.cpg/sg37_2_cif.got.tgz:2947.got - 2010.04.14 02:25:27.
