data_PCOD8176421
_publ_section_title
;
Structure prediction by ZEFSAII (Michael W. Deem and Ramdas Pophale) SiO2 
 PCOD8176421
Probable space group: C C C 2
;
_chemical_formula_sum "Si O2"
_cell_formula_units_Z 60
_cell_length_a 8.045932
_cell_length_b 23.297623
_cell_length_c 16.889566
_cell_angle_alpha 90.000000
_cell_angle_beta 90.000000
_cell_angle_gamma 90.000000
_cell_volume 3165.967563
_symmetry_space_group_name_H-M "C C C 2"
_symmetry_group_IT_number 37
_symmetry_cell_setting 'orthorhombic'
loop_
_space_group_symop_operation_xyz
x,y,z
-x,-y,z
-x,y,1/2+z
x,-y,1/2+z
1/2+x,1/2+y,z
1/2-x,1/2-y,z
1/2-x,1/2+y,1/2+z
1/2+x,1/2-y,1/2+z
loop_
_atom_site_type_symbol
_atom_site_label
_atom_site_fract_x
_atom_site_fract_y
_atom_site_fract_z
Si Si1 0.213847 0.114900 0.544630
Si Si2 0.590587 0.789092 0.474222
Si Si3 0.609886 0.878440 0.706099
Si Si4 0.312356 0.189065 0.857085
Si Si5 0.000000 0.500000 0.171022
Si Si6 0.684844 0.491192 0.561115
Si Si7 0.631258 0.798610 0.115438
Si Si8 0.649160 0.369425 0.504384
O O1 0.360206 0.146740 0.499364
O O2 0.247563 0.116933 0.639210
O O3 0.219782 0.049683 0.512678
O O4 0.040539 0.145425 0.525123
O O5 0.750000 0.750000 0.460325
O O6 0.493391 0.797228 0.392618
O O7 0.476213 0.765763 0.546693
O O8 0.688362 0.857578 0.787905
O O9 0.476845 0.829243 0.682769
O O10 0.533861 0.942102 0.721549
O O11 0.250000 0.250000 0.823889
O O12 0.190205 0.163348 0.923550
O O13 0.835590 0.516937 0.121924
O O14 0.500000 0.500000 0.601913
O O15 0.678395 0.438164 0.499681
O O16 0.750000 0.750000 0.154263
O O17 0.737519 0.848703 0.075971
#
# Coordination Sequence:
#
# PCOD8176421 Si02
#       8
#     8   8   8   8   4   8   8   8
#     4   9  19  35  62  86 108 147 201 245 287 348
#     4  10  19  35  55  80 113 151 200 242 293 350
#     4  10  22  38  57  87 118 158 196 239 303 359
#     4  11  24  38  53  82 123 158 191 239 302 356
#     4  10  18  40  62  86 124 154 196 256 294 358
#     4   9  18  32  62  92 114 144 199 248 297 346
#     4  10  19  32  56  87 108 145 201 244 285 344
#     4  10  18  37  59  84 115 151 191 247 293 343
#
# _framework density 18.951552
#
# number of rings (size 3 to 8) (size 9 to 14) (size 15 to 20)
#    0.000    2.133    1.333    3.200    1.867    3.733 
#    2.400    1.333    0.000    4.000    0.000    0.000 
#    0.000    0.000    0.000    0.000    0.000    0.000 
#
# Total GULP energy -371805.284972 kJ/mol
# GULP energy per Si atom -12393.509499 kJ/mol
# Density = 1.890842 g / cm^3
# Si number density = 18.951552 Si / 1000 Ang^3
#
#
#
# Elastic Constant Matrix: (Units=GPa)
#
#
# Indices 1 2 3 4 5 6 
#
# 1 95.7033 37.6240 21.8616 0.0000 0.0000 0.0000
# 2 37.6240 118.7765 36.3553 0.0000 0.0000 0.0000
# 3 21.8616 36.3553 57.7391 0.0000 0.0000 0.0000
# 4 0.0000 0.0000 0.0000 24.3484 0.0000 0.0000
# 5 0.0000 0.0000 0.0000 0.0000 16.1907 0.0000
# 6 0.0000 0.0000 0.0000 0.0000 0.0000 36.9709
#
#
#
# Elastic Compliance Matrix: (Units=1/GPa)
#
#
# Indices 1 2 3 4 5 6 
#
# 1 0.012272 -0.003054 -0.002724 0.000000 0.000000 0.000000
# 2 -0.003054 0.011189 -0.005889 0.000000 0.000000 0.000000
# 3 -0.002724 -0.005889 0.022059 0.000000 0.000000 0.000000
# 4 0.000000 0.000000 0.000000 0.041070 0.000000 0.000000
# 5 0.000000 0.000000 0.000000 0.000000 0.061764 0.000000
# 6 0.000000 0.000000 0.000000 0.000000 0.000000 0.027048
#
#
# Mechanical properties :
#
#
# Convention : Reuss Voigt Hill
#
# Bulk Modulus (GPa) = 45.07206 51.54450 48.30828
# Shear Modulus (GPa) = 24.25659 27.26053 25.75856
#
# Velocity S-wave (km/s) = 3.58149 3.79678 3.69070
# Velocity P-wave (km/s) = 6.39821 6.81746 6.61116
#
# Compressibility (1/GPa) = 0.02218670
#
# Stress axis : x y z
#
# Youngs Moduli (GPa) = 81.48911 89.37429 45.33395
#
# Poissons Ratio (x) = 0.27290 0.12348
# Poissons Ratio (y) = 0.24883 0.26697
# Poissons Ratio (z) = 0.22195 0.52632
#
# Static dielectric constant tensor:
#      x y z
#    x 3.792820 0.000000 0.000000 
#    y 0.000000 3.730520 0.000000 
#    z 0.000000 0.000000 2.945740 
# 
# 
# High freq. dielectric constant tensor:
#      x y z
#    x 1.752730 0.000000 0.000000 
#    y 0.000000 1.763600 0.000000 
#    z 0.000000 0.000000 1.678420 
# 
# From -- ./inp_files/10955.got.cif
#   From: 2010.03.12/outbox.cif.g09.slc.cpg/sg37_6_cif.got.tgz:10955.got - 2010.04.14 02:25:27.
