data_PCOD8176488
_publ_section_title
;
Structure prediction by ZEFSAII (Michael W. Deem and Ramdas Pophale) SiO2 
 PCOD8176488
Probable space group: C C C 2
;
_chemical_formula_sum "Si O2"
_cell_formula_units_Z 64
_cell_length_a 19.504348
_cell_length_b 11.132379
_cell_length_c 16.009707
_cell_angle_alpha 90.000000
_cell_angle_beta 90.000000
_cell_angle_gamma 90.000000
_cell_volume 3476.184384
_symmetry_space_group_name_H-M "C C C 2"
_symmetry_group_IT_number 37
_symmetry_cell_setting 'orthorhombic'
loop_
_space_group_symop_operation_xyz
x,y,z
-x,-y,z
-x,y,1/2+z
x,-y,1/2+z
1/2+x,1/2+y,z
1/2-x,1/2-y,z
1/2-x,1/2+y,1/2+z
1/2+x,1/2-y,1/2+z
loop_
_atom_site_type_symbol
_atom_site_label
_atom_site_fract_x
_atom_site_fract_y
_atom_site_fract_z
Si Si1 0.410624 0.425226 0.653480
Si Si2 0.226666 0.555641 0.451327
Si Si3 0.544640 0.111898 0.722612
Si Si4 0.575158 0.244276 0.297516
Si Si5 0.641210 0.287021 0.462914
Si Si6 0.325936 0.031207 0.768659
Si Si7 0.257919 0.393446 0.607561
Si Si8 0.953907 0.168653 0.610875
O O1 0.416260 0.361039 0.741821
O O2 0.338134 0.418287 0.608646
O O3 0.429247 0.563627 0.673907
O O4 0.465976 0.359989 0.591117
O O5 0.299055 0.620562 0.441616
O O6 0.170285 0.653456 0.480731
O O7 0.210735 0.505351 0.357862
O O8 0.227095 0.450743 0.521757
O O9 0.499507 0.181786 0.791957
O O10 0.556339 0.198192 0.644878
O O11 0.500000 0.000000 0.689574
O O12 0.618646 0.075240 0.757982
O O13 0.584669 0.282852 0.391439
O O14 0.636382 0.157804 0.269545
O O15 0.597378 0.344328 0.535338
O O16 0.274803 0.040620 0.689225
O O17 0.250000 0.250000 0.607862
#
# Coordination Sequence:
#
# PCOD8176488 Si02
#       8
#     8   8   8   8   8   8   8   8
#     4  10  20  37  57  84 112 149 203 236 288 357
#     4  10  22  36  59  89 117 148 207 246 284 362
#     4   9  19  37  58  85 120 150 196 241 296 356
#     4   9  18  36  60  84 108 157 198 239 284 365
#     4  10  19  37  60  82 113 151 195 241 298 344
#     4  10  20  37  61  88 118 155 195 243 301 351
#     4  12  22  38  63  87 120 163 199 245 303 357
#     4  10  20  37  58  83 116 150 190 251 288 351
#
# _framework density 18.410992
#
# number of rings (size 3 to 8) (size 9 to 14) (size 15 to 20)
#    0.000    2.000    2.500    1.500    1.750    0.000 
#    2.250    9.375    0.000    0.000    0.000    0.000 
#    0.000    0.000    0.000    0.000    0.000    0.000 
#
# Total GULP energy -396549.747766 kJ/mol
# GULP energy per Si atom -12392.179618 kJ/mol
# Density = 1.836909 g / cm^3
# Si number density = 18.410992 Si / 1000 Ang^3
#
#
#
# Elastic Constant Matrix: (Units=GPa)
#
#
# Indices 1 2 3 4 5 6 
#
# 1 122.0463 37.4791 64.5382 0.0000 0.0000 0.0000
# 2 37.4791 86.5742 62.2572 0.0000 0.0000 0.0000
# 3 64.5382 62.2572 107.4036 0.0000 0.0000 0.0000
# 4 0.0000 0.0000 0.0000 23.5162 0.0000 0.0000
# 5 0.0000 0.0000 0.0000 0.0000 26.1144 0.0000
# 6 0.0000 0.0000 0.0000 0.0000 0.0000 20.6905
#
#
#
# Elastic Compliance Matrix: (Units=1/GPa)
#
#
# Indices 1 2 3 4 5 6 
#
# 1 0.012010 -0.000016 -0.007207 0.000000 0.000000 0.000000
# 2 -0.000016 0.019807 -0.011472 0.000000 0.000000 0.000000
# 3 -0.007207 -0.011472 0.020291 0.000000 0.000000 0.000000
# 4 0.000000 0.000000 0.000000 0.042524 0.000000 0.000000
# 5 0.000000 0.000000 0.000000 0.000000 0.038293 0.000000
# 6 0.000000 0.000000 0.000000 0.000000 0.000000 0.048331
#
#
# Mechanical properties :
#
#
# Convention : Reuss Voigt Hill
#
# Bulk Modulus (GPa) = 67.94460 71.61922 69.78191
# Shear Modulus (GPa) = 22.36610 24.18085 23.27348
#
# Velocity S-wave (km/s) = 3.48921 3.62801 3.55929
# Velocity P-wave (km/s) = 7.29502 7.51895 7.40783
#
# Compressibility (1/GPa) = 0.01471787
#
# Stress axis : x y z
#
# Youngs Moduli (GPa) = 83.26558 50.48627 49.28301
#
# Poissons Ratio (x) = 0.00083 0.35519
# Poissons Ratio (y) = 0.00137 0.56536
# Poissons Ratio (z) = 0.60010 0.57916
#
# Static dielectric constant tensor:
#      x y z
#    x 4.329010 0.000000 0.000000 
#    y 0.000000 3.484220 0.000000 
#    z 0.000000 0.000000 3.270890 
# 
# 
# High freq. dielectric constant tensor:
#      x y z
#    x 1.728420 0.000000 0.000000 
#    y 0.000000 1.717390 0.000000 
#    z 0.000000 0.000000 1.694610 
# 
# From -- ./inp_files/12710.got.cif
#   From: 2010.03.12/outbox.cif.g09.slc.cpg/sg37_7_cif.got.tgz:12710.got - 2010.04.14 02:25:27.
