data_PCOD8176940
_publ_section_title
;
Structure prediction by ZEFSAII (Michael W. Deem and Ramdas Pophale) SiO2 
 PCOD8176940
Probable space group: C C C 2
;
_chemical_formula_sum "Si O2"
_cell_formula_units_Z 64
_cell_length_a 21.096418
_cell_length_b 17.197992
_cell_length_c 7.768388
_cell_angle_alpha 90.000000
_cell_angle_beta 90.000000
_cell_angle_gamma 90.000000
_cell_volume 2818.495678
_symmetry_space_group_name_H-M "C C C 2"
_symmetry_group_IT_number 37
_symmetry_cell_setting 'orthorhombic'
loop_
_space_group_symop_operation_xyz
x,y,z
-x,-y,z
-x,y,1/2+z
x,-y,1/2+z
1/2+x,1/2+y,z
1/2-x,1/2-y,z
1/2-x,1/2+y,1/2+z
1/2+x,1/2-y,1/2+z
loop_
_atom_site_type_symbol
_atom_site_label
_atom_site_fract_x
_atom_site_fract_y
_atom_site_fract_z
Si Si1 0.550256 0.778369 0.324990
Si Si2 0.069978 0.963896 0.265060
Si Si3 0.644490 0.417052 0.576211
Si Si4 0.550972 0.056421 0.928471
Si Si5 0.715930 0.097432 0.496240
Si Si6 0.141938 0.475883 0.697741
Si Si7 0.073255 0.205950 0.684573
Si Si8 0.357508 0.244872 0.030413
O O1 0.519553 0.861428 0.376625
O O2 0.584672 0.744865 0.497327
O O3 0.496674 0.719941 0.259948
O O4 0.593602 0.797864 0.158613
O O5 0.083198 0.933262 0.456901
O O6 0.078468 0.886883 0.147407
O O7 0.000000 0.000000 0.252926
O O8 0.127090 0.026397 0.234277
O O9 0.711697 0.431577 0.482881
O O10 0.650590 0.326866 0.630615
O O11 0.500000 0.000000 0.020919
O O12 0.575442 0.007044 0.767817
O O13 0.616038 0.073445 0.035849
O O14 0.680731 0.081498 0.317910
O O15 0.705492 0.190250 0.527558
O O16 0.685916 0.048379 0.649915
O O17 0.121278 0.238377 0.831929
#
# Coordination Sequence:
#
# PCOD8176940 Si02
#       8
#     8   8   8   8   8   8   8   8
#     4  12  24  41  64  98 139 182 226 280 346 409
#     4  11  25  44  69 104 132 165 219 286 352 418
#     4  11  25  43  73  96 130 176 221 283 345 413
#     4  11  24  36  60  95 133 182 227 278 337 399
#     4  11  22  45  65  94 133 177 234 276 335 405
#     4  10  23  38  62  93 130 180 223 282 330 389
#     4  11  26  39  66 101 137 182 224 284 350 410
#     4  11  24  44  67  98 135 183 228 286 342 401
#
# _framework density 22.707146999999999
#
# number of rings (size 3 to 8) (size 9 to 14) (size 15 to 20)
#    0.000    1.000    2.500    3.375   12.250    0.000 
#    0.000    0.000    0.000    1.500    0.000    0.000 
#    0.000    0.000    0.000    0.000    0.000    0.000 
#
# Total GULP energy -396424.687075 kJ/mol
# GULP energy per Si atom -12388.271471 kJ/mol
# Density = 2.265546 g / cm^3
# Si number density = 22.707147 Si / 1000 Ang^3
#
#
#
# Elastic Constant Matrix: (Units=GPa)
#
#
# Indices 1 2 3 4 5 6 
#
# 1 96.1798 43.4528 17.4190 0.0000 0.0000 0.0000
# 2 43.4528 154.7415 28.0347 0.0000 0.0000 0.0000
# 3 17.4190 28.0347 72.3796 0.0000 0.0000 0.0000
# 4 0.0000 0.0000 0.0000 -6.1250 0.0000 0.0000
# 5 0.0000 0.0000 0.0000 0.0000 19.0254 0.0000
# 6 0.0000 0.0000 0.0000 0.0000 0.0000 36.3374
#
#
#
# Elastic Compliance Matrix: (Units=1/GPa)
#
#
# Indices 1 2 3 4 5 6 
#
# 1 0.012103 -0.003088 -0.001717 0.000000 0.000000 0.000000
# 2 -0.003088 0.007738 -0.002254 0.000000 0.000000 0.000000
# 3 -0.001717 -0.002254 0.015102 0.000000 0.000000 0.000000
# 4 0.000000 0.000000 0.000000 -0.163265 0.000000 0.000000
# 5 0.000000 0.000000 0.000000 0.000000 0.052561 0.000000
# 6 0.000000 0.000000 0.000000 0.000000 0.000000 0.027520
#
#
# Mechanical properties :
#
#
# Convention : Reuss Voigt Hill
#
# Bulk Modulus (GPa) = 48.01636 55.67934 51.84785
# Shear Modulus (GPa) = -183.95023 25.47383 -79.23820
#
# Velocity S-wave (km/s) = -9.01031 3.35302 -5.91367
# Velocity P-wave (km/s) = 9.33037 6.29001 4.87296
#
# Compressibility (1/GPa) = 0.02082624
#
# Stress axis : x y z
#
# Youngs Moduli (GPa) = 82.62361 129.23598 66.21524
#
# Poissons Ratio (x) = 0.39903 0.11368
# Poissons Ratio (y) = 0.25511 0.14925
# Poissons Ratio (z) = 0.14185 0.29130
#
# Static dielectric constant tensor:
#      x y z
#    x 3.888670 0.000000 0.000000 
#    y 0.000000 4.348620 0.000000 
#    z 0.000000 0.000000 4.103330 
# 
# 
# High freq. dielectric constant tensor:
#      x y z
#    x 1.877120 0.000000 0.000000 
#    y 0.000000 1.909860 0.000000 
#    z 0.000000 0.000000 1.894390 
# 
# From -- ./inp_files/4653.got.cif
#   From: 2010.03.12/outbox.cif.g09.slc.cpg/sg37_3_cif.got.tgz:4653.got - 2010.04.14 02:25:27.
