data_PCOD8176361
_publ_section_title
;
Structure prediction by ZEFSAII (Michael W. Deem and Ramdas Pophale) SiO2 
 PCOD8176361
Probable space group: C C C 2
;
_chemical_formula_sum "Si O2"
_cell_formula_units_Z 32
_cell_length_a 6.864698
_cell_length_b 35.990461
_cell_length_c 5.321370
_cell_angle_alpha 90.000000
_cell_angle_beta 90.000000
_cell_angle_gamma 90.000000
_cell_volume 1314.717072
_symmetry_space_group_name_H-M "C C C 2"
_symmetry_group_IT_number 37
_symmetry_cell_setting 'orthorhombic'
loop_
_space_group_symop_operation_xyz
x,y,z
-x,-y,z
-x,y,1/2+z
x,-y,1/2+z
1/2+x,1/2+y,z
1/2-x,1/2-y,z
1/2-x,1/2+y,1/2+z
1/2+x,1/2-y,1/2+z
loop_
_atom_site_type_symbol
_atom_site_label
_atom_site_fract_x
_atom_site_fract_y
_atom_site_fract_z
Si Si1 0.624310 0.900802 0.821090
Si Si2 0.218740 0.484335 0.823622
Si Si3 0.789289 0.175621 0.387686
Si Si4 0.774744 0.793396 0.388055
O O1 0.531319 0.896994 0.545100
O O2 0.730774 0.940097 0.844523
O O3 0.788008 0.868858 0.851662
O O4 0.324907 0.497908 0.567504
O O5 0.000000 0.500000 0.804146
O O6 0.677528 0.186134 0.647611
O O7 0.003465 0.192631 0.418900
O O8 0.675576 0.194717 0.152493
O O9 0.750000 0.750000 0.345599
#
# Coordination Sequence:
#
# PCOD8176361 Si02
#       4
#     8   8   8   8
#     4  12  21  35  55  89 132 155 188 251 298 355
#     4  10  16  30  51  77 119 160 200 229 282 335
#     4  10  23  40  60  90 111 154 198 243 305 357
#     4  10  21  45  66  79 111 152 202 254 295 359
#
# _framework density 24.339836999999999
#
# number of rings (size 3 to 8) (size 9 to 14) (size 15 to 20)
#    0.000    1.500    5.000    2.250    0.000    0.000 
#   27.000    0.000    0.000    0.000    0.000   21.000 
#    0.000    0.000    0.000    0.000    0.000    0.000 
#
# Total GULP energy -198256.250714 kJ/mol
# GULP energy per Si atom -12391.015670 kJ/mol
# Density = 2.428444 g / cm^3
# Si number density = 24.339837 Si / 1000 Ang^3
#
#
#
# Elastic Constant Matrix: (Units=GPa)
#
#
# Indices 1 2 3 4 5 6 
#
# 1 51.5007 12.5653 -25.3116 0.0000 0.0000 0.0000
# 2 12.5653 173.5226 6.0024 0.0000 0.0000 0.0000
# 3 -25.3116 6.0024 229.1343 0.0000 0.0000 0.0000
# 4 0.0000 0.0000 0.0000 45.3484 0.0000 0.0000
# 5 0.0000 0.0000 0.0000 0.0000 -27.6140 0.0000
# 6 0.0000 0.0000 0.0000 0.0000 0.0000 174.6224
#
#
#
# Elastic Compliance Matrix: (Units=1/GPa)
#
#
# Indices 1 2 3 4 5 6 
#
# 1 0.020966 -0.001600 0.002358 0.000000 0.000000 0.000000
# 2 -0.001600 0.005890 -0.000331 0.000000 0.000000 0.000000
# 3 0.002358 -0.000331 0.004633 0.000000 0.000000 0.000000
# 4 0.000000 0.000000 0.000000 0.022051 0.000000 0.000000
# 5 0.000000 0.000000 0.000000 0.000000 -0.036214 0.000000
# 6 0.000000 0.000000 0.000000 0.000000 0.000000 0.005727
#
#
# Mechanical properties :
#
#
# Convention : Reuss Voigt Hill
#
# Bulk Modulus (GPa) = 30.91726 48.96332 39.94029
# Shear Modulus (GPa) = 151.59853 69.19813 110.39833
#
# Velocity S-wave (km/s) = 7.90059 5.33776 6.74207
# Velocity P-wave (km/s) = 9.79570 7.62556 8.77795
#
# Compressibility (1/GPa) = 0.03234439
#
# Stress axis : x y z
#
# Youngs Moduli (GPa) = 47.69526 169.77245 215.82401
#
# Poissons Ratio (x) = 0.27160 -0.50891
# Poissons Ratio (y) = 0.07630 0.07144
# Poissons Ratio (z) = -0.11247 0.05620
#
# Static dielectric constant tensor:
#      x y z
#    x 3.618390 0.000000 0.000000 
#    y 0.000000 4.410310 0.000000 
#    z 0.000000 0.000000 7.485510 
# 
# 
# High freq. dielectric constant tensor:
#      x y z
#    x 1.922490 0.000000 0.000000 
#    y 0.000000 1.971520 0.000000 
#    z 0.000000 0.000000 2.017720 
# 
# From -- ./inp_files/149.got.cif
#   From: 2010.03.12/outbox.cif.g09.slc.cpg/sg37_1_cif.got.tgz:149.got - 2010.04.14 02:25:27.
