data_PCOD8176708
_publ_section_title
;
Structure prediction by ZEFSAII (Michael W. Deem and Ramdas Pophale) SiO2 
 PCOD8176708
Probable space group: C C C 2
;
_chemical_formula_sum "Si O2"
_cell_formula_units_Z 64
_cell_length_a 24.740023
_cell_length_b 9.415430
_cell_length_c 14.092008
_cell_angle_alpha 90.000000
_cell_angle_beta 90.000000
_cell_angle_gamma 90.000000
_cell_volume 3282.563522
_symmetry_space_group_name_H-M "C C C 2"
_symmetry_group_IT_number 37
_symmetry_cell_setting 'orthorhombic'
loop_
_space_group_symop_operation_xyz
x,y,z
-x,-y,z
-x,y,1/2+z
x,-y,1/2+z
1/2+x,1/2+y,z
1/2-x,1/2-y,z
1/2-x,1/2+y,1/2+z
1/2+x,1/2-y,1/2+z
loop_
_atom_site_type_symbol
_atom_site_label
_atom_site_fract_x
_atom_site_fract_y
_atom_site_fract_z
Si Si1 0.593780 0.281170 0.996350
Si Si2 0.502420 0.332269 0.855633
Si Si3 0.744542 0.081083 0.345012
Si Si4 0.668151 0.456594 0.496350
Si Si5 0.916892 0.727975 0.996350
Si Si6 0.002420 0.832269 0.137068
Si Si7 0.244542 0.581083 0.647688
Si Si8 0.158692 0.506685 0.996350
O O1 0.556455 0.267115 0.902577
O O2 0.618828 0.436341 0.996350
O O3 0.644400 0.173662 0.996350
O O4 0.556455 0.267115 0.090123
O O5 0.500000 0.500000 0.872890
O O6 0.449741 0.263960 0.902046
O O7 0.500000 0.290392 0.746350
O O8 0.750000 0.250000 0.330230
O O9 0.795957 0.023628 0.402669
O O10 0.743208 0.999999 0.246351
O O11 0.690728 0.039066 0.402071
O O12 0.641851 0.301569 0.496351
O O13 0.704043 0.476373 0.590032
O O14 0.901155 0.562628 0.996350
O O15 0.949741 0.763960 0.090655
O O16 0.000000 0.000000 0.119810
O O17 0.250000 0.750000 0.662469
O O18 0.190728 0.539065 0.590630
#
# Coordination Sequence:
#
# PCOD8176708 Si02
#       8
#     8   8   8   8   8   8   8   8
#     4  11  23  39  61  95 117 163 211 249 296 364
#     4  10  21  37  61  93 122 153 207 258 299 363
#     4  11  25  42  63  93 123 160 206 256 307 367
#     4  11  21  41  67  84 125 167 203 242 313 367
#     4  11  19  41  63  82 119 169 193 244 309 367
#     4  10  21  37  61  93 122 153 207 258 299 363
#     4  11  25  42  63  93 123 160 206 256 307 367
#     4  11  25  43  61  87 133 161 201 255 310 366
#
# _framework density 19.496956999999998
#
# number of rings (size 3 to 8) (size 9 to 14) (size 15 to 20)
#    0.000    1.250    5.000    1.500    3.500    7.000 
#    0.000    1.250    0.000    0.000    0.000    0.000 
#    0.000    0.000    0.000    0.000    0.000    0.000 
#
# Total GULP energy -396861.991564 kJ/mol
# GULP energy per Si atom -12401.937236 kJ/mol
# Density = 1.945258 g / cm^3
# Si number density = 19.496957 Si / 1000 Ang^3
#
#
#
# Elastic Constant Matrix: (Units=GPa)
#
#
# Indices 1 2 3 4 5 6 
#
# 1 107.0603 26.5541 62.1699 0.0000 0.0000 0.0000
# 2 26.5541 65.5470 41.9772 0.0000 0.0000 0.0000
# 3 62.1699 41.9772 183.9501 0.0000 0.0000 0.0000
# 4 0.0000 0.0000 0.0000 -10.6992 0.0000 0.0000
# 5 0.0000 0.0000 0.0000 0.0000 -6.0127 0.0000
# 6 0.0000 0.0000 0.0000 0.0000 0.0000 35.7861
#
#
#
# Elastic Compliance Matrix: (Units=1/GPa)
#
#
# Indices 1 2 3 4 5 6 
#
# 1 0.012003 -0.002652 -0.003451 0.000000 0.000000 0.000000
# 2 -0.002652 0.018453 -0.003315 0.000000 0.000000 0.000000
# 3 -0.003451 -0.003315 0.007359 0.000000 0.000000 0.000000
# 4 0.000000 0.000000 0.000000 -0.093465 0.000000 0.000000
# 5 0.000000 0.000000 0.000000 0.000000 -0.166314 0.000000
# 6 0.000000 0.000000 0.000000 0.000000 0.000000 0.027944
#
#
# Mechanical properties :
#
#
# Convention : Reuss Voigt Hill
#
# Bulk Modulus (GPa) = 52.69046 68.66222 60.67634
# Shear Modulus (GPa) = -29.61086 18.87191 -5.36948
#
# Velocity S-wave (km/s) = -3.90133 3.11455 -1.66132
# Velocity P-wave (km/s) = 2.60572 6.94458 5.24486
#
# Compressibility (1/GPa) = 0.01897877
#
# Stress axis : x y z
#
# Youngs Moduli (GPa) = 83.31595 54.19042 135.88605
#
# Poissons Ratio (x) = 0.14372 0.46898
# Poissons Ratio (y) = 0.22097 0.45042
# Poissons Ratio (z) = 0.28755 0.17963
#
# Static dielectric constant tensor:
#      x y z
#    x 3.549150 0.000000 0.000000 
#    y 0.000000 3.445120 0.000000 
#    z 0.000000 0.000000 3.521810 
# 
# 
# High freq. dielectric constant tensor:
#      x y z
#    x 1.771390 0.000000 0.000000 
#    y 0.000000 1.757840 0.000000 
#    z 0.000000 0.000000 1.760000 
# 
# From -- ./inp_files/13178.got.cif
#   From: 2010.03.12/outbox.cif.g09.slc.cpg/sg37_7_cif.got.tgz:13178.got - 2010.04.14 02:25:27.
