data_PCOD8176363
_publ_section_title
;
Structure prediction by ZEFSAII (Michael W. Deem and Ramdas Pophale) SiO2 
 PCOD8176363
Probable space group: C C C 2
;
_chemical_formula_sum "Si O2"
_cell_formula_units_Z 56
_cell_length_a 31.897474
_cell_length_b 15.897291
_cell_length_c 5.309817
_cell_angle_alpha 90.000000
_cell_angle_beta 90.000000
_cell_angle_gamma 90.000000
_cell_volume 2692.520198
_symmetry_space_group_name_H-M "C C C 2"
_symmetry_group_IT_number 37
_symmetry_cell_setting 'orthorhombic'
loop_
_space_group_symop_operation_xyz
x,y,z
-x,-y,z
-x,y,1/2+z
x,-y,1/2+z
1/2+x,1/2+y,z
1/2-x,1/2-y,z
1/2-x,1/2+y,1/2+z
1/2+x,1/2-y,1/2+z
loop_
_atom_site_type_symbol
_atom_site_label
_atom_site_fract_x
_atom_site_fract_y
_atom_site_fract_z
Si Si1 0.169679 0.950107 0.777270
Si Si2 0.612102 0.292132 0.801102
Si Si3 0.767359 0.413184 0.768808
Si Si4 0.612593 0.815010 0.800412
Si Si5 0.517121 0.334401 0.795881
Si Si6 0.802444 0.597278 0.768815
Si Si7 0.981713 0.354612 0.294221
O O1 0.147873 0.860531 0.766864
O O2 0.219108 0.936471 0.777257
O O3 0.155844 0.002081 0.530894
O O4 0.616644 0.226490 0.574445
O O5 0.566977 0.335517 0.785175
O O6 0.617843 0.251111 0.074664
O O7 0.795147 0.497704 0.760935
O O8 0.779183 0.362268 0.514253
O O9 0.781224 0.361415 0.018060
O O10 0.648207 0.885360 0.775443
O O11 0.568203 0.861203 0.776326
O O12 0.498822 0.381683 0.548890
O O13 0.497334 0.241371 0.808061
O O14 0.998174 0.399878 0.549054
#
# Coordination Sequence:
#
# PCOD8176363 Si02
#       7
#     8   8   8   8   8   8   8
#     4  12  23  43  66  78 107 157 208 230 273 351
#     4  12  23  35  58  92 119 143 187 247 288 332
#     4  10  19  42  62  77 102 167 200 216 278 340
#     4  12  21  35  54  99 121 137 186 242 302 319
#     4  10  16  32  54  76 112 156 179 211 285 342
#     4  10  20  35  64  83 114 145 197 235 268 352
#     4  10  16  30  53  76 116 157 179 206 276 358
#
# _framework density 20.798359999999999
#
# number of rings (size 3 to 8) (size 9 to 14) (size 15 to 20)
#    0.000    1.143    8.571    1.714    0.000    0.000 
#    0.000    4.286    0.000    2.571    0.000   12.000 
#    0.000    0.000    0.000    0.000    0.000    0.000 
#
# Total GULP energy -347071.494382 kJ/mol
# GULP energy per Si atom -12395.410514 kJ/mol
# Density = 2.075102 g / cm^3
# Si number density = 20.798360 Si / 1000 Ang^3
#
#
#
# Elastic Constant Matrix: (Units=GPa)
#
#
# Indices 1 2 3 4 5 6 
#
# 1 103.5287 40.0308 24.8409 0.0000 0.0000 0.0000
# 2 40.0308 23.1949 5.6492 0.0000 0.0000 0.0000
# 3 24.8409 5.6492 190.3407 0.0000 0.0000 0.0000
# 4 0.0000 0.0000 0.0000 0.7701 0.0000 0.0000
# 5 0.0000 0.0000 0.0000 0.0000 29.9950 0.0000
# 6 0.0000 0.0000 0.0000 0.0000 0.0000 29.0333
#
#
#
# Elastic Compliance Matrix: (Units=1/GPa)
#
#
# Indices 1 2 3 4 5 6 
#
# 1 0.030088 -0.051341 -0.002403 0.000000 0.000000 0.000000
# 2 -0.051341 0.131035 0.002811 0.000000 0.000000 0.000000
# 3 -0.002403 0.002811 0.005484 0.000000 0.000000 0.000000
# 4 0.000000 0.000000 0.000000 1.298460 0.000000 0.000000
# 5 0.000000 0.000000 0.000000 0.000000 0.033339 0.000000
# 6 0.000000 0.000000 0.000000 0.000000 0.000000 0.034443
#
#
# Mechanical properties :
#
#
# Convention : Reuss Voigt Hill
#
# Bulk Modulus (GPa) = 15.44610 50.90068 33.17339
# Shear Modulus (GPa) = 3.01879 28.39592 15.70735
#
# Velocity S-wave (km/s) = 1.20607 3.69900 2.75111
# Velocity P-wave (km/s) = 3.06304 6.53988 5.10648
#
# Compressibility (1/GPa) = 0.06474126
#
# Stress axis : x y z
#
# Youngs Moduli (GPa) = 33.23634 7.63153 182.35232
#
# Poissons Ratio (x) = 0.39181 0.43817
# Poissons Ratio (y) = 1.70640 -0.51266
# Poissons Ratio (z) = 0.07986 -0.02145
#
# Static dielectric constant tensor:
#      x y z
#    x 3.814280 0.000000 0.000000 
#    y 0.000000 3.074370 0.000000 
#    z 0.000000 0.000000 7.136720 
# 
# 
# High freq. dielectric constant tensor:
#      x y z
#    x 1.823920 0.000000 0.000000 
#    y 0.000000 1.738740 0.000000 
#    z 0.000000 0.000000 1.862560 
# 
# From -- ./inp_files/1478.got.cif
#   From: 2010.03.12/outbox.cif.g09.slc.cpg/sg37_1_cif.got.tgz:1478.got - 2010.04.14 02:25:27.
