data_PCOD8176298
_publ_section_title
;
Structure prediction by ZEFSAII (Michael W. Deem and Ramdas Pophale) SiO2 
 PCOD8176298
Probable space group: C M C 21
;
_chemical_formula_sum "Si O2"
_cell_formula_units_Z 40
_cell_length_a 10.768235
_cell_length_b 19.087527
_cell_length_c 8.714314
_cell_angle_alpha 90.000000
_cell_angle_beta 90.000000
_cell_angle_gamma 90.000000
_cell_volume 1791.131179
_symmetry_space_group_name_H-M "C M C 21"
_symmetry_group_IT_number 36
_symmetry_cell_setting 'orthorhombic'
loop_
_space_group_symop_operation_xyz
x,y,z
-x,-y,1/2+z
x,-y,1/2+z
-x,y,z
1/2+x,1/2+y,z
1/2-x,1/2-y,1/2+z
1/2+x,1/2-y,1/2+z
1/2-x,1/2+y,z
loop_
_atom_site_type_symbol
_atom_site_label
_atom_site_fract_x
_atom_site_fract_y
_atom_site_fract_z
Si Si1 0.353197 0.291782 0.830620
Si Si2 0.243692 0.166541 0.657156
Si Si3 0.240983 0.929062 0.708414
Si Si4 0.000000 0.982534 0.545388
Si Si5 0.500000 0.397202 0.242179
Si Si6 0.359510 0.966396 0.013998
O O1 0.500000 0.309389 0.828586
O O2 0.331742 0.215849 0.758216
O O3 0.271817 0.345584 0.726196
O O4 0.299135 0.294819 0.001919
O O5 0.321614 0.095655 0.630438
O O6 0.121916 0.150271 0.759701
O O7 0.116264 0.957021 0.639101
O O8 0.350246 0.957283 0.596222
O O9 0.263128 0.964118 0.874152
O O10 0.000000 0.958292 0.370406
O O11 0.000000 0.067458 0.569828
O O12 0.500000 0.954937 0.956434
#
# Coordination Sequence:
#
# PCOD8176298 Si02
#       6
#     8   8   8   4   4   8
#     4  11  25  46  68  99 141 186 236 292 351 425
#     4  11  26  45  70 100 141 185 233 289 357 429
#     4  11  24  42  71  99 135 182 234 296 356 416
#     4  12  24  42  76 104 138 175 241 308 356 408
#     4  12  26  44  74 112 140 177 243 302 356 430
#     4  11  24  44  66 100 140 181 233 293 355 430
#
# _framework density 22.332256000000001
#
# number of rings (size 3 to 8) (size 9 to 14) (size 15 to 20)
#    0.000    0.800    4.000    2.400    5.600    0.000 
#    9.000    2.000    0.000    0.000    0.000    0.000 
#    0.000    0.000    0.000    0.000    0.000    0.000 
#
# Total GULP energy -247940.362977 kJ/mol
# GULP energy per Si atom -12397.018149 kJ/mol
# Density = 2.228143 g / cm^3
# Si number density = 22.332256 Si / 1000 Ang^3
#
#
#
# Elastic Constant Matrix: (Units=GPa)
#
#
# Indices 1 2 3 4 5 6 
#
# 1 96.2858 23.0125 28.4261 0.0000 0.0000 0.0000
# 2 23.0125 70.8558 37.7203 0.0000 0.0000 0.0000
# 3 28.4261 37.7203 81.1625 0.0000 0.0000 0.0000
# 4 0.0000 0.0000 0.0000 40.0162 0.0000 0.0000
# 5 0.0000 0.0000 0.0000 0.0000 36.5140 0.0000
# 6 0.0000 0.0000 0.0000 0.0000 0.0000 116.0530
#
#
#
# Elastic Compliance Matrix: (Units=1/GPa)
#
#
# Indices 1 2 3 4 5 6 
#
# 1 0.011830 -0.002174 -0.003133 0.000000 0.000000 0.000000
# 2 -0.002174 0.019153 -0.008140 0.000000 0.000000 0.000000
# 3 -0.003133 -0.008140 0.017201 0.000000 0.000000 0.000000
# 4 0.000000 0.000000 0.000000 0.024990 0.000000 0.000000
# 5 0.000000 0.000000 0.000000 0.000000 0.027387 0.000000
# 6 0.000000 0.000000 0.000000 0.000000 0.000000 0.008617
#
#
# Mechanical properties :
#
#
# Convention : Reuss Voigt Hill
#
# Bulk Modulus (GPa) = 46.97003 47.40245 47.18624
# Shear Modulus (GPa) = 34.92407 49.12633 42.02520
#
# Velocity S-wave (km/s) = 3.95883 4.69528 4.34270
# Velocity P-wave (km/s) = 6.47877 7.11803 6.80591
#
# Compressibility (1/GPa) = 0.02129017
#
# Stress axis : x y z
#
# Youngs Moduli (GPa) = 84.52834 52.21250 58.13597
#
# Poissons Ratio (x) = 0.11353 0.18213
# Poissons Ratio (y) = 0.18380 0.47320
# Poissons Ratio (z) = 0.26481 0.42499
#
# Static dielectric constant tensor:
#      x y z
#    x 4.003860 0.000000 0.000000 
#    y 0.000000 4.105530 0.000000 
#    z 0.000000 0.000000 4.062710 
# 
# 
# High freq. dielectric constant tensor:
#      x y z
#    x 1.886260 0.000000 0.000000 
#    y 0.000000 1.871440 0.000000 
#    z 0.000000 0.000000 1.881550 
# 
# From -- ./inp_files/3075.got.cif
#   From: 2010.03.12/outbox.cif.g09.slc.cpg/sg36_2_cif.got.tgz:3075.got - 2010.04.14 02:13:53.
