data_PCOD8176225
_publ_section_title
;
Structure prediction by ZEFSAII (Michael W. Deem and Ramdas Pophale) SiO2 
 PCOD8176225
Probable space group: C M C 21
;
_chemical_formula_sum "Si O2"
_cell_formula_units_Z 64
_cell_length_a 9.085224
_cell_length_b 28.369806
_cell_length_c 13.979585
_cell_angle_alpha 90.000000
_cell_angle_beta 90.000000
_cell_angle_gamma 90.000000
_cell_volume 3603.182707
_symmetry_space_group_name_H-M "C M C 21"
_symmetry_group_IT_number 36
_symmetry_cell_setting 'orthorhombic'
loop_
_space_group_symop_operation_xyz
x,y,z
-x,-y,1/2+z
x,-y,1/2+z
-x,y,z
1/2+x,1/2+y,z
1/2-x,1/2-y,1/2+z
1/2+x,1/2-y,1/2+z
1/2-x,1/2+y,z
loop_
_atom_site_type_symbol
_atom_site_label
_atom_site_fract_x
_atom_site_fract_y
_atom_site_fract_z
Si Si1 0.172783 0.753698 0.611970
Si Si2 0.827166 0.322039 0.959437
Si Si3 0.168350 0.501167 0.127156
Si Si4 0.327771 0.253909 0.827704
Si Si5 0.672760 0.177541 0.980845
Si Si6 0.325321 0.498916 0.826107
Si Si7 0.328542 0.070984 0.958840
Si Si8 0.328368 0.929299 0.964114
O O1 0.223183 0.708040 0.551684
O O2 0.223772 0.744441 0.719925
O O3 0.249943 0.800957 0.574065
O O4 0.000000 0.761836 0.604084
O O5 0.751527 0.300821 0.865401
O O6 0.775922 0.375561 0.974655
O O7 0.000000 0.319056 0.943868
O O8 0.277821 0.502498 0.215899
O O9 0.000000 0.500966 0.163810
O O10 0.198883 0.546645 0.061128
O O11 0.202099 0.454479 0.065186
O O12 0.500000 0.263302 0.834809
O O13 0.281526 0.207998 0.888235
O O14 0.500000 0.178487 0.999572
O O15 0.728069 0.124461 0.965048
O O16 0.500000 0.499127 0.832448
O O17 0.262868 0.545942 0.875340
O O18 0.263804 0.452782 0.879119
O O19 0.500000 0.067856 0.930458
O O20 0.500000 0.933786 0.936926
#
# Coordination Sequence:
#
# PCOD8176225 Si02
#       8
#     8   8   8   8   8   8   8   8
#     4   9  18  32  49  72 103 134 163 199 246 296
#     4   9  18  33  53  75  98 128 168 209 245 285
#     4   9  18  34  54  74  98 129 168 211 250 293
#     4   9  18  32  50  74 104 134 162 198 247 297
#     4   9  18  33  53  75  98 128 168 209 245 285
#     4  11  22  34  51  76 105 133 161 202 257 308
#     4   9  19  36  56  75  97 131 173 212 247 289
#     4   9  19  36  56  75  97 131 173 212 247 289
#
# _framework density 17.762076
#
# number of rings (size 3 to 8) (size 9 to 14) (size 15 to 20)
#    0.000    2.750    0.000    1.875    0.000    5.500 
#    0.000    7.500    0.000    3.000    0.000    0.000 
#    0.000    0.000    0.000    0.000    0.000    0.000 
#
# Total GULP energy -396854.060353 kJ/mol
# GULP energy per Si atom -12401.689386 kJ/mol
# Density = 1.772165 g / cm^3
# Si number density = 17.762076 Si / 1000 Ang^3
#
#
#
# Elastic Constant Matrix: (Units=GPa)
#
#
# Indices 1 2 3 4 5 6 
#
# 1 59.8936 45.1854 48.3683 0.0000 0.0000 0.0000
# 2 45.1854 159.0221 65.3565 0.0000 0.0000 0.0000
# 3 48.3683 65.3565 122.3818 0.0000 0.0000 0.0000
# 4 0.0000 0.0000 0.0000 14.0785 0.0000 0.0000
# 5 0.0000 0.0000 0.0000 0.0000 26.7635 0.0000
# 6 0.0000 0.0000 0.0000 0.0000 0.0000 26.2123
#
#
#
# Elastic Compliance Matrix: (Units=1/GPa)
#
#
# Indices 1 2 3 4 5 6 
#
# 1 0.026484 -0.004130 -0.008262 0.000000 0.000000 0.000000
# 2 -0.004130 0.008701 -0.003014 0.000000 0.000000 0.000000
# 3 -0.008262 -0.003014 0.013046 0.000000 0.000000 0.000000
# 4 0.000000 0.000000 0.000000 0.071030 0.000000 0.000000
# 5 0.000000 0.000000 0.000000 0.000000 0.037364 0.000000
# 6 0.000000 0.000000 0.000000 0.000000 0.000000 0.038150
#
#
# Mechanical properties :
#
#
# Convention : Reuss Voigt Hill
#
# Bulk Modulus (GPa) = 57.40797 73.23533 65.32165
# Shear Modulus (GPa) = 21.60828 25.57003 23.58915
#
# Velocity S-wave (km/s) = 3.49168 3.79830 3.64821
# Velocity P-wave (km/s) = 6.97470 7.78183 7.38930
#
# Compressibility (1/GPa) = 0.01741918
#
# Stress axis : x y z
#
# Youngs Moduli (GPa) = 37.75910 114.93243 76.65148
#
# Poissons Ratio (x) = 0.47465 0.63326
# Poissons Ratio (y) = 0.15594 0.23105
# Poissons Ratio (z) = 0.31195 0.34644
#
# Static dielectric constant tensor:
#      x y z
#    x 3.152630 0.000000 0.000000 
#    y 0.000000 3.486070 0.000000 
#    z 0.000000 0.000000 3.315390 
# 
# 
# High freq. dielectric constant tensor:
#      x y z
#    x 1.676100 0.000000 0.000000 
#    y 0.000000 1.691230 0.000000 
#    z 0.000000 0.000000 1.686950 
# 
# From -- ./inp_files/11206.got.cif
#   From: 2010.03.12/outbox.cif.g09.slc.cpg/sg36_6_cif.got.tgz:11206.got - 2010.04.14 02:13:53.
