data_PCOD8176893
_publ_section_title
;
Structure prediction by ZEFSAII (Michael W. Deem and Ramdas Pophale) SiO2 
 PCOD8176893
Probable space group: C C C 2
;
_chemical_formula_sum "Si O2"
_cell_formula_units_Z 36
_cell_length_a 11.655339
_cell_length_b 15.077506
_cell_length_c 9.796453
_cell_angle_alpha 90.000000
_cell_angle_beta 90.000000
_cell_angle_gamma 90.000000
_cell_volume 1721.564422
_symmetry_space_group_name_H-M "C C C 2"
_symmetry_group_IT_number 37
_symmetry_cell_setting 'orthorhombic'
loop_
_space_group_symop_operation_xyz
x,y,z
-x,-y,z
-x,y,1/2+z
x,-y,1/2+z
1/2+x,1/2+y,z
1/2-x,1/2-y,z
1/2-x,1/2+y,1/2+z
1/2+x,1/2-y,1/2+z
loop_
_atom_site_type_symbol
_atom_site_label
_atom_site_fract_x
_atom_site_fract_y
_atom_site_fract_z
Si Si1 0.250000 0.750000 0.029460
Si Si2 0.357259 0.296690 0.272070
Si Si3 0.872961 0.025633 0.616252
Si Si4 0.280294 0.399433 0.846640
Si Si5 0.903040 0.278274 0.274450
O O1 0.150285 0.708951 0.122805
O O2 0.314720 0.680293 0.927599
O O3 0.250000 0.250000 0.193277
O O4 0.395105 0.385343 0.200698
O O5 0.459715 0.223793 0.272197
O O6 0.799971 0.041448 0.479908
O O7 0.806799 0.954473 0.708862
O O8 0.000000 0.000000 0.569526
O O9 0.147852 0.364591 0.853005
O O10 0.362122 0.313203 0.844947
#
# Coordination Sequence:
#
# PCOD8176893 Si02
#       5
#     4   8   8   8   8
#     4   8  22  38  66  92 138 166 228 270 340 402
#     4  10  24  39  69  97 133 178 226 276 346 413
#     4  12  24  38  65 106 135 172 232 295 340 395
#     4  10  25  38  66  95 141 171 229 281 349 399
#     4  10  22  43  64  98 135 184 219 282 342 420
#
# _framework density 20.911211000000002
#
# number of rings (size 3 to 8) (size 9 to 14) (size 15 to 20)
#    0.667    1.333    2.222    0.667   12.444    0.000 
#    0.000    1.111    0.000    2.667    0.000    0.000 
#    0.000    0.000    0.000    0.000    0.000    0.000 
#
# Total GULP energy -222999.151835 kJ/mol
# GULP energy per Si atom -12388.841769 kJ/mol
# Density = 2.086362 g / cm^3
# Si number density = 20.911211 Si / 1000 Ang^3
#
#
#
# Elastic Constant Matrix: (Units=GPa)
#
#
# Indices 1 2 3 4 5 6 
#
# 1 164.5260 53.0034 30.6161 0.0000 0.0000 0.0000
# 2 53.0034 93.3008 38.1607 0.0000 0.0000 0.0000
# 3 30.6161 38.1607 123.3410 0.0000 0.0000 0.0000
# 4 0.0000 0.0000 0.0000 22.4954 0.0000 0.0000
# 5 0.0000 0.0000 0.0000 0.0000 21.0766 0.0000
# 6 0.0000 0.0000 0.0000 0.0000 0.0000 35.6653
#
#
#
# Elastic Compliance Matrix: (Units=1/GPa)
#
#
# Indices 1 2 3 4 5 6 
#
# 1 0.007481 -0.003996 -0.000621 0.000000 0.000000 0.000000
# 2 -0.003996 0.014405 -0.003465 0.000000 0.000000 0.000000
# 3 -0.000621 -0.003465 0.009334 0.000000 0.000000 0.000000
# 4 0.000000 0.000000 0.000000 0.044453 0.000000 0.000000
# 5 0.000000 0.000000 0.000000 0.000000 0.047446 0.000000
# 6 0.000000 0.000000 0.000000 0.000000 0.000000 0.028038
#
#
# Mechanical properties :
#
#
# Convention : Reuss Voigt Hill
#
# Bulk Modulus (GPa) = 66.41552 69.41424 67.91488
# Shear Modulus (GPa) = 29.01241 33.13996 31.07619
#
# Velocity S-wave (km/s) = 3.72884 3.98527 3.85918
# Velocity P-wave (km/s) = 7.09709 7.37857 7.23920
#
# Compressibility (1/GPa) = 0.01505672
#
# Stress axis : x y z
#
# Youngs Moduli (GPa) = 133.67381 69.41878 107.13870
#
# Poissons Ratio (x) = 0.27740 0.06649
# Poissons Ratio (y) = 0.53416 0.37124
# Poissons Ratio (z) = 0.08296 0.24054
#
# Static dielectric constant tensor:
#      x y z
#    x 3.817770 0.000000 0.000000 
#    y 0.000000 3.704320 0.000000 
#    z 0.000000 0.000000 3.799530 
# 
# 
# High freq. dielectric constant tensor:
#      x y z
#    x 1.811840 0.000000 0.000000 
#    y 0.000000 1.796810 0.000000 
#    z 0.000000 0.000000 1.824990 
# 
# From -- ./inp_files/6992.got.cif
#   From: 2010.03.12/outbox.cif.g09.slc.cpg/sg37_4_cif.got.tgz:6992.got - 2010.04.14 02:25:27.
