data_PCOD8176497
_publ_section_title
;
Structure prediction by ZEFSAII (Michael W. Deem and Ramdas Pophale) SiO2 
 PCOD8176497
Probable space group: C C C 2
;
_chemical_formula_sum "Si O2"
_cell_formula_units_Z 56
_cell_length_a 13.916968
_cell_length_b 12.687237
_cell_length_c 15.478496
_cell_angle_alpha 90.000000
_cell_angle_beta 90.000000
_cell_angle_gamma 90.000000
_cell_volume 2733.005090
_symmetry_space_group_name_H-M "C C C 2"
_symmetry_group_IT_number 37
_symmetry_cell_setting 'orthorhombic'
loop_
_space_group_symop_operation_xyz
x,y,z
-x,-y,z
-x,y,1/2+z
x,-y,1/2+z
1/2+x,1/2+y,z
1/2-x,1/2-y,z
1/2-x,1/2+y,1/2+z
1/2+x,1/2-y,1/2+z
loop_
_atom_site_type_symbol
_atom_site_label
_atom_site_fract_x
_atom_site_fract_y
_atom_site_fract_z
Si Si1 0.919419 0.918783 0.513030
Si Si2 0.564612 0.101778 0.427858
Si Si3 0.522048 0.178789 0.758151
Si Si4 0.209455 0.550825 0.988499
Si Si5 0.223716 0.365851 0.307900
Si Si6 0.571725 0.590108 0.310225
Si Si7 0.944076 0.690274 0.572165
O O1 0.815206 0.972874 0.525531
O O2 0.939154 0.892982 0.412755
O O3 0.914736 0.812766 0.570179
O O4 0.000000 0.000000 0.548435
O O5 0.556497 0.149862 0.331748
O O6 0.527883 0.182920 0.500198
O O7 0.500000 0.000000 0.435628
O O8 0.671837 0.062617 0.452168
O O9 0.619292 0.106230 0.767572
O O10 0.544647 0.301882 0.764203
O O11 0.481059 0.154209 0.665027
O O12 0.211351 0.635143 0.910889
O O13 0.143142 0.608397 0.058802
O O14 0.250000 0.250000 0.276123
O O15 0.316554 0.439885 0.285158
O O16 0.500000 0.500000 0.276139
#
# Coordination Sequence:
#
# PCOD8176497 Si02
#       7
#     8   8   8   8   8   8   8
#     4  10  20  39  69  88 114 163 210 250 307 372
#     4  10  20  37  58  88 122 157 204 252 300 364
#     4  11  20  35  61  89 125 159 201 260 308 355
#     4  10  19  38  65  87 116 160 207 248 302 374
#     4   9  16  33  61  88 112 158 206 242 293 369
#     4   9  18  35  64  90 117 160 209 253 304 370
#     4  11  21  36  63  91 122 159 202 254 305 363
#
# _framework density 20.490265000000001
#
# number of rings (size 3 to 8) (size 9 to 14) (size 15 to 20)
#    0.000    2.000    4.286    2.143    0.000    2.286 
#    0.000    6.429   18.857    0.000    0.000    0.000 
#    0.000    0.000    0.000    0.000    0.000    0.000 
#
# Total GULP energy -346972.973046 kJ/mol
# GULP energy per Si atom -12391.891895 kJ/mol
# Density = 2.044363 g / cm^3
# Si number density = 20.490265 Si / 1000 Ang^3
#
#
#
# Elastic Constant Matrix: (Units=GPa)
#
#
# Indices 1 2 3 4 5 6 
#
# 1 171.9467 57.5977 56.9097 0.0000 0.0000 0.0000
# 2 57.5977 62.7319 21.6652 0.0000 0.0000 0.0000
# 3 56.9097 21.6652 101.8558 0.0000 0.0000 0.0000
# 4 0.0000 0.0000 0.0000 12.9018 0.0000 0.0000
# 5 0.0000 0.0000 0.0000 0.0000 22.3403 0.0000
# 6 0.0000 0.0000 0.0000 0.0000 0.0000 36.1714
#
#
#
# Elastic Compliance Matrix: (Units=1/GPa)
#
#
# Indices 1 2 3 4 5 6 
#
# 1 0.009565 -0.007487 -0.003752 0.000000 0.000000 0.000000
# 2 -0.007487 0.023065 -0.000723 0.000000 0.000000 0.000000
# 3 -0.003752 -0.000723 0.012068 0.000000 0.000000 0.000000
# 4 0.000000 0.000000 0.000000 0.077509 0.000000 0.000000
# 5 0.000000 0.000000 0.000000 0.000000 0.044762 0.000000
# 6 0.000000 0.000000 0.000000 0.000000 0.000000 0.027646
#
#
# Mechanical properties :
#
#
# Convention : Reuss Voigt Hill
#
# Bulk Modulus (GPa) = 48.13574 67.65332 57.89453
# Shear Modulus (GPa) = 22.17657 27.64014 24.90836
#
# Velocity S-wave (km/s) = 3.29340 3.67678 3.49036
# Velocity P-wave (km/s) = 6.16482 7.14940 6.67529
#
# Compressibility (1/GPa) = 0.02077459
#
# Stress axis : x y z
#
# Youngs Moduli (GPa) = 104.54285 43.35661 82.86433
#
# Poissons Ratio (x) = 0.32460 0.31091
# Poissons Ratio (y) = 0.78269 0.05990
# Poissons Ratio (z) = 0.39225 0.03134
#
# Static dielectric constant tensor:
#      x y z
#    x 4.375910 0.000000 0.000000 
#    y 0.000000 3.645610 0.000000 
#    z 0.000000 0.000000 3.397000 
# 
# 
# High freq. dielectric constant tensor:
#      x y z
#    x 1.804950 0.000000 0.000000 
#    y 0.000000 1.780880 0.000000 
#    z 0.000000 0.000000 1.775010 
# 
# From -- ./inp_files/11623.got.cif
#   From: 2010.03.12/outbox.cif.g09.slc.cpg/sg37_6_cif.got.tgz:11623.got - 2010.04.14 02:25:27.
