data_PCOD8176125
_publ_section_title
;
Structure prediction by ZEFSAII (Michael W. Deem and Ramdas Pophale) SiO2 
 PCOD8176125
Probable space group: C M C 21
;
_chemical_formula_sum "Si O2"
_cell_formula_units_Z 36
_cell_length_a 12.240238
_cell_length_b 24.744778
_cell_length_c 4.900928
_cell_angle_alpha 90.000000
_cell_angle_beta 90.000000
_cell_angle_gamma 90.000000
_cell_volume 1484.402737
_symmetry_space_group_name_H-M "C M C 21"
_symmetry_group_IT_number 36
_symmetry_cell_setting 'orthorhombic'
loop_
_space_group_symop_operation_xyz
x,y,z
-x,-y,1/2+z
x,-y,1/2+z
-x,y,z
1/2+x,1/2+y,z
1/2-x,1/2-y,1/2+z
1/2+x,1/2-y,1/2+z
1/2-x,1/2+y,z
loop_
_atom_site_type_symbol
_atom_site_label
_atom_site_fract_x
_atom_site_fract_y
_atom_site_fract_z
Si Si1 0.000000 0.961001 0.812510
Si Si2 0.121512 0.463887 0.081610
Si Si3 0.500000 0.747529 0.235765
Si Si4 0.000000 0.173422 0.751972
Si Si5 0.815678 0.111008 0.498930
Si Si6 0.784626 0.720242 0.484805
O O1 0.110731 0.924633 0.789600
O O2 0.000000 0.009103 0.600868
O O3 0.134553 0.516208 0.271916
O O4 0.000000 0.437953 0.124520
O O5 0.218022 0.421950 0.143567
O O6 0.500000 0.724741 0.542412
O O7 0.500000 0.692827 0.060968
O O8 0.603849 0.784080 0.157937
O O9 0.104174 0.134115 0.729087
O O10 0.758022 0.163455 0.361210
O O11 0.699245 0.742285 0.716438
#
# Coordination Sequence:
#
# PCOD8176125 Si02
#       6
#     4   8   4   4   8   8
#     4  11  26  45  70 100 132 170 219 282 339 398
#     4  10  23  43  65  91 128 167 213 275 338 402
#     4  12  22  45  60  91 140 169 223 264 328 382
#     4  11  24  40  66  91 130 177 210 278 323 392
#     4  11  24  42  68  99 127 173 224 269 338 399
#     4  12  25  42  67  97 136 178 220 273 327 400
#
# _framework density 24.252179000000002
#
# number of rings (size 3 to 8) (size 9 to 14) (size 15 to 20)
#    0.000    0.889    4.444    1.333    1.556    8.889 
#    0.000    0.000    0.000    0.000    0.000    0.000 
#    0.000    0.000    0.000    0.000    0.000    0.000 
#
# Total GULP energy -223079.021425 kJ/mol
# GULP energy per Si atom -12393.278968 kJ/mol
# Density = 2.419698 g / cm^3
# Si number density = 24.252179 Si / 1000 Ang^3
#
#
#
# Elastic Constant Matrix: (Units=GPa)
#
#
# Indices 1 2 3 4 5 6 
#
# 1 192.8622 70.9933 10.0103 0.0000 0.0000 0.0000
# 2 70.9933 121.0935 13.9435 0.0000 0.0000 0.0000
# 3 10.0103 13.9435 54.9855 0.0000 0.0000 0.0000
# 4 0.0000 0.0000 0.0000 17.0010 0.0000 0.0000
# 5 0.0000 0.0000 0.0000 0.0000 22.9415 0.0000
# 6 0.0000 0.0000 0.0000 0.0000 0.0000 65.5035
#
#
#
# Elastic Compliance Matrix: (Units=1/GPa)
#
#
# Indices 1 2 3 4 5 6 
#
# 1 0.006615 -0.003852 -0.000227 0.000000 0.000000 0.000000
# 2 -0.003852 0.010749 -0.002025 0.000000 0.000000 0.000000
# 3 -0.000227 -0.002025 0.018741 0.000000 0.000000 0.000000
# 4 0.000000 0.000000 0.000000 0.058820 0.000000 0.000000
# 5 0.000000 0.000000 0.000000 0.000000 0.043589 0.000000
# 6 0.000000 0.000000 0.000000 0.000000 0.000000 0.015266
#
#
# Mechanical properties :
#
#
# Convention : Reuss Voigt Hill
#
# Bulk Modulus (GPa) = 41.84503 62.09283 51.96893
# Shear Modulus (GPa) = 28.74305 39.35545 34.04925
#
# Velocity S-wave (km/s) = 3.44637 4.03272 3.75102
# Velocity P-wave (km/s) = 5.75571 6.88058 6.34313
#
# Compressibility (1/GPa) = 0.02389770
#
# Stress axis : x y z
#
# Youngs Moduli (GPa) = 151.17783 93.02831 53.35771
#
# Poissons Ratio (x) = 0.35833 0.01214
# Poissons Ratio (y) = 0.58231 0.10803
# Poissons Ratio (z) = 0.03439 0.18835
#
# Static dielectric constant tensor:
#      x y z
#    x 4.818740 0.000000 0.000000 
#    y 0.000000 4.199640 0.000000 
#    z 0.000000 0.000000 3.901480 
# 
# 
# High freq. dielectric constant tensor:
#      x y z
#    x 1.992410 0.000000 0.000000 
#    y 0.000000 1.946950 0.000000 
#    z 0.000000 0.000000 1.942390 
# 
# From -- ./inp_files/474.got.cif
#   From: 2010.03.12/outbox.cif.g09.slc.cpg/sg36_1_cif.got.tgz:474.got - 2010.04.14 02:13:53.
