data_PCOD8176923
_publ_section_title
;
Structure prediction by ZEFSAII (Michael W. Deem and Ramdas Pophale) SiO2 
 PCOD8176923
Probable space group: C C C 2
;
_chemical_formula_sum "Si O2"
_cell_formula_units_Z 56
_cell_length_a 19.587439
_cell_length_b 11.856672
_cell_length_c 10.808070
_cell_angle_alpha 90.000000
_cell_angle_beta 90.000000
_cell_angle_gamma 90.000000
_cell_volume 2510.086059
_symmetry_space_group_name_H-M "C C C 2"
_symmetry_group_IT_number 37
_symmetry_cell_setting 'orthorhombic'
loop_
_space_group_symop_operation_xyz
x,y,z
-x,-y,z
-x,y,1/2+z
x,-y,1/2+z
1/2+x,1/2+y,z
1/2-x,1/2-y,z
1/2-x,1/2+y,1/2+z
1/2+x,1/2-y,1/2+z
loop_
_atom_site_type_symbol
_atom_site_label
_atom_site_fract_x
_atom_site_fract_y
_atom_site_fract_z
Si Si1 0.390915 0.408543 0.604940
Si Si2 0.825902 0.716445 0.741186
Si Si3 0.962435 0.755811 0.427044
Si Si4 0.379946 0.353426 0.209503
Si Si5 0.110858 0.684629 0.490652
Si Si6 0.636949 0.935690 0.519730
Si Si7 0.272572 0.375177 0.416975
O O1 0.374102 0.324258 0.716822
O O2 0.453475 0.355538 0.527523
O O3 0.410329 0.530033 0.657878
O O4 0.326463 0.422225 0.514483
O O5 0.750000 0.750000 0.708677
O O6 0.832181 0.684317 0.884369
O O7 0.844687 0.610327 0.655285
O O8 0.939704 0.801186 0.293398
O O9 0.916249 0.647748 0.455773
O O10 0.040675 0.721521 0.426089
O O11 0.308207 0.375887 0.281619
O O12 0.364675 0.266927 0.099158
O O13 0.103445 0.557648 0.541626
O O14 0.703383 0.948384 0.428903
O O15 0.250000 0.250000 0.455307
#
# Coordination Sequence:
#
# PCOD8176923 Si02
#       7
#     8   8   8   8   8   8   8
#     4  10  22  45  73 101 141 197 242 293 361 438
#     4  11  24  47  72 105 149 185 239 302 367 430
#     4  10  25  52  70 102 149 195 241 298 377 426
#     4  11  27  44  72 105 147 194 254 299 356 444
#     4  12  30  44  73 117 139 188 255 299 361 440
#     4  11  23  48  76 103 146 197 232 303 373 438
#     4  11  20  45  75 102 149 195 236 295 378 426
#
# _framework density 22.309991
#
# number of rings (size 3 to 8) (size 9 to 14) (size 15 to 20)
#    0.000    1.143    5.714    0.429   12.000    2.286 
#    0.000    0.000    0.000    0.000    0.000    0.000 
#    0.000    0.000    0.000    0.000    0.000    0.000 
#
# Total GULP energy -347260.264718 kJ/mol
# GULP energy per Si atom -12402.152311 kJ/mol
# Density = 2.225921 g / cm^3
# Si number density = 22.309991 Si / 1000 Ang^3
#
#
#
# Elastic Constant Matrix: (Units=GPa)
#
#
# Indices 1 2 3 4 5 6 
#
# 1 69.5980 22.0783 23.8413 0.0000 0.0000 0.0000
# 2 22.0783 161.4597 68.1908 0.0000 0.0000 0.0000
# 3 23.8413 68.1908 138.0167 0.0000 0.0000 0.0000
# 4 0.0000 0.0000 0.0000 28.0704 0.0000 0.0000
# 5 0.0000 0.0000 0.0000 0.0000 67.4102 0.0000
# 6 0.0000 0.0000 0.0000 0.0000 0.0000 24.1388
#
#
#
# Elastic Compliance Matrix: (Units=1/GPa)
#
#
# Indices 1 2 3 4 5 6 
#
# 1 0.015468 -0.001247 -0.002056 0.000000 0.000000 0.000000
# 2 -0.001247 0.007927 -0.003701 0.000000 0.000000 0.000000
# 3 -0.002056 -0.003701 0.009429 0.000000 0.000000 0.000000
# 4 0.000000 0.000000 0.000000 0.035625 0.000000 0.000000
# 5 0.000000 0.000000 0.000000 0.000000 0.014835 0.000000
# 6 0.000000 0.000000 0.000000 0.000000 0.000000 0.041427
#
#
# Mechanical properties :
#
#
# Convention : Reuss Voigt Hill
#
# Bulk Modulus (GPa) = 53.14483 66.36613 59.75548
# Shear Modulus (GPa) = 34.48488 40.92149 37.70318
#
# Velocity S-wave (km/s) = 3.93582 4.28743 4.11538
# Velocity P-wave (km/s) = 6.67286 7.37029 7.03023
#
# Compressibility (1/GPa) = 0.01881651
#
# Stress axis : x y z
#
# Youngs Moduli (GPa) = 64.64943 126.14842 106.05180
#
# Poissons Ratio (x) = 0.15728 0.21804
# Poissons Ratio (y) = 0.08061 0.39252
# Poissons Ratio (z) = 0.13292 0.46691
#
# Static dielectric constant tensor:
#      x y z
#    x 3.010370 0.000000 0.000000 
#    y 0.000000 3.966560 0.000000 
#    z 0.000000 0.000000 3.938600 
# 
# 
# High freq. dielectric constant tensor:
#      x y z
#    x 1.874040 0.000000 0.000000 
#    y 0.000000 1.880860 0.000000 
#    z 0.000000 0.000000 1.881320 
# 
# From -- ./inp_files/8580.got.cif
#   From: 2010.03.12/outbox.cif.g09.slc.cpg/sg37_5_cif.got.tgz:8580.got - 2010.04.14 02:25:27.
