data_PCOD8176162
_publ_section_title
;
Structure prediction by ZEFSAII (Michael W. Deem and Ramdas Pophale) SiO2 
 PCOD8176162
Probable space group: C M C 21
;
_chemical_formula_sum "Si O2"
_cell_formula_units_Z 64
_cell_length_a 8.676732
_cell_length_b 23.651388
_cell_length_c 15.244553
_cell_angle_alpha 90.000000
_cell_angle_beta 90.000000
_cell_angle_gamma 90.000000
_cell_volume 3128.437700
_symmetry_space_group_name_H-M "C M C 21"
_symmetry_group_IT_number 36
_symmetry_cell_setting 'orthorhombic'
loop_
_space_group_symop_operation_xyz
x,y,z
-x,-y,1/2+z
x,-y,1/2+z
-x,y,z
1/2+x,1/2+y,z
1/2-x,1/2-y,1/2+z
1/2+x,1/2-y,1/2+z
1/2-x,1/2+y,z
loop_
_atom_site_type_symbol
_atom_site_label
_atom_site_fract_x
_atom_site_fract_y
_atom_site_fract_z
Si Si1 0.180538 0.624389 0.546340
Si Si2 0.819221 0.858698 0.227231
Si Si3 0.320526 0.750967 0.984463
Si Si4 0.676788 0.866525 0.752904
Si Si5 0.320528 0.249090 0.799219
Si Si6 0.676666 0.145554 0.055956
Si Si7 0.820295 0.076372 0.902205
Si Si8 0.179697 0.054694 0.392001
O O1 0.232735 0.612570 0.645501
O O2 0.226743 0.688228 0.521192
O O3 0.270338 0.581871 0.483588
O O4 0.000000 0.613666 0.536127
O O5 0.770763 0.793191 0.235183
O O6 0.766954 0.892326 0.313804
O O7 0.000000 0.863106 0.210624
O O8 0.500000 0.748400 0.960749
O O9 0.223184 0.735411 0.898870
O O10 0.278344 0.702788 0.054795
O O11 0.500000 0.851702 0.775095
O O12 0.779329 0.813101 0.777873
O O13 0.699569 0.882673 0.651298
O O14 0.728260 0.919509 0.810489
O O15 0.500000 0.238686 0.784025
O O16 0.500000 0.162317 0.040096
O O17 0.727910 0.100275 0.984427
O O18 0.000000 0.086962 0.919452
O O19 0.779261 0.010981 0.893722
O O20 0.000000 0.065468 0.377088
#
# Coordination Sequence:
#
# PCOD8176162 Si02
#       8
#     8   8   8   8   8   8   8   8
#     4  11  24  41  64  94 128 165 206 255 314 375
#     4  11  23  41  65  93 128 167 207 256 311 371
#     4  11  22  38  62  91 128 166 201 250 312 373
#     4  11  24  42  63  93 129 165 205 256 314 373
#     4  12  23  37  63  96 127 164 207 252 310 376
#     4  11  24  40  64  95 126 163 208 255 308 371
#     4  10  24  44  65  89 122 165 211 260 315 369
#     4  11  24  43  66  91 120 163 215 262 310 372
#
# _framework density 20.457495000000002
#
# number of rings (size 3 to 8) (size 9 to 14) (size 15 to 20)
#    0.000    1.000    2.500    4.125    0.000    8.000 
#    0.000    3.750    0.000    0.000    0.000    0.000 
#    0.000    0.000    0.000    0.000    0.000    0.000 
#
# Total GULP energy -397041.587219 kJ/mol
# GULP energy per Si atom -12407.549601 kJ/mol
# Density = 2.041093 g / cm^3
# Si number density = 20.457495 Si / 1000 Ang^3
#
#
#
# Elastic Constant Matrix: (Units=GPa)
#
#
# Indices 1 2 3 4 5 6 
#
# 1 58.6460 30.9620 35.1204 0.0000 0.0000 0.0000
# 2 30.9620 100.7907 34.8458 0.0000 0.0000 0.0000
# 3 35.1204 34.8458 114.0868 0.0000 0.0000 0.0000
# 4 0.0000 0.0000 0.0000 11.4818 0.0000 0.0000
# 5 0.0000 0.0000 0.0000 0.0000 35.8399 0.0000
# 6 0.0000 0.0000 0.0000 0.0000 0.0000 32.5106
#
#
#
# Elastic Compliance Matrix: (Units=1/GPa)
#
#
# Indices 1 2 3 4 5 6 
#
# 1 0.023099 -0.005185 -0.005527 0.000000 0.000000 0.000000
# 2 -0.005185 0.012257 -0.002147 0.000000 0.000000 0.000000
# 3 -0.005527 -0.002147 0.011123 0.000000 0.000000 0.000000
# 4 0.000000 0.000000 0.000000 0.087094 0.000000 0.000000
# 5 0.000000 0.000000 0.000000 0.000000 0.027902 0.000000
# 6 0.000000 0.000000 0.000000 0.000000 0.000000 0.030759
#
#
# Mechanical properties :
#
#
# Convention : Reuss Voigt Hill
#
# Bulk Modulus (GPa) = 48.17140 52.81998 50.49569
# Shear Modulus (GPa) = 22.23488 27.47281 24.85384
#
# Velocity S-wave (km/s) = 3.30037 3.66856 3.48933
# Velocity P-wave (km/s) = 6.17425 6.61966 6.40083
#
# Compressibility (1/GPa) = 0.02075921
#
# Stress axis : x y z
#
# Youngs Moduli (GPa) = 43.29244 81.58777 89.90685
#
# Poissons Ratio (x) = 0.42302 0.49692
# Poissons Ratio (y) = 0.22447 0.19307
# Poissons Ratio (z) = 0.23928 0.17521
#
# Static dielectric constant tensor:
#      x y z
#    x 3.743220 0.000000 0.000000 
#    y 0.000000 3.644180 0.000000 
#    z 0.000000 0.000000 3.851860 
# 
# 
# High freq. dielectric constant tensor:
#      x y z
#    x 1.808530 0.000000 0.000000 
#    y 0.000000 1.794780 0.000000 
#    z 0.000000 0.000000 1.813330 
# 
# From -- ./inp_files/11079.got.cif
#   From: 2010.03.12/outbox.cif.g09.slc.cpg/sg36_6_cif.got.tgz:11079.got - 2010.04.14 02:13:53.
