data_PCOD8176866
_publ_section_title
;
Structure prediction by ZEFSAII (Michael W. Deem and Ramdas Pophale) SiO2 
 PCOD8176866
Probable space group: C C C 2
;
_chemical_formula_sum "Si O2"
_cell_formula_units_Z 52
_cell_length_a 18.893712
_cell_length_b 14.554548
_cell_length_c 9.272139
_cell_angle_alpha 90.000000
_cell_angle_beta 90.000000
_cell_angle_gamma 90.000000
_cell_volume 2549.740295
_symmetry_space_group_name_H-M "C C C 2"
_symmetry_group_IT_number 37
_symmetry_cell_setting 'orthorhombic'
loop_
_space_group_symop_operation_xyz
x,y,z
-x,-y,z
-x,y,1/2+z
x,-y,1/2+z
1/2+x,1/2+y,z
1/2-x,1/2-y,z
1/2-x,1/2+y,1/2+z
1/2+x,1/2-y,1/2+z
loop_
_atom_site_type_symbol
_atom_site_label
_atom_site_fract_x
_atom_site_fract_y
_atom_site_fract_z
Si Si1 0.638886 0.263490 0.158500
Si Si2 0.766526 0.602138 0.606003
Si Si3 0.030820 0.117287 0.531814
Si Si4 0.250000 0.750000 0.621607
Si Si5 0.381795 0.332602 0.952086
Si Si6 0.591998 0.506796 0.284484
Si Si7 0.740685 0.428717 0.777116
O O1 0.703119 0.336142 0.166703
O O2 0.662203 0.162339 0.111142
O O3 0.583602 0.296733 0.037526
O O4 0.601772 0.265042 0.315953
O O5 0.780757 0.514801 0.707112
O O6 0.749015 0.566561 0.447700
O O7 0.035746 0.069563 0.374019
O O8 0.951252 0.156470 0.554712
O O9 0.051787 0.041538 0.651800
O O10 0.314288 0.712199 0.526948
O O11 0.224233 0.666021 0.721866
O O12 0.367786 0.434626 0.889253
O O13 0.657275 0.569981 0.228550
#
# Coordination Sequence:
#
# PCOD8176866 Si02
#       7
#     8   8   8   4   8   8   8
#     4  10  22  41  64  94 136 176 222 268 332 403
#     4  11  22  42  66  95 132 175 220 278 329 403
#     4  11  23  40  63  94 139 175 212 267 338 409
#     4  12  26  38  60  98 130 164 234 276 326 410
#     4  11  24  39  63  95 130 181 215 274 333 408
#     4  11  22  42  62 100 136 170 211 264 342 420
#     4  12  23  39  66  97 131 172 217 275 339 401
#
# _framework density 20.394234000000001
#
# number of rings (size 3 to 8) (size 9 to 14) (size 15 to 20)
#    0.000    0.923    4.615    4.154    2.154    8.615 
#    0.000    0.000    0.000    0.923    0.000    0.000 
#    0.000    0.000    0.000    0.000    0.000    0.000 
#
# Total GULP energy -322356.098377 kJ/mol
# GULP energy per Si atom -12398.311476 kJ/mol
# Density = 2.034782 g / cm^3
# Si number density = 20.394234 Si / 1000 Ang^3
#
#
#
# Elastic Constant Matrix: (Units=GPa)
#
#
# Indices 1 2 3 4 5 6 
#
# 1 106.1001 50.8213 31.8550 0.0000 0.0000 0.0000
# 2 50.8213 124.1378 38.2202 0.0000 0.0000 0.0000
# 3 31.8550 38.2202 101.0839 0.0000 0.0000 0.0000
# 4 0.0000 0.0000 0.0000 31.3884 0.0000 0.0000
# 5 0.0000 0.0000 0.0000 0.0000 32.9003 0.0000
# 6 0.0000 0.0000 0.0000 0.0000 0.0000 45.1238
#
#
#
# Elastic Compliance Matrix: (Units=1/GPa)
#
#
# Indices 1 2 3 4 5 6 
#
# 1 0.012143 -0.004293 -0.002204 0.000000 0.000000 0.000000
# 2 -0.004293 0.010634 -0.002668 0.000000 0.000000 0.000000
# 3 -0.002204 -0.002668 0.011596 0.000000 0.000000 0.000000
# 4 0.000000 0.000000 0.000000 0.031859 0.000000 0.000000
# 5 0.000000 0.000000 0.000000 0.000000 0.030395 0.000000
# 6 0.000000 0.000000 0.000000 0.000000 0.000000 0.022161
#
#
# Mechanical properties :
#
#
# Convention : Reuss Voigt Hill
#
# Bulk Modulus (GPa) = 62.32674 63.67944 63.00309
# Shear Modulus (GPa) = 35.09624 35.91084 35.50354
#
# Velocity S-wave (km/s) = 4.15286 4.20078 4.17689
# Velocity P-wave (km/s) = 7.32273 7.40410 7.36353
#
# Compressibility (1/GPa) = 0.01604448
#
# Stress axis : x y z
#
# Youngs Moduli (GPa) = 82.35301 94.03370 86.23655
#
# Poissons Ratio (x) = 0.40367 0.19002
# Poissons Ratio (y) = 0.35352 0.23009
# Poissons Ratio (z) = 0.18147 0.25090
#
# Static dielectric constant tensor:
#      x y z
#    x 3.770690 0.000000 0.000000 
#    y 0.000000 3.856710 0.000000 
#    z 0.000000 0.000000 3.885330 
# 
# 
# High freq. dielectric constant tensor:
#      x y z
#    x 1.777670 0.000000 0.000000 
#    y 0.000000 1.778830 0.000000 
#    z 0.000000 0.000000 1.818280 
# 
# From -- ./inp_files/4364.got.cif
#   From: 2010.03.12/outbox.cif.g09.slc.cpg/sg37_3_cif.got.tgz:4364.got - 2010.04.14 02:25:27.
