data_PCOD8176937
_publ_section_title
;
Structure prediction by ZEFSAII (Michael W. Deem and Ramdas Pophale) SiO2 
 PCOD8176937
Probable space group: C C C 2
;
_chemical_formula_sum "Si O2"
_cell_formula_units_Z 36
_cell_length_a 11.290932
_cell_length_b 9.822613
_cell_length_c 14.319956
_cell_angle_alpha 90.000000
_cell_angle_beta 90.000000
_cell_angle_gamma 90.000000
_cell_volume 1588.175562
_symmetry_space_group_name_H-M "C C C 2"
_symmetry_group_IT_number 37
_symmetry_cell_setting 'orthorhombic'
loop_
_space_group_symop_operation_xyz
x,y,z
-x,-y,z
-x,y,1/2+z
x,-y,1/2+z
1/2+x,1/2+y,z
1/2-x,1/2-y,z
1/2-x,1/2+y,1/2+z
1/2+x,1/2-y,1/2+z
loop_
_atom_site_type_symbol
_atom_site_label
_atom_site_fract_x
_atom_site_fract_y
_atom_site_fract_z
Si Si1 0.422053 0.178994 0.107870
Si Si2 0.250000 0.250000 0.358629
Si Si3 0.993195 0.347752 0.903046
Si Si4 0.885129 0.781725 0.732959
Si Si5 0.199295 0.069647 0.189908
O O1 0.549522 0.181887 0.159541
O O2 0.335981 0.062046 0.152676
O O3 0.366444 0.327896 0.120116
O O4 0.436014 0.147959 0.999471
O O5 0.143023 0.304737 0.422636
O O6 0.200883 0.128126 0.294516
O O7 0.000000 0.500000 0.859517
O O8 0.049828 0.237678 0.832372
O O9 0.750000 0.750000 0.749368
O O10 0.880901 0.935032 0.692888
#
# Coordination Sequence:
#
# PCOD8176937 Si02
#       5
#     8   4   8   8   8
#     4  10  25  45  68 102 146 188 232 312 365 440
#     4  10  22  48  72  94 148 190 226 320 362 418
#     4  12  27  45  72 110 146 189 251 309 370 452
#     4  12  26  43  74 104 134 201 242 298 378 446
#     4  10  22  50  69  94 149 189 243 304 370 438
#
# _framework density 22.667521000000001
#
# number of rings (size 3 to 8) (size 9 to 14) (size 15 to 20)
#    0.000    1.333    4.444    2.000    7.778    0.000 
#    8.000    0.000    0.000    0.000    0.000    0.000 
#    0.000    0.000    0.000    0.000    0.000    0.000 
#
# Total GULP energy -223052.326451 kJ/mol
# GULP energy per Si atom -12391.795914 kJ/mol
# Density = 2.261593 g / cm^3
# Si number density = 22.667521 Si / 1000 Ang^3
#
#
#
# Elastic Constant Matrix: (Units=GPa)
#
#
# Indices 1 2 3 4 5 6 
#
# 1 156.4159 48.6845 31.3265 0.0000 0.0000 0.0000
# 2 48.6845 102.9935 29.7562 0.0000 0.0000 0.0000
# 3 31.3265 29.7562 102.2330 0.0000 0.0000 0.0000
# 4 0.0000 0.0000 0.0000 22.4679 0.0000 0.0000
# 5 0.0000 0.0000 0.0000 0.0000 43.3873 0.0000
# 6 0.0000 0.0000 0.0000 0.0000 0.0000 29.0584
#
#
#
# Elastic Compliance Matrix: (Units=1/GPa)
#
#
# Indices 1 2 3 4 5 6 
#
# 1 0.007679 -0.003221 -0.001416 0.000000 0.000000 0.000000
# 2 -0.003221 0.011952 -0.002492 0.000000 0.000000 0.000000
# 3 -0.001416 -0.002492 0.010941 0.000000 0.000000 0.000000
# 4 0.000000 0.000000 0.000000 0.044508 0.000000 0.000000
# 5 0.000000 0.000000 0.000000 0.000000 0.023048 0.000000
# 6 0.000000 0.000000 0.000000 0.000000 0.000000 0.034413
#
#
# Mechanical properties :
#
#
# Convention : Reuss Voigt Hill
#
# Bulk Modulus (GPa) = 61.29313 64.57519 62.93416
# Shear Modulus (GPa) = 32.84369 35.77440 34.30905
#
# Velocity S-wave (km/s) = 3.81061 3.97699 3.89469
# Velocity P-wave (km/s) = 6.81614 7.04546 6.93175
#
# Compressibility (1/GPa) = 0.01631504
#
# Stress axis : x y z
#
# Youngs Moduli (GPa) = 130.22110 83.66956 91.40269
#
# Poissons Ratio (x) = 0.26950 0.12939
# Poissons Ratio (y) = 0.41944 0.22775
# Poissons Ratio (z) = 0.18434 0.20848
#
# Static dielectric constant tensor:
#      x y z
#    x 4.643510 0.000000 0.000000 
#    y 0.000000 4.870970 0.000000 
#    z 0.000000 0.000000 3.684070 
# 
# 
# High freq. dielectric constant tensor:
#      x y z
#    x 1.921600 0.000000 0.000000 
#    y 0.000000 1.890010 0.000000 
#    z 0.000000 0.000000 1.868730 
# 
# From -- ./inp_files/11260.got.cif
#   From: 2010.03.12/outbox.cif.g09.slc.cpg/sg37_6_cif.got.tgz:11260.got - 2010.04.14 02:25:27.
