data_PCOD8176776
_publ_section_title
;
Structure prediction by ZEFSAII (Michael W. Deem and Ramdas Pophale) SiO2 
 PCOD8176776
Probable space group: C C C 2
;
_chemical_formula_sum "Si O2"
_cell_formula_units_Z 64
_cell_length_a 9.047504
_cell_length_b 22.877195
_cell_length_c 14.123680
_cell_angle_alpha 90.000000
_cell_angle_beta 90.000000
_cell_angle_gamma 90.000000
_cell_volume 2923.340659
_symmetry_space_group_name_H-M "C C C 2"
_symmetry_group_IT_number 37
_symmetry_cell_setting 'orthorhombic'
loop_
_space_group_symop_operation_xyz
x,y,z
-x,-y,z
-x,y,1/2+z
x,-y,1/2+z
1/2+x,1/2+y,z
1/2-x,1/2-y,z
1/2-x,1/2+y,1/2+z
1/2+x,1/2-y,1/2+z
loop_
_atom_site_type_symbol
_atom_site_label
_atom_site_fract_x
_atom_site_fract_y
_atom_site_fract_z
Si Si1 0.696462 0.104773 0.948730
Si Si2 0.316586 0.412183 0.147917
Si Si3 0.889731 0.853046 0.622565
Si Si4 0.109874 0.371601 0.995908
Si Si5 0.619299 0.162500 0.770364
Si Si6 0.083447 0.739739 0.614448
Si Si7 0.188860 0.381253 0.794123
Si Si8 0.326832 0.493531 0.314193
O O1 0.531038 0.085952 0.978915
O O2 0.675708 0.161011 0.878177
O O3 0.770030 0.050672 0.894548
O O4 0.789773 0.126564 0.036632
O O5 0.491167 0.404310 0.134811
O O6 0.256525 0.356261 0.204726
O O7 0.291247 0.470465 0.208430
O O8 0.231365 0.412226 0.048126
O O9 0.795867 0.848036 0.719916
O O10 0.970541 0.792462 0.595073
O O11 0.182224 0.348605 0.896683
O O12 0.038811 0.317678 0.054838
O O13 0.575989 0.226288 0.728583
O O14 0.479186 0.118662 0.754539
O O15 0.250000 0.750000 0.579209
O O16 0.241585 0.446010 0.818892
O O17 0.500000 0.500000 0.332223
#
# Coordination Sequence:
#
# PCOD8176776 Si02
#       8
#     8   8   8   8   8   8   8   8
#     4  10  25  44  69 102 139 178 236 293 338 424
#     4  10  21  41  68  96 136 175 227 287 340 408
#     4  12  23  42  73 105 138 181 232 289 349 414
#     4  10  23  46  65 101 143 178 233 287 345 419
#     4   9  21  45  65  97 136 176 227 284 339 414
#     4  11  22  45  70  99 139 182 223 286 359 412
#     4  11  25  44  69 100 140 178 233 289 339 418
#     4  11  24  45  71 100 138 185 236 290 357 403
#
# _framework density 21.892761
#
# number of rings (size 3 to 8) (size 9 to 14) (size 15 to 20)
#    0.000    1.500    3.750    1.500    1.750    7.500 
#    9.000    2.500    0.000    0.000    0.000    0.000 
#    0.000    0.000    0.000    0.000    0.000    0.000 
#
# Total GULP energy -396532.497582 kJ/mol
# GULP energy per Si atom -12391.640549 kJ/mol
# Density = 2.184293 g / cm^3
# Si number density = 21.892761 Si / 1000 Ang^3
#
#
#
# Elastic Constant Matrix: (Units=GPa)
#
#
# Indices 1 2 3 4 5 6 
#
# 1 134.5439 16.0849 63.9600 0.0000 0.0000 0.0000
# 2 16.0849 71.3771 29.7916 0.0000 0.0000 0.0000
# 3 63.9600 29.7916 142.2013 0.0000 0.0000 0.0000
# 4 0.0000 0.0000 0.0000 23.3494 0.0000 0.0000
# 5 0.0000 0.0000 0.0000 0.0000 36.3501 0.0000
# 6 0.0000 0.0000 0.0000 0.0000 0.0000 28.6559
#
#
#
# Elastic Compliance Matrix: (Units=1/GPa)
#
#
# Indices 1 2 3 4 5 6 
#
# 1 0.009464 -0.000390 -0.004175 0.000000 0.000000 0.000000
# 2 -0.000390 0.015369 -0.003044 0.000000 0.000000 0.000000
# 3 -0.004175 -0.003044 0.009548 0.000000 0.000000 0.000000
# 4 0.000000 0.000000 0.000000 0.042828 0.000000 0.000000
# 5 0.000000 0.000000 0.000000 0.000000 0.027510 0.000000
# 6 0.000000 0.000000 0.000000 0.000000 0.000000 0.034897
#
#
# Mechanical properties :
#
#
# Convention : Reuss Voigt Hill
#
# Bulk Modulus (GPa) = 52.18764 63.08837 57.63801
# Shear Modulus (GPa) = 31.01330 33.55680 32.28505
#
# Velocity S-wave (km/s) = 3.76786 3.91932 3.84434
# Velocity P-wave (km/s) = 6.54359 7.02574 6.78895
#
# Compressibility (1/GPa) = 0.01916163
#
# Stress axis : x y z
#
# Youngs Moduli (GPa) = 105.66505 65.06750 104.73492
#
# Poissons Ratio (x) = 0.02538 0.43727
# Poissons Ratio (y) = 0.04122 0.31885
# Poissons Ratio (z) = 0.44115 0.19809
#
# Static dielectric constant tensor:
#      x y z
#    x 4.157210 0.000000 0.000000 
#    y 0.000000 3.720840 0.000000 
#    z 0.000000 0.000000 4.252360 
# 
# 
# High freq. dielectric constant tensor:
#      x y z
#    x 1.878930 0.000000 0.000000 
#    y 0.000000 1.829550 0.000000 
#    z 0.000000 0.000000 1.873150 
# 
# From -- ./inp_files/11022.got.cif
#   From: 2010.03.12/outbox.cif.g09.slc.cpg/sg37_6_cif.got.tgz:11022.got - 2010.04.14 02:25:27.
