data_PCOD8176775
_publ_section_title
;
Structure prediction by ZEFSAII (Michael W. Deem and Ramdas Pophale) SiO2 
 PCOD8176775
Probable space group: C C C 2
;
_chemical_formula_sum "Si O2"
_cell_formula_units_Z 48
_cell_length_a 10.971606
_cell_length_b 16.114702
_cell_length_c 12.206676
_cell_angle_alpha 90.000000
_cell_angle_beta 90.000000
_cell_angle_gamma 90.000000
_cell_volume 2158.191111
_symmetry_space_group_name_H-M "C C C 2"
_symmetry_group_IT_number 37
_symmetry_cell_setting 'orthorhombic'
loop_
_space_group_symop_operation_xyz
x,y,z
-x,-y,z
-x,y,1/2+z
x,-y,1/2+z
1/2+x,1/2+y,z
1/2-x,1/2-y,z
1/2-x,1/2+y,1/2+z
1/2+x,1/2-y,1/2+z
loop_
_atom_site_type_symbol
_atom_site_label
_atom_site_fract_x
_atom_site_fract_y
_atom_site_fract_z
Si Si1 0.703353 0.423002 0.456230
Si Si2 0.479259 0.689261 0.987059
Si Si3 0.200267 0.655538 0.249482
Si Si4 0.354690 0.812179 0.595722
Si Si5 0.765136 0.604874 0.513651
Si Si6 0.062703 0.679938 0.831363
O O1 0.574807 0.385805 0.499556
O O2 0.709957 0.395412 0.329451
O O3 0.821183 0.394631 0.528043
O O4 0.702345 0.521208 0.470057
O O5 0.459415 0.723181 0.863095
O O6 0.518222 0.770158 0.059465
O O7 0.346062 0.668231 0.029341
O O8 0.250000 0.750000 0.237779
O O9 0.182103 0.604502 0.136589
O O10 0.070470 0.644708 0.308538
O O11 0.250000 0.750000 0.557383
O O12 0.352304 0.828201 0.724943
O O13 0.869184 0.631256 0.428565
#
# Coordination Sequence:
#
# PCOD8176775 Si02
#       6
#     8   8   8   8   8   8
#     4  11  25  47  69 104 145 185 228 299 371 412
#     4  11  22  47  72 103 137 189 240 285 355 440
#     4  12  24  49  75  97 144 201 237 279 362 449
#     4  10  21  41  68  95 133 182 234 280 345 425
#     4  12  28  43  71 113 141 176 245 306 354 412
#     4  12  23  43  71 102 136 187 237 290 342 431
#
# _framework density 22.240848
#
# number of rings (size 3 to 8) (size 9 to 14) (size 15 to 20)
#    0.000    0.667    3.333    5.500    2.333    0.667 
#    0.000    1.667    0.000    0.000    0.000    0.000 
#    0.000    0.000    0.000    0.000    0.000    0.000 
#
# Total GULP energy -297488.904279 kJ/mol
# GULP energy per Si atom -12395.371012 kJ/mol
# Density = 2.219023 g / cm^3
# Si number density = 22.240848 Si / 1000 Ang^3
#
#
#
# Elastic Constant Matrix: (Units=GPa)
#
#
# Indices 1 2 3 4 5 6 
#
# 1 104.9484 17.4898 33.6525 0.0000 0.0000 0.0000
# 2 17.4898 61.0078 35.0733 0.0000 0.0000 0.0000
# 3 33.6525 35.0733 146.7310 0.0000 0.0000 0.0000
# 4 0.0000 0.0000 0.0000 30.2547 0.0000 0.0000
# 5 0.0000 0.0000 0.0000 0.0000 31.1512 0.0000
# 6 0.0000 0.0000 0.0000 0.0000 0.0000 34.1966
#
#
#
# Elastic Compliance Matrix: (Units=1/GPa)
#
#
# Indices 1 2 3 4 5 6 
#
# 1 0.010467 -0.001879 -0.001952 0.000000 0.000000 0.000000
# 2 -0.001879 0.019340 -0.004192 0.000000 0.000000 0.000000
# 3 -0.001952 -0.004192 0.008265 0.000000 0.000000 0.000000
# 4 0.000000 0.000000 0.000000 0.033053 0.000000 0.000000
# 5 0.000000 0.000000 0.000000 0.000000 0.032101 0.000000
# 6 0.000000 0.000000 0.000000 0.000000 0.000000 0.029243
#
#
# Mechanical properties :
#
#
# Convention : Reuss Voigt Hill
#
# Bulk Modulus (GPa) = 45.39807 53.90206 49.65006
# Shear Modulus (GPa) = 32.08085 34.21859 33.14972
#
# Velocity S-wave (km/s) = 3.80205 3.92669 3.86487
# Velocity P-wave (km/s) = 6.30321 6.69677 6.50297
#
# Compressibility (1/GPa) = 0.02202737
#
# Stress axis : x y z
#
# Youngs Moduli (GPa) = 95.53478 51.70652 120.99527
#
# Poissons Ratio (x) = 0.09715 0.23613
# Poissons Ratio (y) = 0.17950 0.50720
# Poissons Ratio (z) = 0.18644 0.21675
#
# Static dielectric constant tensor:
#      x y z
#    x 4.089460 0.000000 0.000000 
#    y 0.000000 3.788470 0.000000 
#    z 0.000000 0.000000 4.117900 
# 
# 
# High freq. dielectric constant tensor:
#      x y z
#    x 1.890430 0.000000 0.000000 
#    y 0.000000 1.850940 0.000000 
#    z 0.000000 0.000000 1.884400 
# 
# From -- ./inp_files/7179.got.cif
#   From: 2010.03.12/outbox.cif.g09.slc.cpg/sg37_4_cif.got.tgz:7179.got - 2010.04.14 02:25:27.
