data_PCOD8176335
_publ_section_title
;
Structure prediction by ZEFSAII (Michael W. Deem and Ramdas Pophale) SiO2 
 PCOD8176335
Probable space group: C M C 21
;
_chemical_formula_sum "Si O2"
_cell_formula_units_Z 64
_cell_length_a 19.951737
_cell_length_b 8.874137
_cell_length_c 17.823569
_cell_angle_alpha 90.000000
_cell_angle_beta 90.000000
_cell_angle_gamma 90.000000
_cell_volume 3155.742162
_symmetry_space_group_name_H-M "C M C 21"
_symmetry_group_IT_number 36
_symmetry_cell_setting 'orthorhombic'
loop_
_space_group_symop_operation_xyz
x,y,z
-x,-y,1/2+z
x,-y,1/2+z
-x,y,z
1/2+x,1/2+y,z
1/2-x,1/2-y,1/2+z
1/2+x,1/2-y,1/2+z
1/2-x,1/2+y,z
loop_
_atom_site_type_symbol
_atom_site_label
_atom_site_fract_x
_atom_site_fract_y
_atom_site_fract_z
Si Si1 0.695447 0.438374 0.132760
Si Si2 0.075886 0.277209 0.606589
Si Si3 0.075922 0.603347 0.940909
Si Si4 0.699601 0.741804 0.217253
Si Si5 0.695446 0.438378 0.469821
Si Si6 0.575922 0.103351 0.661672
Si Si7 0.575886 0.777205 0.995992
Si Si8 0.300400 0.258192 0.885328
O O1 0.623676 0.357661 0.131024
O O2 0.690175 0.569751 0.193392
O O3 0.751844 0.321034 0.157875
O O4 0.716297 0.499999 0.051291
O O5 0.087156 0.314620 0.519908
O O6 0.091253 0.425733 0.655292
O O7 0.000000 0.222889 0.620592
O O8 0.091253 0.425728 0.947289
O O9 0.127712 0.675243 0.882821
O O10 0.000000 0.628315 0.912459
O O11 0.627712 0.824753 0.219760
O O12 0.729610 0.746199 0.301291
O O13 0.623676 0.357665 0.471557
O O14 0.690174 0.569756 0.409190
O O15 0.751844 0.321039 0.444705
O O16 0.500000 0.128319 0.690122
O O17 0.587156 0.185384 0.582672
O O18 0.500000 0.722885 0.981989
#
# Coordination Sequence:
#
# PCOD8176335 Si02
#       8
#     8   8   8   8   8   8   8   8
#     4  12  24  40  64  91 122 161 212 255 303 365
#     4   9  19  37  64  96 122 152 201 256 299 354
#     4   9  19  38  64  92 124 159 198 247 305 365
#     4  12  26  41  60  89 127 164 203 257 313 363
#     4  12  24  40  64  91 122 161 212 255 303 365
#     4   9  19  38  64  92 124 159 198 247 305 365
#     4   9  19  37  64  96 122 152 201 256 299 354
#     4  12  26  41  60  89 127 164 203 257 313 363
#
# _framework density 20.28049
#
# number of rings (size 3 to 8) (size 9 to 14) (size 15 to 20)
#    0.000    1.500    2.500    4.500    3.500    2.000 
#    0.000    1.250    0.000    5.250    0.000    0.000 
#    0.000    0.000    0.000    0.000    0.000    0.000 
#
# Total GULP energy -396929.427643 kJ/mol
# GULP energy per Si atom -12404.044614 kJ/mol
# Density = 2.023433 g / cm^3
# Si number density = 20.280490 Si / 1000 Ang^3
#
#
#
# Elastic Constant Matrix: (Units=GPa)
#
#
# Indices 1 2 3 4 5 6 
#
# 1 115.7730 68.7115 38.0638 0.0000 0.0000 0.0000
# 2 68.7115 122.8523 44.7354 0.0000 0.0000 0.0000
# 3 38.0638 44.7354 81.1557 0.0000 0.0000 0.0000
# 4 0.0000 0.0000 0.0000 17.4857 0.0000 0.0000
# 5 0.0000 0.0000 0.0000 0.0000 15.5382 0.0000
# 6 0.0000 0.0000 0.0000 0.0000 0.0000 43.1883
#
#
#
# Elastic Compliance Matrix: (Units=1/GPa)
#
#
# Indices 1 2 3 4 5 6 
#
# 1 0.013383 -0.006505 -0.002691 0.000000 0.000000 0.000000
# 2 -0.006505 0.013346 -0.004306 0.000000 0.000000 0.000000
# 3 -0.002691 -0.004306 0.015958 0.000000 0.000000 0.000000
# 4 0.000000 0.000000 0.000000 0.057189 0.000000 0.000000
# 5 0.000000 0.000000 0.000000 0.000000 0.064357 0.000000
# 6 0.000000 0.000000 0.000000 0.000000 0.000000 0.023154
#
#
# Mechanical properties :
#
#
# Convention : Reuss Voigt Hill
#
# Bulk Modulus (GPa) = 63.76407 69.20027 66.48217
# Shear Modulus (GPa) = 22.76657 26.46048 24.61352
#
# Velocity S-wave (km/s) = 3.35413 3.61602 3.48754
# Velocity P-wave (km/s) = 6.81980 7.18539 7.00498
#
# Compressibility (1/GPa) = 0.01568281
#
# Stress axis : x y z
#
# Youngs Moduli (GPa) = 74.71984 74.92784 62.66620
#
# Poissons Ratio (x) = 0.48743 0.16864
# Poissons Ratio (y) = 0.48608 0.26982
# Poissons Ratio (z) = 0.20108 0.32261
#
# Static dielectric constant tensor:
#      x y z
#    x 3.830610 0.000000 0.000000 
#    y 0.000000 3.753390 0.000000 
#    z 0.000000 0.000000 3.358120 
# 
# 
# High freq. dielectric constant tensor:
#      x y z
#    x 1.802050 0.000000 0.000000 
#    y 0.000000 1.801190 0.000000 
#    z 0.000000 0.000000 1.768020 
# 
# From -- ./inp_files/15043.got.cif
#   From: 2010.03.12/outbox.cif.g09.slc.cpg/sg36_8_cif.got.tgz:15043.got - 2010.04.14 02:13:53.
