data_PCOD8176837
_publ_section_title
;
Structure prediction by ZEFSAII (Michael W. Deem and Ramdas Pophale) SiO2 
 PCOD8176837
Probable space group: C C C 2
;
_chemical_formula_sum "Si O2"
_cell_formula_units_Z 40
_cell_length_a 8.874517
_cell_length_b 21.843719
_cell_length_c 9.561756
_cell_angle_alpha 90.000000
_cell_angle_beta 90.000000
_cell_angle_gamma 90.000000
_cell_volume 1853.569881
_symmetry_space_group_name_H-M "C C C 2"
_symmetry_group_IT_number 37
_symmetry_cell_setting 'orthorhombic'
loop_
_space_group_symop_operation_xyz
x,y,z
-x,-y,z
-x,y,1/2+z
x,-y,1/2+z
1/2+x,1/2+y,z
1/2-x,1/2-y,z
1/2-x,1/2+y,1/2+z
1/2+x,1/2-y,1/2+z
loop_
_atom_site_type_symbol
_atom_site_label
_atom_site_fract_x
_atom_site_fract_y
_atom_site_fract_z
Si Si1 0.652591 0.310247 0.702770
Si Si2 0.756783 0.084741 0.515589
Si Si3 0.000000 0.500000 0.111616
Si Si4 0.244378 0.584556 0.213488
Si Si5 0.650177 0.689859 0.526387
Si Si6 0.000000 0.000000 0.117877
O O1 0.750000 0.250000 0.688620
O O2 0.751918 0.365862 0.640351
O O3 0.502041 0.301790 0.613271
O O4 0.612568 0.324011 0.864247
O O5 0.749754 0.118052 0.364469
O O6 0.916349 0.049824 0.522445
O O7 0.621689 0.035846 0.518472
O O8 0.085403 0.549873 0.205277
O O9 0.255752 0.633154 0.088280
O O10 0.378757 0.534984 0.213177
O O11 0.750000 0.750000 0.542061
#
# Coordination Sequence:
#
# PCOD8176837 Si02
#       6
#     8   8   4   8   8   4
#     4  11  26  46  69  99 132 171 221 275 329 392
#     4  11  23  42  68  97 134 175 218 270 327 391
#     4  10  26  42  62 104 138 174 220 270 326 390
#     4  11  23  42  68  97 134 175 218 270 327 391
#     4  11  26  46  69  99 132 171 221 275 329 392
#     4  10  22  38  66 100 130 166 218 272 322 398
#
# _framework density 21.579979999999999
#
# number of rings (size 3 to 8) (size 9 to 14) (size 15 to 20)
#    0.000    1.200    2.000    2.400    2.800   11.200 
#    0.000    0.000    0.000    0.000    0.000    0.000 
#    0.000    0.000    0.000    0.000    0.000    0.000 
#
# Total GULP energy -248008.104173 kJ/mol
# GULP energy per Si atom -12400.405209 kJ/mol
# Density = 2.153086 g / cm^3
# Si number density = 21.579980 Si / 1000 Ang^3
#
#
#
# Elastic Constant Matrix: (Units=GPa)
#
#
# Indices 1 2 3 4 5 6 
#
# 1 107.1821 32.1388 45.7579 0.0000 0.0000 0.0000
# 2 32.1388 110.2445 60.4069 0.0000 0.0000 0.0000
# 3 45.7579 60.4069 187.6381 0.0000 0.0000 0.0000
# 4 0.0000 0.0000 0.0000 -5.4070 0.0000 0.0000
# 5 0.0000 0.0000 0.0000 0.0000 10.5391 0.0000
# 6 0.0000 0.0000 0.0000 0.0000 0.0000 33.8499
#
#
#
# Elastic Compliance Matrix: (Units=1/GPa)
#
#
# Indices 1 2 3 4 5 6 
#
# 1 0.010789 -0.002069 -0.001965 0.000000 0.000000 0.000000
# 2 -0.002069 0.011410 -0.003169 0.000000 0.000000 0.000000
# 3 -0.001965 -0.003169 0.006829 0.000000 0.000000 0.000000
# 4 0.000000 0.000000 0.000000 -0.184947 0.000000 0.000000
# 5 0.000000 0.000000 0.000000 0.000000 0.094885 0.000000
# 6 0.000000 0.000000 0.000000 0.000000 0.000000 0.029542
#
#
# Mechanical properties :
#
#
# Convention : Reuss Voigt Hill
#
# Bulk Modulus (GPa) = 68.38544 75.74132 72.06338
# Shear Modulus (GPa) = -409.41405 25.58048 -191.91678
#
# Velocity S-wave (km/s) = -13.78881 3.44667 -9.44065
# Velocity P-wave (km/s) = 14.89128 7.14238 9.23950
#
# Compressibility (1/GPa) = 0.01462300
#
# Stress axis : x y z
#
# Youngs Moduli (GPa) = 92.68605 87.64169 146.43879
#
# Poissons Ratio (x) = 0.18129 0.28777
# Poissons Ratio (y) = 0.19172 0.46404
# Poissons Ratio (z) = 0.18214 0.27772
#
# Static dielectric constant tensor:
#      x y z
#    x 4.137240 0.000000 0.000000 
#    y 0.000000 4.013960 0.000000 
#    z 0.000000 0.000000 3.874060 
# 
# 
# High freq. dielectric constant tensor:
#      x y z
#    x 1.857400 0.000000 0.000000 
#    y 0.000000 1.847620 0.000000 
#    z 0.000000 0.000000 1.852090 
# 
# From -- ./inp_files/2225.got.cif
#   From: 2010.03.12/outbox.cif.g09.slc.cpg/sg37_2_cif.got.tgz:2225.got - 2010.04.14 02:25:27.
