data_PCOD8176877
_publ_section_title
;
Structure prediction by ZEFSAII (Michael W. Deem and Ramdas Pophale) SiO2 
 PCOD8176877
Probable space group: C C C 2
;
_chemical_formula_sum "Si O2"
_cell_formula_units_Z 48
_cell_length_a 17.729180
_cell_length_b 8.800415
_cell_length_c 14.650000
_cell_angle_alpha 90.000000
_cell_angle_beta 90.000000
_cell_angle_gamma 90.000000
_cell_volume 2285.753675
_symmetry_space_group_name_H-M "C C C 2"
_symmetry_group_IT_number 37
_symmetry_cell_setting 'orthorhombic'
loop_
_space_group_symop_operation_xyz
x,y,z
-x,-y,z
-x,y,1/2+z
x,-y,1/2+z
1/2+x,1/2+y,z
1/2-x,1/2-y,z
1/2-x,1/2+y,1/2+z
1/2+x,1/2-y,1/2+z
loop_
_atom_site_type_symbol
_atom_site_label
_atom_site_fract_x
_atom_site_fract_y
_atom_site_fract_z
Si Si1 0.333602 0.798398 0.506490
Si Si2 0.822730 0.664453 0.799760
Si Si3 0.431456 0.299166 0.664507
Si Si4 0.078103 0.408935 0.492605
Si Si5 0.825983 0.680899 0.329418
Si Si6 0.899860 0.863358 0.169095
O O1 0.250000 0.750000 0.538210
O O2 0.343677 0.766054 0.398963
O O3 0.389535 0.696604 0.566058
O O4 0.355163 0.975411 0.524077
O O5 0.750000 0.750000 0.759574
O O6 0.894474 0.684639 0.735631
O O7 0.804256 0.487825 0.799642
O O8 0.432339 0.222789 0.565668
O O9 0.515452 0.327688 0.699269
O O10 0.384880 0.456440 0.664965
O O11 0.104408 0.323745 0.400220
O O12 0.000000 0.500000 0.475523
O O13 0.750000 0.750000 0.374857
O O14 0.845180 0.782064 0.240973
#
# Coordination Sequence:
#
# PCOD8176877 Si02
#       6
#     8   8   8   8   8   8
#     4  10  22  42  67  95 130 173 220 274 337 397
#     4  10  23  41  67  96 132 174 224 275 341 403
#     4  11  25  40  64  98 132 178 223 276 336 406
#     4  11  24  44  70 100 131 181 230 278 340 410
#     4  11  25  42  68  98 134 176 225 282 339 404
#     4  11  24  41  64  97 138 173 223 277 340 397
#
# _framework density 20.999637
#
# number of rings (size 3 to 8) (size 9 to 14) (size 15 to 20)
#    0.000    1.333    1.667    2.500    4.667    7.333 
#    0.000    3.333    0.000    0.000    0.000    0.000 
#    0.000    0.000    0.000    0.000    0.000    0.000 
#
# Total GULP energy -297617.958630 kJ/mol
# GULP energy per Si atom -12400.748276 kJ/mol
# Density = 2.095184 g / cm^3
# Si number density = 20.999637 Si / 1000 Ang^3
#
#
#
# Elastic Constant Matrix: (Units=GPa)
#
#
# Indices 1 2 3 4 5 6 
#
# 1 105.2068 52.6220 45.9111 0.0000 0.0000 0.0000
# 2 52.6220 116.9447 45.1737 0.0000 0.0000 0.0000
# 3 45.9111 45.1737 92.6600 0.0000 0.0000 0.0000
# 4 0.0000 0.0000 0.0000 32.2865 0.0000 0.0000
# 5 0.0000 0.0000 0.0000 0.0000 36.5724 0.0000
# 6 0.0000 0.0000 0.0000 0.0000 0.0000 40.5162
#
#
#
# Elastic Compliance Matrix: (Units=1/GPa)
#
#
# Indices 1 2 3 4 5 6 
#
# 1 0.013731 -0.004374 -0.004671 0.000000 0.000000 0.000000
# 2 -0.004374 0.011929 -0.003648 0.000000 0.000000 0.000000
# 3 -0.004671 -0.003648 0.014885 0.000000 0.000000 0.000000
# 4 0.000000 0.000000 0.000000 0.030973 0.000000 0.000000
# 5 0.000000 0.000000 0.000000 0.000000 0.027343 0.000000
# 6 0.000000 0.000000 0.000000 0.000000 0.000000 0.024682
#
#
# Mechanical properties :
#
#
# Convention : Reuss Voigt Hill
#
# Bulk Modulus (GPa) = 65.97115 66.91390 66.44252
# Shear Modulus (GPa) = 32.47135 33.28200 32.87668
#
# Velocity S-wave (km/s) = 3.93654 3.98538 3.96104
# Velocity P-wave (km/s) = 7.22118 7.28774 7.25454
#
# Compressibility (1/GPa) = 0.01515814
#
# Stress axis : x y z
#
# Youngs Moduli (GPa) = 72.82544 83.83214 67.18179
#
# Poissons Ratio (x) = 0.36672 0.31381
# Poissons Ratio (y) = 0.31857 0.24508
# Poissons Ratio (z) = 0.34017 0.30582
#
# Static dielectric constant tensor:
#      x y z
#    x 3.898410 0.000000 0.000000 
#    y 0.000000 3.893200 0.000000 
#    z 0.000000 0.000000 3.688900 
# 
# 
# High freq. dielectric constant tensor:
#      x y z
#    x 1.829710 0.000000 0.000000 
#    y 0.000000 1.829250 0.000000 
#    z 0.000000 0.000000 1.817930 
# 
# From -- ./inp_files/10575.got.cif
#   From: 2010.03.12/outbox.cif.g09.slc.cpg/sg37_6_cif.got.tgz:10575.got - 2010.04.14 02:25:27.
