data_PCOD8176022
_publ_section_title
;
Structure prediction by ZEFSAII (Michael W. Deem and Ramdas Pophale) SiO2 
 PCOD8176022
Probable space group: C M C 21
;
_chemical_formula_sum "Si O2"
_cell_formula_units_Z 48
_cell_length_a 13.963821
_cell_length_b 11.551464
_cell_length_c 14.341169
_cell_angle_alpha 90.000000
_cell_angle_beta 90.000000
_cell_angle_gamma 90.000000
_cell_volume 2313.267497
_symmetry_space_group_name_H-M "C M C 21"
_symmetry_group_IT_number 36
_symmetry_cell_setting 'orthorhombic'
loop_
_space_group_symop_operation_xyz
x,y,z
-x,-y,1/2+z
x,-y,1/2+z
-x,y,z
1/2+x,1/2+y,z
1/2-x,1/2-y,1/2+z
1/2+x,1/2-y,1/2+z
1/2-x,1/2+y,z
loop_
_atom_site_type_symbol
_atom_site_label
_atom_site_fract_x
_atom_site_fract_y
_atom_site_fract_z
Si Si1 0.202059 0.177583 0.383400
Si Si2 0.892595 0.064242 0.872925
Si Si3 0.103899 0.709090 0.464005
Si Si4 0.894511 0.452350 0.131519
Si Si5 0.112558 0.294462 0.558434
Si Si6 0.763610 0.178367 0.721471
O O1 0.313217 0.150825 0.403846
O O2 0.153087 0.267748 0.455320
O O3 0.199570 0.226211 0.277492
O O4 0.150580 0.057562 0.398865
O O5 0.884371 0.150433 0.962414
O O6 0.844308 0.127550 0.786986
O O7 0.000000 0.040869 0.841975
O O8 0.108320 0.663255 0.568648
O O9 0.000000 0.676436 0.419371
O O10 0.876350 0.568100 0.072326
O O11 0.807649 0.429868 0.202005
O O12 0.000000 0.460404 0.179897
O O13 0.181376 0.229011 0.631812
O O14 0.000000 0.257680 0.567632
#
# Coordination Sequence:
#
# PCOD8176022 Si02
#       6
#     8   8   8   8   8   8
#     4  11  23  39  68  95 126 165 215 266 317 374
#     4  10  22  41  61  91 127 162 210 258 317 383
#     4   9  20  38  62  87 117 162 205 250 310 376
#     4  10  22  41  63  91 124 161 212 262 314 378
#     4  11  24  43  65  93 129 168 212 263 322 382
#     4  11  23  40  65  93 127 170 212 263 320 377
#
# _framework density 20.749870000000001
#
# number of rings (size 3 to 8) (size 9 to 14) (size 15 to 20)
#    0.000    1.667    1.667    2.000    4.667    2.000 
#    3.000    0.833    0.000    0.000    0.000    0.000 
#    0.000    0.000    0.000    0.000    0.000    0.000 
#
# Total GULP energy -297408.733988 kJ/mol
# GULP energy per Si atom -12392.030583 kJ/mol
# Density = 2.070264 g / cm^3
# Si number density = 20.749870 Si / 1000 Ang^3
#
#
#
# Elastic Constant Matrix: (Units=GPa)
#
#
# Indices 1 2 3 4 5 6 
#
# 1 139.9693 54.4536 23.4179 0.0000 0.0000 0.0000
# 2 54.4536 105.6245 20.6039 0.0000 0.0000 0.0000
# 3 23.4179 20.6039 57.8249 0.0000 0.0000 0.0000
# 4 0.0000 0.0000 0.0000 30.2659 0.0000 0.0000
# 5 0.0000 0.0000 0.0000 0.0000 20.5494 0.0000
# 6 0.0000 0.0000 0.0000 0.0000 0.0000 37.0194
#
#
#
# Elastic Compliance Matrix: (Units=1/GPa)
#
#
# Indices 1 2 3 4 5 6 
#
# 1 0.009187 -0.004310 -0.002185 0.000000 0.000000 0.000000
# 2 -0.004310 0.012197 -0.002600 0.000000 0.000000 0.000000
# 3 -0.002185 -0.002600 0.019105 0.000000 0.000000 0.000000
# 4 0.000000 0.000000 0.000000 0.033041 0.000000 0.000000
# 5 0.000000 0.000000 0.000000 0.000000 0.048663 0.000000
# 6 0.000000 0.000000 0.000000 0.000000 0.000000 0.027013
#
#
# Mechanical properties :
#
#
# Convention : Reuss Voigt Hill
#
# Bulk Modulus (GPa) = 44.84683 55.59662 50.22173
# Shear Modulus (GPa) = 28.59958 31.22982 29.91470
#
# Velocity S-wave (km/s) = 3.71658 3.88372 3.80107
# Velocity P-wave (km/s) = 6.33066 6.85295 6.59698
#
# Compressibility (1/GPa) = 0.02229812
#
# Stress axis : x y z
#
# Youngs Moduli (GPa) = 108.85331 81.98941 52.34253
#
# Poissons Ratio (x) = 0.35337 0.11435
# Poissons Ratio (y) = 0.46915 0.13611
# Poissons Ratio (z) = 0.23781 0.21321
#
# Static dielectric constant tensor:
#      x y z
#    x 4.280780 0.000000 0.000000 
#    y 0.000000 3.808140 0.000000 
#    z 0.000000 0.000000 3.605920 
# 
# 
# High freq. dielectric constant tensor:
#      x y z
#    x 1.840630 0.000000 0.000000 
#    y 0.000000 1.813030 0.000000 
#    z 0.000000 0.000000 1.787100 
# 
# From -- ./inp_files/12096.got.cif
#   From: 2010.03.12/outbox.cif.g09.slc.cpg/sg36_7_cif.got.tgz:12096.got - 2010.04.14 02:13:53.
