data_PCOD8176879
_publ_section_title
;
Structure prediction by ZEFSAII (Michael W. Deem and Ramdas Pophale) SiO2 
 PCOD8176879
Probable space group: C C C 2
;
_chemical_formula_sum "Si O2"
_cell_formula_units_Z 64
_cell_length_a 9.374527
_cell_length_b 23.766477
_cell_length_c 13.777560
_cell_angle_alpha 90.000000
_cell_angle_beta 90.000000
_cell_angle_gamma 90.000000
_cell_volume 3069.633208
_symmetry_space_group_name_H-M "C C C 2"
_symmetry_group_IT_number 37
_symmetry_cell_setting 'orthorhombic'
loop_
_space_group_symop_operation_xyz
x,y,z
-x,-y,z
-x,y,1/2+z
x,-y,1/2+z
1/2+x,1/2+y,z
1/2-x,1/2-y,z
1/2-x,1/2+y,1/2+z
1/2+x,1/2-y,1/2+z
loop_
_atom_site_type_symbol
_atom_site_label
_atom_site_fract_x
_atom_site_fract_y
_atom_site_fract_z
Si Si1 0.714189 0.688921 0.684760
Si Si2 0.799592 0.847553 0.246355
Si Si3 0.463774 0.339024 0.055061
Si Si4 0.878604 0.039865 0.514579
Si Si5 0.132777 0.461633 0.865775
Si Si6 0.982638 0.220978 0.358866
Si Si7 0.148224 0.024888 0.238388
Si Si8 0.526165 0.154642 0.289594
O O1 0.750000 0.750000 0.642524
O O2 0.619673 0.657614 0.604732
O O3 0.634492 0.692240 0.788998
O O4 0.862690 0.656512 0.699950
O O5 0.848350 0.826951 0.139416
O O6 0.862794 0.803690 0.325614
O O7 0.850729 0.910371 0.273014
O O8 0.629831 0.849842 0.244686
O O9 0.439075 0.397863 0.003723
O O10 0.453418 0.292076 0.971662
O O11 0.731606 0.035473 0.458926
O O12 0.843534 0.021465 0.623143
O O13 0.000000 0.000000 0.468749
O O14 0.220253 0.486792 0.774770
O O15 0.072212 0.398775 0.852763
O O16 0.000000 0.500000 0.889286
O O17 0.969733 0.288263 0.352534
O O18 0.000000 0.000000 0.277905
#
# Coordination Sequence:
#
# PCOD8176879 Si02
#       8
#     8   8   8   8   8   8   8   8
#     4   9  21  41  64  96 129 168 219 270 324 387
#     4  10  22  43  66  99 133 173 222 275 332 399
#     4  10  22  42  69  95 126 175 225 273 320 394
#     4  10  24  42  65 101 126 172 231 272 319 401
#     4  12  25  42  67  97 139 173 212 273 344 393
#     4  10  22  42  68  92 130 173 226 265 319 399
#     4  10  23  43  70  93 128 179 223 270 330 391
#     4  11  23  42  65  97 137 177 207 276 341 395
#
# _framework density 20.849398000000001
#
# number of rings (size 3 to 8) (size 9 to 14) (size 15 to 20)
#    0.000    1.750    1.250    1.500   10.500    1.500 
#    0.000   27.500    0.000    0.000    0.000    0.000 
#    0.000    0.000    0.000    0.000    0.000    0.000 
#
# Total GULP energy -396804.520019 kJ/mol
# GULP energy per Si atom -12400.141251 kJ/mol
# Density = 2.080194 g / cm^3
# Si number density = 20.849398 Si / 1000 Ang^3
#
#
#
# Elastic Constant Matrix: (Units=GPa)
#
#
# Indices 1 2 3 4 5 6 
#
# 1 173.2654 65.9588 50.1707 0.0000 0.0000 0.0000
# 2 65.9588 138.7671 56.4742 0.0000 0.0000 0.0000
# 3 50.1707 56.4742 95.0225 0.0000 0.0000 0.0000
# 4 0.0000 0.0000 0.0000 24.5138 0.0000 0.0000
# 5 0.0000 0.0000 0.0000 0.0000 29.8722 0.0000
# 6 0.0000 0.0000 0.0000 0.0000 0.0000 40.1514
#
#
#
# Elastic Compliance Matrix: (Units=1/GPa)
#
#
# Indices 1 2 3 4 5 6 
#
# 1 0.007443 -0.002557 -0.002410 0.000000 0.000000 0.000000
# 2 -0.002557 0.010384 -0.004821 0.000000 0.000000 0.000000
# 3 -0.002410 -0.004821 0.014662 0.000000 0.000000 0.000000
# 4 0.000000 0.000000 0.000000 0.040793 0.000000 0.000000
# 5 0.000000 0.000000 0.000000 0.000000 0.033476 0.000000
# 6 0.000000 0.000000 0.000000 0.000000 0.000000 0.024906
#
#
# Mechanical properties :
#
#
# Convention : Reuss Voigt Hill
#
# Bulk Modulus (GPa) = 77.44901 83.58474 80.51687
# Shear Modulus (GPa) = 32.14532 34.53758 33.34145
#
# Velocity S-wave (km/s) = 3.93082 4.07446 4.00328
# Velocity P-wave (km/s) = 7.60456 7.89378 7.75052
#
# Compressibility (1/GPa) = 0.01291172
#
# Stress axis : x y z
#
# Youngs Moduli (GPa) = 134.36005 96.30394 68.20460
#
# Poissons Ratio (x) = 0.24623 0.16438
# Poissons Ratio (y) = 0.34354 0.32884
# Poissons Ratio (z) = 0.32382 0.46432
#
# Static dielectric constant tensor:
#      x y z
#    x 3.977860 0.000000 0.000000 
#    y 0.000000 3.815150 0.000000 
#    z 0.000000 0.000000 3.519050 
# 
# 
# High freq. dielectric constant tensor:
#      x y z
#    x 1.828150 0.000000 0.000000 
#    y 0.000000 1.825890 0.000000 
#    z 0.000000 0.000000 1.800640 
# 
# From -- ./inp_files/10984.got.cif
#   From: 2010.03.12/outbox.cif.g09.slc.cpg/sg37_6_cif.got.tgz:10984.got - 2010.04.14 02:25:27.
