data_PCOD8176501
_publ_section_title
;
Structure prediction by ZEFSAII (Michael W. Deem and Ramdas Pophale) SiO2 
 PCOD8176501
Probable space group: C C C 2
;
_chemical_formula_sum "Si O2"
_cell_formula_units_Z 56
_cell_length_a 15.701581
_cell_length_b 21.962951
_cell_length_c 8.642231
_cell_angle_alpha 90.000000
_cell_angle_beta 90.000000
_cell_angle_gamma 90.000000
_cell_volume 2980.299755
_symmetry_space_group_name_H-M "C C C 2"
_symmetry_group_IT_number 37
_symmetry_cell_setting 'orthorhombic'
loop_
_space_group_symop_operation_xyz
x,y,z
-x,-y,z
-x,y,1/2+z
x,-y,1/2+z
1/2+x,1/2+y,z
1/2-x,1/2-y,z
1/2-x,1/2+y,1/2+z
1/2+x,1/2-y,1/2+z
loop_
_atom_site_type_symbol
_atom_site_label
_atom_site_fract_x
_atom_site_fract_y
_atom_site_fract_z
Si Si1 0.291163 0.689703 0.699620
Si Si2 0.470129 0.691605 0.832465
Si Si3 0.610700 0.738800 0.631350
Si Si4 0.012128 0.067653 0.476377
Si Si5 0.267950 0.163585 0.543846
Si Si6 0.184547 0.947511 0.163320
Si Si7 0.827011 0.073645 0.527938
O O1 0.250000 0.750000 0.624625
O O2 0.390623 0.704416 0.721067
O O3 0.276507 0.633738 0.582054
O O4 0.244326 0.675380 0.861782
O O5 0.555971 0.727556 0.785318
O O6 0.480843 0.618176 0.842108
O O7 0.453927 0.717669 0.000687
O O8 0.641572 0.808605 0.601594
O O9 0.693201 0.696344 0.639437
O O10 0.093832 0.070835 0.588237
O O11 0.926448 0.081671 0.573275
O O12 0.000000 0.000000 0.400036
O O13 0.260075 0.092549 0.585827
O O14 0.183161 0.937669 0.346130
O O15 0.209118 0.016910 0.125813
#
# Coordination Sequence:
#
# PCOD8176501 Si02
#       7
#     8   8   8   8   8   8   8
#     4  11  21  40  58  82 117 159 197 244 293 350
#     4  11  20  37  54  83 116 158 198 238 288 341
#     4  10  20  35  57  81 113 157 197 240 288 344
#     4  10  22  33  55  82 122 159 197 231 277 348
#     4  10  19  39  59  78 117 156 197 237 297 342
#     4  11  22  39  55  83 118 155 198 237 295 353
#     4  11  25  35  57  83 116 156 199 240 288 357
#
# _framework density 18.790057000000001
#
# number of rings (size 3 to 8) (size 9 to 14) (size 15 to 20)
#    0.000    1.429    5.714    2.571    4.000    2.857 
#    7.714    0.000    0.000    0.000    0.000    1.000 
#    0.000    0.000    0.000    0.000    0.000    0.000 
#
# Total GULP energy -347083.033127 kJ/mol
# GULP energy per Si atom -12395.822612 kJ/mol
# Density = 1.874729 g / cm^3
# Si number density = 18.790057 Si / 1000 Ang^3
#
#
#
# Elastic Constant Matrix: (Units=GPa)
#
#
# Indices 1 2 3 4 5 6 
#
# 1 61.8494 59.4937 29.1473 0.0000 0.0000 0.0000
# 2 59.4937 163.3351 50.2705 0.0000 0.0000 0.0000
# 3 29.1473 50.2705 65.3388 0.0000 0.0000 0.0000
# 4 0.0000 0.0000 0.0000 33.5543 0.0000 0.0000
# 5 0.0000 0.0000 0.0000 0.0000 19.4581 0.0000
# 6 0.0000 0.0000 0.0000 0.0000 0.0000 36.5895
#
#
#
# Elastic Compliance Matrix: (Units=1/GPa)
#
#
# Indices 1 2 3 4 5 6 
#
# 1 0.026438 -0.007862 -0.005745 0.000000 0.000000 0.000000
# 2 -0.007862 0.010360 -0.004464 0.000000 0.000000 0.000000
# 3 -0.005745 -0.004464 0.021302 0.000000 0.000000 0.000000
# 4 0.000000 0.000000 0.000000 0.029802 0.000000 0.000000
# 5 0.000000 0.000000 0.000000 0.000000 0.051392 0.000000
# 6 0.000000 0.000000 0.000000 0.000000 0.000000 0.027330
#
#
# Mechanical properties :
#
#
# Convention : Reuss Voigt Hill
#
# Bulk Modulus (GPa) = 45.53980 63.14956 54.34468
# Shear Modulus (GPa) = 23.79989 28.02786 25.91387
#
# Velocity S-wave (km/s) = 3.56282 3.86636 3.71769
# Velocity P-wave (km/s) = 6.41979 7.32206 6.88572
#
# Compressibility (1/GPa) = 0.02195881
#
# Stress axis : x y z
#
# Youngs Moduli (GPa) = 37.82432 96.52804 46.94411
#
# Poissons Ratio (x) = 0.75887 0.26971
# Poissons Ratio (y) = 0.29736 0.20954
# Poissons Ratio (z) = 0.21731 0.43086
#
# Static dielectric constant tensor:
#      x y z
#    x 3.323760 0.000000 0.000000 
#    y 0.000000 3.784360 0.000000 
#    z 0.000000 0.000000 3.300550 
# 
# 
# High freq. dielectric constant tensor:
#      x y z
#    x 1.684110 0.000000 0.000000 
#    y 0.000000 1.729830 0.000000 
#    z 0.000000 0.000000 1.731120 
# 
# From -- ./inp_files/3644.got.cif
#   From: 2010.03.12/outbox.cif.g09.slc.cpg/sg37_2_cif.got.tgz:3644.got - 2010.04.14 02:25:27.
