data_PCOD8176137
_publ_section_title
;
Structure prediction by ZEFSAII (Michael W. Deem and Ramdas Pophale) SiO2 
 PCOD8176137
Probable space group: C M C 21
;
_chemical_formula_sum "Si O2"
_cell_formula_units_Z 48
_cell_length_a 22.439809
_cell_length_b 9.952002
_cell_length_c 8.973664
_cell_angle_alpha 90.000000
_cell_angle_beta 90.000000
_cell_angle_gamma 90.000000
_cell_volume 2004.007834
_symmetry_space_group_name_H-M "C M C 21"
_symmetry_group_IT_number 36
_symmetry_cell_setting 'orthorhombic'
loop_
_space_group_symop_operation_xyz
x,y,z
-x,-y,1/2+z
x,-y,1/2+z
-x,y,z
1/2+x,1/2+y,z
1/2-x,1/2-y,1/2+z
1/2+x,1/2-y,1/2+z
1/2-x,1/2+y,z
loop_
_atom_site_type_symbol
_atom_site_label
_atom_site_fract_x
_atom_site_fract_y
_atom_site_fract_z
Si Si1 0.065609 0.512361 0.269840
Si Si2 0.433447 0.737021 0.092570
Si Si3 0.243552 0.319313 0.653666
Si Si4 0.167293 0.811415 0.397068
Si Si5 0.132021 0.373732 0.518003
Si Si6 0.852565 0.890680 0.831745
O O1 0.061714 0.376009 0.177415
O O2 0.111764 0.487001 0.402571
O O3 0.088330 0.630169 0.161022
O O4 0.000000 0.549777 0.333766
O O5 0.500000 0.682625 0.056721
O O6 0.398718 0.627138 0.194944
O O7 0.395661 0.763123 0.938698
O O8 0.197161 0.214992 0.735409
O O9 0.286387 0.261103 0.524942
O O10 0.198042 0.422049 0.571482
O O11 0.283946 0.385413 0.778671
O O12 0.145157 0.965564 0.410055
O O13 0.134364 0.223813 0.453162
#
# Coordination Sequence:
#
# PCOD8176137 Si02
#       6
#     8   8   8   8   8   8
#     4  10  23  45  70 100 138 179 233 290 349 423
#     4   9  22  44  68  98 138 184 232 290 354 414
#     4  11  25  42  65 102 140 184 228 287 356 419
#     4  11  25  44  71 102 145 179 241 289 352 429
#     4  11  24  43  69 102 136 185 228 286 357 411
#     4  10  24  44  69 102 138 183 232 294 352 426
#
# _framework density 23.952000999999999
#
# number of rings (size 3 to 8) (size 9 to 14) (size 15 to 20)
#    0.000    1.667    1.667    0.500    9.333    1.333 
#    0.000    0.833    0.000    0.000    0.000    0.000 
#    0.000    0.000    0.000    0.000    0.000    0.000 
#
# Total GULP energy -297347.453705 kJ/mol
# GULP energy per Si atom -12389.477238 kJ/mol
# Density = 2.389749 g / cm^3
# Si number density = 23.952001 Si / 1000 Ang^3
#
#
#
# Elastic Constant Matrix: (Units=GPa)
#
#
# Indices 1 2 3 4 5 6 
#
# 1 209.7795 37.5830 70.2531 0.0000 0.0000 0.0000
# 2 37.5830 56.6833 26.7384 0.0000 0.0000 0.0000
# 3 70.2531 26.7384 126.1928 0.0000 0.0000 0.0000
# 4 0.0000 0.0000 0.0000 31.4625 0.0000 0.0000
# 5 0.0000 0.0000 0.0000 0.0000 38.6330 0.0000
# 6 0.0000 0.0000 0.0000 0.0000 0.0000 22.7344
#
#
#
# Elastic Compliance Matrix: (Units=1/GPa)
#
#
# Indices 1 2 3 4 5 6 
#
# 1 0.006228 -0.002771 -0.002880 0.000000 0.000000 0.000000
# 2 -0.002771 0.020834 -0.002872 0.000000 0.000000 0.000000
# 3 -0.002880 -0.002872 0.010136 0.000000 0.000000 0.000000
# 4 0.000000 0.000000 0.000000 0.031784 0.000000 0.000000
# 5 0.000000 0.000000 0.000000 0.000000 0.025885 0.000000
# 6 0.000000 0.000000 0.000000 0.000000 0.000000 0.043986
#
#
# Mechanical properties :
#
#
# Convention : Reuss Voigt Hill
#
# Bulk Modulus (GPa) = 49.62159 73.53385 61.57772
# Shear Modulus (GPa) = 30.74747 35.77139 33.25943
#
# Velocity S-wave (km/s) = 3.58678 3.86873 3.73042
# Velocity P-wave (km/s) = 6.15755 7.12202 6.65727
#
# Compressibility (1/GPa) = 0.02015252
#
# Stress axis : x y z
#
# Youngs Moduli (GPa) = 160.57087 47.99927 98.65599
#
# Poissons Ratio (x) = 0.13299 0.28413
# Poissons Ratio (y) = 0.44489 0.28333
# Poissons Ratio (z) = 0.46245 0.13785
#
# Static dielectric constant tensor:
#      x y z
#    x 4.827900 0.000000 0.000000 
#    y 0.000000 3.856000 0.000000 
#    z 0.000000 0.000000 4.615370 
# 
# 
# High freq. dielectric constant tensor:
#      x y z
#    x 1.962910 0.000000 0.000000 
#    y 0.000000 1.915960 0.000000 
#    z 0.000000 0.000000 1.969520 
# 
# From -- ./inp_files/5551.got.cif
#   From: 2010.03.12/outbox.cif.g09.slc.cpg/sg36_3_cif.got.tgz:5551.got - 2010.04.14 02:13:53.
