data_PCOD8176250
_publ_section_title
;
Structure prediction by ZEFSAII (Michael W. Deem and Ramdas Pophale) SiO2 
 PCOD8176250
Probable space group: C M C 21
;
_chemical_formula_sum "Si O2"
_cell_formula_units_Z 28
_cell_length_a 7.698737
_cell_length_b 33.304210
_cell_length_c 5.006685
_cell_angle_alpha 90.000000
_cell_angle_beta 90.000000
_cell_angle_gamma 90.000000
_cell_volume 1283.715805
_symmetry_space_group_name_H-M "C M C 21"
_symmetry_group_IT_number 36
_symmetry_cell_setting 'orthorhombic'
loop_
_space_group_symop_operation_xyz
x,y,z
-x,-y,1/2+z
x,-y,1/2+z
-x,y,z
1/2+x,1/2+y,z
1/2-x,1/2-y,1/2+z
1/2+x,1/2-y,1/2+z
1/2-x,1/2+y,z
loop_
_atom_site_type_symbol
_atom_site_label
_atom_site_fract_x
_atom_site_fract_y
_atom_site_fract_z
Si Si1 0.303923 0.411228 0.636470
Si Si2 0.500000 0.026483 0.199398
Si Si3 0.703484 0.863065 0.140052
Si Si4 0.696235 0.773007 0.169624
O O1 0.500000 0.426062 0.697004
O O2 0.302145 0.392200 0.342739
O O3 0.174758 0.448642 0.650991
O O4 0.244141 0.376904 0.840989
O O5 0.500000 0.011658 0.504018
O O6 0.500000 0.865565 0.202931
O O7 0.774904 0.817837 0.174281
O O8 0.500000 0.775092 0.064380
O O9 0.698258 0.754817 0.466130
#
# Coordination Sequence:
#
# PCOD8176250 Si02
#       4
#     8   4   8   8
#     4  12  25  43  71 102 128 172 227 265 325 400
#     4  12  26  46  72  98 140 172 206 278 342 392
#     4  11  22  43  66  91 133 180 220 274 329 392
#     4  11  24  39  61  91 132 175 220 274 331 383
#
# _framework density 21.811681
#
# number of rings (size 3 to 8) (size 9 to 14) (size 15 to 20)
#    0.000    0.571    2.857    5.143    0.000   12.571 
#    0.000    0.000    0.000    0.000    0.000    0.000 
#    0.000    0.000    0.000    0.000    0.000    0.000 
#
# Total GULP energy -173716.869870 kJ/mol
# GULP energy per Si atom -12408.347848 kJ/mol
# Density = 2.176204 g / cm^3
# Si number density = 21.811681 Si / 1000 Ang^3
#
#
#
# Elastic Constant Matrix: (Units=GPa)
#
#
# Indices 1 2 3 4 5 6 
#
# 1 111.2690 51.4115 9.1320 0.0000 0.0000 0.0000
# 2 51.4115 113.4756 18.3862 0.0000 0.0000 0.0000
# 3 9.1320 18.3862 84.3607 0.0000 0.0000 0.0000
# 4 0.0000 0.0000 0.0000 50.6823 0.0000 0.0000
# 5 0.0000 0.0000 0.0000 0.0000 31.2114 0.0000
# 6 0.0000 0.0000 0.0000 0.0000 0.0000 20.0810
#
#
#
# Elastic Compliance Matrix: (Units=1/GPa)
#
#
# Indices 1 2 3 4 5 6 
#
# 1 0.011368 -0.005132 -0.000112 0.000000 0.000000 0.000000
# 2 -0.005132 0.011452 -0.001940 0.000000 0.000000 0.000000
# 3 -0.000112 -0.001940 0.012289 0.000000 0.000000 0.000000
# 4 0.000000 0.000000 0.000000 0.019731 0.000000 0.000000
# 5 0.000000 0.000000 0.000000 0.000000 0.032040 0.000000
# 6 0.000000 0.000000 0.000000 0.000000 0.000000 0.049798
#
#
# Mechanical properties :
#
#
# Convention : Reuss Voigt Hill
#
# Bulk Modulus (GPa) = 48.21701 51.88497 50.05099
# Shear Modulus (GPa) = 31.65369 35.74000 33.69684
#
# Velocity S-wave (km/s) = 3.81363 4.05232 3.93478
# Velocity P-wave (km/s) = 6.44560 6.76272 6.60606
#
# Compressibility (1/GPa) = 0.02073957
#
# Stress axis : x y z
#
# Youngs Moduli (GPa) = 87.96846 87.32071 81.37432
#
# Poissons Ratio (x) = 0.44814 0.00911
# Poissons Ratio (y) = 0.45147 0.15790
# Poissons Ratio (z) = 0.00985 0.16944
#
# Static dielectric constant tensor:
#      x y z
#    x 3.531100 0.000000 0.000000 
#    y 0.000000 3.894670 0.000000 
#    z 0.000000 0.000000 3.884560 
# 
# 
# High freq. dielectric constant tensor:
#      x y z
#    x 1.863160 0.000000 0.000000 
#    y 0.000000 1.856270 0.000000 
#    z 0.000000 0.000000 1.868750 
# 
# From -- ./inp_files/188.got.cif
#   From: 2010.03.12/outbox.cif.g09.slc.cpg/sg36_1_cif.got.tgz:188.got - 2010.04.14 02:13:53.
