data_PCOD8176184
_publ_section_title
;
Structure prediction by ZEFSAII (Michael W. Deem and Ramdas Pophale) SiO2 
 PCOD8176184
Probable space group: C M C 21
;
_chemical_formula_sum "Si O2"
_cell_formula_units_Z 48
_cell_length_a 15.477955
_cell_length_b 17.447109
_cell_length_c 8.578361
_cell_angle_alpha 90.000000
_cell_angle_beta 90.000000
_cell_angle_gamma 90.000000
_cell_volume 2316.548369
_symmetry_space_group_name_H-M "C M C 21"
_symmetry_group_IT_number 36
_symmetry_cell_setting 'orthorhombic'
loop_
_space_group_symop_operation_xyz
x,y,z
-x,-y,1/2+z
x,-y,1/2+z
-x,y,z
1/2+x,1/2+y,z
1/2-x,1/2-y,1/2+z
1/2+x,1/2-y,1/2+z
1/2-x,1/2+y,z
loop_
_atom_site_type_symbol
_atom_site_label
_atom_site_fract_x
_atom_site_fract_y
_atom_site_fract_z
Si Si1 0.653816 0.534675 0.060210
Si Si2 0.243571 0.142996 0.848596
Si Si3 0.662464 0.013922 0.697020
Si Si4 0.402979 0.893304 0.928901
Si Si5 0.260378 0.296015 0.008682
Si Si6 0.594490 0.395464 0.872117
O O1 0.746565 0.504423 0.116423
O O2 0.600962 0.572720 0.198106
O O3 0.663274 0.595112 0.918065
O O4 0.601034 0.462796 0.997782
O O5 0.321974 0.082764 0.821986
O O6 0.268771 0.205408 0.979533
O O7 0.217505 0.185693 0.688255
O O8 0.596452 0.045001 0.568312
O O9 0.623601 0.937698 0.771996
O O10 0.500000 0.859584 0.911217
O O11 0.335650 0.825055 0.963359
O O12 0.330768 0.333846 0.896150
O O13 0.500000 0.357075 0.890824
#
# Coordination Sequence:
#
# PCOD8176184 Si02
#       6
#     8   8   8   8   8   8
#     4  12  19  41  65  92 123 165 220 261 317 368
#     4  11  22  39  70  89 125 175 203 260 322 375
#     4  11  19  39  65  91 121 162 212 258 304 363
#     4  11  22  38  63  93 125 162 206 257 310 368
#     4  11  23  42  61  93 131 168 209 254 320 389
#     4  12  23  39  64  94 129 168 214 266 317 377
#
# _framework density 20.720480999999999
#
# number of rings (size 3 to 8) (size 9 to 14) (size 15 to 20)
#    0.000    0.667    8.333    2.000    0.000    0.000 
#    0.000   10.833    0.000    0.000    0.000    0.000 
#    0.000    0.000    0.000    0.000    0.000    0.000 
#
# Total GULP energy -297602.114663 kJ/mol
# GULP energy per Si atom -12400.088111 kJ/mol
# Density = 2.067332 g / cm^3
# Si number density = 20.720481 Si / 1000 Ang^3
#
#
#
# Elastic Constant Matrix: (Units=GPa)
#
#
# Indices 1 2 3 4 5 6 
#
# 1 129.9692 19.0142 21.2098 0.0000 0.0000 0.0000
# 2 19.0142 72.2379 7.6171 0.0000 0.0000 0.0000
# 3 21.2098 7.6171 67.6997 0.0000 0.0000 0.0000
# 4 0.0000 0.0000 0.0000 45.2202 0.0000 0.0000
# 5 0.0000 0.0000 0.0000 0.0000 20.0310 0.0000
# 6 0.0000 0.0000 0.0000 0.0000 0.0000 8.8195
#
#
#
# Elastic Compliance Matrix: (Units=1/GPa)
#
#
# Indices 1 2 3 4 5 6 
#
# 1 0.008372 -0.001950 -0.002403 0.000000 0.000000 0.000000
# 2 -0.001950 0.014464 -0.001016 0.000000 0.000000 0.000000
# 3 -0.002403 -0.001016 0.015638 0.000000 0.000000 0.000000
# 4 0.000000 0.000000 0.000000 0.022114 0.000000 0.000000
# 5 0.000000 0.000000 0.000000 0.000000 0.049922 0.000000
# 6 0.000000 0.000000 0.000000 0.000000 0.000000 0.113385
#
#
# Mechanical properties :
#
#
# Convention : Reuss Voigt Hill
#
# Bulk Modulus (GPa) = 36.05689 40.62099 38.33894
# Shear Modulus (GPa) = 20.50192 29.61853 25.06022
#
# Velocity S-wave (km/s) = 3.14897 3.78489 3.48148
# Velocity P-wave (km/s) = 5.53721 6.22473 5.89101
#
# Compressibility (1/GPa) = 0.02773395
#
# Stress axis : x y z
#
# Youngs Moduli (GPa) = 119.45096 69.13898 63.94504
#
# Poissons Ratio (x) = 0.13483 0.15368
# Poissons Ratio (y) = 0.23295 0.06499
# Poissons Ratio (z) = 0.28708 0.07027
#
# Static dielectric constant tensor:
#      x y z
#    x 3.547030 0.000000 0.000000 
#    y 0.000000 3.811970 0.000000 
#    z 0.000000 0.000000 3.990720 
# 
# 
# High freq. dielectric constant tensor:
#      x y z
#    x 1.785170 0.000000 0.000000 
#    y 0.000000 1.801690 0.000000 
#    z 0.000000 0.000000 1.827920 
# 
# From -- ./inp_files/3994.got.cif
#   From: 2010.03.12/outbox.cif.g09.slc.cpg/sg36_2_cif.got.tgz:3994.got - 2010.04.14 02:13:53.
