data_PCOD8176826
_publ_section_title
;
Structure prediction by ZEFSAII (Michael W. Deem and Ramdas Pophale) SiO2 
 PCOD8176826
Probable space group: C C C 2
;
_chemical_formula_sum "Si O2"
_cell_formula_units_Z 48
_cell_length_a 14.747500
_cell_length_b 10.457848
_cell_length_c 15.435936
_cell_angle_alpha 90.000000
_cell_angle_beta 90.000000
_cell_angle_gamma 90.000000
_cell_volume 2380.639852
_symmetry_space_group_name_H-M "C C C 2"
_symmetry_group_IT_number 37
_symmetry_cell_setting 'orthorhombic'
loop_
_space_group_symop_operation_xyz
x,y,z
-x,-y,z
-x,y,1/2+z
x,-y,1/2+z
1/2+x,1/2+y,z
1/2-x,1/2-y,z
1/2-x,1/2+y,1/2+z
1/2+x,1/2-y,1/2+z
loop_
_atom_site_type_symbol
_atom_site_label
_atom_site_fract_x
_atom_site_fract_y
_atom_site_fract_z
Si Si1 0.250000 0.750000 0.970701
Si Si2 0.594086 0.927378 0.056994
Si Si3 0.726793 0.447944 0.115530
Si Si4 0.351029 0.295356 0.157975
Si Si5 0.750000 0.250000 0.259983
Si Si6 0.101338 0.668125 0.834039
Si Si7 0.101508 0.613808 0.360937
O O1 0.166700 0.699742 0.913937
O O2 0.291651 0.637045 0.030243
O O3 0.581227 0.784842 0.096344
O O4 0.500000 0.000000 0.066595
O O5 0.670667 0.999422 0.112398
O O6 0.627977 0.920372 0.958877
O O7 0.648864 0.556284 0.128503
O O8 0.717171 0.366651 0.202153
O O9 0.250000 0.250000 0.140679
O O10 0.377803 0.268590 0.257673
O O11 0.832821 0.281546 0.322447
O O12 0.112619 0.518681 0.806175
O O13 0.997213 0.678930 0.862743
#
# Coordination Sequence:
#
# PCOD8176826 Si02
#       7
#     4   8   8   8   4   8   8
#     4  11  20  40  73  90 138 168 219 268 330 395
#     4  11  21  39  67  98 125 162 227 276 320 390
#     4  10  23  42  62  96 129 178 209 262 342 390
#     4  10  22  37  64  95 129 166 209 266 329 387
#     4  11  26  40  67  92 136 174 217 270 330 397
#     4  11  22  41  68  98 122 171 220 273 320 383
#     4  11  23  41  66  96 125 167 224 270 322 387
#
# _framework density 20.162645999999999
#
# number of rings (size 3 to 8) (size 9 to 14) (size 15 to 20)
#    0.000    1.333    4.167    2.000    8.167    0.000 
#    0.000    0.833    0.000    0.000    0.000    0.000 
#    0.000    0.000    0.000    0.000    0.000    0.000 
#
# Total GULP energy -297534.039410 kJ/mol
# GULP energy per Si atom -12397.251642 kJ/mol
# Density = 2.011676 g / cm^3
# Si number density = 20.162646 Si / 1000 Ang^3
#
#
#
# Elastic Constant Matrix: (Units=GPa)
#
#
# Indices 1 2 3 4 5 6 
#
# 1 108.1626 64.0690 61.1137 0.0000 0.0000 0.0000
# 2 64.0690 141.8264 69.7660 0.0000 0.0000 0.0000
# 3 61.1137 69.7660 101.2702 0.0000 0.0000 0.0000
# 4 0.0000 0.0000 0.0000 37.6576 0.0000 0.0000
# 5 0.0000 0.0000 0.0000 0.0000 25.8869 0.0000
# 6 0.0000 0.0000 0.0000 0.0000 0.0000 38.6324
#
#
#
# Elastic Compliance Matrix: (Units=1/GPa)
#
#
# Indices 1 2 3 4 5 6 
#
# 1 0.015120 -0.003542 -0.006684 0.000000 0.000000 0.000000
# 2 -0.003542 0.011495 -0.005781 0.000000 0.000000 0.000000
# 3 -0.006684 -0.005781 0.017891 0.000000 0.000000 0.000000
# 4 0.000000 0.000000 0.000000 0.026555 0.000000 0.000000
# 5 0.000000 0.000000 0.000000 0.000000 0.038630 0.000000
# 6 0.000000 0.000000 0.000000 0.000000 0.000000 0.025885
#
#
# Mechanical properties :
#
#
# Convention : Reuss Voigt Hill
#
# Bulk Modulus (GPa) = 80.06069 82.35071 81.20570
# Shear Modulus (GPa) = 29.11111 30.85609 29.98360
#
# Velocity S-wave (km/s) = 3.80388 3.91622 3.86046
# Velocity P-wave (km/s) = 7.68676 7.83460 7.76103
#
# Compressibility (1/GPa) = 0.01249052
#
# Stress axis : x y z
#
# Youngs Moduli (GPa) = 66.13573 86.99426 55.89360
#
# Poissons Ratio (x) = 0.30817 0.37361
# Poissons Ratio (y) = 0.23428 0.32314
# Poissons Ratio (z) = 0.44207 0.50294
#
# Static dielectric constant tensor:
#      x y z
#    x 3.517180 0.000000 0.000000 
#    y 0.000000 4.210850 0.000000 
#    z 0.000000 0.000000 3.716830 
# 
# 
# High freq. dielectric constant tensor:
#      x y z
#    x 1.770700 0.000000 0.000000 
#    y 0.000000 1.788790 0.000000 
#    z 0.000000 0.000000 1.798500 
# 
# From -- ./inp_files/12111.got.cif
#   From: 2010.03.12/outbox.cif.g09.slc.cpg/sg37_7_cif.got.tgz:12111.got - 2010.04.14 02:25:27.
