data_PCOD8176901
_publ_section_title
;
Structure prediction by ZEFSAII (Michael W. Deem and Ramdas Pophale) SiO2 
 PCOD8176901
Probable space group: C C C 2
;
_chemical_formula_sum "Si O2"
_cell_formula_units_Z 36
_cell_length_a 7.177606
_cell_length_b 16.883346
_cell_length_c 14.584410
_cell_angle_alpha 90.000000
_cell_angle_beta 90.000000
_cell_angle_gamma 90.000000
_cell_volume 1767.368054
_symmetry_space_group_name_H-M "C C C 2"
_symmetry_group_IT_number 37
_symmetry_cell_setting 'orthorhombic'
loop_
_space_group_symop_operation_xyz
x,y,z
-x,-y,z
-x,y,1/2+z
x,-y,1/2+z
1/2+x,1/2+y,z
1/2-x,1/2-y,z
1/2-x,1/2+y,1/2+z
1/2+x,1/2-y,1/2+z
loop_
_atom_site_type_symbol
_atom_site_label
_atom_site_fract_x
_atom_site_fract_y
_atom_site_fract_z
Si Si1 0.830761 0.406458 0.634360
Si Si2 0.405023 0.310026 0.829396
Si Si3 0.464516 0.413938 0.997390
Si Si4 0.250000 0.250000 0.235435
Si Si5 0.759399 0.079792 0.165822
O O1 0.751199 0.409885 0.530755
O O2 0.739457 0.329826 0.677987
O O3 0.749569 0.485077 0.686609
O O4 0.052203 0.397143 0.632990
O O5 0.250000 0.250000 0.865040
O O6 0.562385 0.250947 0.793267
O O7 0.321411 0.372436 0.755894
O O8 0.497079 0.353070 0.915955
O O9 0.500000 0.500000 0.955054
O O10 0.601628 0.397756 0.083383
#
# Coordination Sequence:
#
# PCOD8176901 Si02
#       5
#     8   8   8   4   8
#     4  10  22  43  69  94 126 171 215 268 324 385
#     4  12  26  42  63 100 133 172 217 268 328 386
#     4  10  24  42  68  96 129 173 218 265 320 389
#     4  12  24  40  64  96 126 172 212 268 330 372
#     4  10  22  46  68  92 130 174 217 266 325 385
#
# _framework density 20.36927
#
# number of rings (size 3 to 8) (size 9 to 14) (size 15 to 20)
#    0.000    1.333    4.444    0.000    4.667    1.778 
#    2.000    2.222    0.000    0.000    0.000    0.000 
#    0.000    0.000    0.000    0.000    0.000    0.000 
#
# Total GULP energy -223115.049678 kJ/mol
# GULP energy per Si atom -12395.280538 kJ/mol
# Density = 2.032291 g / cm^3
# Si number density = 20.369270 Si / 1000 Ang^3
#
#
#
# Elastic Constant Matrix: (Units=GPa)
#
#
# Indices 1 2 3 4 5 6 
#
# 1 114.8978 39.0957 35.3216 0.0000 0.0000 0.0000
# 2 39.0957 117.0027 53.2882 0.0000 0.0000 0.0000
# 3 35.3216 53.2882 87.3387 0.0000 0.0000 0.0000
# 4 0.0000 0.0000 0.0000 17.9997 0.0000 0.0000
# 5 0.0000 0.0000 0.0000 0.0000 -9.5581 0.0000
# 6 0.0000 0.0000 0.0000 0.0000 0.0000 33.1624
#
#
#
# Elastic Compliance Matrix: (Units=1/GPa)
#
#
# Indices 1 2 3 4 5 6 
#
# 1 0.010312 -0.002141 -0.002864 0.000000 0.000000 0.000000
# 2 -0.002141 0.012280 -0.006627 0.000000 0.000000 0.000000
# 3 -0.002864 -0.006627 0.016651 0.000000 0.000000 0.000000
# 4 0.000000 0.000000 0.000000 0.055557 0.000000 0.000000
# 5 0.000000 0.000000 0.000000 0.000000 -0.104624 0.000000
# 6 0.000000 0.000000 0.000000 0.000000 0.000000 0.030155
#
#
# Mechanical properties :
#
#
# Convention : Reuss Voigt Hill
#
# Bulk Modulus (GPa) = 62.57911 63.85003 63.21457
# Shear Modulus (GPa) = 102.20259 21.08971 61.64615
#
# Velocity S-wave (km/s) = 7.09111 3.22121 5.50727
# Velocity P-wave (km/s) = 9.89111 6.72675 8.45823
#
# Compressibility (1/GPa) = 0.01597977
#
# Stress axis : x y z
#
# Youngs Moduli (GPa) = 96.96970 81.43036 60.05613
#
# Poissons Ratio (x) = 0.17438 0.17200
# Poissons Ratio (y) = 0.20766 0.39797
# Poissons Ratio (z) = 0.27772 0.53961
#
# Static dielectric constant tensor:
#      x y z
#    x 4.017090 0.000000 0.000000 
#    y 0.000000 3.860830 0.000000 
#    z 0.000000 0.000000 3.405220 
# 
# 
# High freq. dielectric constant tensor:
#      x y z
#    x 1.816420 0.000000 0.000000 
#    y 0.000000 1.811220 0.000000 
#    z 0.000000 0.000000 1.769210 
# 
# From -- ./inp_files/10283.got.cif
#   From: 2010.03.12/outbox.cif.g09.slc.cpg/sg37_6_cif.got.tgz:10283.got - 2010.04.14 02:25:27.
