data_PCOD8176801
_publ_section_title
;
Structure prediction by ZEFSAII (Michael W. Deem and Ramdas Pophale) SiO2 
 PCOD8176801
Probable space group: C C C 2
;
_chemical_formula_sum "Si O2"
_cell_formula_units_Z 64
_cell_length_a 18.157167
_cell_length_b 17.850529
_cell_length_c 8.769112
_cell_angle_alpha 90.000000
_cell_angle_beta 90.000000
_cell_angle_gamma 90.000000
_cell_volume 2842.201052
_symmetry_space_group_name_H-M "C C C 2"
_symmetry_group_IT_number 37
_symmetry_cell_setting 'orthorhombic'
loop_
_space_group_symop_operation_xyz
x,y,z
-x,-y,z
-x,y,1/2+z
x,-y,1/2+z
1/2+x,1/2+y,z
1/2-x,1/2-y,z
1/2-x,1/2+y,1/2+z
1/2+x,1/2-y,1/2+z
loop_
_atom_site_type_symbol
_atom_site_label
_atom_site_fract_x
_atom_site_fract_y
_atom_site_fract_z
Si Si1 0.853858 0.889027 0.548770
Si Si2 0.929902 0.421276 0.572787
Si Si3 0.777879 0.672698 0.396067
Si Si4 0.879244 0.833260 0.857917
Si Si5 0.852934 0.275841 0.611494
Si Si6 0.545246 0.668206 0.302444
Si Si7 0.926357 0.039060 0.564012
Si Si8 0.086811 0.428329 0.430220
O O1 0.787025 0.887101 0.426393
O O2 0.834345 0.841216 0.700600
O O3 0.925265 0.850691 0.471359
O O4 0.868618 0.973569 0.604891
O O5 0.889058 0.345741 0.526339
O O6 0.887768 0.489778 0.489135
O O7 0.013603 0.409374 0.522242
O O8 0.929153 0.435014 0.752516
O O9 0.750000 0.750000 0.477287
O O10 0.785370 0.691376 0.214031
O O11 0.852919 0.636848 0.462856
O O12 0.961839 0.802846 0.822730
O O13 0.832571 0.780761 0.974141
O O14 0.889027 0.915042 0.929115
O O15 0.908769 0.236056 0.729421
O O16 0.553482 0.591733 0.206545
O O17 0.000000 0.000000 0.500619
#
# Coordination Sequence:
#
# PCOD8176801 Si02
#       8
#     8   8   8   8   8   8   8   8
#     4  12  23  40  69  98 143 197 239 281 359 438
#     4  10  21  43  73 104 131 170 230 308 355 402
#     4  11  25  48  68  94 145 200 225 286 370 448
#     4  11  23  39  68 113 132 187 244 299 351 421
#     4  10  24  43  68  97 142 187 231 300 353 435
#     4  11  21  39  68 103 145 183 239 293 363 423
#     4  11  21  39  65 103 154 189 228 295 349 435
#     4  10  22  44  74 102 133 173 231 299 365 416
#
# _framework density 22.517758000000001
#
# number of rings (size 3 to 8) (size 9 to 14) (size 15 to 20)
#    0.000    1.250    3.750    3.000    3.500    1.000 
#   11.250    0.625    2.750    0.000    0.000    0.000 
#    0.000    0.000    0.000    0.000    0.000    0.000 
#
# Total GULP energy -396624.472350 kJ/mol
# GULP energy per Si atom -12394.514761 kJ/mol
# Density = 2.246651 g / cm^3
# Si number density = 22.517758 Si / 1000 Ang^3
#
#
#
# Elastic Constant Matrix: (Units=GPa)
#
#
# Indices 1 2 3 4 5 6 
#
# 1 81.2483 42.7379 39.4082 0.0000 0.0000 0.0000
# 2 42.7379 135.3053 50.9652 0.0000 0.0000 0.0000
# 3 39.4082 50.9652 126.6463 0.0000 0.0000 0.0000
# 4 0.0000 0.0000 0.0000 30.9937 0.0000 0.0000
# 5 0.0000 0.0000 0.0000 0.0000 29.8795 0.0000
# 6 0.0000 0.0000 0.0000 0.0000 0.0000 41.8173
#
#
#
# Elastic Compliance Matrix: (Units=1/GPa)
#
#
# Indices 1 2 3 4 5 6 
#
# 1 0.015951 -0.003735 -0.003460 0.000000 0.000000 0.000000
# 2 -0.003735 0.009586 -0.002695 0.000000 0.000000 0.000000
# 3 -0.003460 -0.002695 0.010057 0.000000 0.000000 0.000000
# 4 0.000000 0.000000 0.000000 0.032265 0.000000 0.000000
# 5 0.000000 0.000000 0.000000 0.000000 0.033468 0.000000
# 6 0.000000 0.000000 0.000000 0.000000 0.000000 0.023914
#
#
# Mechanical properties :
#
#
# Convention : Reuss Voigt Hill
#
# Bulk Modulus (GPa) = 63.23977 67.71361 65.47669
# Shear Modulus (GPa) = 33.26855 34.54402 33.90628
#
# Velocity S-wave (km/s) = 3.84791 3.92098 3.88462
# Velocity P-wave (km/s) = 6.92006 7.11585 7.01864
#
# Compressibility (1/GPa) = 0.01581283
#
# Stress axis : x y z
#
# Youngs Moduli (GPa) = 62.69202 104.32277 99.42911
#
# Poissons Ratio (x) = 0.38963 0.34407
# Poissons Ratio (y) = 0.23415 0.26799
# Poissons Ratio (z) = 0.21694 0.28118
#
# Static dielectric constant tensor:
#      x y z
#    x 3.926440 0.000000 0.000000 
#    y 0.000000 4.373970 0.000000 
#    z 0.000000 0.000000 4.056070 
# 
# 
# High freq. dielectric constant tensor:
#      x y z
#    x 1.862610 0.000000 0.000000 
#    y 0.000000 1.896880 0.000000 
#    z 0.000000 0.000000 1.889220 
# 
# From -- ./inp_files/4455.got.cif
#   From: 2010.03.12/outbox.cif.g09.slc.cpg/sg37_3_cif.got.tgz:4455.got - 2010.04.14 02:25:27.
