data_PCOD8176328
_publ_section_title
;
Structure prediction by ZEFSAII (Michael W. Deem and Ramdas Pophale) SiO2 
 PCOD8176328
Probable space group: C M C 21
;
_chemical_formula_sum "Si O2"
_cell_formula_units_Z 48
_cell_length_a 18.494572
_cell_length_b 14.050942
_cell_length_c 8.554020
_cell_angle_alpha 90.000000
_cell_angle_beta 90.000000
_cell_angle_gamma 90.000000
_cell_volume 2222.900317
_symmetry_space_group_name_H-M "C M C 21"
_symmetry_group_IT_number 36
_symmetry_cell_setting 'orthorhombic'
loop_
_space_group_symop_operation_xyz
x,y,z
-x,-y,1/2+z
x,-y,1/2+z
-x,y,z
1/2+x,1/2+y,z
1/2-x,1/2-y,1/2+z
1/2+x,1/2-y,1/2+z
1/2-x,1/2+y,z
loop_
_atom_site_type_symbol
_atom_site_label
_atom_site_fract_x
_atom_site_fract_y
_atom_site_fract_z
Si Si1 0.580580 0.240038 0.417090
Si Si2 0.159638 0.739152 0.745945
Si Si3 0.280959 0.063581 0.900469
Si Si4 0.199421 0.368735 0.745075
Si Si5 0.376871 0.425812 0.284199
Si Si6 0.917108 0.112052 0.445789
O O1 0.500000 0.196805 0.440339
O O2 0.624942 0.239900 0.576448
O O3 0.623672 0.182244 0.283582
O O4 0.569772 0.347790 0.357190
O O5 0.168113 0.628977 0.792459
O O6 0.236474 0.792309 0.751045
O O7 0.107281 0.788411 0.871990
O O8 0.199152 0.092959 0.866818
O O9 0.289649 0.951545 0.871833
O O10 0.303067 0.081894 0.077929
O O11 0.407001 0.531112 0.314798
O O12 0.369304 0.414102 0.097223
O O13 0.000000 0.120309 0.497751
#
# Coordination Sequence:
#
# PCOD8176328 Si02
#       6
#     8   8   8   8   8   8
#     4  12  26  46  70 104 143 183 229 291 356 417
#     4  12  24  43  72  99 139 182 235 285 344 419
#     4  12  25  43  71 103 130 178 241 290 336 413
#     4  12  24  45  70 102 136 183 234 288 346 414
#     4  12  23  41  66  97 140 179 227 295 346 418
#     4  12  25  40  63 101 143 183 226 283 359 427
#
# _framework density 21.593411
#
# number of rings (size 3 to 8) (size 9 to 14) (size 15 to 20)
#    0.000    0.000    5.000    6.000    2.333    0.000 
#    0.000    5.000    0.000    0.000    0.000    0.000 
#    0.000    0.000    0.000    0.000    0.000    0.000 
#
# Total GULP energy -297739.877734 kJ/mol
# GULP energy per Si atom -12405.828239 kJ/mol
# Density = 2.154426 g / cm^3
# Si number density = 21.593411 Si / 1000 Ang^3
#
#
#
# Elastic Constant Matrix: (Units=GPa)
#
#
# Indices 1 2 3 4 5 6 
#
# 1 125.6659 45.2715 40.8352 0.0000 0.0000 0.0000
# 2 45.2715 59.9732 12.9979 0.0000 0.0000 0.0000
# 3 40.8352 12.9979 99.2390 0.0000 0.0000 0.0000
# 4 0.0000 0.0000 0.0000 41.4699 0.0000 0.0000
# 5 0.0000 0.0000 0.0000 0.0000 20.2438 0.0000
# 6 0.0000 0.0000 0.0000 0.0000 0.0000 23.7272
#
#
#
# Elastic Compliance Matrix: (Units=1/GPa)
#
#
# Indices 1 2 3 4 5 6 
#
# 1 0.012268 -0.008405 -0.003947 0.000000 0.000000 0.000000
# 2 -0.008405 0.022920 0.000457 0.000000 0.000000 0.000000
# 3 -0.003947 0.000457 0.011641 0.000000 0.000000 0.000000
# 4 0.000000 0.000000 0.000000 0.024114 0.000000 0.000000
# 5 0.000000 0.000000 0.000000 0.000000 0.049398 0.000000
# 6 0.000000 0.000000 0.000000 0.000000 0.000000 0.042146
#
#
# Mechanical properties :
#
#
# Convention : Reuss Voigt Hill
#
# Bulk Modulus (GPa) = 43.40751 53.67638 48.54195
# Shear Modulus (GPa) = 25.77876 29.47309 27.62592
#
# Velocity S-wave (km/s) = 3.45893 3.69848 3.58071
# Velocity P-wave (km/s) = 6.00817 6.56887 6.29476
#
# Compressibility (1/GPa) = 0.02303749
#
# Stress axis : x y z
#
# Youngs Moduli (GPa) = 81.51034 43.62988 85.90239
#
# Poissons Ratio (x) = 0.36673 0.33908
# Poissons Ratio (y) = 0.68513 -0.03923
# Poissons Ratio (z) = 0.32175 -0.01993
#
# Static dielectric constant tensor:
#      x y z
#    x 3.860600 0.000000 0.000000 
#    y 0.000000 4.057740 0.000000 
#    z 0.000000 0.000000 3.927230 
# 
# 
# High freq. dielectric constant tensor:
#      x y z
#    x 1.839270 0.000000 0.000000 
#    y 0.000000 1.851460 0.000000 
#    z 0.000000 0.000000 1.863200 
# 
# From -- ./inp_files/4660.got.cif
#   From: 2010.03.12/outbox.cif.g09.slc.cpg/sg36_3_cif.got.tgz:4660.got - 2010.04.14 02:13:53.
