data_PCOD8176437
_publ_section_title
;
Structure prediction by ZEFSAII (Michael W. Deem and Ramdas Pophale) SiO2 
 PCOD8176437
Probable space group: C C C 2
;
_chemical_formula_sum "Si O2"
_cell_formula_units_Z 56
_cell_length_a 27.890353
_cell_length_b 17.713636
_cell_length_c 5.322606
_cell_angle_alpha 90.000000
_cell_angle_beta 90.000000
_cell_angle_gamma 90.000000
_cell_volume 2629.577931
_symmetry_space_group_name_H-M "C C C 2"
_symmetry_group_IT_number 37
_symmetry_cell_setting 'orthorhombic'
loop_
_space_group_symop_operation_xyz
x,y,z
-x,-y,z
-x,y,1/2+z
x,-y,1/2+z
1/2+x,1/2+y,z
1/2-x,1/2-y,z
1/2-x,1/2+y,1/2+z
1/2+x,1/2-y,1/2+z
loop_
_atom_site_type_symbol
_atom_site_label
_atom_site_fract_x
_atom_site_fract_y
_atom_site_fract_z
Si Si1 0.939928 0.045583 0.627580
Si Si2 0.209554 0.313969 0.629476
Si Si3 0.015374 0.352828 0.628198
Si Si4 0.246253 0.339936 0.129483
Si Si5 0.827733 0.954643 0.127239
Si Si6 0.602291 0.760361 0.628255
Si Si7 0.443955 0.289850 0.128273
O O1 0.883624 0.064275 0.627669
O O2 0.967082 0.126383 0.627910
O O3 0.955016 0.000076 0.377434
O O4 0.250000 0.250000 0.631262
O O5 0.216825 0.365064 0.379495
O O6 0.158085 0.275761 0.627860
O O7 0.216438 0.364782 0.880427
O O8 0.986626 0.271888 0.628293
O O9 0.999991 0.398748 0.378216
O O10 0.072165 0.338920 0.628135
O O11 0.250000 0.250000 0.131247
O O12 0.298872 0.376235 0.128169
O O13 0.813222 0.000336 0.376565
O O14 0.589126 0.715399 0.376013
O O15 0.589193 0.715523 0.880815
#
# Coordination Sequence:
#
# PCOD8176437 Si02
#       7
#     8   8   8   8   8   8   8
#     4  10  21  33  47  70  92 125 175 225 262 301
#     4  10  21  30  46  75 102 129 158 208 268 311
#     4   8  16  30  46  67  86 118 167 200 239 322
#     4  10  21  35  50  75 108 127 175 226 261 302
#     4  10  21  36  53  71 101 146 183 214 262 319
#     4  10  19  31  49  70  94 127 160 202 261 323
#     4  10  19  31  53  66  93 124 174 211 260 308
#
# _framework density 21.296195999999998
#
# number of rings (size 3 to 8) (size 9 to 14) (size 15 to 20)
#    0.000    2.286    0.000    2.571    8.000    0.000 
#    0.000    0.000    0.000   23.143    0.000    0.000 
#    0.000    0.000    0.000    0.000    0.000  450.000 
#
# Total GULP energy -346980.238923 kJ/mol
# GULP energy per Si atom -12392.151390 kJ/mol
# Density = 2.124772 g / cm^3
# Si number density = 21.296196 Si / 1000 Ang^3
#
#
#
# Elastic Constant Matrix: (Units=GPa)
#
#
# Indices 1 2 3 4 5 6 
#
# 1 113.3822 11.0046 20.6998 0.0000 0.0000 0.0000
# 2 11.0046 25.2034 -0.4144 0.0000 0.0000 0.0000
# 3 20.6998 -0.4144 217.4696 0.0000 0.0000 0.0000
# 4 0.0000 0.0000 0.0000 17.5261 0.0000 0.0000
# 5 0.0000 0.0000 0.0000 0.0000 33.3228 0.0000
# 6 0.0000 0.0000 0.0000 0.0000 0.0000 20.3486
#
#
#
# Elastic Compliance Matrix: (Units=1/GPa)
#
#
# Indices 1 2 3 4 5 6 
#
# 1 0.009383 -0.004112 -0.000901 0.000000 0.000000 0.000000
# 2 -0.004112 0.041480 0.000470 0.000000 0.000000 0.000000
# 3 -0.000901 0.000470 0.004685 0.000000 0.000000 0.000000
# 4 0.000000 0.000000 0.000000 0.057058 0.000000 0.000000
# 5 0.000000 0.000000 0.000000 0.000000 0.030009 0.000000
# 6 0.000000 0.000000 0.000000 0.000000 0.000000 0.049143
#
#
# Mechanical properties :
#
#
# Convention : Reuss Voigt Hill
#
# Bulk Modulus (GPa) = 21.52218 46.51503 34.01860
# Shear Modulus (GPa) = 23.11263 35.89053 29.50158
#
# Velocity S-wave (km/s) = 3.29795 4.10970 3.72600
# Velocity P-wave (km/s) = 4.96287 6.66400 5.87533
#
# Compressibility (1/GPa) = 0.04646369
#
# Stress axis : x y z
#
# Youngs Moduli (GPa) = 106.57229 24.10788 213.44722
#
# Poissons Ratio (x) = 0.09913 0.19231
# Poissons Ratio (y) = 0.43821 -0.10041
# Poissons Ratio (z) = 0.09602 -0.01134
#
# Static dielectric constant tensor:
#      x y z
#    x 3.685720 0.000000 0.000000 
#    y 0.000000 3.287790 0.000000 
#    z 0.000000 0.000000 8.554640 
# 
# 
# High freq. dielectric constant tensor:
#      x y z
#    x 1.830310 0.000000 0.000000 
#    y 0.000000 1.761660 0.000000 
#    z 0.000000 0.000000 1.885400 
# 
# From -- ./inp_files/1040.got.cif
#   From: 2010.03.12/outbox.cif.g09.slc.cpg/sg37_1_cif.got.tgz:1040.got - 2010.04.14 02:25:27.
