data_PCOD8176034
_publ_section_title
;
Structure prediction by ZEFSAII (Michael W. Deem and Ramdas Pophale) SiO2 
 PCOD8176034
Probable space group: C M C 21
;
_chemical_formula_sum "Si O2"
_cell_formula_units_Z 64
_cell_length_a 8.803825
_cell_length_b 30.376537
_cell_length_c 11.877774
_cell_angle_alpha 90.000000
_cell_angle_beta 90.000000
_cell_angle_gamma 90.000000
_cell_volume 3176.469726
_symmetry_space_group_name_H-M "C M C 21"
_symmetry_group_IT_number 36
_symmetry_cell_setting 'orthorhombic'
loop_
_space_group_symop_operation_xyz
x,y,z
-x,-y,1/2+z
x,-y,1/2+z
-x,y,z
1/2+x,1/2+y,z
1/2-x,1/2-y,1/2+z
1/2+x,1/2-y,1/2+z
1/2-x,1/2+y,z
loop_
_atom_site_type_symbol
_atom_site_label
_atom_site_fract_x
_atom_site_fract_y
_atom_site_fract_z
Si Si1 0.673024 0.791466 0.544140
Si Si2 0.827305 0.335580 0.317200
Si Si3 0.178070 0.873089 0.924658
Si Si4 0.177372 0.456836 0.538609
Si Si5 0.679316 0.374760 0.663699
Si Si6 0.823891 0.047698 0.581467
Si Si7 0.178763 0.699102 0.577631
Si Si8 0.826394 0.076524 0.831813
O O1 0.500000 0.784193 0.583096
O O2 0.681217 0.797138 0.409338
O O3 0.736736 0.833703 0.608585
O O4 0.771144 0.749280 0.572676
O O5 0.765203 0.318655 0.198158
O O6 0.718284 0.373810 0.362487
O O7 0.000000 0.353353 0.306390
O O8 0.224635 0.876801 0.794872
O O9 0.000000 0.867432 0.941731
O O10 0.232388 0.917644 0.987414
O O11 0.253070 0.829794 0.977320
O O12 0.269134 0.420206 0.607482
O O13 0.219725 0.504909 0.582041
O O14 0.223542 0.455738 0.407034
O O15 0.000000 0.448070 0.554242
O O16 0.500000 0.369264 0.647769
O O17 0.795288 0.069984 0.701081
O O18 0.000000 0.034719 0.563425
O O19 0.000000 0.697119 0.567482
O O20 0.000000 0.067822 0.864513
#
# Coordination Sequence:
#
# PCOD8176034 Si02
#       8
#     8   8   8   8   8   8   8   8
#     4  11  24  42  64  92 127 167 209 257 315 371
#     4  10  22  41  64  90 125 163 205 263 315 364
#     4  10  23  44  66  91 126 165 208 260 315 370
#     4  12  26  42  63  94 131 167 207 256 315 375
#     4  11  24  43  66  92 126 166 211 261 312 370
#     4  10  23  43  66  94 124 164 214 258 311 372
#     4  11  24  41  64  95 128 165 210 256 312 376
#     4  11  22  40  69  94 121 161 210 263 311 370
#
# _framework density 20.148154000000002
#
# number of rings (size 3 to 8) (size 9 to 14) (size 15 to 20)
#    0.000    1.250    2.500    2.625    3.500    3.500 
#    0.000    0.000    0.000    0.000    0.000    0.000 
#    0.000    0.000    0.000    0.000    0.000    0.000 
#
# Total GULP energy -396948.278633 kJ/mol
# GULP energy per Si atom -12404.633707 kJ/mol
# Density = 2.010230 g / cm^3
# Si number density = 20.148154 Si / 1000 Ang^3
#
#
#
# Elastic Constant Matrix: (Units=GPa)
#
#
# Indices 1 2 3 4 5 6 
#
# 1 42.0750 12.3337 27.9186 0.0000 0.0000 0.0000
# 2 12.3337 102.8838 24.4976 0.0000 0.0000 0.0000
# 3 27.9186 24.4976 103.3900 0.0000 0.0000 0.0000
# 4 0.0000 0.0000 0.0000 25.8842 0.0000 0.0000
# 5 0.0000 0.0000 0.0000 0.0000 30.3163 0.0000
# 6 0.0000 0.0000 0.0000 0.0000 0.0000 38.5666
#
#
#
# Elastic Compliance Matrix: (Units=1/GPa)
#
#
# Indices 1 2 3 4 5 6 
#
# 1 0.029240 -0.001722 -0.007488 0.000000 0.000000 0.000000
# 2 -0.001722 0.010402 -0.002000 0.000000 0.000000 0.000000
# 3 -0.007488 -0.002000 0.012168 0.000000 0.000000 0.000000
# 4 0.000000 0.000000 0.000000 0.038634 0.000000 0.000000
# 5 0.000000 0.000000 0.000000 0.000000 0.032986 0.000000
# 6 0.000000 0.000000 0.000000 0.000000 0.000000 0.025929
#
#
# Mechanical properties :
#
#
# Convention : Reuss Voigt Hill
#
# Bulk Modulus (GPa) = 34.02406 41.98315 38.00361
# Shear Modulus (GPa) = 27.53675 31.19334 29.36505
#
# Velocity S-wave (km/s) = 3.70092 3.93898 3.82181
# Velocity P-wave (km/s) = 5.93178 6.44747 6.19499
#
# Compressibility (1/GPa) = 0.02939097
#
# Stress axis : x y z
#
# Youngs Moduli (GPa) = 34.19927 96.13235 82.18384
#
# Poissons Ratio (x) = 0.16558 0.61537
# Poissons Ratio (y) = 0.05891 0.16434
# Poissons Ratio (z) = 0.25607 0.19223
#
# Static dielectric constant tensor:
#      x y z
#    x 3.661630 0.000000 0.000000 
#    y 0.000000 3.595080 0.000000 
#    z 0.000000 0.000000 3.924260 
# 
# 
# High freq. dielectric constant tensor:
#      x y z
#    x 1.788890 0.000000 0.000000 
#    y 0.000000 1.789960 0.000000 
#    z 0.000000 0.000000 1.801780 
# 
# From -- ./inp_files/7083.got.cif
#   From: 2010.03.12/outbox.cif.g09.slc.cpg/sg36_4_cif.got.tgz:7083.got - 2010.04.14 02:13:53.
