data_PCOD8176427
_publ_section_title
;
Structure prediction by ZEFSAII (Michael W. Deem and Ramdas Pophale) SiO2 
 PCOD8176427
Probable space group: C C C 2
;
_chemical_formula_sum "Si O2"
_cell_formula_units_Z 52
_cell_length_a 15.894035
_cell_length_b 16.330300
_cell_length_c 9.645264
_cell_angle_alpha 90.000000
_cell_angle_beta 90.000000
_cell_angle_gamma 90.000000
_cell_volume 2503.470322
_symmetry_space_group_name_H-M "C C C 2"
_symmetry_group_IT_number 37
_symmetry_cell_setting 'orthorhombic'
loop_
_space_group_symop_operation_xyz
x,y,z
-x,-y,z
-x,y,1/2+z
x,-y,1/2+z
1/2+x,1/2+y,z
1/2-x,1/2-y,z
1/2-x,1/2+y,1/2+z
1/2+x,1/2-y,1/2+z
loop_
_atom_site_type_symbol
_atom_site_label
_atom_site_fract_x
_atom_site_fract_y
_atom_site_fract_z
Si Si1 0.789308 0.066967 0.753710
Si Si2 0.898922 0.213513 0.704733
Si Si3 0.250000 0.250000 0.003608
Si Si4 0.257062 0.929227 0.438209
Si Si5 0.527843 0.172005 0.118337
Si Si6 0.554926 0.076661 0.391015
Si Si7 0.320559 0.189440 0.436020
O O1 0.877313 0.117249 0.730829
O O2 0.753811 0.048221 0.600326
O O3 0.722063 0.117823 0.845558
O O4 0.805786 0.982698 0.839407
O O5 0.831389 0.252923 0.600304
O O6 0.888685 0.261223 0.847682
O O7 0.994877 0.234513 0.655396
O O8 0.243836 0.167983 0.910225
O O9 0.349332 0.952997 0.386339
O O10 0.521414 0.112583 0.248197
O O11 0.457797 0.143982 0.009144
O O12 0.624086 0.161737 0.067315
O O13 0.500000 0.000000 0.433706
O O14 0.250000 0.250000 0.494704
#
# Coordination Sequence:
#
# PCOD8176427 Si02
#       7
#     8   8   4   8   8   8   8
#     4  10  22  39  66  89 137 169 225 265 342 391
#     4  10  18  40  62  88 126 184 216 264 318 412
#     4  10  18  40  62  86 130 172 222 256 332 396
#     4  11  23  39  61  96 127 178 209 275 324 406
#     4  12  23  39  60  93 132 176 223 266 338 402
#     4  12  26  35  58  92 138 169 208 264 333 414
#     4  10  19  39  63  93 130 176 221 276 335 406
#
# _framework density 20.771166999999998
#
# number of rings (size 3 to 8) (size 9 to 14) (size 15 to 20)
#    0.000    1.231    6.923    1.385    6.462    0.000 
#    1.385    0.000    0.000    0.000    0.000   61.385 
#    0.000    0.000    0.000    0.000    0.000    0.000 
#
# Total GULP energy -322151.860225 kJ/mol
# GULP energy per Si atom -12390.456163 kJ/mol
# Density = 2.072389 g / cm^3
# Si number density = 20.771167 Si / 1000 Ang^3
#
#
#
# Elastic Constant Matrix: (Units=GPa)
#
#
# Indices 1 2 3 4 5 6 
#
# 1 56.7599 22.7612 24.9037 0.0000 0.0000 0.0000
# 2 22.7612 131.0112 48.6401 0.0000 0.0000 0.0000
# 3 24.9037 48.6401 86.6599 0.0000 0.0000 0.0000
# 4 0.0000 0.0000 0.0000 -97.1999 0.0000 0.0000
# 5 0.0000 0.0000 0.0000 0.0000 -6.0154 0.0000
# 6 0.0000 0.0000 0.0000 0.0000 0.0000 29.8722
#
#
#
# Elastic Compliance Matrix: (Units=1/GPa)
#
#
# Indices 1 2 3 4 5 6 
#
# 1 0.020467 -0.001733 -0.004909 0.000000 0.000000 0.000000
# 2 -0.001733 0.009789 -0.004996 0.000000 0.000000 0.000000
# 3 -0.004909 -0.004996 0.015754 0.000000 0.000000 0.000000
# 4 0.000000 0.000000 0.000000 -0.010288 0.000000 0.000000
# 5 0.000000 0.000000 0.000000 0.000000 -0.166241 0.000000
# 6 0.000000 0.000000 0.000000 0.000000 0.000000 0.033476
#
#
# Mechanical properties :
#
#
# Convention : Reuss Voigt Hill
#
# Bulk Modulus (GPa) = 43.98788 51.89345 47.94067
# Shear Modulus (GPa) = -75.54232 -2.79354 -39.16793
#
# Velocity S-wave (km/s) = -6.03720 -1.16096 -4.34716
# Velocity P-wave (km/s) = 5.23199 4.82084 1.43756
#
# Compressibility (1/GPa) = 0.02273353
#
# Stress axis : x y z
#
# Youngs Moduli (GPa) = 48.85940 102.15537 63.47495
#
# Poissons Ratio (x) = 0.17707 0.31158
# Poissons Ratio (y) = 0.08469 0.31713
# Poissons Ratio (z) = 0.23984 0.51039
#
# Static dielectric constant tensor:
#      x y z
#    x 3.609380 0.000000 0.000000 
#    y 0.000000 4.072580 0.000000 
#    z 0.000000 0.000000 3.762060 
# 
# 
# High freq. dielectric constant tensor:
#      x y z
#    x 1.783660 0.000000 0.000000 
#    y 0.000000 1.804980 0.000000 
#    z 0.000000 0.000000 1.813850 
# 
# From -- ./inp_files/4043.got.cif
#   From: 2010.03.12/outbox.cif.g09.slc.cpg/sg37_3_cif.got.tgz:4043.got - 2010.04.14 02:25:27.
