data_PCOD8176532
_publ_section_title
;
Structure prediction by ZEFSAII (Michael W. Deem and Ramdas Pophale) SiO2 
 PCOD8176532
Probable space group: C C C 2
;
_chemical_formula_sum "Si O2"
_cell_formula_units_Z 56
_cell_length_a 19.832172
_cell_length_b 17.838407
_cell_length_c 8.525610
_cell_angle_alpha 90.000000
_cell_angle_beta 90.000000
_cell_angle_gamma 90.000000
_cell_volume 3016.142186
_symmetry_space_group_name_H-M "C C C 2"
_symmetry_group_IT_number 37
_symmetry_cell_setting 'orthorhombic'
loop_
_space_group_symop_operation_xyz
x,y,z
-x,-y,z
-x,y,1/2+z
x,-y,1/2+z
1/2+x,1/2+y,z
1/2-x,1/2-y,z
1/2-x,1/2+y,1/2+z
1/2+x,1/2-y,1/2+z
loop_
_atom_site_type_symbol
_atom_site_label
_atom_site_fract_x
_atom_site_fract_y
_atom_site_fract_z
Si Si1 0.554049 0.932820 0.837320
Si Si2 0.206389 0.968339 0.540043
Si Si3 0.586687 0.249544 0.866159
Si Si4 0.202625 0.436666 0.762710
Si Si5 0.988019 0.674852 0.096108
Si Si6 0.712675 0.176354 0.002021
Si Si7 0.665218 0.399112 0.843731
O O1 0.629165 0.966735 0.817416
O O2 0.538477 0.874490 0.699728
O O3 0.500000 0.000000 0.844120
O O4 0.554139 0.885435 0.997002
O O5 0.246611 0.921323 0.408007
O O6 0.161860 0.916841 0.656906
O O7 0.264076 0.003710 0.647965
O O8 0.155236 0.027530 0.454826
O O9 0.562113 0.227518 0.693602
O O10 0.608532 0.336700 0.878166
O O11 0.528388 0.234412 0.991288
O O12 0.647786 0.193720 0.899182
O O13 0.192105 0.361005 0.665743
O O14 0.750000 0.250000 0.058931
O O15 0.759755 0.127680 0.888234
#
# Coordination Sequence:
#
# PCOD8176532 Si02
#       7
#     8   8   8   8   8   8   8
#     4  11  23  34  50  76 110 155 188 226 260 320
#     4   9  20  34  56  86 104 144 180 227 299 334
#     4  10  20  40  57  78 115 147 191 230 278 330
#     4  10  20  34  51  77 117 139 187 229 270 335
#     4  10  23  36  54  78 106 153 195 220 273 326
#     4   9  18  35  56  79 109 152 180 230 284 324
#     4   9  19  37  60  82 112 142 180 237 288 337
#
# _framework density 18.566765
#
# number of rings (size 3 to 8) (size 9 to 14) (size 15 to 20)
#    0.000    2.286    1.429    0.429    6.000    2.286 
#    2.571    4.286    0.000    2.571    0.000    0.000 
#    0.000    0.000    0.000    0.000    0.000    0.000 
#
# Total GULP energy -347074.321493 kJ/mol
# GULP energy per Si atom -12395.511482 kJ/mol
# Density = 1.852451 g / cm^3
# Si number density = 18.566765 Si / 1000 Ang^3
#
#
#
# Elastic Constant Matrix: (Units=GPa)
#
#
# Indices 1 2 3 4 5 6 
#
# 1 66.5793 37.0736 36.3062 0.0000 0.0000 0.0000
# 2 37.0736 83.3094 49.6802 0.0000 0.0000 0.0000
# 3 36.3062 49.6802 120.8764 0.0000 0.0000 0.0000
# 4 0.0000 0.0000 0.0000 25.4403 0.0000 0.0000
# 5 0.0000 0.0000 0.0000 0.0000 19.4531 0.0000
# 6 0.0000 0.0000 0.0000 0.0000 0.0000 21.5401
#
#
#
# Elastic Compliance Matrix: (Units=1/GPa)
#
#
# Indices 1 2 3 4 5 6 
#
# 1 0.020889 -0.007358 -0.003250 0.000000 0.000000 0.000000
# 2 -0.007358 0.018492 -0.005390 0.000000 0.000000 0.000000
# 3 -0.003250 -0.005390 0.011465 0.000000 0.000000 0.000000
# 4 0.000000 0.000000 0.000000 0.039308 0.000000 0.000000
# 5 0.000000 0.000000 0.000000 0.000000 0.051406 0.000000
# 6 0.000000 0.000000 0.000000 0.000000 0.000000 0.046425
#
#
# Mechanical properties :
#
#
# Convention : Reuss Voigt Hill
#
# Bulk Modulus (GPa) = 53.05219 57.43168 55.24194
# Shear Modulus (GPa) = 22.09811 23.13370 22.61590
#
# Velocity S-wave (km/s) = 3.45367 3.53366 3.49389
# Velocity P-wave (km/s) = 6.67379 6.90280 6.78926
#
# Compressibility (1/GPa) = 0.01884936
#
# Stress axis : x y z
#
# Youngs Moduli (GPa) = 47.87201 54.07714 87.22529
#
# Poissons Ratio (x) = 0.39788 0.28350
# Poissons Ratio (y) = 0.35222 0.47017
# Poissons Ratio (z) = 0.15559 0.29149
#
# Static dielectric constant tensor:
#      x y z
#    x 3.227140 0.000000 0.000000 
#    y 0.000000 3.590620 0.000000 
#    z 0.000000 0.000000 3.765160 
# 
# 
# High freq. dielectric constant tensor:
#      x y z
#    x 1.698540 0.000000 0.000000 
#    y 0.000000 1.710370 0.000000 
#    z 0.000000 0.000000 1.734760 
# 
# From -- ./inp_files/4115.got.cif
#   From: 2010.03.12/outbox.cif.g09.slc.cpg/sg37_3_cif.got.tgz:4115.got - 2010.04.14 02:25:27.
