data_PCOD8176104
_publ_section_title
;
Structure prediction by ZEFSAII (Michael W. Deem and Ramdas Pophale) SiO2 
 PCOD8176104
Probable space group: C M C 21
;
_chemical_formula_sum "Si O2"
_cell_formula_units_Z 48
_cell_length_a 8.542967
_cell_length_b 29.882110
_cell_length_c 8.746325
_cell_angle_alpha 90.000000
_cell_angle_beta 90.000000
_cell_angle_gamma 90.000000
_cell_volume 2232.778286
_symmetry_space_group_name_H-M "C M C 21"
_symmetry_group_IT_number 36
_symmetry_cell_setting 'orthorhombic'
loop_
_space_group_symop_operation_xyz
x,y,z
-x,-y,1/2+z
x,-y,1/2+z
-x,y,z
1/2+x,1/2+y,z
1/2-x,1/2-y,1/2+z
1/2+x,1/2-y,1/2+z
1/2-x,1/2+y,z
loop_
_atom_site_type_symbol
_atom_site_label
_atom_site_fract_x
_atom_site_fract_y
_atom_site_fract_z
Si Si1 0.180180 0.449288 0.454230
Si Si2 0.680354 0.526676 0.635716
Si Si3 0.681918 0.201294 0.626415
Si Si4 0.817815 0.868404 0.624705
Si Si5 0.817878 0.882144 0.972612
Si Si6 0.317854 0.215109 0.974260
O O1 0.286327 0.460455 0.309427
O O2 0.214899 0.484474 0.588832
O O3 0.219162 0.399688 0.512006
O O4 0.000000 0.451166 0.406041
O O5 0.500000 0.512539 0.622202
O O6 0.720415 0.567624 0.523838
O O7 0.500000 0.212337 0.605982
O O8 0.716698 0.150635 0.577957
O O9 0.781739 0.233963 0.518771
O O10 0.735502 0.207604 0.800579
O O11 0.781759 0.817118 0.584146
O O12 0.000000 0.878984 0.603433
O O13 0.764798 0.877172 0.797922
O O14 0.000000 0.870509 0.994612
O O15 0.500000 0.204677 0.996106
#
# Coordination Sequence:
#
# PCOD8176104 Si02
#       6
#     8   8   8   8   8   8
#     4  12  25  41  63  94 128 162 205 258 312 365
#     4  11  23  42  66  91 123 166 210 253 308 371
#     4  11  24  40  61  89 121 158 200 248 304 366
#     4  11  23  41  64  91 123 161 206 252 304 367
#     4  10  23  41  63  90 120 157 203 252 300 359
#     4  11  24  41  61  89 123 158 202 253 304 362
#
# _framework density 21.497879000000001
#
# number of rings (size 3 to 8) (size 9 to 14) (size 15 to 20)
#    0.000    1.000    0.000    6.500    0.000   13.333 
#    0.000    0.000    0.000    0.000    0.000    0.000 
#    0.000    0.000    0.000    0.000    0.000    0.000 
#
# Total GULP energy -297866.314688 kJ/mol
# GULP energy per Si atom -12411.096445 kJ/mol
# Density = 2.144895 g / cm^3
# Si number density = 21.497879 Si / 1000 Ang^3
#
#
#
# Elastic Constant Matrix: (Units=GPa)
#
#
# Indices 1 2 3 4 5 6 
#
# 1 63.0183 23.4658 26.2249 0.0000 0.0000 0.0000
# 2 23.4658 66.0448 -2.6236 0.0000 0.0000 0.0000
# 3 26.2249 -2.6236 84.0546 0.0000 0.0000 0.0000
# 4 0.0000 0.0000 0.0000 43.8135 0.0000 0.0000
# 5 0.0000 0.0000 0.0000 0.0000 30.6950 0.0000
# 6 0.0000 0.0000 0.0000 0.0000 0.0000 40.8456
#
#
#
# Elastic Compliance Matrix: (Units=1/GPa)
#
#
# Indices 1 2 3 4 5 6 
#
# 1 0.021788 -0.008021 -0.007048 0.000000 0.000000 0.000000
# 2 -0.008021 0.018113 0.003068 0.000000 0.000000 0.000000
# 3 -0.007048 0.003068 0.014192 0.000000 0.000000 0.000000
# 4 0.000000 0.000000 0.000000 0.022824 0.000000 0.000000
# 5 0.000000 0.000000 0.000000 0.000000 0.032579 0.000000
# 6 0.000000 0.000000 0.000000 0.000000 0.000000 0.024482
#
#
# Mechanical properties :
#
#
# Convention : Reuss Voigt Hill
#
# Bulk Modulus (GPa) = 33.23367 34.13911 33.68639
# Shear Modulus (GPa) = 29.75976 34.14085 31.95030
#
# Velocity S-wave (km/s) = 3.72467 3.98942 3.85932
# Velocity P-wave (km/s) = 5.83011 6.09388 5.96345
#
# Compressibility (1/GPa) = 0.03008996
#
# Stress axis : x y z
#
# Youngs Moduli (GPa) = 45.89581 55.20851 70.46285
#
# Poissons Ratio (x) = 0.44285 0.49665
# Poissons Ratio (y) = 0.36815 -0.21618
# Poissons Ratio (z) = 0.32349 -0.16938
#
# Static dielectric constant tensor:
#      x y z
#    x 3.727890 0.000000 0.000000 
#    y 0.000000 3.874880 0.000000 
#    z 0.000000 0.000000 3.913760 
# 
# 
# High freq. dielectric constant tensor:
#      x y z
#    x 1.843490 0.000000 0.000000 
#    y 0.000000 1.855730 0.000000 
#    z 0.000000 0.000000 1.855810 
# 
# From -- ./inp_files/2722.got.cif
#   From: 2010.03.12/outbox.cif.g09.slc.cpg/sg36_2_cif.got.tgz:2722.got - 2010.04.14 02:13:53.
