data_PCOD8176492
_publ_section_title
;
Structure prediction by ZEFSAII (Michael W. Deem and Ramdas Pophale) SiO2 
 PCOD8176492
Probable space group: C C C 2
;
_chemical_formula_sum "Si O2"
_cell_formula_units_Z 48
_cell_length_a 10.077857
_cell_length_b 16.278977
_cell_length_c 14.479992
_cell_angle_alpha 90.000000
_cell_angle_beta 90.000000
_cell_angle_gamma 90.000000
_cell_volume 2375.546977
_symmetry_space_group_name_H-M "C C C 2"
_symmetry_group_IT_number 37
_symmetry_cell_setting 'orthorhombic'
loop_
_space_group_symop_operation_xyz
x,y,z
-x,-y,z
-x,y,1/2+z
x,-y,1/2+z
1/2+x,1/2+y,z
1/2-x,1/2-y,z
1/2-x,1/2+y,1/2+z
1/2+x,1/2-y,1/2+z
loop_
_atom_site_type_symbol
_atom_site_label
_atom_site_fract_x
_atom_site_fract_y
_atom_site_fract_z
Si Si1 0.855121 0.036230 0.067360
Si Si2 0.373797 0.954653 0.213844
Si Si3 0.803793 0.000221 0.362221
Si Si4 0.388179 0.715193 0.996589
Si Si5 0.996775 0.142436 0.824774
Si Si6 0.596904 0.229092 0.185813
O O1 0.752210 0.023025 0.149864
O O2 0.862359 0.132590 0.053544
O O3 0.000000 0.000000 0.094451
O O4 0.802108 0.994390 0.973067
O O5 0.340683 0.990871 0.316193
O O6 0.419759 0.861099 0.226652
O O7 0.500000 0.000000 0.171395
O O8 0.881356 0.080103 0.325150
O O9 0.864389 0.913358 0.327474
O O10 0.250000 0.750000 0.954807
O O11 0.494356 0.701349 0.915409
O O12 0.444124 0.775045 0.076980
O O13 0.005614 0.203071 0.737449
O O14 0.750000 0.250000 0.197977
#
# Coordination Sequence:
#
# PCOD8176492 Si02
#       6
#     8   8   8   8   8   8
#     4  11  21  39  70  94 122 171 226 264 308 389
#     4  12  27  43  62  97 137 174 207 269 338 385
#     4  10  21  39  66  97 123 166 224 267 311 379
#     4  10  19  37  64  93 123 162 211 264 321 374
#     4  10  20  36  67  98 119 161 225 268 307 378
#     4  11  21  40  64  89 126 173 208 255 327 387
#
# _framework density 20.205871999999999
#
# number of rings (size 3 to 8) (size 9 to 14) (size 15 to 20)
#    0.000    1.333    8.333    0.000    4.667    3.333 
#    3.000    0.000    0.000    0.000    0.000    0.000 
#    0.000    0.000    0.000    0.000    0.000    0.000 
#
# Total GULP energy -297437.971741 kJ/mol
# GULP energy per Si atom -12393.248823 kJ/mol
# Density = 2.015988 g / cm^3
# Si number density = 20.205872 Si / 1000 Ang^3
#
#
#
# Elastic Constant Matrix: (Units=GPa)
#
#
# Indices 1 2 3 4 5 6 
#
# 1 72.0933 31.9775 31.9932 0.0000 0.0000 0.0000
# 2 31.9775 97.2667 24.6618 0.0000 0.0000 0.0000
# 3 31.9932 24.6618 98.0825 0.0000 0.0000 0.0000
# 4 0.0000 0.0000 0.0000 26.3631 0.0000 0.0000
# 5 0.0000 0.0000 0.0000 0.0000 23.9777 0.0000
# 6 0.0000 0.0000 0.0000 0.0000 0.0000 24.3828
#
#
#
# Elastic Compliance Matrix: (Units=1/GPa)
#
#
# Indices 1 2 3 4 5 6 
#
# 1 0.018061 -0.004747 -0.004698 0.000000 0.000000 0.000000
# 2 -0.004747 0.012229 -0.001526 0.000000 0.000000 0.000000
# 3 -0.004698 -0.001526 0.012112 0.000000 0.000000 0.000000
# 4 0.000000 0.000000 0.000000 0.037932 0.000000 0.000000
# 5 0.000000 0.000000 0.000000 0.000000 0.041705 0.000000
# 6 0.000000 0.000000 0.000000 0.000000 0.000000 0.041012
#
#
# Mechanical properties :
#
#
# Convention : Reuss Voigt Hill
#
# Bulk Modulus (GPa) = 48.87701 49.41195 49.14448
# Shear Modulus (GPa) = 26.06711 26.86539 26.46625
#
# Velocity S-wave (km/s) = 3.59566 3.65030 3.62308
# Velocity P-wave (km/s) = 6.44053 6.50182 6.47124
#
# Compressibility (1/GPa) = 0.02045952
#
# Stress axis : x y z
#
# Youngs Moduli (GPa) = 55.36760 81.77583 82.56503
#
# Poissons Ratio (x) = 0.38816 0.38787
# Poissons Ratio (y) = 0.26281 0.12603
# Poissons Ratio (z) = 0.26011 0.12483
#
# Static dielectric constant tensor:
#      x y z
#    x 3.514200 0.000000 0.000000 
#    y 0.000000 3.994170 0.000000 
#    z 0.000000 0.000000 3.912480 
# 
# 
# High freq. dielectric constant tensor:
#      x y z
#    x 1.752780 0.000000 0.000000 
#    y 0.000000 1.796080 0.000000 
#    z 0.000000 0.000000 1.797040 
# 
# From -- ./inp_files/10626.got.cif
#   From: 2010.03.12/outbox.cif.g09.slc.cpg/sg37_6_cif.got.tgz:10626.got - 2010.04.14 02:25:27.
