data_PCOD8176875
_publ_section_title
;
Structure prediction by ZEFSAII (Michael W. Deem and Ramdas Pophale) SiO2 
 PCOD8176875
Probable space group: C C C 2
;
_chemical_formula_sum "Si O2"
_cell_formula_units_Z 48
_cell_length_a 12.645138
_cell_length_b 8.900521
_cell_length_c 17.759070
_cell_angle_alpha 90.000000
_cell_angle_beta 90.000000
_cell_angle_gamma 90.000000
_cell_volume 1998.753428
_symmetry_space_group_name_H-M "C C C 2"
_symmetry_group_IT_number 37
_symmetry_cell_setting 'orthorhombic'
loop_
_space_group_symop_operation_xyz
x,y,z
-x,-y,z
-x,y,1/2+z
x,-y,1/2+z
1/2+x,1/2+y,z
1/2-x,1/2-y,z
1/2-x,1/2+y,1/2+z
1/2+x,1/2-y,1/2+z
loop_
_atom_site_type_symbol
_atom_site_label
_atom_site_fract_x
_atom_site_fract_y
_atom_site_fract_z
Si Si1 0.522668 0.745535 0.127210
Si Si2 0.663674 0.545550 0.615505
Si Si3 0.664071 0.631913 0.446289
Si Si4 0.967825 0.337426 0.461923
Si Si5 0.319868 0.101939 0.226094
Si Si6 0.281912 0.900369 0.359442
O O1 0.405040 0.686433 0.147682
O O2 0.595371 0.603314 0.111514
O O3 0.565648 0.847650 0.195254
O O4 0.530781 0.843742 0.051996
O O5 0.696447 0.587891 0.531107
O O6 0.765111 0.513440 0.667240
O O7 0.750000 0.750000 0.417250
O O8 0.546652 0.701516 0.436616
O O9 0.678804 0.484930 0.394284
O O10 0.852059 0.324338 0.426151
O O11 0.000000 0.500000 0.431007
O O12 0.250000 0.250000 0.240393
O O13 0.341439 0.014596 0.303563
O O14 0.250000 0.750000 0.313121
#
# Coordination Sequence:
#
# PCOD8176875 Si02
#       6
#     8   8   8   8   8   8
#     4   9  19  40  67  96 131 168 228 286 334 401
#     4   9  19  38  68  99 125 175 227 276 344 403
#     4  11  22  41  70  97 138 174 226 292 339 409
#     4  11  23  42  69 105 128 176 231 284 348 405
#     4  10  22  42  66  93 139 185 224 281 348 414
#     4  12  26  45  65  99 140 184 233 281 351 421
#
# _framework density 24.014969000000001
#
# number of rings (size 3 to 8) (size 9 to 14) (size 15 to 20)
#    0.000    1.667    1.667    2.500    0.000    4.000 
#    6.000    3.333    0.000    0.000    0.000    0.000 
#    0.000    0.000    0.000    0.000    0.000    0.000 
#
# Total GULP energy -297425.987042 kJ/mol
# GULP energy per Si atom -12392.749460 kJ/mol
# Density = 2.396031 g / cm^3
# Si number density = 24.014969 Si / 1000 Ang^3
#
#
#
# Elastic Constant Matrix: (Units=GPa)
#
#
# Indices 1 2 3 4 5 6 
#
# 1 64.8037 47.2486 37.4524 0.0000 0.0000 0.0000
# 2 47.2486 143.3991 68.9162 0.0000 0.0000 0.0000
# 3 37.4524 68.9162 74.7357 0.0000 0.0000 0.0000
# 4 0.0000 0.0000 0.0000 39.4131 0.0000 0.0000
# 5 0.0000 0.0000 0.0000 0.0000 4.9385 0.0000
# 6 0.0000 0.0000 0.0000 0.0000 0.0000 32.8957
#
#
#
# Elastic Compliance Matrix: (Units=1/GPa)
#
#
# Indices 1 2 3 4 5 6 
#
# 1 0.022721 -0.003617 -0.008051 0.000000 0.000000 0.000000
# 2 -0.003617 0.013099 -0.010267 0.000000 0.000000 0.000000
# 3 -0.008051 -0.010267 0.026882 0.000000 0.000000 0.000000
# 4 0.000000 0.000000 0.000000 0.025372 0.000000 0.000000
# 5 0.000000 0.000000 0.000000 0.000000 0.202490 0.000000
# 6 0.000000 0.000000 0.000000 0.000000 0.000000 0.030399
#
#
# Mechanical properties :
#
#
# Convention : Reuss Voigt Hill
#
# Bulk Modulus (GPa) = 53.09670 65.57476 59.33573
# Shear Modulus (GPa) = 13.47303 24.07089 18.77196
#
# Velocity S-wave (km/s) = 2.37117 3.16939 2.79888
# Velocity P-wave (km/s) = 5.44559 6.38424 5.93350
#
# Compressibility (1/GPa) = 0.01883356
#
# Stress axis : x y z
#
# Youngs Moduli (GPa) = 44.01120 76.33885 37.19940
#
# Poissons Ratio (x) = 0.27615 0.29948
# Poissons Ratio (y) = 0.15921 0.38191
# Poissons Ratio (z) = 0.35432 0.78374
#
# Static dielectric constant tensor:
#      x y z
#    x 4.421130 0.000000 0.000000 
#    y 0.000000 4.769610 0.000000 
#    z 0.000000 0.000000 4.061840 
# 
# 
# High freq. dielectric constant tensor:
#      x y z
#    x 1.936330 0.000000 0.000000 
#    y 0.000000 1.979980 0.000000 
#    z 0.000000 0.000000 1.933250 
# 
# From -- ./inp_files/17075.got.cif
#   From: 2010.03.12/outbox.cif.g09.slc.cpg/sg37_9_cif.got.tgz:17075.got - 2010.04.14 02:25:27.
