data_PCOD8176832
_publ_section_title
;
Structure prediction by ZEFSAII (Michael W. Deem and Ramdas Pophale) SiO2 
 PCOD8176832
Probable space group: C C C 2
;
_chemical_formula_sum "Si O2"
_cell_formula_units_Z 48
_cell_length_a 29.205243
_cell_length_b 8.296847
_cell_length_c 10.003210
_cell_angle_alpha 90.000000
_cell_angle_beta 90.000000
_cell_angle_gamma 90.000000
_cell_volume 2423.892147
_symmetry_space_group_name_H-M "C C C 2"
_symmetry_group_IT_number 37
_symmetry_cell_setting 'orthorhombic'
loop_
_space_group_symop_operation_xyz
x,y,z
-x,-y,z
-x,y,1/2+z
x,-y,1/2+z
1/2+x,1/2+y,z
1/2-x,1/2-y,z
1/2-x,1/2+y,1/2+z
1/2+x,1/2-y,1/2+z
loop_
_atom_site_type_symbol
_atom_site_label
_atom_site_fract_x
_atom_site_fract_y
_atom_site_fract_z
Si Si1 0.293286 0.867689 0.447950
Si Si2 0.017559 0.171016 0.210365
Si Si3 0.380615 0.390773 0.222304
Si Si4 0.297131 0.841024 0.748699
Si Si5 0.523782 0.834343 0.948230
Si Si6 0.619060 0.320656 0.423942
O O1 0.250000 0.750000 0.432848
O O2 0.303412 0.918674 0.601553
O O3 0.335821 0.774744 0.386318
O O4 0.289592 0.029030 0.363324
O O5 0.070993 0.195724 0.241056
O O6 0.004477 0.299442 0.095803
O O7 0.991466 0.196788 0.347130
O O8 0.000000 0.000000 0.154229
O O9 0.339712 0.279045 0.280223
O O10 0.386234 0.558294 0.300355
O O11 0.374033 0.420516 0.062687
O O12 0.250000 0.750000 0.745836
O O13 0.500000 0.000000 0.900430
O O14 0.578944 0.814734 0.940430
#
# Coordination Sequence:
#
# PCOD8176832 Si02
#       6
#     8   8   8   8   8   8
#     4  10  22  40  61  89 124 154 197 248 303 363
#     4  11  22  40  61  86 118 162 206 249 301 365
#     4  10  22  38  60  88 117 154 203 246 296 361
#     4  10  22  40  62  89 121 156 198 249 299 363
#     4  11  24  39  59  87 123 159 202 254 306 359
#     4  10  22  40  59  89 119 156 200 250 300 363
#
# _framework density 19.802861
#
# number of rings (size 3 to 8) (size 9 to 14) (size 15 to 20)
#    0.000    1.667    1.667    2.000    4.667    2.000 
#    3.000    0.000    0.000    0.000    0.000    0.000 
#    0.000    0.000    0.000    0.000    0.000    0.000 
#
# Total GULP energy -297428.073206 kJ/mol
# GULP energy per Si atom -12392.836384 kJ/mol
# Density = 1.975779 g / cm^3
# Si number density = 19.802861 Si / 1000 Ang^3
#
#
#
# Elastic Constant Matrix: (Units=GPa)
#
#
# Indices 1 2 3 4 5 6 
#
# 1 110.0821 22.7637 18.1292 0.0000 0.0000 0.0000
# 2 22.7637 74.0936 26.5479 0.0000 0.0000 0.0000
# 3 18.1292 26.5479 73.6847 0.0000 0.0000 0.0000
# 4 0.0000 0.0000 0.0000 60.9639 0.0000 0.0000
# 5 0.0000 0.0000 0.0000 0.0000 40.1309 0.0000
# 6 0.0000 0.0000 0.0000 0.0000 0.0000 29.7897
#
#
#
# Elastic Compliance Matrix: (Units=1/GPa)
#
#
# Indices 1 2 3 4 5 6 
#
# 1 0.009848 -0.002477 -0.001531 0.000000 0.000000 0.000000
# 2 -0.002477 0.016120 -0.005198 0.000000 0.000000 0.000000
# 3 -0.001531 -0.005198 0.015821 0.000000 0.000000 0.000000
# 4 0.000000 0.000000 0.000000 0.016403 0.000000 0.000000
# 5 0.000000 0.000000 0.000000 0.000000 0.024918 0.000000
# 6 0.000000 0.000000 0.000000 0.000000 0.000000 0.033569
#
#
# Mechanical properties :
#
#
# Convention : Reuss Voigt Hill
#
# Bulk Modulus (GPa) = 42.77729 43.63800 43.20765
# Shear Modulus (GPa) = 34.99326 38.87153 36.93240
#
# Velocity S-wave (km/s) = 4.20823 4.43530 4.32325
# Velocity P-wave (km/s) = 6.72761 6.95077 6.84010
#
# Compressibility (1/GPa) = 0.02337689
#
# Stress axis : x y z
#
# Youngs Moduli (GPa) = 101.53853 62.03412 63.20765
#
# Poissons Ratio (x) = 0.15368 0.09674
# Poissons Ratio (y) = 0.25155 0.32858
# Poissons Ratio (z) = 0.15541 0.32248
#
# Static dielectric constant tensor:
#      x y z
#    x 3.820720 0.000000 0.000000 
#    y 0.000000 3.084610 0.000000 
#    z 0.000000 0.000000 3.788890 
# 
# 
# High freq. dielectric constant tensor:
#      x y z
#    x 1.791450 0.000000 0.000000 
#    y 0.000000 1.751160 0.000000 
#    z 0.000000 0.000000 1.783190 
# 
# From -- ./inp_files/2380.got.cif
#   From: 2010.03.12/outbox.cif.g09.slc.cpg/sg37_2_cif.got.tgz:2380.got - 2010.04.14 02:25:27.
