data_PCOD8176954
_publ_section_title
;
Structure prediction by ZEFSAII (Michael W. Deem and Ramdas Pophale) SiO2 
 PCOD8176954
Probable space group: C C C 2
;
_chemical_formula_sum "Si O2"
_cell_formula_units_Z 48
_cell_length_a 5.851784
_cell_length_b 14.208706
_cell_length_c 25.940157
_cell_angle_alpha 90.000000
_cell_angle_beta 90.000000
_cell_angle_gamma 90.000000
_cell_volume 2156.827516
_symmetry_space_group_name_H-M "C C C 2"
_symmetry_group_IT_number 37
_symmetry_cell_setting 'orthorhombic'
loop_
_space_group_symop_operation_xyz
x,y,z
-x,-y,z
-x,y,1/2+z
x,-y,1/2+z
1/2+x,1/2+y,z
1/2-x,1/2-y,z
1/2-x,1/2+y,1/2+z
1/2+x,1/2-y,1/2+z
loop_
_atom_site_type_symbol
_atom_site_label
_atom_site_fract_x
_atom_site_fract_y
_atom_site_fract_z
Si Si1 0.817446 0.352590 0.961990
Si Si2 0.349787 0.146948 0.753685
Si Si3 0.164016 0.643945 0.546681
Si Si4 0.500000 0.500000 0.791036
Si Si5 0.999516 0.696483 0.649748
Si Si6 0.372972 0.095255 0.350016
Si Si7 0.000000 0.000000 0.010580
O O1 0.750000 0.250000 0.983229
O O2 0.868626 0.342148 0.901228
O O3 0.626006 0.430424 0.971120
O O4 0.035318 0.385058 0.994439
O O5 0.250000 0.250000 0.748773
O O6 0.498950 0.132269 0.701492
O O7 0.499167 0.150562 0.804965
O O8 0.171255 0.060389 0.755367
O O9 0.250000 0.750000 0.541256
O O10 0.359930 0.565461 0.550170
O O11 0.005082 0.634241 0.597571
O O12 0.377991 0.574305 0.828472
O O13 0.750000 0.750000 0.647516
O O14 0.250000 0.750000 0.650444
O O15 0.500000 0.000000 0.364819
#
# Coordination Sequence:
#
# PCOD8176954 Si02
#       7
#     8   8   8   4   8   8   4
#     4  12  25  43  71 105 145 193 243 302 372 439
#     4  10  24  43  73 100 140 190 238 297 371 429
#     4  11  24  47  74 102 147 188 247 302 375 435
#     4  10  23  44  67 100 142 182 244 298 360 442
#     4  10  24  45  79 107 146 193 245 308 370 443
#     4  10  23  42  64 101 143 183 239 303 357 440
#     4  12  25  46  73 102 142 192 244 304 368 448
#
# _framework density 22.254908
#
# number of rings (size 3 to 8) (size 9 to 14) (size 15 to 20)
#    0.000    1.333    1.667    2.500    9.333    2.000 
#    0.000    6.667    0.000    0.000    0.000    0.000 
#    0.000    0.000    0.000    0.000    0.000    0.000 
#
# Total GULP energy -297376.292295 kJ/mol
# GULP energy per Si atom -12390.678846 kJ/mol
# Density = 2.220425 g / cm^3
# Si number density = 22.254908 Si / 1000 Ang^3
#
#
#
# Elastic Constant Matrix: (Units=GPa)
#
#
# Indices 1 2 3 4 5 6 
#
# 1 128.4999 39.9664 67.7028 0.0000 0.0000 0.0000
# 2 39.9664 108.8006 48.8471 0.0000 0.0000 0.0000
# 3 67.7028 48.8471 197.0875 0.0000 0.0000 0.0000
# 4 0.0000 0.0000 0.0000 -137.3744 0.0000 0.0000
# 5 0.0000 0.0000 0.0000 0.0000 30.0831 0.0000
# 6 0.0000 0.0000 0.0000 0.0000 0.0000 34.0930
#
#
#
# Elastic Compliance Matrix: (Units=1/GPa)
#
#
# Indices 1 2 3 4 5 6 
#
# 1 0.010032 -0.002406 -0.002850 0.000000 0.000000 0.000000
# 2 -0.002406 0.010919 -0.001880 0.000000 0.000000 0.000000
# 3 -0.002850 -0.001880 0.006519 0.000000 0.000000 0.000000
# 4 0.000000 0.000000 0.000000 -0.007279 0.000000 0.000000
# 5 0.000000 0.000000 0.000000 0.000000 0.033241 0.000000
# 6 0.000000 0.000000 0.000000 0.000000 0.000000 0.029332
#
#
# Mechanical properties :
#
#
# Convention : Reuss Voigt Hill
#
# Bulk Modulus (GPa) = 75.76439 83.04675 79.40557
# Shear Modulus (GPa) = 49.29369 3.88512 26.58940
#
# Velocity S-wave (km/s) = 4.71144 1.32270 3.46029
# Velocity P-wave (km/s) = 7.98215 6.30316 7.19182
#
# Compressibility (1/GPa) = 0.01319881
#
# Stress axis : x y z
#
# Youngs Moduli (GPa) = 99.68285 91.58573 153.40316
#
# Poissons Ratio (x) = 0.22032 0.43718
# Poissons Ratio (y) = 0.23979 0.28837
# Poissons Ratio (z) = 0.28408 0.17216
#
# Static dielectric constant tensor:
#      x y z
#    x 4.271770 0.000000 0.000000 
#    y 0.000000 3.808630 0.000000 
#    z 0.000000 0.000000 4.352010 
# 
# 
# High freq. dielectric constant tensor:
#      x y z
#    x 1.881280 0.000000 0.000000 
#    y 0.000000 1.869230 0.000000 
#    z 0.000000 0.000000 1.890200 
# 
# From -- ./inp_files/19379.got.cif
#   From: 2010.03.12/outbox.cif.g09.slc.cpg/sg37_10_cif.got.tgz:19379.got - 2010.04.14 02:25:27.
