data_PCOD8176341
_publ_section_title
;
Structure prediction by ZEFSAII (Michael W. Deem and Ramdas Pophale) SiO2 
 PCOD8176341
Probable space group: C M C 21
;
_chemical_formula_sum "Si O2"
_cell_formula_units_Z 48
_cell_length_a 9.668215
_cell_length_b 9.343780
_cell_length_c 24.417819
_cell_angle_alpha 90.000000
_cell_angle_beta 90.000000
_cell_angle_gamma 90.000000
_cell_volume 2205.848971
_symmetry_space_group_name_H-M "C M C 21"
_symmetry_group_IT_number 36
_symmetry_cell_setting 'orthorhombic'
loop_
_space_group_symop_operation_xyz
x,y,z
-x,-y,1/2+z
x,-y,1/2+z
-x,y,z
1/2+x,1/2+y,z
1/2-x,1/2-y,1/2+z
1/2+x,1/2-y,1/2+z
1/2-x,1/2+y,z
loop_
_atom_site_type_symbol
_atom_site_label
_atom_site_fract_x
_atom_site_fract_y
_atom_site_fract_z
Si Si1 0.000000 0.571820 0.869670
Si Si2 0.752627 0.005170 0.191389
Si Si3 0.155014 0.254525 0.116654
Si Si4 0.500000 0.413830 0.265970
Si Si5 0.000000 0.918115 0.875235
Si Si6 0.242390 0.463529 0.941642
Si Si7 0.500000 0.904351 0.762322
Si Si8 0.333181 0.786627 0.511977
O O1 0.874566 0.491040 0.897741
O O2 0.000000 0.534225 0.805685
O O3 0.000000 0.743627 0.878410
O O4 0.674414 0.892828 0.153527
O O5 0.862384 0.928306 0.230191
O O6 0.834879 0.115270 0.153837
O O7 0.637131 0.086678 0.226106
O O8 0.274023 0.253645 0.070881
O O9 0.000000 0.258901 0.090834
O O10 0.500000 0.535793 0.312115
O O11 0.500000 0.252658 0.290748
O O12 0.123188 0.996232 0.906442
O O13 0.259713 0.303172 0.963889
O O14 0.214353 0.553697 0.996946
O O15 0.500000 0.767210 0.511769
#
# Coordination Sequence:
#
# PCOD8176341 Si02
#       8
#     4   8   8   4   4   8   4   8
#     4  12  28  48  73 108 146 186 243 298 351 430
#     4  12  26  48  72 106 152 180 238 300 356 430
#     4  12  28  46  75 108 142 192 237 296 361 424
#     4  12  28  46  75 108 142 192 237 296 361 424
#     4  12  28  48  73 108 146 186 243 298 351 430
#     4  12  24  50  72 104 150 184 228 306 356 416
#     4  12  28  46  75 108 142 192 237 296 361 424
#     4  12  28  48  73 108 146 186 243 298 351 430
#
# _framework density 21.760328999999999
#
# number of rings (size 3 to 8) (size 9 to 14) (size 15 to 20)
#    0.000    0.000    6.667    2.000    9.333    5.333 
#    0.000    0.000    0.000    0.000    0.000    0.000 
#    0.000    0.000    0.000    0.000    0.000    0.000 
#
# Total GULP energy -297575.260982 kJ/mol
# GULP energy per Si atom -12398.969208 kJ/mol
# Density = 2.171080 g / cm^3
# Si number density = 21.760329 Si / 1000 Ang^3
#
#
#
# Elastic Constant Matrix: (Units=GPa)
#
#
# Indices 1 2 3 4 5 6 
#
# 1 161.9970 42.6438 44.7679 0.0000 0.0000 0.0000
# 2 42.6438 94.2721 22.9536 0.0000 0.0000 0.0000
# 3 44.7679 22.9536 101.3496 0.0000 0.0000 0.0000
# 4 0.0000 0.0000 0.0000 43.7161 0.0000 0.0000
# 5 0.0000 0.0000 0.0000 0.0000 23.3633 0.0000
# 6 0.0000 0.0000 0.0000 0.0000 0.0000 28.9515
#
#
#
# Elastic Compliance Matrix: (Units=1/GPa)
#
#
# Indices 1 2 3 4 5 6 
#
# 1 0.007671 -0.002799 -0.002754 0.000000 0.000000 0.000000
# 2 -0.002799 0.012248 -0.001537 0.000000 0.000000 0.000000
# 3 -0.002754 -0.001537 0.011432 0.000000 0.000000 0.000000
# 4 0.000000 0.000000 0.000000 0.022875 0.000000 0.000000
# 5 0.000000 0.000000 0.000000 0.000000 0.042802 0.000000
# 6 0.000000 0.000000 0.000000 0.000000 0.000000 0.034541
#
#
# Mechanical properties :
#
#
# Convention : Reuss Voigt Hill
#
# Bulk Modulus (GPa) = 58.24612 64.26103 61.25358
# Shear Modulus (GPa) = 33.00899 35.68972 34.34936
#
# Velocity S-wave (km/s) = 3.89901 4.05424 3.97738
# Velocity P-wave (km/s) = 6.86257 7.17713 7.02162
#
# Compressibility (1/GPa) = 0.01716852
#
# Stress axis : x y z
#
# Youngs Moduli (GPa) = 130.36053 81.64463 87.47581
#
# Poissons Ratio (x) = 0.22855 0.24095
# Poissons Ratio (y) = 0.36492 0.13449
# Poissons Ratio (z) = 0.35907 0.12553
#
# Static dielectric constant tensor:
#      x y z
#    x 4.104200 0.000000 0.000000 
#    y 0.000000 3.918470 0.000000 
#    z 0.000000 0.000000 3.970120 
# 
# 
# High freq. dielectric constant tensor:
#      x y z
#    x 1.873830 0.000000 0.000000 
#    y 0.000000 1.864630 0.000000 
#    z 0.000000 0.000000 1.862910 
# 
# From -- ./inp_files/16842.got.cif
#   From: 2010.03.12/outbox.cif.g09.slc.cpg/sg36_9_cif.got.tgz:16842.got - 2010.04.14 02:13:53.
