data_PCOD8176266
_publ_section_title
;
Structure prediction by ZEFSAII (Michael W. Deem and Ramdas Pophale) SiO2 
 PCOD8176266
Probable space group: C M C 21
;
_chemical_formula_sum "Si O2"
_cell_formula_units_Z 48
_cell_length_a 8.417168
_cell_length_b 14.762571
_cell_length_c 18.656308
_cell_angle_alpha 90.000000
_cell_angle_beta 90.000000
_cell_angle_gamma 90.000000
_cell_volume 2318.214926
_symmetry_space_group_name_H-M "C M C 21"
_symmetry_group_IT_number 36
_symmetry_cell_setting 'orthorhombic'
loop_
_space_group_symop_operation_xyz
x,y,z
-x,-y,1/2+z
x,-y,1/2+z
-x,y,z
1/2+x,1/2+y,z
1/2-x,1/2-y,1/2+z
1/2+x,1/2-y,1/2+z
1/2-x,1/2+y,z
loop_
_atom_site_type_symbol
_atom_site_label
_atom_site_fract_x
_atom_site_fract_y
_atom_site_fract_z
Si Si1 0.315399 0.741864 0.566730
Si Si2 0.184535 0.887848 0.670008
Si Si3 0.816686 0.501943 0.431123
Si Si4 0.183631 0.152727 0.331620
Si Si5 0.317301 0.308393 0.420166
Si Si6 0.186638 0.448425 0.092136
O O1 0.500000 0.730761 0.548588
O O2 0.292033 0.825765 0.619418
O O3 0.221826 0.755947 0.493109
O O4 0.246041 0.653240 0.604848
O O5 0.235900 0.872204 0.751557
O O6 0.000000 0.865747 0.657370
O O7 0.221483 0.991525 0.650454
O O8 0.712250 0.566111 0.381450
O O9 0.788427 0.397714 0.410712
O O10 0.766047 0.517020 0.513201
O O11 0.000000 0.526906 0.419279
O O12 0.284597 0.239916 0.355118
O O13 0.000000 0.179151 0.336026
O O14 0.500000 0.337835 0.420027
O O15 0.000000 0.454794 0.105910
#
# Coordination Sequence:
#
# PCOD8176266 Si02
#       6
#     8   8   8   8   8   8
#     4  12  24  40  66  96 128 168 214 263 316 377
#     4  11  25  44  66  95 131 169 211 263 320 377
#     4  11  23  40  66  97 127 167 214 261 314 377
#     4  11  25  44  66  95 131 169 211 263 320 377
#     4  12  24  40  66  96 128 168 214 263 316 377
#     4  11  23  40  66  97 127 167 214 261 314 377
#
# _framework density 20.705587000000001
#
# number of rings (size 3 to 8) (size 9 to 14) (size 15 to 20)
#    0.000    0.667    3.333    5.000    0.000    5.333 
#    0.000    0.000    0.000    0.000    0.000    0.000 
#    0.000    0.000    0.000    0.000    0.000    0.000 
#
# Total GULP energy -297834.686751 kJ/mol
# GULP energy per Si atom -12409.778615 kJ/mol
# Density = 2.065846 g / cm^3
# Si number density = 20.705587 Si / 1000 Ang^3
#
#
#
# Elastic Constant Matrix: (Units=GPa)
#
#
# Indices 1 2 3 4 5 6 
#
# 1 71.4807 -3.2748 26.6515 0.0000 0.0000 0.0000
# 2 -3.2748 80.1350 -11.1865 0.0000 0.0000 0.0000
# 3 26.6515 -11.1865 56.0307 0.0000 0.0000 0.0000
# 4 0.0000 0.0000 0.0000 28.5594 0.0000 0.0000
# 5 0.0000 0.0000 0.0000 0.0000 30.8324 0.0000
# 6 0.0000 0.0000 0.0000 0.0000 0.0000 39.8564
#
#
#
# Elastic Compliance Matrix: (Units=1/GPa)
#
#
# Indices 1 2 3 4 5 6 
#
# 1 0.017021 -0.000447 -0.008186 0.000000 0.000000 0.000000
# 2 -0.000447 0.012848 0.002778 0.000000 0.000000 0.000000
# 3 -0.008186 0.002778 0.022296 0.000000 0.000000 0.000000
# 4 0.000000 0.000000 0.000000 0.035015 0.000000 0.000000
# 5 0.000000 0.000000 0.000000 0.000000 0.032433 0.000000
# 6 0.000000 0.000000 0.000000 0.000000 0.000000 0.025090
#
#
# Mechanical properties :
#
#
# Convention : Reuss Voigt Hill
#
# Bulk Modulus (GPa) = 24.71845 25.78075 25.24960
# Shear Modulus (GPa) = 29.42936 32.88005 31.15471
#
# Velocity S-wave (km/s) = 3.77414 3.98927 3.88319
# Velocity P-wave (km/s) = 5.56382 5.80493 5.68565
#
# Compressibility (1/GPa) = 0.04045561
#
# Stress axis : x y z
#
# Youngs Moduli (GPa) = 58.74991 77.83043 44.85209
#
# Poissons Ratio (x) = 0.03480 0.36714
# Poissons Ratio (y) = 0.02627 -0.12459
# Poissons Ratio (z) = 0.48090 -0.21620
#
# Static dielectric constant tensor:
#      x y z
#    x 3.738350 0.000000 0.000000 
#    y 0.000000 3.804930 0.000000 
#    z 0.000000 0.000000 3.796800 
# 
# 
# High freq. dielectric constant tensor:
#      x y z
#    x 1.820790 0.000000 0.000000 
#    y 0.000000 1.824570 0.000000 
#    z 0.000000 0.000000 1.802180 
# 
# From -- ./inp_files/13494.got.cif
#   From: 2010.03.12/outbox.cif.g09.slc.cpg/sg36_7_cif.got.tgz:13494.got - 2010.04.14 02:13:53.
