data_PCOD8176233
_publ_section_title
;
Structure prediction by ZEFSAII (Michael W. Deem and Ramdas Pophale) SiO2 
 PCOD8176233
Probable space group: C M C 21
;
_chemical_formula_sum "Si O2"
_cell_formula_units_Z 32
_cell_length_a 8.415859
_cell_length_b 35.782453
_cell_length_c 5.091076
_cell_angle_alpha 90.000000
_cell_angle_beta 90.000000
_cell_angle_gamma 90.000000
_cell_volume 1533.127029
_symmetry_space_group_name_H-M "C M C 21"
_symmetry_group_IT_number 36
_symmetry_cell_setting 'orthorhombic'
loop_
_space_group_symop_operation_xyz
x,y,z
-x,-y,1/2+z
x,-y,1/2+z
-x,y,z
1/2+x,1/2+y,z
1/2-x,1/2-y,1/2+z
1/2+x,1/2-y,1/2+z
1/2-x,1/2+y,z
loop_
_atom_site_type_symbol
_atom_site_label
_atom_site_fract_x
_atom_site_fract_y
_atom_site_fract_z
Si Si1 0.184744 0.645005 0.283370
Si Si2 0.310740 0.521921 0.812451
Si Si3 0.816053 0.269104 0.799641
Si Si4 0.685545 0.606503 0.782692
O O1 0.236951 0.687910 0.307158
O O2 0.286015 0.620981 0.488654
O O3 0.000000 0.639911 0.346023
O O4 0.219910 0.631801 0.988429
O O5 0.242899 0.498341 0.569242
O O6 0.500000 0.521814 0.805325
O O7 0.248701 0.564306 0.801949
O O8 0.787310 0.253528 0.508669
O O9 0.000000 0.264586 0.871566
O O10 0.500000 0.608329 0.849460
#
# Coordination Sequence:
#
# PCOD8176233 Si02
#       4
#     8   8   8   8
#     4  11  24  41  59  84 122 159 186 229 299 355
#     4   9  17  31  53  82 114 145 184 239 291 329
#     4  11  24  41  62  87 116 153 194 237 289 345
#     4  11  22  37  62  91 114 149 202 245 279 335
#
# _framework density 20.872371000000001
#
# number of rings (size 3 to 8) (size 9 to 14) (size 15 to 20)
#    0.000    1.500    0.000    5.250    0.000   14.000 
#    0.000    0.000    0.000   15.000    0.000    0.000 
#    0.000    0.000    0.000    0.000    0.000    0.000 
#
# Total GULP energy -198509.147270 kJ/mol
# GULP energy per Si atom -12406.821704 kJ/mol
# Density = 2.082486 g / cm^3
# Si number density = 20.872371 Si / 1000 Ang^3
#
#
#
# Elastic Constant Matrix: (Units=GPa)
#
#
# Indices 1 2 3 4 5 6 
#
# 1 35.9498 41.0349 12.5087 0.0000 0.0000 0.0000
# 2 41.0349 137.3680 29.2983 0.0000 0.0000 0.0000
# 3 12.5087 29.2983 108.2524 0.0000 0.0000 0.0000
# 4 0.0000 0.0000 0.0000 49.9151 0.0000 0.0000
# 5 0.0000 0.0000 0.0000 0.0000 31.8856 0.0000
# 6 0.0000 0.0000 0.0000 0.0000 0.0000 21.5081
#
#
#
# Elastic Compliance Matrix: (Units=1/GPa)
#
#
# Indices 1 2 3 4 5 6 
#
# 1 0.042457 -0.012349 -0.001564 0.000000 0.000000 0.000000
# 2 -0.012349 0.011318 -0.001636 0.000000 0.000000 0.000000
# 3 -0.001564 -0.001636 0.009861 0.000000 0.000000 0.000000
# 4 0.000000 0.000000 0.000000 0.020034 0.000000 0.000000
# 5 0.000000 0.000000 0.000000 0.000000 0.031362 0.000000
# 6 0.000000 0.000000 0.000000 0.000000 0.000000 0.046494
#
#
# Mechanical properties :
#
#
# Convention : Reuss Voigt Hill
#
# Bulk Modulus (GPa) = 30.73378 49.69491 40.21435
# Shear Modulus (GPa) = 24.57367 33.91030 29.24199
#
# Velocity S-wave (km/s) = 3.43495 4.03507 3.74704
# Velocity P-wave (km/s) = 5.52163 6.75053 6.16677
#
# Compressibility (1/GPa) = 0.03253748
#
# Stress axis : x y z
#
# Youngs Moduli (GPa) = 23.55339 88.35731 101.40790
#
# Poissons Ratio (x) = 1.09115 0.15856
# Poissons Ratio (y) = 0.29087 0.16592
# Poissons Ratio (z) = 0.03683 0.14456
#
# Static dielectric constant tensor:
#      x y z
#    x 3.413620 0.000000 0.000000 
#    y 0.000000 3.978530 0.000000 
#    z 0.000000 0.000000 3.748890 
# 
# 
# High freq. dielectric constant tensor:
#      x y z
#    x 1.794440 0.000000 0.000000 
#    y 0.000000 1.835360 0.000000 
#    z 0.000000 0.000000 1.831660 
# 
# From -- ./inp_files/227.got.cif
#   From: 2010.03.12/outbox.cif.g09.slc.cpg/sg36_1_cif.got.tgz:227.got - 2010.04.14 02:13:53.
