data_PCOD8176840
_publ_section_title
;
Structure prediction by ZEFSAII (Michael W. Deem and Ramdas Pophale) SiO2 
 PCOD8176840
Probable space group: C C C 2
;
_chemical_formula_sum "Si O2"
_cell_formula_units_Z 56
_cell_length_a 20.386046
_cell_length_b 14.502288
_cell_length_c 8.436510
_cell_angle_alpha 90.000000
_cell_angle_beta 90.000000
_cell_angle_gamma 90.000000
_cell_volume 2494.206180
_symmetry_space_group_name_H-M "C C C 2"
_symmetry_group_IT_number 37
_symmetry_cell_setting 'orthorhombic'
loop_
_space_group_symop_operation_xyz
x,y,z
-x,-y,z
-x,y,1/2+z
x,-y,1/2+z
1/2+x,1/2+y,z
1/2-x,1/2-y,z
1/2-x,1/2+y,1/2+z
1/2+x,1/2-y,1/2+z
loop_
_atom_site_type_symbol
_atom_site_label
_atom_site_fract_x
_atom_site_fract_y
_atom_site_fract_z
Si Si1 0.407863 0.935466 0.794040
Si Si2 0.145264 0.725597 0.967154
Si Si3 0.202029 0.423669 0.697434
Si Si4 0.500000 0.000000 0.554287
Si Si5 0.449911 0.617339 0.962616
Si Si6 0.750000 0.250000 0.742949
Si Si7 0.232063 0.087821 0.024950
Si Si8 0.582025 0.573471 0.098803
O O1 0.370738 0.841146 0.818800
O O2 0.464028 0.923448 0.662385
O O3 0.361039 0.021819 0.760752
O O4 0.443303 0.949703 0.961069
O O5 0.084417 0.788249 0.022658
O O6 0.195922 0.788799 0.868550
O O7 0.177165 0.669886 0.113309
O O8 0.243993 0.485819 0.575302
O O9 0.249133 0.395612 0.842195
O O10 0.432378 0.597064 0.780927
O O11 0.528562 0.625742 0.987349
O O12 0.423793 0.536241 0.075976
O O13 0.730438 0.163277 0.632359
O O14 0.154418 0.103957 0.045614
#
# Coordination Sequence:
#
# PCOD8176840 Si02
#       8
#     8   8   8   4   8   4   8   8
#     4  11  21  43  66 104 144 192 241 294 375 442
#     4  12  26  46  73 108 150 191 254 310 373 460
#     4  12  24  45  77 108 150 200 244 309 389 454
#     4  10  22  38  70  96 138 200 238 282 358 462
#     4  11  25  48  74 105 144 193 257 314 374 455
#     4  12  26  48  66 106 148 186 252 312 372 444
#     4  12  24  46  74 106 147 196 243 310 381 454
#     4  11  24  48  74 101 145 195 247 311 391 443
#
# _framework density 22.452033
#
# number of rings (size 3 to 8) (size 9 to 14) (size 15 to 20)
#    0.000    0.571    5.714    2.571    2.000    1.714 
#    5.143    0.000    0.000    0.000    0.000    0.000 
#    0.000    0.000    0.000    0.000    0.000    0.000 
#
# Total GULP energy -347085.590915 kJ/mol
# GULP energy per Si atom -12395.913961 kJ/mol
# Density = 2.240093 g / cm^3
# Si number density = 22.452033 Si / 1000 Ang^3
#
#
#
# Elastic Constant Matrix: (Units=GPa)
#
#
# Indices 1 2 3 4 5 6 
#
# 1 132.8387 37.4045 70.6347 0.0000 0.0000 0.0000
# 2 37.4045 99.5031 57.3551 0.0000 0.0000 0.0000
# 3 70.6347 57.3551 137.3089 0.0000 0.0000 0.0000
# 4 0.0000 0.0000 0.0000 34.2754 0.0000 0.0000
# 5 0.0000 0.0000 0.0000 0.0000 58.7179 0.0000
# 6 0.0000 0.0000 0.0000 0.0000 0.0000 36.6613
#
#
#
# Elastic Compliance Matrix: (Units=1/GPa)
#
#
# Indices 1 2 3 4 5 6 
#
# 1 0.010452 -0.001093 -0.004920 0.000000 0.000000 0.000000
# 2 -0.001093 0.013351 -0.005015 0.000000 0.000000 0.000000
# 3 -0.004920 -0.005015 0.011909 0.000000 0.000000 0.000000
# 4 0.000000 0.000000 0.000000 0.029175 0.000000 0.000000
# 5 0.000000 0.000000 0.000000 0.000000 0.017031 0.000000
# 6 0.000000 0.000000 0.000000 0.000000 0.000000 0.027277
#
#
# Mechanical properties :
#
#
# Convention : Reuss Voigt Hill
#
# Bulk Modulus (GPa) = 73.22706 77.82659 75.52682
# Shear Modulus (GPa) = 36.81825 39.54802 38.18313
#
# Velocity S-wave (km/s) = 4.05391 4.20151 4.12837
# Velocity P-wave (km/s) = 7.38905 7.63385 7.51244
#
# Compressibility (1/GPa) = 0.01365615
#
# Stress axis : x y z
#
# Youngs Moduli (GPa) = 95.67666 74.89873 83.97324
#
# Poissons Ratio (x) = 0.08186 0.41316
# Poissons Ratio (y) = 0.10457 0.42110
# Poissons Ratio (z) = 0.47074 0.37560
#
# Static dielectric constant tensor:
#      x y z
#    x 4.328300 0.000000 0.000000 
#    y 0.000000 3.796550 0.000000 
#    z 0.000000 0.000000 4.117030 
# 
# 
# High freq. dielectric constant tensor:
#      x y z
#    x 1.904090 0.000000 0.000000 
#    y 0.000000 1.862550 0.000000 
#    z 0.000000 0.000000 1.896110 
# 
# From -- ./inp_files/4403.got.cif
#   From: 2010.03.12/outbox.cif.g09.slc.cpg/sg37_3_cif.got.tgz:4403.got - 2010.04.14 02:25:27.
