data_PCOD8176969
_publ_section_title
;
Structure prediction by ZEFSAII (Michael W. Deem and Ramdas Pophale) SiO2 
 PCOD8176969
Probable space group: C C C 2
;
_chemical_formula_sum "Si O2"
_cell_formula_units_Z 48
_cell_length_a 8.580552
_cell_length_b 26.120099
_cell_length_c 9.526452
_cell_angle_alpha 90.000000
_cell_angle_beta 90.000000
_cell_angle_gamma 90.000000
_cell_volume 2135.114794
_symmetry_space_group_name_H-M "C C C 2"
_symmetry_group_IT_number 37
_symmetry_cell_setting 'orthorhombic'
loop_
_space_group_symop_operation_xyz
x,y,z
-x,-y,z
-x,y,1/2+z
x,-y,1/2+z
1/2+x,1/2+y,z
1/2-x,1/2-y,z
1/2-x,1/2+y,1/2+z
1/2+x,1/2-y,1/2+z
loop_
_atom_site_type_symbol
_atom_site_label
_atom_site_fract_x
_atom_site_fract_y
_atom_site_fract_z
Si Si1 0.951862 0.804217 0.715910
Si Si2 0.367572 0.639169 0.940413
Si Si3 0.898052 0.691220 0.785892
Si Si4 0.514964 0.134854 0.028970
Si Si5 0.350003 0.032278 0.078642
Si Si6 0.850572 0.030342 0.853701
O O1 0.954478 0.829054 0.561847
O O2 0.966515 0.742834 0.716623
O O3 0.786753 0.815225 0.786640
O O4 0.095450 0.829148 0.799365
O O5 0.185438 0.631021 0.962741
O O6 0.426707 0.580982 0.925043
O O7 0.974374 0.645787 0.694311
O O8 0.941220 0.683401 0.947913
O O9 0.410944 0.084469 0.006007
O O10 0.252692 0.044485 0.218518
O O11 0.500000 0.000000 0.125756
O O12 0.248217 0.001556 0.966274
O O13 0.000000 0.000000 0.798368
#
# Coordination Sequence:
#
# PCOD8176969 Si02
#       6
#     8   8   8   8   8   8
#     4  10  24  43  69  99 145 179 233 296 365 425
#     4  11  25  44  69 103 140 188 233 302 358 430
#     4  10  23  44  68 102 135 187 234 293 358 438
#     4  11  24  43  72  99 137 185 241 289 359 430
#     4  12  27  48  72 103 144 192 245 298 361 444
#     4  12  29  45  72 107 146 190 242 303 371 434
#
# _framework density 22.481225999999999
#
# number of rings (size 3 to 8) (size 9 to 14) (size 15 to 20)
#    0.000    1.000    1.667    3.000    9.333    3.333 
#    0.000    0.000    0.000    0.000    0.000    0.000 
#    0.000    0.000    0.000    0.000    0.000    0.000 
#
# Total GULP energy -297553.237490 kJ/mol
# GULP energy per Si atom -12398.051562 kJ/mol
# Density = 2.243006 g / cm^3
# Si number density = 22.481226 Si / 1000 Ang^3
#
#
#
# Elastic Constant Matrix: (Units=GPa)
#
#
# Indices 1 2 3 4 5 6 
#
# 1 69.2514 40.1228 35.8149 0.0000 0.0000 0.0000
# 2 40.1228 129.1503 43.3048 0.0000 0.0000 0.0000
# 3 35.8149 43.3048 90.1940 0.0000 0.0000 0.0000
# 4 0.0000 0.0000 0.0000 38.3182 0.0000 0.0000
# 5 0.0000 0.0000 0.0000 0.0000 34.8455 0.0000
# 6 0.0000 0.0000 0.0000 0.0000 0.0000 39.7656
#
#
#
# Elastic Compliance Matrix: (Units=1/GPa)
#
#
# Indices 1 2 3 4 5 6 
#
# 1 0.019929 -0.004217 -0.005889 0.000000 0.000000 0.000000
# 2 -0.004217 0.010121 -0.003185 0.000000 0.000000 0.000000
# 3 -0.005889 -0.003185 0.014955 0.000000 0.000000 0.000000
# 4 0.000000 0.000000 0.000000 0.026097 0.000000 0.000000
# 5 0.000000 0.000000 0.000000 0.000000 0.028698 0.000000
# 6 0.000000 0.000000 0.000000 0.000000 0.000000 0.025147
#
#
# Mechanical properties :
#
#
# Convention : Reuss Voigt Hill
#
# Bulk Modulus (GPa) = 54.27877 58.56452 56.42165
# Shear Modulus (GPa) = 31.71197 33.87609 32.79403
#
# Velocity S-wave (km/s) = 3.75987 3.88604 3.82348
# Velocity P-wave (km/s) = 6.56089 6.80015 6.68159
#
# Compressibility (1/GPa) = 0.01842341
#
# Stress axis : x y z
#
# Youngs Moduli (GPa) = 50.17872 98.80633 66.86818
#
# Poissons Ratio (x) = 0.41663 0.39378
# Poissons Ratio (y) = 0.21159 0.21297
# Poissons Ratio (z) = 0.29550 0.31469
#
# Static dielectric constant tensor:
#      x y z
#    x 4.061770 0.000000 0.000000 
#    y 0.000000 4.224910 0.000000 
#    z 0.000000 0.000000 3.986820 
# 
# 
# High freq. dielectric constant tensor:
#      x y z
#    x 1.889470 0.000000 0.000000 
#    y 0.000000 1.896320 0.000000 
#    z 0.000000 0.000000 1.889700 
# 
# From -- ./inp_files/2417.got.cif
#   From: 2010.03.12/outbox.cif.g09.slc.cpg/sg37_2_cif.got.tgz:2417.got - 2010.04.14 02:25:27.
