data_PCOD8176522
_publ_section_title
;
Structure prediction by ZEFSAII (Michael W. Deem and Ramdas Pophale) SiO2 
 PCOD8176522
Probable space group: C C C 2
;
_chemical_formula_sum "Si O2"
_cell_formula_units_Z 64
_cell_length_a 17.758935
_cell_length_b 20.602759
_cell_length_c 8.909339
_cell_angle_alpha 90.000000
_cell_angle_beta 90.000000
_cell_angle_gamma 90.000000
_cell_volume 3259.776197
_symmetry_space_group_name_H-M "C C C 2"
_symmetry_group_IT_number 37
_symmetry_cell_setting 'orthorhombic'
loop_
_space_group_symop_operation_xyz
x,y,z
-x,-y,z
-x,y,1/2+z
x,-y,1/2+z
1/2+x,1/2+y,z
1/2-x,1/2-y,z
1/2-x,1/2+y,1/2+z
1/2+x,1/2-y,1/2+z
loop_
_atom_site_type_symbol
_atom_site_label
_atom_site_fract_x
_atom_site_fract_y
_atom_site_fract_z
Si Si1 0.371686 0.587941 0.209840
Si Si2 0.150632 0.507575 0.914051
Si Si3 0.419512 0.473148 0.014456
Si Si4 0.439021 0.173777 0.663915
Si Si5 0.446076 0.942695 0.663196
Si Si6 0.009188 0.239384 0.412131
Si Si7 0.527911 0.349792 0.662657
Si Si8 0.707458 0.089226 0.178512
O O1 0.372087 0.530321 0.087872
O O2 0.376922 0.557338 0.374758
O O3 0.437423 0.639781 0.180520
O O4 0.289982 0.622280 0.190474
O O5 0.110863 0.560510 0.804286
O O6 0.202169 0.460203 0.817080
O O7 0.092864 0.461753 0.006258
O O8 0.201731 0.549437 0.024510
O O9 0.500000 0.500000 0.958104
O O10 0.430748 0.418302 0.143918
O O11 0.507306 0.123061 0.642973
O O12 0.435611 0.216242 0.511753
O O13 0.454946 0.217947 0.807916
O O14 0.358159 0.142093 0.688122
O O15 0.500000 0.000000 0.713479
O O16 0.956238 0.196034 0.519914
O O17 0.057529 0.188733 0.309794
#
# Coordination Sequence:
#
# PCOD8176522 Si02
#       8
#     8   8   8   8   8   8   8   8
#     4  11  22  36  60  95 117 151 180 230 311 375
#     4  10  20  32  51  82 123 151 188 229 294 350
#     4  10  20  36  64  94 117 142 191 242 304 346
#     4  11  21  34  57  83 115 153 198 248 279 335
#     4  11  19  31  57  80 110 150 204 249 295 320
#     4  10  22  37  57  86 106 148 211 244 278 318
#     4  10  20  40  63  84 112 146 192 262 282 328
#     4  11  22  35  52  87 127 156 179 227 298 376
#
# _framework density 19.63325
#
# number of rings (size 3 to 8) (size 9 to 14) (size 15 to 20)
#    0.000    1.500    3.750    3.750    1.750    0.000 
#    0.000    2.500    0.000    0.000    6.500    0.000 
#    0.000    0.000    0.000    0.000    0.000    0.000 
#
# Total GULP energy -396709.810790 kJ/mol
# GULP energy per Si atom -12397.181587 kJ/mol
# Density = 1.958856 g / cm^3
# Si number density = 19.633250 Si / 1000 Ang^3
#
#
#
# Elastic Constant Matrix: (Units=GPa)
#
#
# Indices 1 2 3 4 5 6 
#
# 1 93.3873 21.8501 25.2617 0.0000 0.0000 0.0000
# 2 21.8501 78.9334 28.5480 0.0000 0.0000 0.0000
# 3 25.2617 28.5480 117.4385 0.0000 0.0000 0.0000
# 4 0.0000 0.0000 0.0000 34.5986 0.0000 0.0000
# 5 0.0000 0.0000 0.0000 0.0000 9.3427 0.0000
# 6 0.0000 0.0000 0.0000 0.0000 0.0000 13.6804
#
#
#
# Elastic Compliance Matrix: (Units=1/GPa)
#
#
# Indices 1 2 3 4 5 6 
#
# 1 0.011831 -0.002582 -0.001917 0.000000 0.000000 0.000000
# 2 -0.002582 0.014453 -0.002958 0.000000 0.000000 0.000000
# 3 -0.001917 -0.002958 0.009647 0.000000 0.000000 0.000000
# 4 0.000000 0.000000 0.000000 0.028903 0.000000 0.000000
# 5 0.000000 0.000000 0.000000 0.000000 0.107035 0.000000
# 6 0.000000 0.000000 0.000000 0.000000 0.000000 0.073097
#
#
# Mechanical properties :
#
#
# Convention : Reuss Voigt Hill
#
# Bulk Modulus (GPa) = 47.58105 49.00875 48.29490
# Shear Modulus (GPa) = 18.73464 25.79766 22.26615
#
# Velocity S-wave (km/s) = 3.09241 3.62882 3.37130
# Velocity P-wave (km/s) = 6.08590 6.52488 6.30921
#
# Compressibility (1/GPa) = 0.02101677
#
# Stress axis : x y z
#
# Youngs Moduli (GPa) = 84.52559 69.18793 103.66328
#
# Poissons Ratio (x) = 0.17861 0.19876
# Poissons Ratio (y) = 0.21820 0.30665
# Poissons Ratio (z) = 0.16206 0.20467
#
# Static dielectric constant tensor:
#      x y z
#    x 3.549710 0.000000 0.000000 
#    y 0.000000 3.551310 0.000000 
#    z 0.000000 0.000000 3.807460 
# 
# 
# High freq. dielectric constant tensor:
#      x y z
#    x 1.725150 0.000000 0.000000 
#    y 0.000000 1.761410 0.000000 
#    z 0.000000 0.000000 1.790240 
# 
# From -- ./inp_files/4155.got.cif
#   From: 2010.03.12/outbox.cif.g09.slc.cpg/sg37_3_cif.got.tgz:4155.got - 2010.04.14 02:25:27.
