data_PCOD8176643
_publ_section_title
;
Structure prediction by ZEFSAII (Michael W. Deem and Ramdas Pophale) SiO2 
 PCOD8176643
Probable space group: C C C 2
;
_chemical_formula_sum "Si O2"
_cell_formula_units_Z 48
_cell_length_a 17.028818
_cell_length_b 9.292508
_cell_length_c 14.702584
_cell_angle_alpha 90.000000
_cell_angle_beta 90.000000
_cell_angle_gamma 90.000000
_cell_volume 2326.543177
_symmetry_space_group_name_H-M "C C C 2"
_symmetry_group_IT_number 37
_symmetry_cell_setting 'orthorhombic'
loop_
_space_group_symop_operation_xyz
x,y,z
-x,-y,z
-x,y,1/2+z
x,-y,1/2+z
1/2+x,1/2+y,z
1/2-x,1/2-y,z
1/2-x,1/2+y,1/2+z
1/2+x,1/2-y,1/2+z
loop_
_atom_site_type_symbol
_atom_site_label
_atom_site_fract_x
_atom_site_fract_y
_atom_site_fract_z
Si Si1 0.189807 0.527241 0.406690
Si Si2 0.926749 0.275368 0.334083
Si Si3 0.260178 0.081116 0.586589
Si Si4 0.396578 0.227422 0.319530
Si Si5 0.178539 0.976080 0.268973
Si Si6 0.583245 0.996233 0.176314
O O1 0.126546 0.659512 0.417449
O O2 0.248527 0.509222 0.492899
O O3 0.147380 0.374194 0.391525
O O4 0.241632 0.571502 0.319031
O O5 0.891067 0.134101 0.288335
O O6 0.927441 0.404412 0.263593
O O7 0.016608 0.240396 0.360978
O O8 0.250000 0.250000 0.571512
O O9 0.198634 0.021804 0.661152
O O10 0.350392 0.052975 0.610865
O O11 0.346766 0.371427 0.308447
O O12 0.398620 0.161344 0.217570
O O13 0.500000 0.000000 0.122107
#
# Coordination Sequence:
#
# PCOD8176643 Si02
#       6
#     8   8   8   8   8   8
#     4  11  23  39  63  89 121 161 214 251 305 381
#     4  10  20  41  63  87 120 167 203 252 312 370
#     4  12  22  38  64  91 125 168 204 258 321 372
#     4  10  21  38  64  90 121 159 210 258 308 360
#     4  12  21  40  62  92 125 159 200 262 317 371
#     4   9  19  36  59  86 115 157 206 242 294 369
#
# _framework density 20.631468000000002
#
# number of rings (size 3 to 8) (size 9 to 14) (size 15 to 20)
#    0.000    1.333    5.000    4.000    0.000    1.333 
#    6.000    0.000    0.000    2.000    0.000    0.000 
#    0.000    0.000    0.000    0.000    0.000    0.000 
#
# Total GULP energy -297510.201629 kJ/mol
# GULP energy per Si atom -12396.258401 kJ/mol
# Density = 2.058451 g / cm^3
# Si number density = 20.631468 Si / 1000 Ang^3
#
#
#
# Elastic Constant Matrix: (Units=GPa)
#
#
# Indices 1 2 3 4 5 6 
#
# 1 99.7545 23.9325 17.8847 0.0000 0.0000 0.0000
# 2 23.9325 59.2921 15.7076 0.0000 0.0000 0.0000
# 3 17.8847 15.7076 79.7830 0.0000 0.0000 0.0000
# 4 0.0000 0.0000 0.0000 16.9840 0.0000 0.0000
# 5 0.0000 0.0000 0.0000 0.0000 16.4754 0.0000
# 6 0.0000 0.0000 0.0000 0.0000 0.0000 36.1190
#
#
#
# Elastic Compliance Matrix: (Units=1/GPa)
#
#
# Indices 1 2 3 4 5 6 
#
# 1 0.011321 -0.004112 -0.001728 0.000000 0.000000 0.000000
# 2 -0.004112 0.019287 -0.002876 0.000000 0.000000 0.000000
# 3 -0.001728 -0.002876 0.013488 0.000000 0.000000 0.000000
# 4 0.000000 0.000000 0.000000 0.058879 0.000000 0.000000
# 5 0.000000 0.000000 0.000000 0.000000 0.060697 0.000000
# 6 0.000000 0.000000 0.000000 0.000000 0.000000 0.027686
#
#
# Mechanical properties :
#
#
# Convention : Reuss Voigt Hill
#
# Bulk Modulus (GPa) = 37.50293 39.31991 38.41142
# Shear Modulus (GPa) = 22.96988 26.00267 24.48627
#
# Velocity S-wave (km/s) = 3.34030 3.55398 3.44879
# Velocity P-wave (km/s) = 5.75272 5.99505 5.87513
#
# Compressibility (1/GPa) = 0.02666458
#
# Stress axis : x y z
#
# Youngs Moduli (GPa) = 88.33207 51.84826 74.14245
#
# Poissons Ratio (x) = 0.21318 0.12814
# Poissons Ratio (y) = 0.36319 0.21320
# Poissons Ratio (z) = 0.15266 0.14909
#
# Static dielectric constant tensor:
#      x y z
#    x 4.258690 0.000000 0.000000 
#    y 0.000000 3.791220 0.000000 
#    z 0.000000 0.000000 3.485930 
# 
# 
# High freq. dielectric constant tensor:
#      x y z
#    x 1.822090 0.000000 0.000000 
#    y 0.000000 1.806040 0.000000 
#    z 0.000000 0.000000 1.772830 
# 
# From -- ./inp_files/10584.got.cif
#   From: 2010.03.12/outbox.cif.g09.slc.cpg/sg37_6_cif.got.tgz:10584.got - 2010.04.14 02:25:27.
