data_PCOD8176731
_publ_section_title
;
Structure prediction by ZEFSAII (Michael W. Deem and Ramdas Pophale) SiO2 
 PCOD8176731
Probable space group: C C C 2
;
_chemical_formula_sum "Si O2"
_cell_formula_units_Z 40
_cell_length_a 4.951812
_cell_length_b 13.631296
_cell_length_c 24.719699
_cell_angle_alpha 90.000000
_cell_angle_beta 90.000000
_cell_angle_gamma 90.000000
_cell_volume 1668.570168
_symmetry_space_group_name_H-M "C C C 2"
_symmetry_group_IT_number 37
_symmetry_cell_setting 'orthorhombic'
loop_
_space_group_symop_operation_xyz
x,y,z
-x,-y,z
-x,y,1/2+z
x,-y,1/2+z
1/2+x,1/2+y,z
1/2-x,1/2-y,z
1/2-x,1/2+y,1/2+z
1/2+x,1/2-y,1/2+z
loop_
_atom_site_type_symbol
_atom_site_label
_atom_site_fract_x
_atom_site_fract_y
_atom_site_fract_z
Si Si1 0.501272 0.383635 0.211490
Si Si2 0.505119 0.115715 0.778612
Si Si3 0.498727 0.383635 0.592043
Si Si4 0.250000 0.750000 0.435990
Si Si5 0.505119 0.115715 0.524920
Si Si6 0.750000 0.750000 0.367543
O O1 0.500000 0.500000 0.208181
O O2 0.206906 0.350569 0.230989
O O3 0.562340 0.340225 0.151766
O O4 0.714997 0.346971 0.256826
O O5 0.601896 0.164844 0.833863
O O6 0.500000 0.000000 0.789065
O O7 0.500000 0.500000 0.595352
O O8 0.793094 0.350569 0.572544
O O9 0.285003 0.346971 0.546707
O O10 0.398104 0.835156 0.469670
O O11 0.500000 0.703431 0.401766
O O12 0.500000 0.000000 0.514468
#
# Coordination Sequence:
#
# PCOD8176731 Si02
#       6
#     8   8   8   4   8   4
#     4   9  17  33  60  91 124 159 194 241 304 377
#     4  10  21  39  61  88 121 159 204 252 309 377
#     4   9  17  33  60  91 124 159 194 241 304 377
#     4  12  26  44  63  86 121 164 216 278 322 358
#     4  10  21  39  61  88 121 159 204 252 309 377
#     4  12  26  44  63  86 121 164 216 278 322 358
#
# _framework density 23.972621
#
# number of rings (size 3 to 8) (size 9 to 14) (size 15 to 20)
#    0.000    2.000    0.000    3.600    0.000    5.600 
#    0.000    8.000    0.000    0.000    0.000    0.000 
#    0.000    0.000    0.000    0.000    0.000    0.000 
#
# Total GULP energy -247918.312906 kJ/mol
# GULP energy per Si atom -12395.915645 kJ/mol
# Density = 2.391806 g / cm^3
# Si number density = 23.972621 Si / 1000 Ang^3
#
#
#
# Elastic Constant Matrix: (Units=GPa)
#
#
# Indices 1 2 3 4 5 6 
#
# 1 153.8483 10.7829 57.8174 0.0000 0.0000 0.0000
# 2 10.7829 64.0637 37.9100 0.0000 0.0000 0.0000
# 3 57.8174 37.9100 151.5355 0.0000 0.0000 0.0000
# 4 0.0000 0.0000 0.0000 108.8651 0.0000 0.0000
# 5 0.0000 0.0000 0.0000 0.0000 133.9787 0.0000
# 6 0.0000 0.0000 0.0000 0.0000 0.0000 14.2821
#
#
#
# Elastic Compliance Matrix: (Units=1/GPa)
#
#
# Indices 1 2 3 4 5 6 
#
# 1 0.007602 0.000513 -0.003029 0.000000 0.000000 0.000000
# 2 0.000513 0.018356 -0.004788 0.000000 0.000000 0.000000
# 3 -0.003029 -0.004788 0.008953 0.000000 0.000000 0.000000
# 4 0.000000 0.000000 0.000000 0.009186 0.000000 0.000000
# 5 0.000000 0.000000 0.000000 0.000000 0.007464 0.000000
# 6 0.000000 0.000000 0.000000 0.000000 0.000000 0.070018
#
#
# Mechanical properties :
#
#
# Convention : Reuss Voigt Hill
#
# Bulk Modulus (GPa) = 49.25330 64.71868 56.98599
# Shear Modulus (GPa) = 34.97625 68.95434 51.96529
#
# Velocity S-wave (km/s) = 3.82384 5.36901 4.66090
# Velocity P-wave (km/s) = 6.33134 8.09262 7.26555
#
# Compressibility (1/GPa) = 0.02030321
#
# Stress axis : x y z
#
# Youngs Moduli (GPa) = 131.54010 54.47685 111.69987
#
# Poissons Ratio (x) = -0.02793 0.33832
# Poissons Ratio (y) = -0.06745 0.53481
# Poissons Ratio (z) = 0.39842 0.26083
#
# Static dielectric constant tensor:
#      x y z
#    x 4.853140 0.000000 0.000000 
#    y 0.000000 4.362140 0.000000 
#    z 0.000000 0.000000 4.363800 
# 
# 
# High freq. dielectric constant tensor:
#      x y z
#    x 1.969840 0.000000 0.000000 
#    y 0.000000 1.943260 0.000000 
#    z 0.000000 0.000000 1.947400 
# 
# From -- ./inp_files/17867.got.cif
#   From: 2010.03.12/outbox.cif.g09.slc.cpg/sg37_9_cif.got.tgz:17867.got - 2010.04.14 02:25:27.
