data_PCOD8176696
_publ_section_title
;
Structure prediction by ZEFSAII (Michael W. Deem and Ramdas Pophale) SiO2 
 PCOD8176696
Probable space group: C C C 2
;
_chemical_formula_sum "Si O2"
_cell_formula_units_Z 48
_cell_length_a 9.702881
_cell_length_b 10.554388
_cell_length_c 22.722260
_cell_angle_alpha 90.000000
_cell_angle_beta 90.000000
_cell_angle_gamma 90.000000
_cell_volume 2326.940538
_symmetry_space_group_name_H-M "C C C 2"
_symmetry_group_IT_number 37
_symmetry_cell_setting 'orthorhombic'
loop_
_space_group_symop_operation_xyz
x,y,z
-x,-y,z
-x,y,1/2+z
x,-y,1/2+z
1/2+x,1/2+y,z
1/2-x,1/2-y,z
1/2-x,1/2+y,1/2+z
1/2+x,1/2-y,1/2+z
loop_
_atom_site_type_symbol
_atom_site_label
_atom_site_fract_x
_atom_site_fract_y
_atom_site_fract_z
Si Si1 0.221526 0.950350 0.438550
Si Si2 0.873639 0.402343 0.848487
Si Si3 0.156829 0.370567 0.531260
Si Si4 0.845270 0.362653 0.714696
Si Si5 0.036127 0.733440 0.438374
Si Si6 0.852723 0.369118 0.165722
O O1 0.070047 0.884240 0.444793
O O2 0.326074 0.839030 0.422788
O O3 0.238360 0.044179 0.382767
O O4 0.259629 0.016323 0.500200
O O5 0.830353 0.356628 0.784754
O O6 0.000000 0.500000 0.844882
O O7 0.923783 0.281306 0.886631
O O8 0.250000 0.250000 0.529847
O O9 0.120890 0.405242 0.597988
O O10 0.016444 0.334102 0.498101
O O11 0.750000 0.250000 0.688256
O O12 0.792396 0.501777 0.694376
O O13 0.002025 0.335355 0.695607
O O14 0.750000 0.250000 0.175106
#
# Coordination Sequence:
#
# PCOD8176696 Si02
#       6
#     8   8   8   8   8   8
#     4   9  19  34  59  90 117 150 190 236 293 358
#     4   9  17  36  56  86 121 157 193 244 301 362
#     4  10  21  37  56  81 118 156 193 238 296 361
#     4  11  24  41  65  92 118 161 216 260 302 361
#     4   9  19  34  59  90 117 150 190 236 293 358
#     4  10  24  44  63  86 124 167 206 259 312 356
#
# _framework density 20.627945
#
# number of rings (size 3 to 8) (size 9 to 14) (size 15 to 20)
#    0.000    2.333    1.667    1.500    4.667    6.667 
#    0.000    3.333    0.000    0.000    0.000    0.000 
#    0.000    0.000    0.000    0.000    0.000    0.000 
#
# Total GULP energy -297409.631146 kJ/mol
# GULP energy per Si atom -12392.067964 kJ/mol
# Density = 2.058099 g / cm^3
# Si number density = 20.627945 Si / 1000 Ang^3
#
#
#
# Elastic Constant Matrix: (Units=GPa)
#
#
# Indices 1 2 3 4 5 6 
#
# 1 51.4052 62.5258 39.8030 0.0000 0.0000 0.0000
# 2 62.5258 134.6147 58.3519 0.0000 0.0000 0.0000
# 3 39.8030 58.3519 152.6160 0.0000 0.0000 0.0000
# 4 0.0000 0.0000 0.0000 -5.9652 0.0000 0.0000
# 5 0.0000 0.0000 0.0000 0.0000 1.2131 0.0000
# 6 0.0000 0.0000 0.0000 0.0000 0.0000 49.0590
#
#
#
# Elastic Compliance Matrix: (Units=1/GPa)
#
#
# Indices 1 2 3 4 5 6 
#
# 1 0.047401 -0.019967 -0.004728 0.000000 0.000000 0.000000
# 2 -0.019967 0.017316 -0.001413 0.000000 0.000000 0.000000
# 3 -0.004728 -0.001413 0.008326 0.000000 0.000000 0.000000
# 4 0.000000 0.000000 0.000000 -0.167640 0.000000 0.000000
# 5 0.000000 0.000000 0.000000 0.000000 0.824345 0.000000
# 6 0.000000 0.000000 0.000000 0.000000 0.000000 0.020384
#
#
# Mechanical properties :
#
#
# Convention : Reuss Voigt Hill
#
# Bulk Modulus (GPa) = 48.01752 73.33305 60.67528
# Shear Modulus (GPa) = 6.17825 20.72505 13.45165
#
# Velocity S-wave (km/s) = 1.73251 3.17315 2.55641
# Velocity P-wave (km/s) = 5.22786 7.00376 6.17994
#
# Compressibility (1/GPa) = 0.02082573
#
# Stress axis : x y z
#
# Youngs Moduli (GPa) = 21.09648 57.75152 120.11003
#
# Poissons Ratio (x) = 1.15315 0.56788
# Poissons Ratio (y) = 0.42124 0.16970
# Poissons Ratio (z) = 0.09974 0.08160
#
# Static dielectric constant tensor:
#      x y z
#    x 3.786470 0.000000 0.000000 
#    y 0.000000 4.115500 0.000000 
#    z 0.000000 0.000000 4.219360 
# 
# 
# High freq. dielectric constant tensor:
#      x y z
#    x 1.797000 0.000000 0.000000 
#    y 0.000000 1.821250 0.000000 
#    z 0.000000 0.000000 1.801410 
# 
# From -- ./inp_files/18358.got.cif
#   From: 2010.03.12/outbox.cif.g09.slc.cpg/sg37_10_cif.got.tgz:18358.got - 2010.04.14 02:25:27.
