data_PCOD8176308
_publ_section_title
;
Structure prediction by ZEFSAII (Michael W. Deem and Ramdas Pophale) SiO2 
 PCOD8176308
Probable space group: C M C 21
;
_chemical_formula_sum "Si O2"
_cell_formula_units_Z 64
_cell_length_a 26.940521
_cell_length_b 9.146071
_cell_length_c 11.811289
_cell_angle_alpha 90.000000
_cell_angle_beta 90.000000
_cell_angle_gamma 90.000000
_cell_volume 2910.300639
_symmetry_space_group_name_H-M "C M C 21"
_symmetry_group_IT_number 36
_symmetry_cell_setting 'orthorhombic'
loop_
_space_group_symop_operation_xyz
x,y,z
-x,-y,1/2+z
x,-y,1/2+z
-x,y,z
1/2+x,1/2+y,z
1/2-x,1/2-y,1/2+z
1/2+x,1/2-y,1/2+z
1/2-x,1/2+y,z
loop_
_atom_site_type_symbol
_atom_site_label
_atom_site_fract_x
_atom_site_fract_y
_atom_site_fract_z
Si Si1 0.556751 0.270626 0.834780
Si Si2 0.297423 0.076086 0.381962
Si Si3 0.880212 0.582679 0.000653
Si Si4 0.705980 0.724010 0.082237
Si Si5 0.907818 0.727314 0.588000
Si Si6 0.442510 0.601648 0.874658
Si Si7 0.863224 0.753290 0.223324
Si Si8 0.728927 0.448814 0.205277
O O1 0.500000 0.248913 0.872748
O O2 0.590095 0.151363 0.897092
O O3 0.560687 0.241556 0.701416
O O4 0.574924 0.433445 0.866944
O O5 0.283403 0.220990 0.454749
O O6 0.338379 0.117234 0.287946
O O7 0.323842 0.957165 0.463058
O O8 0.247334 0.020211 0.323070
O O9 0.909358 0.438625 0.042407
O O10 0.876306 0.703858 0.097511
O O11 0.648217 0.723596 0.111692
O O12 0.727853 0.561970 0.099888
O O13 0.732742 0.822815 0.175537
O O14 0.932229 0.838763 0.499652
O O15 0.500000 0.615899 0.843083
O O16 0.413528 0.699408 0.783935
O O17 0.826151 0.890190 0.224094
#
# Coordination Sequence:
#
# PCOD8176308 Si02
#       8
#     8   8   8   8   8   8   8   8
#     4  11  26  45  73 109 142 187 245 304 368 438
#     4  11  24  47  66 102 144 184 237 298 356 439
#     4  11  25  46  75 102 147 188 242 303 365 437
#     4  11  25  41  68 100 143 182 239 288 353 429
#     4  11  24  49  72 104 147 192 242 306 367 433
#     4  11  26  48  74 104 145 196 250 308 370 437
#     4  12  25  46  72 104 143 191 242 300 368 429
#     4  12  26  42  69 107 138 194 236 291 363 434
#
# _framework density 21.990853999999999
#
# number of rings (size 3 to 8) (size 9 to 14) (size 15 to 20)
#    0.000    0.750    3.750    4.125    5.250    1.500 
#    2.250    0.000    0.000    0.000    0.000    0.000 
#    0.000    0.000    0.000    0.000    0.000    0.000 
#
# Total GULP energy -397011.498392 kJ/mol
# GULP energy per Si atom -12406.609325 kJ/mol
# Density = 2.194080 g / cm^3
# Si number density = 21.990854 Si / 1000 Ang^3
#
#
#
# Elastic Constant Matrix: (Units=GPa)
#
#
# Indices 1 2 3 4 5 6 
#
# 1 77.1011 41.1715 31.1023 0.0000 0.0000 0.0000
# 2 41.1715 120.0943 50.2937 0.0000 0.0000 0.0000
# 3 31.1023 50.2937 128.1808 0.0000 0.0000 0.0000
# 4 0.0000 0.0000 0.0000 37.4404 0.0000 0.0000
# 5 0.0000 0.0000 0.0000 0.0000 29.8437 0.0000
# 6 0.0000 0.0000 0.0000 0.0000 0.0000 36.3902
#
#
#
# Elastic Compliance Matrix: (Units=1/GPa)
#
#
# Indices 1 2 3 4 5 6 
#
# 1 0.016342 -0.004717 -0.002114 0.000000 0.000000 0.000000
# 2 -0.004717 0.011326 -0.003299 0.000000 0.000000 0.000000
# 3 -0.002114 -0.003299 0.009609 0.000000 0.000000 0.000000
# 4 0.000000 0.000000 0.000000 0.026709 0.000000 0.000000
# 5 0.000000 0.000000 0.000000 0.000000 0.033508 0.000000
# 6 0.000000 0.000000 0.000000 0.000000 0.000000 0.027480
#
#
# Mechanical properties :
#
#
# Convention : Reuss Voigt Hill
#
# Bulk Modulus (GPa) = 58.77114 63.39013 61.08064
# Shear Modulus (GPa) = 33.13318 34.25544 33.69431
#
# Velocity S-wave (km/s) = 3.88581 3.95107 3.91858
# Velocity P-wave (km/s) = 6.84952 7.05003 6.95050
#
# Compressibility (1/GPa) = 0.01701515
#
# Stress axis : x y z
#
# Youngs Moduli (GPa) = 61.19298 88.29620 104.06857
#
# Poissons Ratio (x) = 0.41648 0.22005
# Poissons Ratio (y) = 0.28864 0.34334
# Poissons Ratio (z) = 0.12939 0.29131
#
# Static dielectric constant tensor:
#      x y z
#    x 3.885440 0.000000 0.000000 
#    y 0.000000 4.080680 0.000000 
#    z 0.000000 0.000000 4.012970 
# 
# 
# High freq. dielectric constant tensor:
#      x y z
#    x 1.862600 0.000000 0.000000 
#    y 0.000000 1.873730 0.000000 
#    z 0.000000 0.000000 1.874310 
# 
# From -- ./inp_files/9739.got.cif
#   From: 2010.03.12/outbox.cif.g09.slc.cpg/sg36_5_cif.got.tgz:9739.got - 2010.04.14 02:13:53.
