data_PCOD8176785
_publ_section_title
;
Structure prediction by ZEFSAII (Michael W. Deem and Ramdas Pophale) SiO2 
 PCOD8176785
Probable space group: C C C 2
;
_chemical_formula_sum "Si O2"
_cell_formula_units_Z 56
_cell_length_a 16.305332
_cell_length_b 11.658289
_cell_length_c 13.998253
_cell_angle_alpha 90.000000
_cell_angle_beta 90.000000
_cell_angle_gamma 90.000000
_cell_volume 2660.959727
_symmetry_space_group_name_H-M "C C C 2"
_symmetry_group_IT_number 37
_symmetry_cell_setting 'orthorhombic'
loop_
_space_group_symop_operation_xyz
x,y,z
-x,-y,z
-x,y,1/2+z
x,-y,1/2+z
1/2+x,1/2+y,z
1/2-x,1/2-y,z
1/2-x,1/2+y,1/2+z
1/2+x,1/2-y,1/2+z
loop_
_atom_site_type_symbol
_atom_site_label
_atom_site_fract_x
_atom_site_fract_y
_atom_site_fract_z
Si Si1 0.750000 0.250000 0.432940
Si Si2 0.934051 0.177997 0.710656
Si Si3 0.099100 0.864321 0.507415
Si Si4 0.330464 0.812559 0.837699
Si Si5 0.639667 0.071913 0.326695
Si Si6 0.000000 0.000000 0.362380
Si Si7 0.508524 0.151055 0.949617
Si Si8 0.044122 0.611006 0.156535
O O1 0.805512 0.167395 0.497829
O O2 0.697050 0.169184 0.366516
O O3 0.915713 0.098496 0.617778
O O4 0.849979 0.246143 0.738242
O O5 0.002483 0.270908 0.685951
O O6 0.966822 0.101370 0.796927
O O7 0.074596 0.962141 0.431754
O O8 0.046174 0.752456 0.488779
O O9 0.250000 0.750000 0.883519
O O10 0.415821 0.793339 0.893606
O O11 0.315411 0.948589 0.830129
O O12 0.552716 0.068462 0.386961
O O13 0.629318 0.107242 0.215052
O O14 0.550450 0.090706 0.042488
O O15 0.000000 0.500000 0.201549
#
# Coordination Sequence:
#
# PCOD8176785 Si02
#       8
#     4   8   8   8   8   4   8   8
#     4  10  24  42  62  94 132 178 210 268 322 390
#     4  11  23  40  67  98 122 171 217 264 327 390
#     4  10  23  41  67  92 130 167 221 263 321 394
#     4  12  24  40  62  94 134 167 212 273 324 380
#     4  11  21  42  66  93 133 173 218 267 327 386
#     4  12  22  44  70  92 128 176 212 272 318 398
#     4  10  21  42  67  96 125 167 221 272 322 375
#     4  11  19  38  72  98 122 164 222 270 319 389
#
# _framework density 21.045038999999999
#
# number of rings (size 3 to 8) (size 9 to 14) (size 15 to 20)
#    0.000    1.143    4.286    2.571    3.000    0.000 
#    1.286    0.000    0.000    0.000    0.000    0.000 
#    0.000    0.000    0.000    0.000    0.000    0.000 
#
# Total GULP energy -346942.988853 kJ/mol
# GULP energy per Si atom -12390.821030 kJ/mol
# Density = 2.099714 g / cm^3
# Si number density = 21.045039 Si / 1000 Ang^3
#
#
#
# Elastic Constant Matrix: (Units=GPa)
#
#
# Indices 1 2 3 4 5 6 
#
# 1 113.8416 34.3140 43.6294 0.0000 0.0000 0.0000
# 2 34.3140 96.2380 48.2531 0.0000 0.0000 0.0000
# 3 43.6294 48.2531 140.0319 0.0000 0.0000 0.0000
# 4 0.0000 0.0000 0.0000 26.0586 0.0000 0.0000
# 5 0.0000 0.0000 0.0000 0.0000 12.2041 0.0000
# 6 0.0000 0.0000 0.0000 0.0000 0.0000 41.9674
#
#
#
# Elastic Compliance Matrix: (Units=1/GPa)
#
#
# Indices 1 2 3 4 5 6 
#
# 1 0.010463 -0.002534 -0.002387 0.000000 0.000000 0.000000
# 2 -0.002534 0.013175 -0.003750 0.000000 0.000000 0.000000
# 3 -0.002387 -0.003750 0.009177 0.000000 0.000000 0.000000
# 4 0.000000 0.000000 0.000000 0.038375 0.000000 0.000000
# 5 0.000000 0.000000 0.000000 0.000000 0.081940 0.000000
# 6 0.000000 0.000000 0.000000 0.000000 0.000000 0.023828
#
#
# Mechanical properties :
#
#
# Convention : Reuss Voigt Hill
#
# Bulk Modulus (GPa) = 64.62975 66.94494 65.78734
# Shear Modulus (GPa) = 25.06810 30.97369 28.02090
#
# Velocity S-wave (km/s) = 3.45507 3.84054 3.65289
# Velocity P-wave (km/s) = 6.83327 7.17954 7.00854
#
# Compressibility (1/GPa) = 0.01547275
#
# Stress axis : x y z
#
# Youngs Moduli (GPa) = 95.57891 75.90273 108.96588
#
# Poissons Ratio (x) = 0.19232 0.26007
# Poissons Ratio (y) = 0.24218 0.40867
# Poissons Ratio (z) = 0.22812 0.28467
#
# Static dielectric constant tensor:
#      x y z
#    x 3.747170 0.000000 0.000000 
#    y 0.000000 3.810210 0.000000 
#    z 0.000000 0.000000 4.273580 
# 
# 
# High freq. dielectric constant tensor:
#      x y z
#    x 1.800550 0.000000 0.000000 
#    y 0.000000 1.832500 0.000000 
#    z 0.000000 0.000000 1.834650 
# 
# From -- ./inp_files/12165.got.cif
#   From: 2010.03.12/outbox.cif.g09.slc.cpg/sg37_7_cif.got.tgz:12165.got - 2010.04.14 02:25:27.
