data_PCOD8176038
_publ_section_title
;
Structure prediction by ZEFSAII (Michael W. Deem and Ramdas Pophale) SiO2 
 PCOD8176038
Probable space group: C M C 21
;
_chemical_formula_sum "Si O2"
_cell_formula_units_Z 48
_cell_length_a 24.702324
_cell_length_b 9.604983
_cell_length_c 8.601697
_cell_angle_alpha 90.000000
_cell_angle_beta 90.000000
_cell_angle_gamma 90.000000
_cell_volume 2040.885097
_symmetry_space_group_name_H-M "C M C 21"
_symmetry_group_IT_number 36
_symmetry_cell_setting 'orthorhombic'
loop_
_space_group_symop_operation_xyz
x,y,z
-x,-y,1/2+z
x,-y,1/2+z
-x,y,z
1/2+x,1/2+y,z
1/2-x,1/2-y,1/2+z
1/2+x,1/2-y,1/2+z
1/2-x,1/2+y,z
loop_
_atom_site_type_symbol
_atom_site_label
_atom_site_fract_x
_atom_site_fract_y
_atom_site_fract_z
Si Si1 0.400909 0.802805 0.039520
Si Si2 0.785128 0.818247 0.510699
Si Si3 0.616799 0.932833 0.731605
Si Si4 0.065377 0.809505 0.055572
Si Si5 0.757961 0.572402 0.325100
Si Si6 0.559920 0.426847 0.736725
O O1 0.442758 0.685191 0.095229
O O2 0.396339 0.910641 0.181727
O O3 0.347956 0.714899 0.996312
O O4 0.417983 0.887439 0.884096
O O5 0.752849 0.675397 0.473464
O O6 0.777096 0.870818 0.683905
O O7 0.765648 0.925799 0.378996
O O8 0.598929 0.829980 0.592632
O O9 0.680454 0.932682 0.765809
O O10 0.088611 0.862112 0.888683
O O11 0.000000 0.784040 0.055750
O O12 0.084634 0.926461 0.180018
O O13 0.500000 0.462087 0.790951
#
# Coordination Sequence:
#
# PCOD8176038 Si02
#       6
#     8   8   8   8   8   8
#     4  11  24  40  63  92 123 168 215 268 327 390
#     4  11  24  41  64  92 126 165 211 264 326 391
#     4  11  23  41  63  91 126 167 218 271 327 390
#     4  10  22  41  66  95 131 175 221 272 329 390
#     4  11  23  42  62  90 125 165 210 266 327 390
#     4  10  22  41  64  96 135 174 221 273 326 389
#
# _framework density 23.519209
#
# number of rings (size 3 to 8) (size 9 to 14) (size 15 to 20)
#    0.000    1.333    0.000    6.000    0.000    9.333 
#    0.000    0.000    0.000    0.000    0.000    0.000 
#    0.000    0.000    0.000    0.000    0.000    0.000 
#
# Total GULP energy -297473.202421 kJ/mol
# GULP energy per Si atom -12394.716768 kJ/mol
# Density = 2.346568 g / cm^3
# Si number density = 23.519209 Si / 1000 Ang^3
#
#
#
# Elastic Constant Matrix: (Units=GPa)
#
#
# Indices 1 2 3 4 5 6 
#
# 1 37.1588 32.3915 16.2277 0.0000 0.0000 0.0000
# 2 32.3915 111.6202 -1.4805 0.0000 0.0000 0.0000
# 3 16.2277 -1.4805 66.3842 0.0000 0.0000 0.0000
# 4 0.0000 0.0000 0.0000 54.0691 0.0000 0.0000
# 5 0.0000 0.0000 0.0000 0.0000 30.7345 0.0000
# 6 0.0000 0.0000 0.0000 0.0000 0.0000 34.0035
#
#
#
# Elastic Compliance Matrix: (Units=1/GPa)
#
#
# Indices 1 2 3 4 5 6 
#
# 1 0.042412 -0.012449 -0.010645 0.000000 0.000000 0.000000
# 2 -0.012449 0.012616 0.003325 0.000000 0.000000 0.000000
# 3 -0.010645 0.003325 0.017740 0.000000 0.000000 0.000000
# 4 0.000000 0.000000 0.000000 0.018495 0.000000 0.000000
# 5 0.000000 0.000000 0.000000 0.000000 0.032537 0.000000
# 6 0.000000 0.000000 0.000000 0.000000 0.000000 0.029409
#
#
# Mechanical properties :
#
#
# Convention : Reuss Voigt Hill
#
# Bulk Modulus (GPa) = 30.09461 34.38231 32.23846
# Shear Modulus (GPa) = 24.53093 34.96306 29.74700
#
# Velocity S-wave (km/s) = 3.23308 3.85980 3.56026
# Velocity P-wave (km/s) = 5.17307 5.87491 5.53512
#
# Compressibility (1/GPa) = 0.03322854
#
# Stress axis : x y z
#
# Youngs Moduli (GPa) = 23.57809 79.26654 56.36905
#
# Poissons Ratio (x) = 0.98679 0.60007
# Poissons Ratio (y) = 0.29352 -0.18740
# Poissons Ratio (z) = 0.25100 -0.26352
#
# Static dielectric constant tensor:
#      x y z
#    x 3.839800 0.000000 0.000000 
#    y 0.000000 4.540870 0.000000 
#    z 0.000000 0.000000 4.644630 
# 
# 
# High freq. dielectric constant tensor:
#      x y z
#    x 1.897920 0.000000 0.000000 
#    y 0.000000 1.950060 0.000000 
#    z 0.000000 0.000000 1.946880 
# 
# From -- ./inp_files/5974.got.cif
#   From: 2010.03.12/outbox.cif.g09.slc.cpg/sg36_3_cif.got.tgz:5974.got - 2010.04.14 02:13:53.
