data_PCOD8176339
_publ_section_title
;
Structure prediction by ZEFSAII (Michael W. Deem and Ramdas Pophale) SiO2 
 PCOD8176339
Probable space group: C M C 21
;
_chemical_formula_sum "Si O2"
_cell_formula_units_Z 64
_cell_length_a 28.011926
_cell_length_b 11.277886
_cell_length_c 9.161302
_cell_angle_alpha 90.000000
_cell_angle_beta 90.000000
_cell_angle_gamma 90.000000
_cell_volume 2894.195544
_symmetry_space_group_name_H-M "C M C 21"
_symmetry_group_IT_number 36
_symmetry_cell_setting 'orthorhombic'
loop_
_space_group_symop_operation_xyz
x,y,z
-x,-y,1/2+z
x,-y,1/2+z
-x,y,z
1/2+x,1/2+y,z
1/2-x,1/2-y,1/2+z
1/2+x,1/2-y,1/2+z
1/2-x,1/2+y,z
loop_
_atom_site_type_symbol
_atom_site_label
_atom_site_fract_x
_atom_site_fract_y
_atom_site_fract_z
Si Si1 0.822011 0.099227 0.719110
Si Si2 0.447531 0.617447 0.162513
Si Si3 0.555171 0.867479 0.811433
Si Si4 0.143612 0.260553 0.219098
Si Si5 0.423221 0.596248 0.832172
Si Si6 0.891369 0.486597 0.078967
Si Si7 0.818892 0.312162 0.520666
Si Si8 0.212973 0.111791 0.029498
O O1 0.871046 0.048863 0.784477
O O2 0.835282 0.225185 0.649179
O O3 0.797580 0.016418 0.598246
O O4 0.786193 0.109113 0.854483
O O5 0.500000 0.680387 0.150011
O O6 0.409209 0.703736 0.239618
O O7 0.457448 0.497561 0.253391
O O8 0.427870 0.582733 0.004505
O O9 0.500000 0.889251 0.844157
O O10 0.565066 0.729159 0.782007
O O11 0.569064 0.939801 0.667078
O O12 0.584636 0.910104 0.951530
O O13 0.136412 0.398701 0.186699
O O14 0.175340 0.245497 0.365179
O O15 0.172983 0.202948 0.086259
O O16 0.852376 0.573835 0.011897
O O17 0.765692 0.346098 0.568163
#
# Coordination Sequence:
#
# PCOD8176339 Si02
#       8
#     8   8   8   8   8   8   8   8
#     4  12  24  49  72 106 143 188 236 304 367 431
#     4  12  26  45  73 106 145 192 240 299 369 438
#     4  12  25  47  74 102 142 195 245 298 367 442
#     4  12  26  49  71 105 145 189 240 306 363 437
#     4  12  24  47  72 105 148 186 239 299 365 428
#     4  12  26  47  69 102 145 186 236 305 360 433
#     4  12  29  46  73 105 143 190 244 301 368 439
#     4  12  27  46  77 103 143 190 241 302 370 446
#
# _framework density 22.113226000000001
#
# number of rings (size 3 to 8) (size 9 to 14) (size 15 to 20)
#    0.000    0.000    6.250    3.000    5.250    0.500 
#    0.000    0.000    0.000    0.000    0.000    0.000 
#    0.000    0.000    0.000    0.000    0.000    0.000 
#
# Total GULP energy -396934.161522 kJ/mol
# GULP energy per Si atom -12404.192548 kJ/mol
# Density = 2.206290 g / cm^3
# Si number density = 22.113226 Si / 1000 Ang^3
#
#
#
# Elastic Constant Matrix: (Units=GPa)
#
#
# Indices 1 2 3 4 5 6 
#
# 1 130.9341 20.9959 29.8963 0.0000 0.0000 0.0000
# 2 20.9959 103.8770 40.6139 0.0000 0.0000 0.0000
# 3 29.8963 40.6139 94.5104 0.0000 0.0000 0.0000
# 4 0.0000 0.0000 0.0000 34.6057 0.0000 0.0000
# 5 0.0000 0.0000 0.0000 0.0000 17.9258 0.0000
# 6 0.0000 0.0000 0.0000 0.0000 0.0000 29.6703
#
#
#
# Elastic Compliance Matrix: (Units=1/GPa)
#
#
# Indices 1 2 3 4 5 6 
#
# 1 0.008284 -0.000781 -0.002285 0.000000 0.000000 0.000000
# 2 -0.000781 0.011645 -0.004757 0.000000 0.000000 0.000000
# 3 -0.002285 -0.004757 0.013348 0.000000 0.000000 0.000000
# 4 0.000000 0.000000 0.000000 0.028897 0.000000 0.000000
# 5 0.000000 0.000000 0.000000 0.000000 0.055786 0.000000
# 6 0.000000 0.000000 0.000000 0.000000 0.000000 0.033704
#
#
# Mechanical properties :
#
#
# Convention : Reuss Voigt Hill
#
# Bulk Modulus (GPa) = 56.71874 56.92596 56.82235
# Shear Modulus (GPa) = 28.87071 32.29470 30.58271
#
# Velocity S-wave (km/s) = 3.61721 3.82570 3.72291
# Velocity P-wave (km/s) = 6.56891 6.73153 6.65071
#
# Compressibility (1/GPa) = 0.01763086
#
# Stress axis : x y z
#
# Youngs Moduli (GPa) = 120.70874 85.87738 74.91865
#
# Poissons Ratio (x) = 0.06708 0.17118
# Poissons Ratio (y) = 0.09429 0.35638
# Poissons Ratio (z) = 0.27581 0.40851
#
# Static dielectric constant tensor:
#      x y z
#    x 4.034900 0.000000 0.000000 
#    y 0.000000 3.976530 0.000000 
#    z 0.000000 0.000000 3.951750 
# 
# 
# High freq. dielectric constant tensor:
#      x y z
#    x 1.880770 0.000000 0.000000 
#    y 0.000000 1.875560 0.000000 
#    z 0.000000 0.000000 1.877080 
# 
# From -- ./inp_files/6071.got.cif
#   From: 2010.03.12/outbox.cif.g09.slc.cpg/sg36_4_cif.got.tgz:6071.got - 2010.04.14 02:13:53.
