data_PCOD8176699
_publ_section_title
;
Structure prediction by ZEFSAII (Michael W. Deem and Ramdas Pophale) SiO2 
 PCOD8176699
Probable space group: C C C 2
;
_chemical_formula_sum "Si O2"
_cell_formula_units_Z 64
_cell_length_a 15.325022
_cell_length_b 35.063820
_cell_length_c 5.290891
_cell_angle_alpha 90.000000
_cell_angle_beta 90.000000
_cell_angle_gamma 90.000000
_cell_volume 2843.080453
_symmetry_space_group_name_H-M "C C C 2"
_symmetry_group_IT_number 37
_symmetry_cell_setting 'orthorhombic'
loop_
_space_group_symop_operation_xyz
x,y,z
-x,-y,z
-x,y,1/2+z
x,-y,1/2+z
1/2+x,1/2+y,z
1/2-x,1/2-y,z
1/2-x,1/2+y,1/2+z
1/2+x,1/2-y,1/2+z
loop_
_atom_site_type_symbol
_atom_site_label
_atom_site_fract_x
_atom_site_fract_y
_atom_site_fract_z
Si Si1 0.446893 0.918008 0.345930
Si Si2 0.304782 0.977676 0.284239
Si Si3 0.948393 0.669275 0.861457
Si Si4 0.344631 0.271405 0.263856
Si Si5 0.897853 0.976127 0.795317
Si Si6 0.350523 0.760247 0.263538
Si Si7 0.607680 0.641457 0.291352
Si Si8 0.916202 0.890333 0.791456
O O1 0.493056 0.929229 0.608079
O O2 0.355648 0.938907 0.326598
O O3 0.420059 0.874098 0.337865
O O4 0.203958 0.967145 0.297569
O O5 0.330633 0.006177 0.510293
O O6 0.863008 0.694736 0.807119
O O7 0.018803 0.678854 0.643479
O O8 0.250000 0.250000 0.239213
O O9 0.396379 0.253389 0.502676
O O10 0.348159 0.316887 0.297655
O O11 0.393432 0.262336 0.999904
O O12 0.945135 0.934865 0.793749
O O13 0.925111 0.000207 0.546226
O O14 0.250000 0.750000 0.228270
O O15 0.641046 0.619332 0.542315
O O16 0.501737 0.637270 0.289852
O O17 0.641407 0.619883 0.038883
#
# Coordination Sequence:
#
# PCOD8176699 Si02
#       8
#     8   8   8   8   8   8   8   8
#     4  10  21  37  59  84 118 153 194 241 303 362
#     4  10  21  37  58  87 121 154 197 244 294 354
#     4  10  21  40  59  86 119 158 197 247 303 369
#     4  10  21  40  60  85 118 156 196 259 314 369
#     4  10  21  40  63  88 125 166 207 247 299 365
#     4  10  21  40  63  85 118 151 206 250 300 365
#     4  10  21  40  58  88 124 152 202 254 306 358
#     4  10  21  40  63  89 125 164 203 250 310 355
#
# _framework density 22.510794000000001
#
# number of rings (size 3 to 8) (size 9 to 14) (size 15 to 20)
#    0.000    2.000    0.000    3.000    0.000    1.500 
#   22.500    7.500    0.000    0.000    0.000    0.000 
#    0.000    0.000    0.000    0.000    0.000    0.000 
#
# Total GULP energy -396497.200993 kJ/mol
# GULP energy per Si atom -12390.537531 kJ/mol
# Density = 2.245956 g / cm^3
# Si number density = 22.510794 Si / 1000 Ang^3
#
#
#
# Elastic Constant Matrix: (Units=GPa)
#
#
# Indices 1 2 3 4 5 6 
#
# 1 60.4133 40.6302 -0.5277 0.0000 0.0000 0.0000
# 2 40.6302 124.4253 32.9610 0.0000 0.0000 0.0000
# 3 -0.5277 32.9610 211.8180 0.0000 0.0000 0.0000
# 4 0.0000 0.0000 0.0000 32.9809 0.0000 0.0000
# 5 0.0000 0.0000 0.0000 0.0000 8.8303 0.0000
# 6 0.0000 0.0000 0.0000 0.0000 0.0000 34.6913
#
#
#
# Elastic Compliance Matrix: (Units=1/GPa)
#
#
# Indices 1 2 3 4 5 6 
#
# 1 0.021497 -0.007336 0.001195 0.000000 0.000000 0.000000
# 2 -0.007336 0.010886 -0.001712 0.000000 0.000000 0.000000
# 3 0.001195 -0.001712 0.004990 0.000000 0.000000 0.000000
# 4 0.000000 0.000000 0.000000 0.030321 0.000000 0.000000
# 5 0.000000 0.000000 0.000000 0.000000 0.113246 0.000000
# 6 0.000000 0.000000 0.000000 0.000000 0.000000 0.028826
#
#
# Mechanical properties :
#
#
# Convention : Reuss Voigt Hill
#
# Bulk Modulus (GPa) = 46.15356 60.30930 53.23143
# Shear Modulus (GPa) = 21.48734 36.87337 29.18036
#
# Velocity S-wave (km/s) = 3.09291 4.05165 3.60430
# Velocity P-wave (km/s) = 5.77080 6.98121 6.40466
#
# Compressibility (1/GPa) = 0.02166680
#
# Stress axis : x y z
#
# Youngs Moduli (GPa) = 46.51808 91.85976 200.38238
#
# Poissons Ratio (x) = 0.67391 -0.23949
# Poissons Ratio (y) = 0.34127 0.34311
# Poissons Ratio (z) = -0.05560 0.15729
#
# Static dielectric constant tensor:
#      x y z
#    x 3.546930 0.000000 0.000000 
#    y 0.000000 3.992380 0.000000 
#    z 0.000000 0.000000 5.651400 
# 
# 
# High freq. dielectric constant tensor:
#      x y z
#    x 1.842640 0.000000 0.000000 
#    y 0.000000 1.887780 0.000000 
#    z 0.000000 0.000000 1.932300 
# 
# From -- ./inp_files/890.got.cif
#   From: 2010.03.12/outbox.cif.g09.slc.cpg/sg37_1_cif.got.tgz:890.got - 2010.04.14 02:25:27.
