data_PCOD8176867
_publ_section_title
;
Structure prediction by ZEFSAII (Michael W. Deem and Ramdas Pophale) SiO2 
 PCOD8176867
Probable space group: C C C 2
;
_chemical_formula_sum "Si O2"
_cell_formula_units_Z 56
_cell_length_a 22.586560
_cell_length_b 8.517156
_cell_length_c 14.463866
_cell_angle_alpha 90.000000
_cell_angle_beta 90.000000
_cell_angle_gamma 90.000000
_cell_volume 2782.460983
_symmetry_space_group_name_H-M "C C C 2"
_symmetry_group_IT_number 37
_symmetry_cell_setting 'orthorhombic'
loop_
_space_group_symop_operation_xyz
x,y,z
-x,-y,z
-x,y,1/2+z
x,-y,1/2+z
1/2+x,1/2+y,z
1/2-x,1/2-y,z
1/2-x,1/2+y,1/2+z
1/2+x,1/2-y,1/2+z
loop_
_atom_site_type_symbol
_atom_site_label
_atom_site_fract_x
_atom_site_fract_y
_atom_site_fract_z
Si Si1 0.534434 0.650305 0.955540
Si Si2 0.564379 0.948632 0.054915
Si Si3 0.801178 0.868934 0.100876
Si Si4 0.079870 0.688037 0.896634
Si Si5 0.852530 0.996062 0.413608
Si Si6 0.243284 0.934201 0.258087
Si Si7 0.140745 0.390033 0.217881
O O1 0.500000 0.500000 0.000627
O O2 0.487234 0.749020 0.896793
O O3 0.587281 0.591501 0.887361
O O4 0.562323 0.761261 0.035014
O O5 0.612017 0.989222 0.134212
O O6 0.500000 0.000000 0.089418
O O7 0.585825 0.040066 0.964152
O O8 0.750000 0.750000 0.066891
O O9 0.840573 0.777664 0.176116
O O10 0.777682 0.021418 0.155241
O O11 0.833700 0.933402 0.011664
O O12 0.089642 0.635327 0.792224
O O13 0.129733 0.814385 0.926263
O O14 0.801755 0.008909 0.337308
O O15 0.250000 0.750000 0.266751
O O16 0.306409 0.019534 0.270620
#
# Coordination Sequence:
#
# PCOD8176867 Si02
#       7
#     8   8   8   8   8   8   8
#     4   9  20  40  64  96 128 169 219 264 329 401
#     4  10  22  41  65  96 130 173 216 272 336 392
#     4  10  22  42  64  91 127 170 214 268 327 385
#     4  10  23  40  67  97 129 171 216 277 328 396
#     4  11  21  42  69  90 132 174 213 268 335 389
#     4  11  26  41  61  97 126 169 226 266 321 403
#     4  11  23  44  64  94 136 171 216 277 326 392
#
# _framework density 20.126068
#
# number of rings (size 3 to 8) (size 9 to 14) (size 15 to 20)
#    0.000    1.714    2.857    0.429    4.000    4.000 
#    0.000    2.143    0.000    0.000    0.000    0.000 
#    0.000    0.000    0.000    0.000    0.000    0.000 
#
# Total GULP energy -347085.475689 kJ/mol
# GULP energy per Si atom -12395.909846 kJ/mol
# Density = 2.008026 g / cm^3
# Si number density = 20.126068 Si / 1000 Ang^3
#
#
#
# Elastic Constant Matrix: (Units=GPa)
#
#
# Indices 1 2 3 4 5 6 
#
# 1 109.9499 43.3111 58.5425 0.0000 0.0000 0.0000
# 2 43.3111 105.1689 43.5694 0.0000 0.0000 0.0000
# 3 58.5425 43.5694 99.6373 0.0000 0.0000 0.0000
# 4 0.0000 0.0000 0.0000 9.2398 0.0000 0.0000
# 5 0.0000 0.0000 0.0000 0.0000 36.3551 0.0000
# 6 0.0000 0.0000 0.0000 0.0000 0.0000 28.7057
#
#
#
# Elastic Compliance Matrix: (Units=1/GPa)
#
#
# Indices 1 2 3 4 5 6 
#
# 1 0.013906 -0.002860 -0.006920 0.000000 0.000000 0.000000
# 2 -0.002860 0.012200 -0.003655 0.000000 0.000000 0.000000
# 3 -0.006920 -0.003655 0.015700 0.000000 0.000000 0.000000
# 4 0.000000 0.000000 0.000000 0.108227 0.000000 0.000000
# 5 0.000000 0.000000 0.000000 0.000000 0.027506 0.000000
# 6 0.000000 0.000000 0.000000 0.000000 0.000000 0.034836
#
#
# Mechanical properties :
#
#
# Convention : Reuss Voigt Hill
#
# Bulk Modulus (GPa) = 66.94478 67.28911 67.11695
# Shear Modulus (GPa) = 20.47292 26.14900 23.31096
#
# Velocity S-wave (km/s) = 3.19287 3.60844 3.40699
# Velocity P-wave (km/s) = 6.85036 7.13214 6.99267
#
# Compressibility (1/GPa) = 0.01493768
#
# Stress axis : x y z
#
# Youngs Moduli (GPa) = 71.91020 81.96476 63.69286
#
# Poissons Ratio (x) = 0.23443 0.44076
# Poissons Ratio (y) = 0.20567 0.23277
# Poissons Ratio (z) = 0.49762 0.29954
#
# Static dielectric constant tensor:
#      x y z
#    x 3.935830 0.000000 0.000000 
#    y 0.000000 3.812540 0.000000 
#    z 0.000000 0.000000 3.385560 
# 
# 
# High freq. dielectric constant tensor:
#      x y z
#    x 1.802270 0.000000 0.000000 
#    y 0.000000 1.792640 0.000000 
#    z 0.000000 0.000000 1.764950 
# 
# From -- ./inp_files/12929.got.cif
#   From: 2010.03.12/outbox.cif.g09.slc.cpg/sg37_7_cif.got.tgz:12929.got - 2010.04.14 02:25:27.
