data_PCOD8176167
_publ_section_title
;
Structure prediction by ZEFSAII (Michael W. Deem and Ramdas Pophale) SiO2 
 PCOD8176167
Probable space group: C M C 21
;
_chemical_formula_sum "Si O2"
_cell_formula_units_Z 48
_cell_length_a 23.093121
_cell_length_b 11.029955
_cell_length_c 8.931368
_cell_angle_alpha 90.000000
_cell_angle_beta 90.000000
_cell_angle_gamma 90.000000
_cell_volume 2274.963095
_symmetry_space_group_name_H-M "C M C 21"
_symmetry_group_IT_number 36
_symmetry_cell_setting 'orthorhombic'
loop_
_space_group_symop_operation_xyz
x,y,z
-x,-y,1/2+z
x,-y,1/2+z
-x,y,z
1/2+x,1/2+y,z
1/2-x,1/2-y,1/2+z
1/2+x,1/2-y,1/2+z
1/2-x,1/2+y,z
loop_
_atom_site_type_symbol
_atom_site_label
_atom_site_fract_x
_atom_site_fract_y
_atom_site_fract_z
Si Si1 0.868744 0.885691 0.811180
Si Si2 0.190803 0.647421 0.703730
Si Si3 0.868577 0.495491 0.450058
Si Si4 0.000000 0.849645 0.196913
Si Si5 0.099692 0.334695 0.702010
Si Si6 0.500000 0.412139 0.859879
Si Si7 0.325121 0.626172 0.649976
O O1 0.831851 0.785098 0.720303
O O2 0.938608 0.856136 0.798178
O O3 0.853902 0.017221 0.743796
O O4 0.848926 0.885968 0.982415
O O5 0.181352 0.575088 0.858830
O O6 0.156337 0.589082 0.567937
O O7 0.256600 0.629166 0.658191
O O8 0.908325 0.566840 0.332358
O O9 0.907392 0.397860 0.539372
O O10 0.945464 0.768727 0.221900
O O11 0.000000 0.946819 0.326571
O O12 0.000000 0.911897 0.037299
O O13 0.159857 0.260529 0.714085
#
# Coordination Sequence:
#
# PCOD8176167 Si02
#       7
#     8   8   8   4   8   4   8
#     4  12  26  44  70 105 134 190 223 290 350 407
#     4  11  25  43  69  99 140 178 232 281 344 416
#     4  10  24  45  65  96 133 183 221 280 340 408
#     4  12  24  44  70  96 140 176 230 293 331 419
#     4  11  24  44  66  97 134 179 230 282 343 406
#     4  12  22  46  68 102 142 176 234 283 345 409
#     4  12  26  41  67 103 138 175 231 281 353 406
#
# _framework density 21.099245
#
# number of rings (size 3 to 8) (size 9 to 14) (size 15 to 20)
#    0.000    0.667    5.000    1.000    9.333    2.000 
#    0.000    3.333    0.000    0.000    0.000    0.000 
#    0.000    0.000    0.000    0.000    0.000    0.000 
#
# Total GULP energy -297464.693337 kJ/mol
# GULP energy per Si atom -12394.362222 kJ/mol
# Density = 2.105122 g / cm^3
# Si number density = 21.099245 Si / 1000 Ang^3
#
#
#
# Elastic Constant Matrix: (Units=GPa)
#
#
# Indices 1 2 3 4 5 6 
#
# 1 110.1138 23.2626 29.7221 0.0000 0.0000 0.0000
# 2 23.2626 121.0047 41.2550 0.0000 0.0000 0.0000
# 3 29.7221 41.2550 71.5595 0.0000 0.0000 0.0000
# 4 0.0000 0.0000 0.0000 37.3433 0.0000 0.0000
# 5 0.0000 0.0000 0.0000 0.0000 22.6421 0.0000
# 6 0.0000 0.0000 0.0000 0.0000 0.0000 49.5176
#
#
#
# Elastic Compliance Matrix: (Units=1/GPa)
#
#
# Indices 1 2 3 4 5 6 
#
# 1 0.010269 -0.000647 -0.003892 0.000000 0.000000 0.000000
# 2 -0.000647 0.010327 -0.005685 0.000000 0.000000 0.000000
# 3 -0.003892 -0.005685 0.018868 0.000000 0.000000 0.000000
# 4 0.000000 0.000000 0.000000 0.026779 0.000000 0.000000
# 5 0.000000 0.000000 0.000000 0.000000 0.044166 0.000000
# 6 0.000000 0.000000 0.000000 0.000000 0.000000 0.020195
#
#
# Mechanical properties :
#
#
# Convention : Reuss Voigt Hill
#
# Bulk Modulus (GPa) = 52.58745 54.57306 53.58026
# Shear Modulus (GPa) = 31.76841 35.79647 33.78244
#
# Velocity S-wave (km/s) = 3.88450 4.12342 4.00574
# Velocity P-wave (km/s) = 6.71544 6.97074 6.84428
#
# Compressibility (1/GPa) = 0.01901594
#
# Stress axis : x y z
#
# Youngs Moduli (GPa) = 97.38254 96.83659 52.99920
#
# Poissons Ratio (x) = 0.06267 0.20627
# Poissons Ratio (y) = 0.06303 0.30128
# Poissons Ratio (z) = 0.37901 0.55048
#
# Static dielectric constant tensor:
#      x y z
#    x 3.854950 0.000000 0.000000 
#    y 0.000000 4.153800 0.000000 
#    z 0.000000 0.000000 4.037920 
# 
# 
# High freq. dielectric constant tensor:
#      x y z
#    x 1.822640 0.000000 0.000000 
#    y 0.000000 1.845850 0.000000 
#    z 0.000000 0.000000 1.836880 
# 
# From -- ./inp_files/5563.got.cif
#   From: 2010.03.12/outbox.cif.g09.slc.cpg/sg36_3_cif.got.tgz:5563.got - 2010.04.14 02:13:53.
