data_PCOD8176694
_publ_section_title
;
Structure prediction by ZEFSAII (Michael W. Deem and Ramdas Pophale) SiO2 
 PCOD8176694
Probable space group: C C C 2
;
_chemical_formula_sum "Si O2"
_cell_formula_units_Z 64
_cell_length_a 10.166447
_cell_length_b 10.185873
_cell_length_c 31.131267
_cell_angle_alpha 90.000000
_cell_angle_beta 90.000000
_cell_angle_gamma 90.000000
_cell_volume 3223.771519
_symmetry_space_group_name_H-M "C C C 2"
_symmetry_group_IT_number 37
_symmetry_cell_setting 'orthorhombic'
loop_
_space_group_symop_operation_xyz
x,y,z
-x,-y,z
-x,y,1/2+z
x,-y,1/2+z
1/2+x,1/2+y,z
1/2-x,1/2-y,z
1/2-x,1/2+y,1/2+z
1/2+x,1/2-y,1/2+z
loop_
_atom_site_type_symbol
_atom_site_label
_atom_site_fract_x
_atom_site_fract_y
_atom_site_fract_z
Si Si1 0.644364 0.358064 0.126880
Si Si2 0.355905 0.358122 0.525156
Si Si3 0.983517 0.707252 0.821599
Si Si4 0.097639 0.114702 0.253725
Si Si5 0.710976 0.016111 0.826622
Si Si6 0.644665 0.636672 0.890786
Si Si7 0.646257 0.353216 0.658633
Si Si8 0.136451 0.139396 0.987757
O O1 0.750000 0.250000 0.142747
O O2 0.642314 0.368141 0.076028
O O3 0.500324 0.316416 0.143341
O O4 0.686013 0.499458 0.145384
O O5 0.250000 0.250000 0.509352
O O6 0.314212 0.501294 0.507359
O O7 0.502009 0.313927 0.510514
O O8 0.016058 0.768691 0.775631
O O9 0.100589 0.618789 0.839411
O O10 0.850959 0.624528 0.813995
O O11 0.969758 0.817887 0.858229
O O12 0.160426 0.164387 0.209826
O O13 0.209397 0.067115 0.286082
O O14 0.000000 0.000000 0.240732
O O15 0.797216 0.996152 0.869628
O O16 0.750000 0.750000 0.895075
O O17 0.594843 0.609044 0.938564
O O18 0.750000 0.250000 0.637876
O O19 0.250000 0.250000 0.993277
#
# Coordination Sequence:
#
# PCOD8176694 Si02
#       8
#     8   8   8   8   8   8   8   8
#     4  10  23  43  63  88 120 154 189 237 296 357
#     4  10  23  41  61  89 122 151 191 239 293 357
#     4  10  21  37  56  79 112 153 196 240 282 331
#     4  12  22  37  59  82 115 153 190 237 291 338
#     4  10  21  37  56  79 112 153 196 240 282 331
#     4   9  19  35  55  82 114 151 195 238 283 335
#     4  11  23  41  63  90 120 152 194 244 293 351
#     4  10  21  38  62  89 120 156 197 242 293 348
#
# _framework density 19.852523000000001
#
# number of rings (size 3 to 8) (size 9 to 14) (size 15 to 20)
#    0.000    1.750    2.500    2.625    0.000    7.000 
#    0.000    5.000    0.000    0.000    0.000    0.000 
#    0.000    0.000    0.000    0.000    0.000    0.000 
#
# Total GULP energy -396727.147366 kJ/mol
# GULP energy per Si atom -12397.723355 kJ/mol
# Density = 1.980734 g / cm^3
# Si number density = 19.852523 Si / 1000 Ang^3
#
#
#
# Elastic Constant Matrix: (Units=GPa)
#
#
# Indices 1 2 3 4 5 6 
#
# 1 88.5538 58.8728 21.5544 0.0000 0.0000 0.0000
# 2 58.8728 106.4799 31.3856 0.0000 0.0000 0.0000
# 3 21.5544 31.3856 108.1645 0.0000 0.0000 0.0000
# 4 0.0000 0.0000 0.0000 21.7092 0.0000 0.0000
# 5 0.0000 0.0000 0.0000 0.0000 18.7801 0.0000
# 6 0.0000 0.0000 0.0000 0.0000 0.0000 44.6906
#
#
#
# Elastic Compliance Matrix: (Units=1/GPa)
#
#
# Indices 1 2 3 4 5 6 
#
# 1 0.017913 -0.009680 -0.000761 0.000000 0.000000 0.000000
# 2 -0.009680 0.015501 -0.002569 0.000000 0.000000 0.000000
# 3 -0.000761 -0.002569 0.010142 0.000000 0.000000 0.000000
# 4 0.000000 0.000000 0.000000 0.046063 0.000000 0.000000
# 5 0.000000 0.000000 0.000000 0.000000 0.053248 0.000000
# 6 0.000000 0.000000 0.000000 0.000000 0.000000 0.022376
#
#
# Mechanical properties :
#
#
# Convention : Reuss Voigt Hill
#
# Bulk Modulus (GPa) = 57.02278 58.53598 57.77938
# Shear Modulus (GPa) = 25.36675 29.79500 27.58087
#
# Velocity S-wave (km/s) = 3.57845 3.87824 3.73136
# Velocity P-wave (km/s) = 6.77195 7.04299 6.90880
#
# Compressibility (1/GPa) = 0.01753685
#
# Stress axis : x y z
#
# Youngs Moduli (GPa) = 55.82451 64.51322 98.59821
#
# Poissons Ratio (x) = 0.62449 0.07502
# Poissons Ratio (y) = 0.54038 0.25328
# Poissons Ratio (z) = 0.04247 0.16572
#
# Static dielectric constant tensor:
#      x y z
#    x 3.677340 0.000000 0.000000 
#    y 0.000000 3.579010 0.000000 
#    z 0.000000 0.000000 3.731540 
# 
# 
# High freq. dielectric constant tensor:
#      x y z
#    x 1.779500 0.000000 0.000000 
#    y 0.000000 1.781600 0.000000 
#    z 0.000000 0.000000 1.775960 
# 
# From -- ./inp_files/20413.got.cif
#   From: 2010.03.12/outbox.cif.g09.slc.cpg/sg37_11_cif.got.tgz:20413.got - 2010.04.14 02:25:27.
