data_PCOD8176333
_publ_section_title
;
Structure prediction by ZEFSAII (Michael W. Deem and Ramdas Pophale) SiO2 
 PCOD8176333
Probable space group: C M C 21
;
_chemical_formula_sum "Si O2"
_cell_formula_units_Z 48
_cell_length_a 14.191704
_cell_length_b 8.868573
_cell_length_c 16.326607
_cell_angle_alpha 90.000000
_cell_angle_beta 90.000000
_cell_angle_gamma 90.000000
_cell_volume 2054.869417
_symmetry_space_group_name_H-M "C M C 21"
_symmetry_group_IT_number 36
_symmetry_cell_setting 'orthorhombic'
loop_
_space_group_symop_operation_xyz
x,y,z
-x,-y,1/2+z
x,-y,1/2+z
-x,y,z
1/2+x,1/2+y,z
1/2-x,1/2-y,1/2+z
1/2+x,1/2-y,1/2+z
1/2-x,1/2+y,z
loop_
_atom_site_type_symbol
_atom_site_label
_atom_site_fract_x
_atom_site_fract_y
_atom_site_fract_z
Si Si1 0.500000 0.569367 0.740500
Si Si2 0.500000 0.259037 0.653119
Si Si3 0.690689 0.056827 0.412558
Si Si4 0.806619 0.844637 0.314016
Si Si5 0.500000 0.956737 0.006285
Si Si6 0.311367 0.431344 0.061965
Si Si7 0.199707 0.775622 0.665803
Si Si8 0.500000 0.267948 0.087287
O O1 0.500000 0.439780 0.670270
O O2 0.594315 0.568202 0.796866
O O3 0.500000 0.721765 0.686390
O O4 0.500000 0.203910 0.556550
O O5 0.598087 0.204379 0.693628
O O6 0.683699 0.232723 0.390540
O O7 0.589215 0.015278 0.448082
O O8 0.774621 0.010068 0.474997
O O9 0.722086 0.962244 0.332171
O O10 0.776871 0.743402 0.235891
O O11 0.500000 0.089574 0.072892
O O12 0.232291 0.309714 0.084918
O O13 0.315256 0.551732 0.136617
O O14 0.410146 0.349623 0.047536
#
# Coordination Sequence:
#
# PCOD8176333 Si02
#       8
#     4   4   8   8   4   8   8   4
#     4  12  25  47  73 105 143 196 243 303 363 442
#     4  12  24  43  73 108 134 184 250 300 357 431
#     4  12  27  47  69 110 148 196 236 309 375 441
#     4  12  27  47  73 105 152 193 242 302 379 436
#     4  12  27  45  72 108 150 188 246 307 373 435
#     4  12  24  44  73 104 143 185 248 296 362 430
#     4  12  23  44  71 104 138 189 240 302 349 441
#     4  12  24  45  72 107 135 190 245 306 355 428
#
# _framework density 23.359148999999999
#
# number of rings (size 3 to 8) (size 9 to 14) (size 15 to 20)
#    0.000    0.000    5.000    5.500    0.000    2.667 
#    0.000    3.333    0.000    0.000    0.000    0.000 
#    0.000    0.000    0.000    0.000    0.000    0.000 
#
# Total GULP energy -297415.153253 kJ/mol
# GULP energy per Si atom -12392.298052 kJ/mol
# Density = 2.330598 g / cm^3
# Si number density = 23.359149 Si / 1000 Ang^3
#
#
#
# Elastic Constant Matrix: (Units=GPa)
#
#
# Indices 1 2 3 4 5 6 
#
# 1 186.1069 48.1604 40.7577 0.0000 0.0000 0.0000
# 2 48.1604 111.2239 36.6506 0.0000 0.0000 0.0000
# 3 40.7577 36.6506 79.4137 0.0000 0.0000 0.0000
# 4 0.0000 0.0000 0.0000 44.5363 0.0000 0.0000
# 5 0.0000 0.0000 0.0000 0.0000 36.7289 0.0000
# 6 0.0000 0.0000 0.0000 0.0000 0.0000 27.7614
#
#
#
# Elastic Compliance Matrix: (Units=1/GPa)
#
#
# Indices 1 2 3 4 5 6 
#
# 1 0.006408 -0.001994 -0.002368 0.000000 0.000000 0.000000
# 2 -0.001994 0.011224 -0.004157 0.000000 0.000000 0.000000
# 3 -0.002368 -0.004157 0.015726 0.000000 0.000000 0.000000
# 4 0.000000 0.000000 0.000000 0.022454 0.000000 0.000000
# 5 0.000000 0.000000 0.000000 0.000000 0.027227 0.000000
# 6 0.000000 0.000000 0.000000 0.000000 0.000000 0.036021
#
#
# Mechanical properties :
#
#
# Convention : Reuss Voigt Hill
#
# Bulk Modulus (GPa) = 61.27540 69.76467 65.52004
# Shear Modulus (GPa) = 35.32620 38.55037 36.93828
#
# Velocity S-wave (km/s) = 3.89306 4.06684 3.98090
# Velocity P-wave (km/s) = 6.81885 7.20993 7.01712
#
# Compressibility (1/GPa) = 0.01631976
#
# Stress axis : x y z
#
# Youngs Moduli (GPa) = 156.05457 89.09423 63.58827
#
# Poissons Ratio (x) = 0.17768 0.15060
# Poissons Ratio (y) = 0.31121 0.26431
# Poissons Ratio (z) = 0.36960 0.37033
#
# Static dielectric constant tensor:
#      x y z
#    x 4.420370 0.000000 0.000000 
#    y 0.000000 4.210480 0.000000 
#    z 0.000000 0.000000 4.064950 
# 
# 
# High freq. dielectric constant tensor:
#      x y z
#    x 1.946570 0.000000 0.000000 
#    y 0.000000 1.919840 0.000000 
#    z 0.000000 0.000000 1.910670 
# 
# From -- ./inp_files/14623.got.cif
#   From: 2010.03.12/outbox.cif.g09.slc.cpg/sg36_8_cif.got.tgz:14623.got - 2010.04.14 02:13:53.
