data_PCOD8176602
_publ_section_title
;
Structure prediction by ZEFSAII (Michael W. Deem and Ramdas Pophale) SiO2 
 PCOD8176602
Probable space group: C C C 2
;
_chemical_formula_sum "Si O2"
_cell_formula_units_Z 48
_cell_length_a 11.304785
_cell_length_b 13.516055
_cell_length_c 16.833793
_cell_angle_alpha 90.000000
_cell_angle_beta 90.000000
_cell_angle_gamma 90.000000
_cell_volume 2572.137848
_symmetry_space_group_name_H-M "C C C 2"
_symmetry_group_IT_number 37
_symmetry_cell_setting 'orthorhombic'
loop_
_space_group_symop_operation_xyz
x,y,z
-x,-y,z
-x,y,1/2+z
x,-y,1/2+z
1/2+x,1/2+y,z
1/2-x,1/2-y,z
1/2-x,1/2+y,1/2+z
1/2+x,1/2-y,1/2+z
loop_
_atom_site_type_symbol
_atom_site_label
_atom_site_fract_x
_atom_site_fract_y
_atom_site_fract_z
Si Si1 0.716437 0.136454 0.448300
Si Si2 0.031364 0.613391 0.573952
Si Si3 0.198258 0.353619 0.642292
Si Si4 0.268642 0.859644 0.701911
Si Si5 0.866132 0.473134 0.295821
Si Si6 0.363145 0.475827 0.079619
O O1 0.750000 0.250000 0.434677
O O2 0.587570 0.135290 0.488752
O O3 0.704620 0.082563 0.364490
O O4 0.812620 0.077163 0.500751
O O5 0.122406 0.644165 0.641652
O O6 0.000000 0.500000 0.585124
O O7 0.908203 0.672634 0.581271
O O8 0.250000 0.250000 0.671139
O O9 0.137521 0.406528 0.717139
O O10 0.293420 0.422760 0.598223
O O11 0.250000 0.750000 0.734723
O O12 0.154085 0.901610 0.654392
O O13 0.295606 0.925546 0.778906
O O14 0.000000 0.500000 0.319864
O O15 0.500000 0.500000 0.066690
#
# Coordination Sequence:
#
# PCOD8176602 Si02
#       6
#     8   8   8   8   8   8
#     4  11  24  39  62  86 122 165 201 242 306 359
#     4  11  17  39  61  92 114 156 207 253 280 350
#     4  11  22  35  62  95 120 148 206 250 298 347
#     4  10  20  37  64  88 119 155 202 247 301 353
#     4  11  21  41  62  88 121 155 203 254 293 357
#     4  10  22  38  58  88 125 159 196 250 297 351
#
# _framework density 18.661518999999998
#
# number of rings (size 3 to 8) (size 9 to 14) (size 15 to 20)
#    0.000    1.333    6.667    3.000    4.667    0.000 
#    0.000    5.833    0.000    0.000    0.000    0.000 
#    0.000    0.000    0.000    0.000    0.000    0.000 
#
# Total GULP energy -297554.028667 kJ/mol
# GULP energy per Si atom -12398.084528 kJ/mol
# Density = 1.861904 g / cm^3
# Si number density = 18.661519 Si / 1000 Ang^3
#
#
#
# Elastic Constant Matrix: (Units=GPa)
#
#
# Indices 1 2 3 4 5 6 
#
# 1 121.3906 44.2116 42.9151 0.0000 0.0000 0.0000
# 2 44.2116 146.9869 47.4941 0.0000 0.0000 0.0000
# 3 42.9151 47.4941 90.8318 0.0000 0.0000 0.0000
# 4 0.0000 0.0000 0.0000 20.7280 0.0000 0.0000
# 5 0.0000 0.0000 0.0000 0.0000 25.3044 0.0000
# 6 0.0000 0.0000 0.0000 0.0000 0.0000 16.6190
#
#
#
# Elastic Compliance Matrix: (Units=1/GPa)
#
#
# Indices 1 2 3 4 5 6 
#
# 1 0.010284 -0.001833 -0.003901 0.000000 0.000000 0.000000
# 2 -0.001833 0.008513 -0.003585 0.000000 0.000000 0.000000
# 3 -0.003901 -0.003585 0.014727 0.000000 0.000000 0.000000
# 4 0.000000 0.000000 0.000000 0.048244 0.000000 0.000000
# 5 0.000000 0.000000 0.000000 0.000000 0.039519 0.000000
# 6 0.000000 0.000000 0.000000 0.000000 0.000000 0.060172
#
#
# Mechanical properties :
#
#
# Convention : Reuss Voigt Hill
#
# Bulk Modulus (GPa) = 67.17431 69.82788 68.50110
# Shear Modulus (GPa) = 24.38315 27.50284 25.94299
#
# Velocity S-wave (km/s) = 3.61861 3.84314 3.73257
# Velocity P-wave (km/s) = 7.31666 7.56256 7.44062
#
# Compressibility (1/GPa) = 0.01488664
#
# Stress axis : x y z
#
# Youngs Moduli (GPa) = 97.23403 117.46524 67.90274
#
# Poissons Ratio (x) = 0.21532 0.26486
# Poissons Ratio (y) = 0.17824 0.24345
# Poissons Ratio (z) = 0.37927 0.42115
#
# Static dielectric constant tensor:
#      x y z
#    x 2.676640 0.000000 0.000000 
#    y 0.000000 3.455580 0.000000 
#    z 0.000000 0.000000 3.283800 
# 
# 
# High freq. dielectric constant tensor:
#      x y z
#    x 1.725280 0.000000 0.000000 
#    y 0.000000 1.732880 0.000000 
#    z 0.000000 0.000000 1.705120 
# 
# From -- ./inp_files/14997.got.cif
#   From: 2010.03.12/outbox.cif.g09.slc.cpg/sg37_8_cif.got.tgz:14997.got - 2010.04.14 02:25:27.
