data_PCOD8176085
_publ_section_title
;
Structure prediction by ZEFSAII (Michael W. Deem and Ramdas Pophale) SiO2 
 PCOD8176085
Probable space group: C M C 21
;
_chemical_formula_sum "Si O2"
_cell_formula_units_Z 56
_cell_length_a 21.286903
_cell_length_b 14.296249
_cell_length_c 8.473181
_cell_angle_alpha 90.000000
_cell_angle_beta 90.000000
_cell_angle_gamma 90.000000
_cell_volume 2578.582724
_symmetry_space_group_name_H-M "C M C 21"
_symmetry_group_IT_number 36
_symmetry_cell_setting 'orthorhombic'
loop_
_space_group_symop_operation_xyz
x,y,z
-x,-y,1/2+z
x,-y,1/2+z
-x,y,z
1/2+x,1/2+y,z
1/2-x,1/2-y,1/2+z
1/2+x,1/2-y,1/2+z
1/2-x,1/2+y,z
loop_
_atom_site_type_symbol
_atom_site_label
_atom_site_fract_x
_atom_site_fract_y
_atom_site_fract_z
Si Si1 0.570637 0.972704 0.068440
Si Si2 0.428161 0.717519 0.598762
Si Si3 0.734079 0.425243 0.790472
Si Si4 0.793985 0.267885 0.164946
Si Si5 0.641854 0.838749 0.855967
Si Si6 0.812470 0.894820 0.125015
Si Si7 0.110231 0.630492 0.875093
O O1 0.500000 0.008380 0.041625
O O2 0.574257 0.931292 0.244595
O O3 0.586733 0.894029 0.942256
O O4 0.615812 0.062969 0.030746
O O5 0.500000 0.689776 0.635337
O O6 0.396707 0.772983 0.740976
O O7 0.386302 0.622197 0.589060
O O8 0.425612 0.775814 0.434539
O O9 0.696654 0.340245 0.708256
O O10 0.809391 0.409929 0.766075
O O11 0.702198 0.522621 0.745210
O O12 0.726045 0.426870 0.975456
O O13 0.719927 0.295618 0.177227
O O14 0.824913 0.336209 0.296592
O O15 0.820853 0.279308 0.989030
#
# Coordination Sequence:
#
# PCOD8176085 Si02
#       7
#     8   8   8   8   8   8   8
#     4  11  21  37  60  96 137 177 217 262 328 412
#     4  12  24  42  65  94 136 182 225 273 331 405
#     4  11  23  43  68  99 130 167 220 287 339 390
#     4  10  22  44  68  98 133 166 224 285 339 398
#     4  10  23  39  65  98 130 172 214 271 338 401
#     4  11  25  41  70 100 132 174 221 279 340 399
#     4  11  23  40  64  93 135 178 225 275 335 399
#
# _framework density 21.717355999999999
#
# number of rings (size 3 to 8) (size 9 to 14) (size 15 to 20)
#    0.000    1.143    2.857    3.429    2.000    3.429 
#    0.000    0.714    0.000    0.000    0.000    0.000 
#    0.000    0.000    0.000    0.000    0.000    0.000 
#
# Total GULP energy -346944.536920 kJ/mol
# GULP energy per Si atom -12390.876319 kJ/mol
# Density = 2.166793 g / cm^3
# Si number density = 21.717356 Si / 1000 Ang^3
#
#
#
# Elastic Constant Matrix: (Units=GPa)
#
#
# Indices 1 2 3 4 5 6 
#
# 1 118.9898 9.8091 34.9818 0.0000 0.0000 0.0000
# 2 9.8091 64.0181 25.6148 0.0000 0.0000 0.0000
# 3 34.9818 25.6148 67.8217 0.0000 0.0000 0.0000
# 4 0.0000 0.0000 0.0000 11.4879 0.0000 0.0000
# 5 0.0000 0.0000 0.0000 0.0000 17.8212 0.0000
# 6 0.0000 0.0000 0.0000 0.0000 0.0000 27.6257
#
#
#
# Elastic Compliance Matrix: (Units=1/GPa)
#
#
# Indices 1 2 3 4 5 6 
#
# 1 0.009927 0.000622 -0.005355 0.000000 0.000000 0.000000
# 2 0.000622 0.018440 -0.007285 0.000000 0.000000 0.000000
# 3 -0.005355 -0.007285 0.020258 0.000000 0.000000 0.000000
# 4 0.000000 0.000000 0.000000 0.087048 0.000000 0.000000
# 5 0.000000 0.000000 0.000000 0.000000 0.056113 0.000000
# 6 0.000000 0.000000 0.000000 0.000000 0.000000 0.036198
#
#
# Mechanical properties :
#
#
# Convention : Reuss Voigt Hill
#
# Bulk Modulus (GPa) = 40.66978 43.51567 42.09273
# Shear Modulus (GPa) = 19.21467 23.41522 21.31494
#
# Velocity S-wave (km/s) = 2.97772 3.28713 3.13624
# Velocity P-wave (km/s) = 5.53082 5.87262 5.70428
#
# Compressibility (1/GPa) = 0.02458828
#
# Stress axis : x y z
#
# Youngs Moduli (GPa) = 100.73336 54.22921 49.36290
#
# Poissons Ratio (x) = -0.03371 0.26434
# Poissons Ratio (y) = -0.06262 0.35961
# Poissons Ratio (z) = 0.53944 0.39507
#
# Static dielectric constant tensor:
#      x y z
#    x 3.889430 0.000000 0.000000 
#    y 0.000000 3.914960 0.000000 
#    z 0.000000 0.000000 4.104290 
# 
# 
# High freq. dielectric constant tensor:
#      x y z
#    x 1.840570 0.000000 0.000000 
#    y 0.000000 1.841850 0.000000 
#    z 0.000000 0.000000 1.870580 
# 
# From -- ./inp_files/5202.got.cif
#   From: 2010.03.12/outbox.cif.g09.slc.cpg/sg36_3_cif.got.tgz:5202.got - 2010.04.14 02:13:53.
