data_PCOD8176040
_publ_section_title
;
Structure prediction by ZEFSAII (Michael W. Deem and Ramdas Pophale) SiO2 
 PCOD8176040
Probable space group: C M C 21
;
_chemical_formula_sum "Si O2"
_cell_formula_units_Z 48
_cell_length_a 15.385289
_cell_length_b 9.326808
_cell_length_c 16.564338
_cell_angle_alpha 90.000000
_cell_angle_beta 90.000000
_cell_angle_gamma 90.000000
_cell_volume 2376.910225
_symmetry_space_group_name_H-M "C M C 21"
_symmetry_group_IT_number 36
_symmetry_cell_setting 'orthorhombic'
loop_
_space_group_symop_operation_xyz
x,y,z
-x,-y,1/2+z
x,-y,1/2+z
-x,y,z
1/2+x,1/2+y,z
1/2-x,1/2-y,1/2+z
1/2+x,1/2-y,1/2+z
1/2-x,1/2+y,z
loop_
_atom_site_type_symbol
_atom_site_label
_atom_site_fract_x
_atom_site_fract_y
_atom_site_fract_z
Si Si1 0.500000 0.411790 0.738010
Si Si2 0.500000 0.892924 0.730166
Si Si3 0.164807 0.962626 0.022827
Si Si4 0.834196 0.960791 0.834458
Si Si5 0.500000 0.156533 0.624783
Si Si6 0.662210 0.207270 0.332621
Si Si7 0.000000 0.852577 0.117854
Si Si8 0.337096 0.205078 0.522017
O O1 0.414623 0.384454 0.790878
O O2 0.500000 0.317939 0.657352
O O3 0.500000 0.573906 0.705952
O O4 0.416002 0.860203 0.783176
O O5 0.500000 0.813695 0.642978
O O6 0.500000 0.058730 0.704628
O O7 0.085066 0.890606 0.067979
O O8 0.251424 0.879737 0.048930
O O9 0.174168 0.128904 0.046396
O O10 0.147669 0.943955 0.928627
O O11 0.825010 0.126686 0.809816
O O12 0.748312 0.877788 0.806955
O O13 0.415844 0.132063 0.569568
O O14 0.643237 0.188415 0.427322
#
# Coordination Sequence:
#
# PCOD8176040 Si02
#       8
#     4   4   8   8   4   8   4   8
#     4  12  23  41  61  89 124 161 200 243 308 365
#     4  12  27  41  59  93 126 164 200 251 309 359
#     4  10  22  41  66  91 119 161 206 250 299 360
#     4  10  22  41  66  91 119 161 206 250 299 360
#     4  12  27  41  59  93 126 164 200 251 309 359
#     4  10  22  43  66  89 120 161 206 249 300 360
#     4  12  23  41  61  89 124 161 200 243 308 365
#     4  10  22  43  66  89 120 161 206 249 300 360
#
# _framework density 20.194284
#
# number of rings (size 3 to 8) (size 9 to 14) (size 15 to 20)
#    0.000    1.333    3.333    1.000    4.667    5.333 
#    0.000    1.667    0.000    0.000    0.000    0.000 
#    0.000    0.000    0.000    0.000    0.000    0.000 
#
# Total GULP energy -297713.005352 kJ/mol
# GULP energy per Si atom -12404.708556 kJ/mol
# Density = 2.014832 g / cm^3
# Si number density = 20.194284 Si / 1000 Ang^3
#
#
#
# Elastic Constant Matrix: (Units=GPa)
#
#
# Indices 1 2 3 4 5 6 
#
# 1 198.2788 56.2869 74.8409 0.0000 0.0000 0.0000
# 2 56.2869 73.2392 32.3405 0.0000 0.0000 0.0000
# 3 74.8409 32.3405 62.3447 0.0000 0.0000 0.0000
# 4 0.0000 0.0000 0.0000 37.3775 0.0000 0.0000
# 5 0.0000 0.0000 0.0000 0.0000 246.9183 0.0000
# 6 0.0000 0.0000 0.0000 0.0000 0.0000 26.3322
#
#
#
# Elastic Compliance Matrix: (Units=1/GPa)
#
#
# Indices 1 2 3 4 5 6 
#
# 1 0.009705 -0.003002 -0.010094 0.000000 0.000000 0.000000
# 2 -0.003002 0.018639 -0.006065 0.000000 0.000000 0.000000
# 3 -0.010094 -0.006065 0.031303 0.000000 0.000000 0.000000
# 4 0.000000 0.000000 0.000000 0.026754 0.000000 0.000000
# 5 0.000000 0.000000 0.000000 0.000000 0.004050 0.000000
# 6 0.000000 0.000000 0.000000 0.000000 0.000000 0.037976
#
#
# Mechanical properties :
#
#
# Convention : Reuss Voigt Hill
#
# Bulk Modulus (GPa) = 46.89106 73.42216 60.15661
# Shear Modulus (GPa) = 28.75911 73.48521 51.12216
#
# Velocity S-wave (km/s) = 3.77785 6.03888 5.03688
# Velocity P-wave (km/s) = 6.50384 9.22285 7.98000
#
# Compressibility (1/GPa) = 0.02132603
#
# Stress axis : x y z
#
# Youngs Moduli (GPa) = 103.03528 53.65030 31.94599
#
# Poissons Ratio (x) = 0.16105 0.32245
# Poissons Ratio (y) = 0.30930 0.19376
# Poissons Ratio (z) = 1.03999 0.32540
#
# Static dielectric constant tensor:
#      x y z
#    x 3.762250 0.000000 0.000000 
#    y 0.000000 3.711540 0.000000 
#    z 0.000000 0.000000 3.591400 
# 
# 
# High freq. dielectric constant tensor:
#      x y z
#    x 1.802810 0.000000 0.000000 
#    y 0.000000 1.791670 0.000000 
#    z 0.000000 0.000000 1.791890 
# 
# From -- ./inp_files/14616.got.cif
#   From: 2010.03.12/outbox.cif.g09.slc.cpg/sg36_8_cif.got.tgz:14616.got - 2010.04.14 02:13:53.
