data_PCOD8176393
_publ_section_title
;
Structure prediction by ZEFSAII (Michael W. Deem and Ramdas Pophale) SiO2 
 PCOD8176393
Probable space group: C C C 2
;
_chemical_formula_sum "Si O2"
_cell_formula_units_Z 48
_cell_length_a 15.224627
_cell_length_b 18.949310
_cell_length_c 9.156246
_cell_angle_alpha 90.000000
_cell_angle_beta 90.000000
_cell_angle_gamma 90.000000
_cell_volume 2641.541964
_symmetry_space_group_name_H-M "C C C 2"
_symmetry_group_IT_number 37
_symmetry_cell_setting 'orthorhombic'
loop_
_space_group_symop_operation_xyz
x,y,z
-x,-y,z
-x,y,1/2+z
x,-y,1/2+z
1/2+x,1/2+y,z
1/2-x,1/2-y,z
1/2-x,1/2+y,1/2+z
1/2+x,1/2-y,1/2+z
loop_
_atom_site_type_symbol
_atom_site_label
_atom_site_fract_x
_atom_site_fract_y
_atom_site_fract_z
Si Si1 0.508847 0.772015 0.556540
Si Si2 0.117874 0.697816 0.316977
Si Si3 0.304513 0.647798 0.265711
Si Si4 0.554688 0.570943 0.919629
Si Si5 0.174013 0.193430 0.450594
Si Si6 0.428030 0.356740 0.214512
O O1 0.442710 0.818304 0.457443
O O2 0.559798 0.820523 0.673964
O O3 0.581717 0.734311 0.457584
O O4 0.446990 0.716535 0.637658
O O5 0.203478 0.648024 0.317865
O O6 0.147425 0.779878 0.313489
O O7 0.350272 0.578772 0.339209
O O8 0.311220 0.642146 0.089448
O O9 0.500000 0.500000 0.891436
O O10 0.498784 0.631916 0.842740
O O11 0.569058 0.581552 0.093026
O O12 0.250000 0.250000 0.441057
O O13 0.166367 0.147754 0.299957
#
# Coordination Sequence:
#
# PCOD8176393 Si02
#       6
#     8   8   8   8   8   8
#     4  11  16  30  48  74 105 144 175 217 282 346
#     4  10  18  29  52  71 111 143 180 225 285 344
#     4  10  18  34  49  74 105 150 188 230 277 339
#     4  12  23  36  51  71 105 155 196 231 273 326
#     4  11  19  30  51  75 107 143 179 232 286 346
#     4  12  20  33  50  73 104 145 191 223 274 343
#
# _framework density 18.171206000000002
#
# number of rings (size 3 to 8) (size 9 to 14) (size 15 to 20)
#    0.000    1.000   11.667    0.500    0.000    1.333 
#    0.000    0.833    0.000    0.000    0.000    0.000 
#    0.000    1.333    7.000    0.333    0.000    0.000 
#
# Total GULP energy -297355.668135 kJ/mol
# GULP energy per Si atom -12389.819506 kJ/mol
# Density = 1.812985 g / cm^3
# Si number density = 18.171206 Si / 1000 Ang^3
#
#
#
# Elastic Constant Matrix: (Units=GPa)
#
#
# Indices 1 2 3 4 5 6 
#
# 1 126.0869 37.3474 74.2228 0.0000 0.0000 0.0000
# 2 37.3474 40.3006 34.7652 0.0000 0.0000 0.0000
# 3 74.2228 34.7652 133.2721 0.0000 0.0000 0.0000
# 4 0.0000 0.0000 0.0000 16.9970 0.0000 0.0000
# 5 0.0000 0.0000 0.0000 0.0000 34.4826 0.0000
# 6 0.0000 0.0000 0.0000 0.0000 0.0000 30.1547
#
#
#
# Elastic Compliance Matrix: (Units=1/GPa)
#
#
# Indices 1 2 3 4 5 6 
#
# 1 0.013442 -0.007741 -0.005467 0.000000 0.000000 0.000000
# 2 -0.007741 0.036477 -0.005204 0.000000 0.000000 0.000000
# 3 -0.005467 -0.005204 0.011906 0.000000 0.000000 0.000000
# 4 0.000000 0.000000 0.000000 0.058834 0.000000 0.000000
# 5 0.000000 0.000000 0.000000 0.000000 0.029000 0.000000
# 6 0.000000 0.000000 0.000000 0.000000 0.000000 0.033162
#
#
# Mechanical properties :
#
#
# Convention : Reuss Voigt Hill
#
# Bulk Modulus (GPa) = 39.99956 65.81448 52.90702
# Shear Modulus (GPa) = 21.93188 26.54847 24.24017
#
# Velocity S-wave (km/s) = 3.47790 3.82647 3.65634
# Velocity P-wave (km/s) = 6.17965 7.47130 6.85596
#
# Compressibility (1/GPa) = 0.02500028
#
# Stress axis : x y z
#
# Youngs Moduli (GPa) = 74.39266 27.41482 83.99358
#
# Poissons Ratio (x) = 0.21222 0.45919
# Poissons Ratio (y) = 0.57588 0.43711
# Poissons Ratio (z) = 0.40670 0.14267
#
# Static dielectric constant tensor:
#      x y z
#    x 3.624890 0.000000 0.000000 
#    y 0.000000 2.697850 0.000000 
#    z 0.000000 0.000000 3.870800 
# 
# 
# High freq. dielectric constant tensor:
#      x y z
#    x 1.702430 0.000000 0.000000 
#    y 0.000000 1.618200 0.000000 
#    z 0.000000 0.000000 1.728440 
# 
# From -- ./inp_files/3565.got.cif
#   From: 2010.03.12/outbox.cif.g09.slc.cpg/sg37_2_cif.got.tgz:3565.got - 2010.04.14 02:25:27.
