data_PCOD8176778
_publ_section_title
;
Structure prediction by ZEFSAII (Michael W. Deem and Ramdas Pophale) SiO2 
 PCOD8176778
Probable space group: C C C 2
;
_chemical_formula_sum "Si O2"
_cell_formula_units_Z 40
_cell_length_a 4.786492
_cell_length_b 25.994805
_cell_length_c 13.208186
_cell_angle_alpha 90.000000
_cell_angle_beta 90.000000
_cell_angle_gamma 90.000000
_cell_volume 1643.414360
_symmetry_space_group_name_H-M "C C C 2"
_symmetry_group_IT_number 37
_symmetry_cell_setting 'orthorhombic'
loop_
_space_group_symop_operation_xyz
x,y,z
-x,-y,z
-x,y,1/2+z
x,-y,1/2+z
1/2+x,1/2+y,z
1/2-x,1/2-y,z
1/2-x,1/2+y,1/2+z
1/2+x,1/2-y,1/2+z
loop_
_atom_site_type_symbol
_atom_site_label
_atom_site_fract_x
_atom_site_fract_y
_atom_site_fract_z
Si Si1 0.739967 0.033984 0.819390
Si Si2 0.732618 0.691292 0.251468
Si Si3 0.760450 0.308263 0.387066
Si Si4 0.967107 0.102579 0.997228
Si Si5 0.570713 0.902276 0.131302
O O1 0.567778 0.060997 0.728866
O O2 0.500000 0.000000 0.874123
O O3 0.857917 0.075949 0.896413
O O4 0.000000 0.000000 0.779796
O O5 0.750000 0.750000 0.213606
O O6 0.413395 0.682759 0.283888
O O7 0.807799 0.653655 0.160501
O O8 0.921636 0.679310 0.352770
O O9 0.750000 0.250000 0.427743
O O10 0.629645 0.344171 0.473157
O O11 0.728789 0.107747 0.081806
O O12 0.216956 0.070621 0.051144
#
# Coordination Sequence:
#
# PCOD8176778 Si02
#       5
#     8   8   8   8   8
#     4  12  28  48  74 101 144 194 246 315 373 428
#     4  10  21  41  70 101 140 190 229 283 352 433
#     4  10  21  41  70 101 142 188 233 282 356 431
#     4  12  26  44  74 109 143 189 242 300 368 441
#     4  12  26  44  74 106 144 187 243 298 366 440
#
# _framework density 24.339569000000001
#
# number of rings (size 3 to 8) (size 9 to 14) (size 15 to 20)
#    0.000    0.800    2.000    4.800    2.800    5.600 
#    0.000    2.000    0.000    0.000    0.000    0.000 
#    0.000    0.000    0.000    0.000    0.000    0.000 
#
# Total GULP energy -247902.739372 kJ/mol
# GULP energy per Si atom -12395.136969 kJ/mol
# Density = 2.428417 g / cm^3
# Si number density = 24.339569 Si / 1000 Ang^3
#
#
#
# Elastic Constant Matrix: (Units=GPa)
#
#
# Indices 1 2 3 4 5 6 
#
# 1 120.1958 36.7442 25.8666 0.0000 0.0000 0.0000
# 2 36.7442 112.4542 41.2232 0.0000 0.0000 0.0000
# 3 25.8666 41.2232 97.2819 0.0000 0.0000 0.0000
# 4 0.0000 0.0000 0.0000 13.7467 0.0000 0.0000
# 5 0.0000 0.0000 0.0000 0.0000 37.1776 0.0000
# 6 0.0000 0.0000 0.0000 0.0000 0.0000 39.9817
#
#
#
# Elastic Compliance Matrix: (Units=1/GPa)
#
#
# Indices 1 2 3 4 5 6 
#
# 1 0.009406 -0.002553 -0.001419 0.000000 0.000000 0.000000
# 2 -0.002553 0.011221 -0.004076 0.000000 0.000000 0.000000
# 3 -0.001419 -0.004076 0.012384 0.000000 0.000000 0.000000
# 4 0.000000 0.000000 0.000000 0.072745 0.000000 0.000000
# 5 0.000000 0.000000 0.000000 0.000000 0.026898 0.000000
# 6 0.000000 0.000000 0.000000 0.000000 0.000000 0.025011
#
#
# Mechanical properties :
#
#
# Convention : Reuss Voigt Hill
#
# Bulk Modulus (GPa) = 59.12188 59.73332 59.42760
# Shear Modulus (GPa) = 27.87085 33.25439 30.56262
#
# Velocity S-wave (km/s) = 3.38758 3.70032 3.54740
# Velocity P-wave (km/s) = 6.29636 6.54610 6.42244
#
# Compressibility (1/GPa) = 0.01691421
#
# Stress axis : x y z
#
# Youngs Moduli (GPa) = 106.31936 89.11950 80.74987
#
# Poissons Ratio (x) = 0.22753 0.11459
# Poissons Ratio (y) = 0.27144 0.32914
# Poissons Ratio (z) = 0.15087 0.36325
#
# Static dielectric constant tensor:
#      x y z
#    x 4.728960 0.000000 0.000000 
#    y 0.000000 4.394610 0.000000 
#    z 0.000000 0.000000 4.113860 
# 
# 
# High freq. dielectric constant tensor:
#      x y z
#    x 1.992840 0.000000 0.000000 
#    y 0.000000 1.964540 0.000000 
#    z 0.000000 0.000000 1.954480 
# 
# From -- ./inp_files/5528.got.cif
#   From: 2010.03.12/outbox.cif.g09.slc.cpg/sg37_3_cif.got.tgz:5528.got - 2010.04.14 02:25:27.
