data_PCOD8176093
_publ_section_title
;
Structure prediction by ZEFSAII (Michael W. Deem and Ramdas Pophale) SiO2 
 PCOD8176093
Probable space group: C M C 21
;
_chemical_formula_sum "Si O2"
_cell_formula_units_Z 64
_cell_length_a 15.267437
_cell_length_b 23.023640
_cell_length_c 8.814982
_cell_angle_alpha 90.000000
_cell_angle_beta 90.000000
_cell_angle_gamma 90.000000
_cell_volume 3098.571717
_symmetry_space_group_name_H-M "C M C 21"
_symmetry_group_IT_number 36
_symmetry_cell_setting 'orthorhombic'
loop_
_space_group_symop_operation_xyz
x,y,z
-x,-y,1/2+z
x,-y,1/2+z
-x,y,z
1/2+x,1/2+y,z
1/2-x,1/2-y,1/2+z
1/2+x,1/2-y,1/2+z
1/2-x,1/2+y,z
loop_
_atom_site_type_symbol
_atom_site_label
_atom_site_fract_x
_atom_site_fract_y
_atom_site_fract_z
Si Si1 0.904653 0.257665 0.827710
Si Si2 0.900411 0.367016 0.023528
Si Si3 0.230050 0.948916 0.352814
Si Si4 0.396736 0.664417 0.354786
Si Si5 0.844980 0.159982 0.008367
Si Si6 0.336512 0.778839 0.512722
Si Si7 0.726587 0.569881 0.499545
Si Si8 0.095962 0.387542 0.368753
O O1 0.839390 0.257107 0.685793
O O2 0.000000 0.273521 0.762085
O O3 0.875842 0.305284 0.951442
O O4 0.914864 0.194688 0.907143
O O5 0.827515 0.412365 0.963941
O O6 0.890563 0.359123 0.203467
O O7 0.000000 0.387384 0.981505
O O8 0.168848 0.904245 0.443493
O O9 0.212920 0.943382 0.175419
O O10 0.331583 0.936989 0.396836
O O11 0.204677 0.013375 0.401634
O O12 0.500000 0.656253 0.386248
O O13 0.375767 0.653506 0.179701
O O14 0.366641 0.728902 0.398130
O O15 0.342260 0.619339 0.455514
O O16 0.761661 0.201506 0.980476
O O17 0.397143 0.835556 0.489840
O O18 0.000000 0.416653 0.384835
#
# Coordination Sequence:
#
# PCOD8176093 Si02
#       8
#     8   8   8   8   8   8   8   8
#     4  11  21  34  54  85 117 146 182 229 281 342
#     4   9  19  35  59  88 121 158 194 234 292 360
#     4  10  23  39  62  84 112 154 201 249 301 353
#     4  12  25  41  62  89 120 160 203 244 292 350
#     4  11  22  39  60  85 114 153 195 240 292 346
#     4  11  21  35  58  88 121 152 186 236 294 351
#     4  11  22  42  61  84 117 154 199 253 299 348
#     4   9  18  35  57  87 122 155 190 235 293 362
#
# _framework density 20.654675999999998
#
# number of rings (size 3 to 8) (size 9 to 14) (size 15 to 20)
#    0.000    1.500    0.000    6.000    0.000    4.500 
#    0.000    3.750    0.000    0.000    0.000    0.000 
#    0.000    0.000    0.000    0.000    0.000    0.000 
#
# Total GULP energy -396809.622594 kJ/mol
# GULP energy per Si atom -12400.300706 kJ/mol
# Density = 2.060767 g / cm^3
# Si number density = 20.654676 Si / 1000 Ang^3
#
#
#
# Elastic Constant Matrix: (Units=GPa)
#
#
# Indices 1 2 3 4 5 6 
#
# 1 87.6454 35.2084 23.3989 0.0000 0.0000 0.0000
# 2 35.2084 82.0188 14.8858 0.0000 0.0000 0.0000
# 3 23.3989 14.8858 70.7138 0.0000 0.0000 0.0000
# 4 0.0000 0.0000 0.0000 33.8736 0.0000 0.0000
# 5 0.0000 0.0000 0.0000 0.0000 30.1093 0.0000
# 6 0.0000 0.0000 0.0000 0.0000 0.0000 19.4793
#
#
#
# Elastic Compliance Matrix: (Units=1/GPa)
#
#
# Indices 1 2 3 4 5 6 
#
# 1 0.014646 -0.005622 -0.003663 0.000000 0.000000 0.000000
# 2 -0.005622 0.014835 -0.001262 0.000000 0.000000 0.000000
# 3 -0.003663 -0.001262 0.015619 0.000000 0.000000 0.000000
# 4 0.000000 0.000000 0.000000 0.029521 0.000000 0.000000
# 5 0.000000 0.000000 0.000000 0.000000 0.033212 0.000000
# 6 0.000000 0.000000 0.000000 0.000000 0.000000 0.051336
#
#
# Mechanical properties :
#
#
# Convention : Reuss Voigt Hill
#
# Bulk Modulus (GPa) = 41.65783 43.04049 42.34916
# Shear Modulus (GPa) = 26.55795 27.81811 27.18803
#
# Velocity S-wave (km/s) = 3.58971 3.67388 3.63204
# Velocity P-wave (km/s) = 6.11505 6.23538 6.17551
#
# Compressibility (1/GPa) = 0.02400509
#
# Stress axis : x y z
#
# Youngs Moduli (GPa) = 68.27772 67.40819 64.02355
#
# Poissons Ratio (x) = 0.37900 0.23450
# Poissons Ratio (y) = 0.38388 0.08083
# Poissons Ratio (z) = 0.25009 0.08510
#
# Static dielectric constant tensor:
#      x y z
#    x 3.875340 0.000000 0.000000 
#    y 0.000000 3.593690 0.000000 
#    z 0.000000 0.000000 3.685190 
# 
# 
# High freq. dielectric constant tensor:
#      x y z
#    x 1.812290 0.000000 0.000000 
#    y 0.000000 1.795680 0.000000 
#    z 0.000000 0.000000 1.815180 
# 
# From -- ./inp_files/4329.got.cif
#   From: 2010.03.12/outbox.cif.g09.slc.cpg/sg36_3_cif.got.tgz:4329.got - 2010.04.14 02:13:53.
