data_PCOD8176487
_publ_section_title
;
Structure prediction by ZEFSAII (Michael W. Deem and Ramdas Pophale) SiO2 
 PCOD8176487
Probable space group: C C C 2
;
_chemical_formula_sum "Si O2"
_cell_formula_units_Z 48
_cell_length_a 11.571901
_cell_length_b 16.421639
_cell_length_c 11.480166
_cell_angle_alpha 90.000000
_cell_angle_beta 90.000000
_cell_angle_gamma 90.000000
_cell_volume 2181.571132
_symmetry_space_group_name_H-M "C C C 2"
_symmetry_group_IT_number 37
_symmetry_cell_setting 'orthorhombic'
loop_
_space_group_symop_operation_xyz
x,y,z
-x,-y,z
-x,y,1/2+z
x,-y,1/2+z
1/2+x,1/2+y,z
1/2-x,1/2-y,z
1/2-x,1/2+y,1/2+z
1/2+x,1/2-y,1/2+z
loop_
_atom_site_type_symbol
_atom_site_label
_atom_site_fract_x
_atom_site_fract_y
_atom_site_fract_z
Si Si1 0.755923 0.428739 0.711520
Si Si2 0.951959 0.911826 0.374957
Si Si3 0.396617 0.909337 0.934359
Si Si4 0.297844 0.399885 0.592308
Si Si5 0.644581 0.908939 0.978848
Si Si6 0.818486 0.830390 0.826822
O O1 0.644924 0.390199 0.777649
O O2 0.864491 0.421222 0.799255
O O3 0.729917 0.519427 0.666868
O O4 0.796120 0.376038 0.598406
O O5 0.904276 0.917277 0.506110
O O6 0.051586 0.842375 0.375288
O O7 0.000000 0.000000 0.339301
O O8 0.521995 0.865707 0.946629
O O9 0.389274 0.997512 0.994884
O O10 0.304355 0.860567 0.013057
O O11 0.328144 0.331400 0.687143
O O12 0.737766 0.903182 0.875203
O O13 0.750000 0.750000 0.871165
#
# Coordination Sequence:
#
# PCOD8176487 Si02
#       6
#     8   8   8   8   8   8
#     4  10  19  36  65  98 126 159 226 289 331 371
#     4  11  22  39  69  98 126 167 231 294 329 387
#     4   9  19  35  63  94 125 160 216 280 324 384
#     4  10  21  39  61  94 124 168 218 272 334 392
#     4  10  21  35  60  92 127 170 212 265 335 392
#     4  12  26  43  60  92 136 173 215 272 346 409
#
# _framework density 22.002490000000002
#
# number of rings (size 3 to 8) (size 9 to 14) (size 15 to 20)
#    0.000    1.667    3.333    2.000    7.000    1.333 
#    3.000    0.000    0.000    0.000    0.000    0.000 
#    0.000    0.000    0.000    0.000    0.000    0.000 
#
# Total GULP energy -297313.162391 kJ/mol
# GULP energy per Si atom -12388.048433 kJ/mol
# Density = 2.195241 g / cm^3
# Si number density = 22.002490 Si / 1000 Ang^3
#
#
#
# Elastic Constant Matrix: (Units=GPa)
#
#
# Indices 1 2 3 4 5 6 
#
# 1 174.3860 21.2991 83.5361 0.0000 0.0000 0.0000
# 2 21.2991 28.0914 15.9216 0.0000 0.0000 0.0000
# 3 83.5361 15.9216 163.1867 0.0000 0.0000 0.0000
# 4 0.0000 0.0000 0.0000 11.3025 0.0000 0.0000
# 5 0.0000 0.0000 0.0000 0.0000 37.2495 0.0000
# 6 0.0000 0.0000 0.0000 0.0000 0.0000 25.1758
#
#
#
# Elastic Compliance Matrix: (Units=1/GPa)
#
#
# Indices 1 2 3 4 5 6 
#
# 1 0.007993 -0.003960 -0.003705 0.000000 0.000000 0.000000
# 2 -0.003960 0.039644 -0.001841 0.000000 0.000000 0.000000
# 3 -0.003705 -0.001841 0.008204 0.000000 0.000000 0.000000
# 4 0.000000 0.000000 0.000000 0.088476 0.000000 0.000000
# 5 0.000000 0.000000 0.000000 0.000000 0.026846 0.000000
# 6 0.000000 0.000000 0.000000 0.000000 0.000000 0.039721
#
#
# Mechanical properties :
#
#
# Convention : Reuss Voigt Hill
#
# Bulk Modulus (GPa) = 27.15261 67.46419 47.30840
# Shear Modulus (GPa) = 20.64643 31.07273 25.85958
#
# Velocity S-wave (km/s) = 3.06660 3.76205 3.43199
# Velocity P-wave (km/s) = 4.99061 7.04268 6.10351
#
# Compressibility (1/GPa) = 0.03682887
#
# Stress axis : x y z
#
# Youngs Moduli (GPa) = 125.10861 25.22450 121.88749
#
# Poissons Ratio (x) = 0.09990 0.45163
# Poissons Ratio (y) = 0.49547 0.22435
# Poissons Ratio (z) = 0.46356 0.04643
#
# Static dielectric constant tensor:
#      x y z
#    x 4.689150 0.000000 0.000000 
#    y 0.000000 3.274040 0.000000 
#    z 0.000000 0.000000 4.196460 
# 
# 
# High freq. dielectric constant tensor:
#      x y z
#    x 1.881790 0.000000 0.000000 
#    y 0.000000 1.791580 0.000000 
#    z 0.000000 0.000000 1.884410 
# 
# From -- ./inp_files/7186.got.cif
#   From: 2010.03.12/outbox.cif.g09.slc.cpg/sg37_4_cif.got.tgz:7186.got - 2010.04.14 02:25:27.
