data_PCOD8176419
_publ_section_title
;
Structure prediction by ZEFSAII (Michael W. Deem and Ramdas Pophale) SiO2 
 PCOD8176419
Probable space group: C C C 2
;
_chemical_formula_sum "Si O2"
_cell_formula_units_Z 56
_cell_length_a 8.824039
_cell_length_b 20.626218
_cell_length_c 14.832503
_cell_angle_alpha 90.000000
_cell_angle_beta 90.000000
_cell_angle_gamma 90.000000
_cell_volume 2699.612729
_symmetry_space_group_name_H-M "C C C 2"
_symmetry_group_IT_number 37
_symmetry_cell_setting 'orthorhombic'
loop_
_space_group_symop_operation_xyz
x,y,z
-x,-y,z
-x,y,1/2+z
x,-y,1/2+z
1/2+x,1/2+y,z
1/2-x,1/2-y,z
1/2-x,1/2+y,1/2+z
1/2+x,1/2-y,1/2+z
loop_
_atom_site_type_symbol
_atom_site_label
_atom_site_fract_x
_atom_site_fract_y
_atom_site_fract_z
Si Si1 0.844484 0.031012 0.701270
Si Si2 0.609721 0.945316 0.759488
Si Si3 0.147584 0.065463 0.408168
Si Si4 0.158910 0.311698 0.391957
Si Si5 0.693717 0.426361 0.428904
Si Si6 0.640800 0.147988 0.692728
Si Si7 0.645345 0.190669 0.502808
O O1 0.854943 0.035062 0.808945
O O2 0.789351 0.102565 0.669623
O O3 0.712858 0.978470 0.681735
O O4 0.000000 0.000000 0.659947
O O5 0.716285 0.913796 0.835598
O O6 0.511230 0.892474 0.708609
O O7 0.500000 0.000000 0.804806
O O8 0.268538 0.121248 0.426237
O O9 0.981997 0.095010 0.424672
O O10 0.195188 0.001144 0.466019
O O11 0.250000 0.250000 0.428687
O O12 0.163987 0.310044 0.283192
O O13 0.994239 0.308038 0.434797
O O14 0.770980 0.378641 0.499678
O O15 0.606040 0.196546 0.609490
O O16 0.750000 0.250000 0.472092
#
# Coordination Sequence:
#
# PCOD8176419 Si02
#       7
#     8   8   8   8   8   8   8
#     4   9  15  32  60  91 129 162 202 263 307 364
#     4   9  16  32  58  92 126 159 206 252 306 375
#     4   9  18  35  65  95 127 162 213 260 310 377
#     4  11  23  43  68  88 124 175 213 256 327 377
#     4  10  18  36  64  93 123 166 204 262 318 362
#     4  10  22  40  61  92 123 168 211 259 319 380
#     4  12  26  43  62  90 132 165 218 270 313 383
#
# _framework density 20.743715000000002
#
# number of rings (size 3 to 8) (size 9 to 14) (size 15 to 20)
#    0.000    2.000    4.286    2.143    0.000    0.000 
#   10.286    2.143    0.000    0.000    0.000    0.000 
#    0.000    0.000    0.000    0.000    0.000    0.000 
#
# Total GULP energy -346898.553700 kJ/mol
# GULP energy per Si atom -12389.234061 kJ/mol
# Density = 2.069650 g / cm^3
# Si number density = 20.743715 Si / 1000 Ang^3
#
#
#
# Elastic Constant Matrix: (Units=GPa)
#
#
# Indices 1 2 3 4 5 6 
#
# 1 141.6916 60.5132 34.0522 0.0000 0.0000 0.0000
# 2 60.5132 109.5972 29.6167 0.0000 0.0000 0.0000
# 3 34.0522 29.6167 57.4690 0.0000 0.0000 0.0000
# 4 0.0000 0.0000 0.0000 13.4171 0.0000 0.0000
# 5 0.0000 0.0000 0.0000 0.0000 9.7177 0.0000
# 6 0.0000 0.0000 0.0000 0.0000 0.0000 39.6784
#
#
#
# Elastic Compliance Matrix: (Units=1/GPa)
#
#
# Indices 1 2 3 4 5 6 
#
# 1 0.009809 -0.004468 -0.003510 0.000000 0.000000 0.000000
# 2 -0.004468 0.012635 -0.003864 0.000000 0.000000 0.000000
# 3 -0.003510 -0.003864 0.021472 0.000000 0.000000 0.000000
# 4 0.000000 0.000000 0.000000 0.074532 0.000000 0.000000
# 5 0.000000 0.000000 0.000000 0.000000 0.102905 0.000000
# 6 0.000000 0.000000 0.000000 0.000000 0.000000 0.025203
#
#
# Mechanical properties :
#
#
# Convention : Reuss Voigt Hill
#
# Bulk Modulus (GPa) = 49.42507 61.90244 55.66376
# Shear Modulus (GPa) = 18.05159 24.86768 21.45963
#
# Velocity S-wave (km/s) = 2.95315 3.46613 3.21987
# Velocity P-wave (km/s) = 5.95872 6.77681 6.38089
#
# Compressibility (1/GPa) = 0.02023265
#
# Stress axis : x y z
#
# Youngs Moduli (GPa) = 101.94652 79.14312 46.57246
#
# Poissons Ratio (x) = 0.35357 0.16346
# Poissons Ratio (y) = 0.45545 0.17998
# Poissons Ratio (z) = 0.35781 0.30585
#
# Static dielectric constant tensor:
#      x y z
#    x 4.085240 0.000000 0.000000 
#    y 0.000000 3.781820 0.000000 
#    z 0.000000 0.000000 3.366040 
# 
# 
# High freq. dielectric constant tensor:
#      x y z
#    x 1.822420 0.000000 0.000000 
#    y 0.000000 1.804440 0.000000 
#    z 0.000000 0.000000 1.781300 
# 
# From -- ./inp_files/10815.got.cif
#   From: 2010.03.12/outbox.cif.g09.slc.cpg/sg37_6_cif.got.tgz:10815.got - 2010.04.14 02:25:27.
