data_PCOD8176025
_publ_section_title
;
Structure prediction by ZEFSAII (Michael W. Deem and Ramdas Pophale) SiO2 
 PCOD8176025
Probable space group: C M C 21
;
_chemical_formula_sum "Si O2"
_cell_formula_units_Z 64
_cell_length_a 14.533891
_cell_length_b 9.804152
_cell_length_c 22.385784
_cell_angle_alpha 90.000000
_cell_angle_beta 90.000000
_cell_angle_gamma 90.000000
_cell_volume 3189.805801
_symmetry_space_group_name_H-M "C M C 21"
_symmetry_group_IT_number 36
_symmetry_cell_setting 'orthorhombic'
loop_
_space_group_symop_operation_xyz
x,y,z
-x,-y,1/2+z
x,-y,1/2+z
-x,y,z
1/2+x,1/2+y,z
1/2-x,1/2-y,1/2+z
1/2+x,1/2-y,1/2+z
1/2-x,1/2+y,z
loop_
_atom_site_type_symbol
_atom_site_label
_atom_site_fract_x
_atom_site_fract_y
_atom_site_fract_z
Si Si1 0.109058 0.797606 0.299970
Si Si2 0.390528 0.003059 0.787130
Si Si3 0.754302 0.905655 0.093905
Si Si4 0.392304 0.802772 0.182297
Si Si5 0.105001 0.220554 0.932861
Si Si6 0.394930 0.961271 0.419049
Si Si7 0.765301 0.658835 0.013910
Si Si8 0.107344 0.012492 0.694188
O O1 0.146617 0.651037 0.276317
O O2 0.142174 0.827072 0.367658
O O3 0.141481 0.917630 0.255863
O O4 0.000000 0.786578 0.302753
O O5 0.500000 0.003502 0.786920
O O6 0.353220 0.102194 0.735511
O O7 0.356725 0.057304 0.851579
O O8 0.662804 0.841177 0.122948
O O9 0.786766 0.807035 0.040864
O O10 0.837295 0.920262 0.140268
O O11 0.727298 0.051327 0.067320
O O12 0.500000 0.828076 0.169730
O O13 0.372993 0.647354 0.200433
O O14 0.115645 0.382692 0.939129
O O15 0.000000 0.174863 0.943019
O O16 0.164361 0.149278 0.984333
O O17 0.500000 0.914105 0.422522
O O18 0.339999 0.863235 0.462769
O O19 0.000000 0.042490 0.682594
#
# Coordination Sequence:
#
# PCOD8176025 Si02
#       8
#     8   8   8   8   8   8   8   8
#     4   8  16  34  62  93 116 144 192 241 290 350
#     4   8  16  34  62  92 116 145 192 239 289 354
#     4  12  26  41  57  86 120 154 204 247 280 339
#     4  10  22  41  63  86 117 157 193 237 298 352
#     4   9  19  39  65  87 116 157 192 233 296 356
#     4   9  19  39  64  88 117 153 192 240 293 347
#     4  12  24  41  59  86 118 154 206 244 277 343
#     4  10  22  41  62  86 120 154 189 243 301 345
#
# _framework density 20.063917
#
# number of rings (size 3 to 8) (size 9 to 14) (size 15 to 20)
#    0.000    2.250    2.500    1.500    1.750    3.000 
#    2.250    2.500    0.000    0.000    0.000    0.000 
#    0.000    0.000    0.000    0.000    0.000    0.000 
#
# Total GULP energy -396832.170176 kJ/mol
# GULP energy per Si atom -12401.005318 kJ/mol
# Density = 2.001825 g / cm^3
# Si number density = 20.063917 Si / 1000 Ang^3
#
#
#
# Elastic Constant Matrix: (Units=GPa)
#
#
# Indices 1 2 3 4 5 6 
#
# 1 58.8855 32.3873 32.8803 0.0000 0.0000 0.0000
# 2 32.3873 85.0417 46.5412 0.0000 0.0000 0.0000
# 3 32.8803 46.5412 99.3030 0.0000 0.0000 0.0000
# 4 0.0000 0.0000 0.0000 42.3537 0.0000 0.0000
# 5 0.0000 0.0000 0.0000 0.0000 37.9185 0.0000
# 6 0.0000 0.0000 0.0000 0.0000 0.0000 22.0724
#
#
#
# Elastic Compliance Matrix: (Units=1/GPa)
#
#
# Indices 1 2 3 4 5 6 
#
# 1 0.023020 -0.006181 -0.004725 0.000000 0.000000 0.000000
# 2 -0.006181 0.017475 -0.006144 0.000000 0.000000 0.000000
# 3 -0.004725 -0.006144 0.014514 0.000000 0.000000 0.000000
# 4 0.000000 0.000000 0.000000 0.023611 0.000000 0.000000
# 5 0.000000 0.000000 0.000000 0.000000 0.026372 0.000000
# 6 0.000000 0.000000 0.000000 0.000000 0.000000 0.045305
#
#
# Mechanical properties :
#
#
# Convention : Reuss Voigt Hill
#
# Bulk Modulus (GPa) = 47.82483 51.87198 49.84840
# Shear Modulus (GPa) = 26.12770 29.23035 27.67902
#
# Velocity S-wave (km/s) = 3.61255 3.82103 3.71825
# Velocity P-wave (km/s) = 6.42562 6.73621 6.58275
#
# Compressibility (1/GPa) = 0.02090964
#
# Stress axis : x y z
#
# Youngs Moduli (GPa) = 43.44013 57.22404 68.89798
#
# Poissons Ratio (x) = 0.35370 0.32557
# Poissons Ratio (y) = 0.26850 0.42329
# Poissons Ratio (z) = 0.20527 0.35157
#
# Static dielectric constant tensor:
#      x y z
#    x 3.482130 0.000000 0.000000 
#    y 0.000000 3.670550 0.000000 
#    z 0.000000 0.000000 3.804430 
# 
# 
# High freq. dielectric constant tensor:
#      x y z
#    x 1.772140 0.000000 0.000000 
#    y 0.000000 1.777050 0.000000 
#    z 0.000000 0.000000 1.791130 
# 
# From -- ./inp_files/16970.got.cif
#   From: 2010.03.12/outbox.cif.g09.slc.cpg/sg36_9_cif.got.tgz:16970.got - 2010.04.14 02:13:53.
