data_PCOD8176728
_publ_section_title
;
Structure prediction by ZEFSAII (Michael W. Deem and Ramdas Pophale) SiO2 
 PCOD8176728
Probable space group: C C C 2
;
_chemical_formula_sum "Si O2"
_cell_formula_units_Z 64
_cell_length_a 10.659506
_cell_length_b 10.659510
_cell_length_c 27.520155
_cell_angle_alpha 90.000000
_cell_angle_beta 90.000000
_cell_angle_gamma 90.000000
_cell_volume 3126.980661
_symmetry_space_group_name_H-M "C C C 2"
_symmetry_group_IT_number 37
_symmetry_cell_setting 'orthorhombic'
loop_
_space_group_symop_operation_xyz
x,y,z
-x,-y,z
-x,y,1/2+z
x,-y,1/2+z
1/2+x,1/2+y,z
1/2-x,1/2-y,z
1/2-x,1/2+y,1/2+z
1/2+x,1/2-y,1/2+z
loop_
_atom_site_type_symbol
_atom_site_label
_atom_site_fract_x
_atom_site_fract_y
_atom_site_fract_z
Si Si1 0.199156 0.000896 0.183100
Si Si2 0.144200 0.644200 0.862531
Si Si3 0.500896 0.300844 0.683100
Si Si4 0.501746 0.299023 0.433339
Si Si5 0.899490 0.399490 0.751425
Si Si6 0.401281 0.098719 0.501725
Si Si7 0.200977 0.001746 0.933339
Si Si8 0.853938 0.646062 0.610622
O O1 0.297708 0.970621 0.140678
O O2 0.125257 0.874743 0.199120
O O3 0.103207 0.103207 0.161796
O O4 0.265527 0.057917 0.230526
O O5 0.250000 0.750000 0.862466
O O6 0.106028 0.606028 0.808991
O O7 0.197184 0.519565 0.890056
O O8 0.019565 0.697184 0.890056
O O9 0.557918 0.234473 0.730526
O O10 0.470622 0.202292 0.640678
O O11 0.449064 0.234493 0.482742
O O12 0.417717 0.417717 0.421686
O O13 0.646339 0.353661 0.437195
O O14 0.000000 0.500000 0.734058
O O15 0.265507 0.050936 0.482742
O O16 0.402999 0.097001 0.559672
O O17 0.500000 0.000000 0.481398
O O18 0.750000 0.750000 0.600291
#
# Coordination Sequence:
#
# PCOD8176728 Si02
#       8
#     8   8   8   8   8   8   8   8
#     4  10  22  40  61  84 114 155 201 250 303 359
#     4   9  19  35  56  88 118 151 197 244 296 356
#     4  10  22  40  61  84 114 155 201 250 303 359
#     4   9  19  39  63  84 114 157 201 244 292 349
#     4  12  23  37  60  86 123 158 195 246 306 361
#     4  11  23  35  56  88 122 152 190 240 300 355
#     4   9  19  39  63  84 114 157 201 244 292 349
#     4  10  21  39  60  85 116 150 196 246 294 357
#
# _framework density 20.467027999999999
#
# number of rings (size 3 to 8) (size 9 to 14) (size 15 to 20)
#    0.000    2.000    1.250    3.000    1.750    4.500 
#    0.000    5.000    0.000    0.000    0.000    0.000 
#    0.000    0.000    0.000    0.000    0.000    0.000 
#
# Total GULP energy -396612.076098 kJ/mol
# GULP energy per Si atom -12394.127378 kJ/mol
# Density = 2.042044 g / cm^3
# Si number density = 20.467028 Si / 1000 Ang^3
#
#
#
# Elastic Constant Matrix: (Units=GPa)
#
#
# Indices 1 2 3 4 5 6 
#
# 1 89.9153 64.8291 47.7660 0.0000 0.0000 0.0000
# 2 64.8291 89.9155 47.7661 0.0000 0.0000 0.0000
# 3 47.7660 47.7661 143.6420 0.0000 0.0000 0.0000
# 4 0.0000 0.0000 0.0000 21.8353 0.0000 0.0000
# 5 0.0000 0.0000 0.0000 0.0000 21.8353 0.0000
# 6 0.0000 0.0000 0.0000 0.0000 0.0000 50.2507
#
#
#
# Elastic Compliance Matrix: (Units=1/GPa)
#
#
# Indices 1 2 3 4 5 6 
#
# 1 0.023997 -0.015865 -0.002704 0.000000 0.000000 0.000000
# 2 -0.015865 0.023997 -0.002704 0.000000 0.000000 0.000000
# 3 -0.002704 -0.002704 0.008760 0.000000 0.000000 0.000000
# 4 0.000000 0.000000 0.000000 0.045797 0.000000 0.000000
# 5 0.000000 0.000000 0.000000 0.000000 0.045797 0.000000
# 6 0.000000 0.000000 0.000000 0.000000 0.000000 0.019900
#
#
# Mechanical properties :
#
#
# Convention : Reuss Voigt Hill
#
# Bulk Modulus (GPa) = 70.38696 71.57723 70.98210
# Shear Modulus (GPa) = 23.19846 29.65839 26.42843
#
# Velocity S-wave (km/s) = 3.37033 3.81081 3.59732
# Velocity P-wave (km/s) = 7.04348 7.37638 7.21185
#
# Compressibility (1/GPa) = 0.01420718
#
# Stress axis : x y z
#
# Youngs Moduli (GPa) = 41.67187 41.67199 114.15350
#
# Poissons Ratio (x) = 0.66114 0.30868
# Poissons Ratio (y) = 0.66114 0.30868
# Poissons Ratio (z) = 0.11268 0.11268
#
# Static dielectric constant tensor:
#      x y z
#    x 3.885290 0.000000 0.000000 
#    y 0.000000 3.885290 0.000000 
#    z 0.000000 0.000000 3.482590 
# 
# 
# High freq. dielectric constant tensor:
#      x y z
#    x 1.806150 0.000000 0.000000 
#    y 0.000000 1.806150 0.000000 
#    z 0.000000 0.000000 1.780660 
# 
# From -- ./inp_files/20438.got.cif
#   From: 2010.03.12/outbox.cif.g09.slc.cpg/sg37_11_cif.got.tgz:20438.got - 2010.04.14 02:25:27.
