data_PCOD8176495
_publ_section_title
;
Structure prediction by ZEFSAII (Michael W. Deem and Ramdas Pophale) SiO2 
 PCOD8176495
Probable space group: C C C 2
;
_chemical_formula_sum "Si O2"
_cell_formula_units_Z 64
_cell_length_a 14.895313
_cell_length_b 11.658696
_cell_length_c 19.220719
_cell_angle_alpha 90.000000
_cell_angle_beta 90.000000
_cell_angle_gamma 90.000000
_cell_volume 3337.868641
_symmetry_space_group_name_H-M "C C C 2"
_symmetry_group_IT_number 37
_symmetry_cell_setting 'orthorhombic'
loop_
_space_group_symop_operation_xyz
x,y,z
-x,-y,z
-x,y,1/2+z
x,-y,1/2+z
1/2+x,1/2+y,z
1/2-x,1/2-y,z
1/2-x,1/2+y,1/2+z
1/2+x,1/2-y,1/2+z
loop_
_atom_site_type_symbol
_atom_site_label
_atom_site_fract_x
_atom_site_fract_y
_atom_site_fract_z
Si Si1 0.252338 0.431464 0.989160
Si Si2 0.008303 0.628895 0.118307
Si Si3 0.502489 0.681897 0.377219
Si Si4 0.788916 0.364114 0.091899
Si Si5 0.101501 0.252226 0.005429
Si Si6 0.239711 0.619906 0.247768
Si Si7 0.648754 0.504593 0.358204
Si Si8 0.464444 0.115052 0.773883
O O1 0.167721 0.349171 0.974424
O O2 0.339927 0.362776 0.016473
O O3 0.275062 0.493731 0.916915
O O4 0.225166 0.524630 0.045744
O O5 0.108429 0.669582 0.104040
O O6 0.985671 0.635321 0.200093
O O7 0.000000 0.500000 0.089434
O O8 0.937427 0.710985 0.079836
O O9 0.484014 0.734683 0.453925
O O10 0.603076 0.631054 0.364895
O O11 0.429822 0.584527 0.368664
O O12 0.485644 0.776694 0.319956
O O13 0.750000 0.250000 0.055198
O O14 0.738787 0.385743 0.165615
O O15 0.250000 0.750000 0.276887
O O16 0.304791 0.526554 0.284642
O O17 0.138636 0.585808 0.262102
O O18 0.500000 0.000000 0.810946
#
# Coordination Sequence:
#
# PCOD8176495 Si02
#       8
#     8   8   8   8   8   8   8   8
#     4  10  21  38  58  86 112 153 197 235 284 345
#     4  10  20  38  59  84 113 152 192 235 285 344
#     4  10  21  38  57  87 115 150 193 239 287 334
#     4  10  22  37  59  88 118 148 190 246 292 339
#     4  10  21  37  62  80 111 157 197 231 280 352
#     4  10  19  38  64  84 110 158 200 229 282 355
#     4  10  21  37  61  84 117 150 195 243 277 340
#     4  10  21  37  60  85 115 147 191 239 287 344
#
# _framework density 19.173911
#
# number of rings (size 3 to 8) (size 9 to 14) (size 15 to 20)
#    0.000    2.000    2.500    0.750    3.500    1.500 
#    2.250    0.625    0.000    0.000    0.000    0.000 
#    0.000    0.000    0.000    0.000    0.000    0.000 
#
# Total GULP energy -396699.516488 kJ/mol
# GULP energy per Si atom -12396.859890 kJ/mol
# Density = 1.913027 g / cm^3
# Si number density = 19.173911 Si / 1000 Ang^3
#
#
#
# Elastic Constant Matrix: (Units=GPa)
#
#
# Indices 1 2 3 4 5 6 
#
# 1 61.8215 16.1949 20.3375 0.0000 0.0000 0.0000
# 2 16.1949 70.9925 22.2688 0.0000 0.0000 0.0000
# 3 20.3375 22.2688 72.2796 0.0000 0.0000 0.0000
# 4 0.0000 0.0000 0.0000 33.1523 0.0000 0.0000
# 5 0.0000 0.0000 0.0000 0.0000 29.4721 0.0000
# 6 0.0000 0.0000 0.0000 0.0000 0.0000 30.9982
#
#
#
# Elastic Compliance Matrix: (Units=1/GPa)
#
#
# Indices 1 2 3 4 5 6 
#
# 1 0.018328 -0.002838 -0.004283 0.000000 0.000000 0.000000
# 2 -0.002838 0.016032 -0.004141 0.000000 0.000000 0.000000
# 3 -0.004283 -0.004141 0.016316 0.000000 0.000000 0.000000
# 4 0.000000 0.000000 0.000000 0.030164 0.000000 0.000000
# 5 0.000000 0.000000 0.000000 0.000000 0.033930 0.000000
# 6 0.000000 0.000000 0.000000 0.000000 0.000000 0.032260
#
#
# Mechanical properties :
#
#
# Convention : Reuss Voigt Hill
#
# Bulk Modulus (GPa) = 35.51955 35.85511 35.68733
# Shear Modulus (GPa) = 27.94276 28.47736 28.21006
#
# Velocity S-wave (km/s) = 3.82164 3.85803 3.83988
# Velocity P-wave (km/s) = 6.16753 6.21179 6.18970
#
# Compressibility (1/GPa) = 0.02815351
#
# Stress axis : x y z
#
# Youngs Moduli (GPa) = 54.56187 62.37433 61.28952
#
# Poissons Ratio (x) = 0.17699 0.26248
# Poissons Ratio (y) = 0.15482 0.25380
# Poissons Ratio (z) = 0.23367 0.25829
#
# Static dielectric constant tensor:
#      x y z
#    x 3.604380 0.000000 0.000000 
#    y 0.000000 3.546110 0.000000 
#    z 0.000000 0.000000 3.497700 
# 
# 
# High freq. dielectric constant tensor:
#      x y z
#    x 1.745350 0.000000 0.000000 
#    y 0.000000 1.741900 0.000000 
#    z 0.000000 0.000000 1.738400 
# 
# From -- ./inp_files/15303.got.cif
#   From: 2010.03.12/outbox.cif.g09.slc.cpg/sg37_8_cif.got.tgz:15303.got - 2010.04.14 02:25:27.
