data_PCOD8176586
_publ_section_title
;
Structure prediction by ZEFSAII (Michael W. Deem and Ramdas Pophale) SiO2 
 PCOD8176586
Probable space group: C C C 2
;
_chemical_formula_sum "Si O2"
_cell_formula_units_Z 40
_cell_length_a 12.755125
_cell_length_b 8.082141
_cell_length_c 17.451223
_cell_angle_alpha 90.000000
_cell_angle_beta 90.000000
_cell_angle_gamma 90.000000
_cell_volume 1799.024219
_symmetry_space_group_name_H-M "C C C 2"
_symmetry_group_IT_number 37
_symmetry_cell_setting 'orthorhombic'
loop_
_space_group_symop_operation_xyz
x,y,z
-x,-y,z
-x,y,1/2+z
x,-y,1/2+z
1/2+x,1/2+y,z
1/2-x,1/2-y,z
1/2-x,1/2+y,1/2+z
1/2+x,1/2-y,1/2+z
loop_
_atom_site_type_symbol
_atom_site_label
_atom_site_fract_x
_atom_site_fract_y
_atom_site_fract_z
Si Si1 0.408418 0.820825 0.465590
Si Si2 0.218119 0.425975 0.275402
Si Si3 0.430827 0.335058 0.564913
Si Si4 0.214751 0.989104 0.945124
Si Si5 0.250000 0.250000 0.678368
Si Si6 0.000000 0.500000 0.331749
O O1 0.486474 0.804272 0.537649
O O2 0.328840 0.972828 0.482967
O O3 0.349256 0.655499 0.446586
O O4 0.468382 0.848561 0.386144
O O5 0.250000 0.250000 0.235928
O O6 0.272262 0.426219 0.358811
O O7 0.256349 0.583303 0.227719
O O8 0.092880 0.435820 0.278109
O O9 0.500000 0.500000 0.586219
O O10 0.349012 0.357908 0.494844
O O11 0.359951 0.260928 0.632579
#
# Coordination Sequence:
#
# PCOD8176586 Si02
#       6
#     8   8   8   8   4   4
#     4   9  18  35  64 102 129 164 225 290 333 396
#     4  11  24  44  68  98 139 184 228 281 344 414
#     4  10  23  43  65  98 135 185 226 283 355 403
#     4   9  19  40  70  97 127 172 234 285 333 407
#     4  12  28  46  64  98 148 184 222 282 354 414
#     4  10  20  36  66 106 130 176 236 284 340 406
#
# _framework density 22.234273999999999
#
# number of rings (size 3 to 8) (size 9 to 14) (size 15 to 20)
#    0.000    2.000    0.000    3.600    7.000    1.600 
#   10.800    5.000    0.000    0.000    0.000    0.000 
#    0.000    0.000    0.000    0.000    0.000    0.000 
#
# Total GULP energy -247850.340965 kJ/mol
# GULP energy per Si atom -12392.517048 kJ/mol
# Density = 2.218367 g / cm^3
# Si number density = 22.234274 Si / 1000 Ang^3
#
#
#
# Elastic Constant Matrix: (Units=GPa)
#
#
# Indices 1 2 3 4 5 6 
#
# 1 127.6576 54.1983 48.3600 0.0000 0.0000 0.0000
# 2 54.1983 118.5372 53.3573 0.0000 0.0000 0.0000
# 3 48.3600 53.3573 81.7864 0.0000 0.0000 0.0000
# 4 0.0000 0.0000 0.0000 0.6302 0.0000 0.0000
# 5 0.0000 0.0000 0.0000 0.0000 5.9197 0.0000
# 6 0.0000 0.0000 0.0000 0.0000 0.0000 19.3401
#
#
#
# Elastic Compliance Matrix: (Units=1/GPa)
#
#
# Indices 1 2 3 4 5 6 
#
# 1 0.010760 -0.002911 -0.004464 0.000000 0.000000 0.000000
# 2 -0.002911 0.012731 -0.006585 0.000000 0.000000 0.000000
# 3 -0.004464 -0.006585 0.019162 0.000000 0.000000 0.000000
# 4 0.000000 0.000000 0.000000 1.586675 0.000000 0.000000
# 5 0.000000 0.000000 0.000000 0.000000 0.168928 0.000000
# 6 0.000000 0.000000 0.000000 0.000000 0.000000 0.051706
#
#
# Mechanical properties :
#
#
# Convention : Reuss Voigt Hill
#
# Bulk Modulus (GPa) = 67.86305 71.09026 69.47666
# Shear Modulus (GPa) = 2.65563 16.64904 9.65233
#
# Velocity S-wave (km/s) = 1.09407 2.73939 2.08581
# Velocity P-wave (km/s) = 5.67310 6.48447 6.09231
#
# Compressibility (1/GPa) = 0.01473556
#
# Stress axis : x y z
#
# Youngs Moduli (GPa) = 92.93608 78.54887 52.18659
#
# Poissons Ratio (x) = 0.22863 0.23293
# Poissons Ratio (y) = 0.27050 0.34363
# Poissons Ratio (z) = 0.41482 0.51721
#
# Static dielectric constant tensor:
#      x y z
#    x 4.766990 0.000000 0.000000 
#    y 0.000000 4.182860 0.000000 
#    z 0.000000 0.000000 3.736850 
# 
# 
# High freq. dielectric constant tensor:
#      x y z
#    x 1.901460 0.000000 0.000000 
#    y 0.000000 1.886950 0.000000 
#    z 0.000000 0.000000 1.840620 
# 
# From -- ./inp_files/10374.got.cif
#   From: 2010.03.12/outbox.cif.g09.slc.cpg/sg37_6_cif.got.tgz:10374.got - 2010.04.14 02:25:27.
