data_PCOD8176553
_publ_section_title
;
Structure prediction by ZEFSAII (Michael W. Deem and Ramdas Pophale) SiO2 
 PCOD8176553
Probable space group: C C C 2
;
_chemical_formula_sum "Si O2"
_cell_formula_units_Z 48
_cell_length_a 13.627142
_cell_length_b 7.340441
_cell_length_c 23.707851
_cell_angle_alpha 90.000000
_cell_angle_beta 90.000000
_cell_angle_gamma 90.000000
_cell_volume 2371.478124
_symmetry_space_group_name_H-M "C C C 2"
_symmetry_group_IT_number 37
_symmetry_cell_setting 'orthorhombic'
loop_
_space_group_symop_operation_xyz
x,y,z
-x,-y,z
-x,y,1/2+z
x,-y,1/2+z
1/2+x,1/2+y,z
1/2-x,1/2-y,z
1/2-x,1/2+y,1/2+z
1/2+x,1/2-y,1/2+z
loop_
_atom_site_type_symbol
_atom_site_label
_atom_site_fract_x
_atom_site_fract_y
_atom_site_fract_z
Si Si1 0.711903 0.049346 0.260490
Si Si2 0.461123 0.704189 0.632546
Si Si3 0.750000 0.750000 0.171552
Si Si4 0.000000 0.500000 0.222513
Si Si5 0.250000 0.750000 0.974730
Si Si6 0.288097 0.950654 0.385792
Si Si7 0.538877 0.704189 0.513736
Si Si8 0.500000 0.000000 0.423769
O O1 0.750000 0.250000 0.246005
O O2 0.749762 0.993878 0.323141
O O3 0.755588 0.924658 0.211810
O O4 0.594460 0.024645 0.261674
O O5 0.500000 0.500000 0.641378
O O6 0.343363 0.728285 0.630928
O O7 0.501106 0.820601 0.684155
O O8 0.500000 0.781698 0.573141
O O9 0.255588 0.575342 0.934472
O O10 0.343363 0.728285 0.015354
O O11 0.250000 0.750000 0.400277
O O12 0.405540 0.975356 0.384608
O O13 0.500000 0.500000 0.504904
O O14 0.498894 0.820601 0.462127
#
# Coordination Sequence:
#
# PCOD8176553 Si02
#       8
#     8   8   4   4   4   8   8   4
#     4  10  20  35  57  85 113 149 190 232 285 343
#     4  10  21  39  55  82 113 149 194 237 288 347
#     4  10  21  38  58  82 114 154 185 240 288 338
#     4  10  20  36  56  80 116 148 188 238 286 340
#     4  10  21  38  58  82 114 154 185 240 288 338
#     4  10  20  35  57  85 113 149 190 232 285 343
#     4  10  21  39  55  82 113 149 194 237 288 347
#     4  10  20  36  56  80 116 148 188 238 286 340
#
# _framework density 20.240542000000001
#
# number of rings (size 3 to 8) (size 9 to 14) (size 15 to 20)
#    0.000    2.000    0.000    3.500    0.000    0.000 
#   27.000    0.000    0.000   16.000    0.000    0.000 
#    0.000    0.000    0.000    0.000    0.000    0.000 
#
# Total GULP energy -297526.238449 kJ/mol
# GULP energy per Si atom -12396.926602 kJ/mol
# Density = 2.019447 g / cm^3
# Si number density = 20.240542 Si / 1000 Ang^3
#
#
#
# Elastic Constant Matrix: (Units=GPa)
#
#
# Indices 1 2 3 4 5 6 
#
# 1 95.3273 31.6223 53.3329 0.0000 0.0000 0.0000
# 2 31.6223 97.3030 39.6962 0.0000 0.0000 0.0000
# 3 53.3329 39.6962 104.7123 0.0000 0.0000 0.0000
# 4 0.0000 0.0000 0.0000 1.1628 0.0000 0.0000
# 5 0.0000 0.0000 0.0000 0.0000-1409.4071 0.0000
# 6 0.0000 0.0000 0.0000 0.0000 0.0000 25.9792
#
#
#
# Elastic Compliance Matrix: (Units=1/GPa)
#
#
# Indices 1 2 3 4 5 6 
#
# 1 0.015019 -0.002082 -0.006860 0.000000 0.000000 0.000000
# 2 -0.002082 0.012446 -0.003658 0.000000 0.000000 0.000000
# 3 -0.006860 -0.003658 0.014431 0.000000 0.000000 0.000000
# 4 0.000000 0.000000 0.000000 0.859965 0.000000 0.000000
# 5 0.000000 0.000000 0.000000 0.000000 -0.000710 0.000000
# 6 0.000000 0.000000 0.000000 0.000000 0.000000 0.038492
#
#
# Mechanical properties :
#
#
# Convention : Reuss Voigt Hill
#
# Bulk Modulus (GPa) = 59.89675 60.73837 60.31756
# Shear Modulus (GPa) = 5.15246 -264.94027 -129.89390
#
# Velocity S-wave (km/s) = 1.59723 -11.45338 -8.01963
# Velocity P-wave (km/s) = 5.74963 12.03467 7.47579
#
# Compressibility (1/GPa) = 0.01669540
#
# Stress axis : x y z
#
# Youngs Moduli (GPa) = 66.58227 80.34631 69.29669
#
# Poissons Ratio (x) = 0.16730 0.47539
# Poissons Ratio (y) = 0.13864 0.25347
# Poissons Ratio (z) = 0.45677 0.29389
#
# Static dielectric constant tensor:
#      x y z
#    x 3.674940 0.000000 0.000000 
#    y 0.000000 3.738300 0.000000 
#    z 0.000000 0.000000 3.610910 
# 
# 
# High freq. dielectric constant tensor:
#      x y z
#    x 1.793640 0.000000 0.000000 
#    y 0.000000 1.798730 0.000000 
#    z 0.000000 0.000000 1.793390 
# 
# From -- ./inp_files/17099.got.cif
#   From: 2010.03.12/outbox.cif.g09.slc.cpg/sg37_9_cif.got.tgz:17099.got - 2010.04.14 02:25:27.
