data_PCOD8176178
_publ_section_title
;
Structure prediction by ZEFSAII (Michael W. Deem and Ramdas Pophale) SiO2 
 PCOD8176178
Probable space group: C M C 21
;
_chemical_formula_sum "Si O2"
_cell_formula_units_Z 48
_cell_length_a 21.441870
_cell_length_b 9.495153
_cell_length_c 10.626414
_cell_angle_alpha 90.000000
_cell_angle_beta 90.000000
_cell_angle_gamma 90.000000
_cell_volume 2163.472392
_symmetry_space_group_name_H-M "C M C 21"
_symmetry_group_IT_number 36
_symmetry_cell_setting 'orthorhombic'
loop_
_space_group_symop_operation_xyz
x,y,z
-x,-y,1/2+z
x,-y,1/2+z
-x,y,z
1/2+x,1/2+y,z
1/2-x,1/2-y,1/2+z
1/2+x,1/2-y,1/2+z
1/2-x,1/2+y,z
loop_
_atom_site_type_symbol
_atom_site_label
_atom_site_fract_x
_atom_site_fract_y
_atom_site_fract_z
Si Si1 0.123298 0.916642 0.969180
Si Si2 0.928245 0.342966 0.890322
Si Si3 0.929672 0.919396 0.235675
Si Si4 0.135454 0.633995 0.861850
Si Si5 0.172024 0.293137 0.098856
Si Si6 0.750320 0.539265 0.006358
O O1 0.110495 0.748840 0.962222
O O2 0.083607 0.995214 0.863259
O O3 0.109738 0.966229 0.112990
O O4 0.195812 0.948102 0.942307
O O5 0.919489 0.246362 0.766443
O O6 0.911505 0.503130 0.856016
O O7 0.000000 0.336444 0.938143
O O8 0.881308 0.280527 0.993732
O O9 0.000000 0.949234 0.195748
O O10 0.136427 0.717085 0.730370
O O11 0.206111 0.590144 0.892789
O O12 0.207502 0.442894 0.097133
O O13 0.222538 0.169582 0.084452
#
# Coordination Sequence:
#
# PCOD8176178 Si02
#       6
#     8   8   8   8   8   8
#     4  12  25  46  72 103 139 184 232 292 349 422
#     4  10  25  47  69  98 139 184 234 293 350 413
#     4  11  26  47  72 101 139 185 234 291 351 415
#     4  11  27  42  69 103 135 186 232 286 353 418
#     4  11  24  43  68 102 138 184 229 290 349 417
#     4  11  24  41  64 101 141 175 227 286 346 417
#
# _framework density 22.186556
#
# number of rings (size 3 to 8) (size 9 to 14) (size 15 to 20)
#    0.000    1.000    3.333    1.500    9.333    2.000 
#    0.000    0.000    0.000    0.000    0.000    0.000 
#    0.000    0.000    0.000    0.000    0.000    0.000 
#
# Total GULP energy -297639.525498 kJ/mol
# GULP energy per Si atom -12401.646896 kJ/mol
# Density = 2.213606 g / cm^3
# Si number density = 22.186556 Si / 1000 Ang^3
#
#
#
# Elastic Constant Matrix: (Units=GPa)
#
#
# Indices 1 2 3 4 5 6 
#
# 1 107.7076 33.8312 32.9660 0.0000 0.0000 0.0000
# 2 33.8312 107.9242 29.9067 0.0000 0.0000 0.0000
# 3 32.9660 29.9067 114.8870 0.0000 0.0000 0.0000
# 4 0.0000 0.0000 0.0000 28.3015 0.0000 0.0000
# 5 0.0000 0.0000 0.0000 0.0000 21.2773 0.0000
# 6 0.0000 0.0000 0.0000 0.0000 0.0000 33.2117
#
#
#
# Elastic Compliance Matrix: (Units=1/GPa)
#
#
# Indices 1 2 3 4 5 6 
#
# 1 0.010884 -0.002744 -0.002409 0.000000 0.000000 0.000000
# 2 -0.002744 0.010678 -0.001992 0.000000 0.000000 0.000000
# 3 -0.002409 -0.001992 0.009914 0.000000 0.000000 0.000000
# 4 0.000000 0.000000 0.000000 0.035334 0.000000 0.000000
# 5 0.000000 0.000000 0.000000 0.000000 0.046998 0.000000
# 6 0.000000 0.000000 0.000000 0.000000 0.000000 0.030110
#
#
# Mechanical properties :
#
#
# Convention : Reuss Voigt Hill
#
# Bulk Modulus (GPa) = 58.18873 58.21408 58.20140
# Shear Modulus (GPa) = 30.49965 32.14576 31.32271
#
# Velocity S-wave (km/s) = 3.71170 3.81055 3.76145
# Velocity P-wave (km/s) = 6.68229 6.75691 6.71970
#
# Compressibility (1/GPa) = 0.01718546
#
# Stress axis : x y z
#
# Youngs Moduli (GPa) = 91.88167 93.64995 100.86815
#
# Poissons Ratio (x) = 0.25700 0.24295
# Poissons Ratio (y) = 0.25215 0.20095
# Poissons Ratio (z) = 0.22131 0.18657
#
# Static dielectric constant tensor:
#      x y z
#    x 3.970860 0.000000 0.000000 
#    y 0.000000 4.203660 0.000000 
#    z 0.000000 0.000000 3.707660 
# 
# 
# High freq. dielectric constant tensor:
#      x y z
#    x 1.874230 0.000000 0.000000 
#    y 0.000000 1.893480 0.000000 
#    z 0.000000 0.000000 1.861630 
# 
# From -- ./inp_files/9413.got.cif
#   From: 2010.03.12/outbox.cif.g09.slc.cpg/sg36_5_cif.got.tgz:9413.got - 2010.04.14 02:13:53.
