data_PCOD8176202
_publ_section_title
;
Structure prediction by ZEFSAII (Michael W. Deem and Ramdas Pophale) SiO2 
 PCOD8176202
Probable space group: C M C 21
;
_chemical_formula_sum "Si O2"
_cell_formula_units_Z 64
_cell_length_a 8.922485
_cell_length_b 20.255923
_cell_length_c 19.026616
_cell_angle_alpha 90.000000
_cell_angle_beta 90.000000
_cell_angle_gamma 90.000000
_cell_volume 3438.740607
_symmetry_space_group_name_H-M "C M C 21"
_symmetry_group_IT_number 36
_symmetry_cell_setting 'orthorhombic'
loop_
_space_group_symop_operation_xyz
x,y,z
-x,-y,1/2+z
x,-y,1/2+z
-x,y,z
1/2+x,1/2+y,z
1/2-x,1/2-y,1/2+z
1/2+x,1/2-y,1/2+z
1/2-x,1/2+y,z
loop_
_atom_site_type_symbol
_atom_site_label
_atom_site_fract_x
_atom_site_fract_y
_atom_site_fract_z
Si Si1 0.825010 0.055399 0.363420
Si Si2 0.825399 0.678813 0.298238
Si Si3 0.827303 0.120314 0.507632
Si Si4 0.828245 0.739501 0.151800
Si Si5 0.174998 0.431775 0.298465
Si Si6 0.175288 0.298282 0.377109
Si Si7 0.676000 0.259065 0.510500
Si Si8 0.672596 0.390681 0.164191
O O1 0.734778 0.106561 0.315414
O O2 0.794114 0.067890 0.446223
O O3 0.000000 0.061234 0.345853
O O4 0.765826 0.983210 0.345476
O O5 0.797408 0.690275 0.215756
O O6 0.735268 0.731791 0.342639
O O7 0.000000 0.685014 0.317331
O O8 0.726347 0.184266 0.495053
O O9 0.791320 0.087801 0.583690
O O10 0.000000 0.143933 0.506687
O O11 0.726610 0.716143 0.087099
O O12 0.785672 0.813821 0.174229
O O13 0.000000 0.737856 0.126930
O O14 0.215716 0.360177 0.328743
O O15 0.226599 0.433848 0.217066
O O16 0.000000 0.448172 0.302858
O O17 0.252085 0.307747 0.452895
O O18 0.000000 0.290550 0.388201
O O19 0.500000 0.263685 0.504622
O O20 0.500000 0.403823 0.183326
#
# Coordination Sequence:
#
# PCOD8176202 Si02
#       8
#     8   8   8   8   8   8   8   8
#     4  11  23  39  60  84 117 157 192 235 290 348
#     4  11  21  36  60  88 115 147 190 238 286 342
#     4   9  19  36  57  83 113 148 188 234 289 347
#     4   9  19  35  56  83 118 152 185 235 292 344
#     4  11  24  39  57  84 117 153 196 242 285 340
#     4  11  22  37  57  82 116 153 191 238 290 338
#     4  11  21  32  55  87 116 149 192 241 287 343
#     4   9  17  34  58  83 112 147 188 231 287 348
#
# _framework density 18.611464999999999
#
# number of rings (size 3 to 8) (size 9 to 14) (size 15 to 20)
#    0.000    1.750    2.500    3.375    0.000    5.000 
#    0.000    1.250    0.000    3.000    0.000    0.000 
#    0.000    0.000    0.000    0.000    0.000    0.000 
#
# Total GULP energy -396895.733419 kJ/mol
# GULP energy per Si atom -12402.991669 kJ/mol
# Density = 1.856910 g / cm^3
# Si number density = 18.611465 Si / 1000 Ang^3
#
#
#
# Elastic Constant Matrix: (Units=GPa)
#
#
# Indices 1 2 3 4 5 6 
#
# 1 96.4319 29.3981 60.4387 0.0000 0.0000 0.0000
# 2 29.3981 43.5506 36.4009 0.0000 0.0000 0.0000
# 3 60.4387 36.4009 132.3923 0.0000 0.0000 0.0000
# 4 0.0000 0.0000 0.0000 26.9329 0.0000 0.0000
# 5 0.0000 0.0000 0.0000 0.0000 32.6367 0.0000
# 6 0.0000 0.0000 0.0000 0.0000 0.0000 28.5203
#
#
#
# Elastic Compliance Matrix: (Units=1/GPa)
#
#
# Indices 1 2 3 4 5 6 
#
# 1 0.015632 -0.005956 -0.005499 0.000000 0.000000 0.000000
# 2 -0.005956 0.032083 -0.006102 0.000000 0.000000 0.000000
# 3 -0.005499 -0.006102 0.011741 0.000000 0.000000 0.000000
# 4 0.000000 0.000000 0.000000 0.037129 0.000000 0.000000
# 5 0.000000 0.000000 0.000000 0.000000 0.030640 0.000000
# 6 0.000000 0.000000 0.000000 0.000000 0.000000 0.035063
#
#
# Mechanical properties :
#
#
# Convention : Reuss Voigt Hill
#
# Bulk Modulus (GPa) = 41.08067 58.31668 49.69867
# Shear Modulus (GPa) = 24.32900 27.36045 25.84473
#
# Velocity S-wave (km/s) = 3.61945 3.83833 3.73050
# Velocity P-wave (km/s) = 6.29189 7.14461 6.73177
#
# Compressibility (1/GPa) = 0.02434235
#
# Stress axis : x y z
#
# Youngs Moduli (GPa) = 63.97104 31.16946 85.17044
#
# Poissons Ratio (x) = 0.18566 0.46831
# Poissons Ratio (y) = 0.38103 0.51970
# Poissons Ratio (z) = 0.35175 0.19019
#
# Static dielectric constant tensor:
#      x y z
#    x 3.420100 0.000000 0.000000 
#    y 0.000000 3.106260 0.000000 
#    z 0.000000 0.000000 3.742970 
# 
# 
# High freq. dielectric constant tensor:
#      x y z
#    x 1.729470 0.000000 0.000000 
#    y 0.000000 1.687220 0.000000 
#    z 0.000000 0.000000 1.739850 
# 
# From -- ./inp_files/13891.got.cif
#   From: 2010.03.12/outbox.cif.g09.slc.cpg/sg36_7_cif.got.tgz:13891.got - 2010.04.14 02:13:53.
