data_PCOD8176634
_publ_section_title
;
Structure prediction by ZEFSAII (Michael W. Deem and Ramdas Pophale) SiO2 
 PCOD8176634
Probable space group: C C C 2
;
_chemical_formula_sum "Si O2"
_cell_formula_units_Z 56
_cell_length_a 8.505159
_cell_length_b 19.313254
_cell_length_c 15.037260
_cell_angle_alpha 90.000000
_cell_angle_beta 90.000000
_cell_angle_gamma 90.000000
_cell_volume 2470.054854
_symmetry_space_group_name_H-M "C C C 2"
_symmetry_group_IT_number 37
_symmetry_cell_setting 'orthorhombic'
loop_
_space_group_symop_operation_xyz
x,y,z
-x,-y,z
-x,y,1/2+z
x,-y,1/2+z
1/2+x,1/2+y,z
1/2-x,1/2-y,z
1/2-x,1/2+y,1/2+z
1/2+x,1/2-y,1/2+z
loop_
_atom_site_type_symbol
_atom_site_label
_atom_site_fract_x
_atom_site_fract_y
_atom_site_fract_z
Si Si1 0.631457 0.805491 0.991460
Si Si2 0.154214 0.092651 0.528682
Si Si3 0.488322 0.761555 0.305207
Si Si4 0.369093 0.945575 0.717868
Si Si5 0.698126 0.558637 0.044040
Si Si6 0.405702 0.166205 0.637704
Si Si7 0.708083 0.351253 0.841407
O O1 0.750000 0.750000 0.036238
O O2 0.615706 0.784164 0.889094
O O3 0.690500 0.885366 0.996004
O O4 0.469424 0.798556 0.046702
O O5 0.250186 0.122250 0.613994
O O6 0.191609 0.142998 0.447053
O O7 0.971538 0.094133 0.555191
O O8 0.196526 0.014983 0.493077
O O9 0.384352 0.776549 0.216114
O O10 0.541471 0.680537 0.306160
O O11 0.649862 0.802657 0.313353
O O12 0.258262 0.970865 0.638596
O O13 0.457889 0.880575 0.677088
O O14 0.250692 0.925519 0.797920
O O15 0.500000 0.000000 0.751267
#
# Coordination Sequence:
#
# PCOD8176634 Si02
#       7
#     8   8   8   8   8   8   8
#     4  11  23  42  65  95 133 175 225 286 340 421
#     4  11  21  45  63  98 135 181 224 290 354 409
#     4  10  22  42  62  99 133 175 232 278 345 418
#     4  10  20  40  64  97 128 177 227 281 335 418
#     4  10  24  40  67  96 135 174 231 282 347 414
#     4  10  22  39  68  93 128 179 228 279 345 416
#     4  10  22  39  67  96 138 174 223 290 345 412
#
# _framework density 22.671561000000001
#
# number of rings (size 3 to 8) (size 9 to 14) (size 15 to 20)
#    0.000    1.714    2.857    0.857    6.000    2.286 
#    5.143    1.429    0.000    0.000    0.000    0.000 
#    0.000    0.000    0.000    0.000    0.000    0.000 
#
# Total GULP energy -346900.822509 kJ/mol
# GULP energy per Si atom -12389.315090 kJ/mol
# Density = 2.261996 g / cm^3
# Si number density = 22.671561 Si / 1000 Ang^3
#
#
#
# Elastic Constant Matrix: (Units=GPa)
#
#
# Indices 1 2 3 4 5 6 
#
# 1 99.4665 41.2675 54.4200 0.0000 0.0000 0.0000
# 2 41.2675 93.8112 43.9921 0.0000 0.0000 0.0000
# 3 54.4200 43.9921 118.7569 0.0000 0.0000 0.0000
# 4 0.0000 0.0000 0.0000 22.6634 0.0000 0.0000
# 5 0.0000 0.0000 0.0000 0.0000 15.6978 0.0000
# 6 0.0000 0.0000 0.0000 0.0000 0.0000 37.8997
#
#
#
# Elastic Compliance Matrix: (Units=1/GPa)
#
#
# Indices 1 2 3 4 5 6 
#
# 1 0.014539 -0.003959 -0.005196 0.000000 0.000000 0.000000
# 2 -0.003959 0.013979 -0.003364 0.000000 0.000000 0.000000
# 3 -0.005196 -0.003364 0.012048 0.000000 0.000000 0.000000
# 4 0.000000 0.000000 0.000000 0.044124 0.000000 0.000000
# 5 0.000000 0.000000 0.000000 0.000000 0.063703 0.000000
# 6 0.000000 0.000000 0.000000 0.000000 0.000000 0.026385
#
#
# Mechanical properties :
#
#
# Convention : Reuss Voigt Hill
#
# Bulk Modulus (GPa) = 64.40172 65.71041 65.05607
# Shear Modulus (GPa) = 24.39120 26.74252 25.56686
#
# Velocity S-wave (km/s) = 3.28357 3.43820 3.36178
# Velocity P-wave (km/s) = 6.54552 6.69389 6.62012
#
# Compressibility (1/GPa) = 0.01552754
#
# Stress axis : x y z
#
# Youngs Moduli (GPa) = 68.78070 71.53650 83.00335
#
# Poissons Ratio (x) = 0.28322 0.43127
# Poissons Ratio (y) = 0.27231 0.27923
# Poissons Ratio (z) = 0.35737 0.24065
#
# Static dielectric constant tensor:
#      x y z
#    x 4.180090 0.000000 0.000000 
#    y 0.000000 4.409670 0.000000 
#    z 0.000000 0.000000 4.152520 
# 
# 
# High freq. dielectric constant tensor:
#      x y z
#    x 1.895240 0.000000 0.000000 
#    y 0.000000 1.892850 0.000000 
#    z 0.000000 0.000000 1.880800 
# 
# From -- ./inp_files/10819.got.cif
#   From: 2010.03.12/outbox.cif.g09.slc.cpg/sg37_6_cif.got.tgz:10819.got - 2010.04.14 02:25:27.
