data_PCOD8176972
_publ_section_title
;
Structure prediction by ZEFSAII (Michael W. Deem and Ramdas Pophale) SiO2 
 PCOD8176972
Probable space group: C C C 2
;
_chemical_formula_sum "Si O2"
_cell_formula_units_Z 36
_cell_length_a 7.323337
_cell_length_b 20.225567
_cell_length_c 10.263827
_cell_angle_alpha 90.000000
_cell_angle_beta 90.000000
_cell_angle_gamma 90.000000
_cell_volume 1520.264129
_symmetry_space_group_name_H-M "C C C 2"
_symmetry_group_IT_number 37
_symmetry_cell_setting 'orthorhombic'
loop_
_space_group_symop_operation_xyz
x,y,z
-x,-y,z
-x,y,1/2+z
x,-y,1/2+z
1/2+x,1/2+y,z
1/2-x,1/2-y,z
1/2-x,1/2+y,1/2+z
1/2+x,1/2-y,1/2+z
loop_
_atom_site_type_symbol
_atom_site_label
_atom_site_fract_x
_atom_site_fract_y
_atom_site_fract_z
Si Si1 0.467165 0.249439 0.944090
Si Si2 0.050228 0.329187 0.192568
Si Si3 0.630485 0.378736 0.540154
Si Si4 0.000000 0.000000 0.684145
Si Si5 0.349711 0.052848 0.821458
O O1 0.250000 0.250000 0.929690
O O2 0.558461 0.220758 0.814780
O O3 0.538439 0.207490 0.067838
O O4 0.509262 0.327358 0.969755
O O5 0.262030 0.345511 0.161365
O O6 0.933411 0.395757 0.217197
O O7 0.506325 0.437240 0.590772
O O8 0.789500 0.404101 0.444388
O O9 0.180128 0.009740 0.769788
O O10 0.500000 0.000000 0.866728
#
# Coordination Sequence:
#
# PCOD8176972 Si02
#       5
#     8   8   8   4   8
#     4  10  23  44  73 105 146 188 255 312 374 449
#     4  11  22  47  77 100 146 208 241 313 382 452
#     4  11  26  49  72 112 154 190 264 316 379 466
#     4  12  28  46  76 116 150 200 254 326 380 462
#     4  12  26  48  76 106 154 202 251 309 388 459
#
# _framework density 23.680095000000001
#
# number of rings (size 3 to 8) (size 9 to 14) (size 15 to 20)
#    0.000    0.889    6.667    0.667    6.222    0.000 
#    4.000    3.333    0.000    0.000    0.000    0.000 
#    0.000    0.000    0.000    0.000    0.000    0.000 
#
# Total GULP energy -223188.564257 kJ/mol
# GULP energy per Si atom -12399.364681 kJ/mol
# Density = 2.362620 g / cm^3
# Si number density = 23.680095 Si / 1000 Ang^3
#
#
#
# Elastic Constant Matrix: (Units=GPa)
#
#
# Indices 1 2 3 4 5 6 
#
# 1 60.1295 32.2685 19.9986 0.0000 0.0000 0.0000
# 2 32.2685 155.5237 58.3926 0.0000 0.0000 0.0000
# 3 19.9986 58.3926 142.6403 0.0000 0.0000 0.0000
# 4 0.0000 0.0000 0.0000 -6.1492 0.0000 0.0000
# 5 0.0000 0.0000 0.0000 0.0000 -3.8889 0.0000
# 6 0.0000 0.0000 0.0000 0.0000 0.0000 44.7436
#
#
#
# Elastic Compliance Matrix: (Units=1/GPa)
#
#
# Indices 1 2 3 4 5 6 
#
# 1 0.018897 -0.003457 -0.001234 0.000000 0.000000 0.000000
# 2 -0.003457 0.008230 -0.002884 0.000000 0.000000 0.000000
# 3 -0.001234 -0.002884 0.008364 0.000000 0.000000 0.000000
# 4 0.000000 0.000000 0.000000 -0.162622 0.000000 0.000000
# 5 0.000000 0.000000 0.000000 0.000000 -0.257144 0.000000
# 6 0.000000 0.000000 0.000000 0.000000 0.000000 0.022350
#
#
# Mechanical properties :
#
#
# Convention : Reuss Voigt Hill
#
# Bulk Modulus (GPa) = 49.16531 64.40144 56.78337
# Shear Modulus (GPa) = -14.70616 23.45002 4.37193
#
# Velocity S-wave (km/s) = -2.49476 3.15029 1.36024
# Velocity P-wave (km/s) = 3.53680 6.36301 5.14766
#
# Compressibility (1/GPa) = 0.02033955
#
# Stress axis : x y z
#
# Youngs Moduli (GPa) = 52.91957 121.50316 119.55337
#
# Poissons Ratio (x) = 0.42009 0.14753
# Poissons Ratio (y) = 0.18296 0.34485
# Poissons Ratio (z) = 0.06530 0.35047
#
# Static dielectric constant tensor:
#      x y z
#    x 4.088810 0.000000 0.000000 
#    y 0.000000 6.009640 0.000000 
#    z 0.000000 0.000000 4.264140 
# 
# 
# High freq. dielectric constant tensor:
#      x y z
#    x 1.917330 0.000000 0.000000 
#    y 0.000000 1.967920 0.000000 
#    z 0.000000 0.000000 1.936650 
# 
# From -- ./inp_files/2120.got.cif
#   From: 2010.03.12/outbox.cif.g09.slc.cpg/sg37_2_cif.got.tgz:2120.got - 2010.04.14 02:25:27.
