data_PCOD8176281
_publ_section_title
;
Structure prediction by ZEFSAII (Michael W. Deem and Ramdas Pophale) SiO2 
 PCOD8176281
Probable space group: C M C 21
;
_chemical_formula_sum "Si O2"
_cell_formula_units_Z 40
_cell_length_a 10.830621
_cell_length_b 18.336644
_cell_length_c 7.980653
_cell_angle_alpha 90.000000
_cell_angle_beta 90.000000
_cell_angle_gamma 90.000000
_cell_volume 1584.935672
_symmetry_space_group_name_H-M "C M C 21"
_symmetry_group_IT_number 36
_symmetry_cell_setting 'orthorhombic'
loop_
_space_group_symop_operation_xyz
x,y,z
-x,-y,1/2+z
x,-y,1/2+z
-x,y,z
1/2+x,1/2+y,z
1/2-x,1/2-y,1/2+z
1/2+x,1/2-y,1/2+z
1/2-x,1/2+y,z
loop_
_atom_site_type_symbol
_atom_site_label
_atom_site_fract_x
_atom_site_fract_y
_atom_site_fract_z
Si Si1 0.500000 0.087492 0.428800
Si Si2 0.856481 0.239145 0.139229
Si Si3 0.745785 0.648121 0.432186
Si Si4 0.760339 0.105071 0.957504
Si Si5 0.000000 0.420631 0.326565
Si Si6 0.358972 0.522419 0.266336
O O1 0.380396 0.128625 0.355752
O O2 0.500000 0.089225 0.629187
O O3 0.500000 0.005536 0.365218
O O4 0.771306 0.311818 0.110494
O O5 0.829537 0.181209 0.990248
O O6 0.000000 0.261852 0.133546
O O7 0.823675 0.206362 0.317105
O O8 0.664949 0.573204 0.434747
O O9 0.618097 0.118635 0.910356
O O10 0.826072 0.061077 0.805912
O O11 0.770255 0.054928 0.124014
O O12 0.500000 0.529796 0.207488
#
# Coordination Sequence:
#
# PCOD8176281 Si02
#       6
#     4   8   8   8   4   8
#     4  12  26  46  70 110 142 181 239 298 354 438
#     4  11  26  47  68 101 141 185 235 292 353 431
#     4  11  25  45  70  96 144 179 233 290 355 420
#     4  11  24  42  70 100 136 187 229 292 357 413
#     4  12  26  44  74 104 148 177 243 298 356 422
#     4  11  23  43  68 102 138 180 236 293 347 429
#
# _framework density 25.237618000000001
#
# number of rings (size 3 to 8) (size 9 to 14) (size 15 to 20)
#    0.000    0.800    3.000    4.800    5.600    0.000 
#    5.400    2.000    0.000    0.000    0.000    0.000 
#    0.000    0.000    0.000    0.000    0.000    0.000 
#
# Total GULP energy -247950.768916 kJ/mol
# GULP energy per Si atom -12397.538446 kJ/mol
# Density = 2.518018 g / cm^3
# Si number density = 25.237618 Si / 1000 Ang^3
#
#
#
# Elastic Constant Matrix: (Units=GPa)
#
#
# Indices 1 2 3 4 5 6 
#
# 1 145.0739 10.0237 31.3444 0.0000 0.0000 0.0000
# 2 10.0237 52.8384 -11.9638 0.0000 0.0000 0.0000
# 3 31.3444 -11.9638 48.3042 0.0000 0.0000 0.0000
# 4 0.0000 0.0000 0.0000 34.7226 0.0000 0.0000
# 5 0.0000 0.0000 0.0000 0.0000 35.9076 0.0000
# 6 0.0000 0.0000 0.0000 0.0000 0.0000 43.8221
#
#
#
# Elastic Compliance Matrix: (Units=1/GPa)
#
#
# Indices 1 2 3 4 5 6 
#
# 1 0.008447 -0.003012 -0.006227 0.000000 0.000000 0.000000
# 2 -0.003012 0.021124 0.007187 0.000000 0.000000 0.000000
# 3 -0.006227 0.007187 0.026523 0.000000 0.000000 0.000000
# 4 0.000000 0.000000 0.000000 0.028800 0.000000 0.000000
# 5 0.000000 0.000000 0.000000 0.000000 0.027849 0.000000
# 6 0.000000 0.000000 0.000000 0.000000 0.000000 0.022820
#
#
# Mechanical properties :
#
#
# Convention : Reuss Voigt Hill
#
# Bulk Modulus (GPa) = 19.23510 33.89168 26.56339
# Shear Modulus (GPa) = 31.84776 37.34459 34.59618
#
# Velocity S-wave (km/s) = 3.55620 3.85089 3.70647
# Velocity P-wave (km/s) = 4.94977 5.76460 5.37265
#
# Compressibility (1/GPa) = 0.05198828
#
# Stress axis : x y z
#
# Youngs Moduli (GPa) = 118.39132 47.33891 37.70344
#
# Poissons Ratio (x) = 0.14260 0.23478
# Poissons Ratio (y) = 0.35663 -0.27096
# Poissons Ratio (z) = 0.73722 -0.34021
#
# Static dielectric constant tensor:
#      x y z
#    x 4.683580 0.000000 0.000000 
#    y 0.000000 5.034920 0.000000 
#    z 0.000000 0.000000 4.456980 
# 
# 
# High freq. dielectric constant tensor:
#      x y z
#    x 2.003860 0.000000 0.000000 
#    y 0.000000 2.027340 0.000000 
#    z 0.000000 0.000000 1.995600 
# 
# From -- ./inp_files/3095.got.cif
#   From: 2010.03.12/outbox.cif.g09.slc.cpg/sg36_2_cif.got.tgz:3095.got - 2010.04.14 02:13:53.
