data_PCOD8176934
_publ_section_title
;
Structure prediction by ZEFSAII (Michael W. Deem and Ramdas Pophale) SiO2 
 PCOD8176934
Probable space group: C C C 2
;
_chemical_formula_sum "Si O2"
_cell_formula_units_Z 40
_cell_length_a 13.227009
_cell_length_b 8.307912
_cell_length_c 15.139351
_cell_angle_alpha 90.000000
_cell_angle_beta 90.000000
_cell_angle_gamma 90.000000
_cell_volume 1663.645520
_symmetry_space_group_name_H-M "C C C 2"
_symmetry_group_IT_number 37
_symmetry_cell_setting 'orthorhombic'
loop_
_space_group_symop_operation_xyz
x,y,z
-x,-y,z
-x,y,1/2+z
x,-y,1/2+z
1/2+x,1/2+y,z
1/2-x,1/2-y,z
1/2-x,1/2+y,1/2+z
1/2+x,1/2-y,1/2+z
loop_
_atom_site_type_symbol
_atom_site_label
_atom_site_fract_x
_atom_site_fract_y
_atom_site_fract_z
Si Si1 0.472922 0.331953 0.808370
Si Si2 0.170193 0.453382 0.592940
Si Si3 0.338267 0.132829 0.265704
Si Si4 0.836928 0.381081 0.415470
Si Si5 0.600462 0.391769 0.121343
O O1 0.500000 0.500000 0.857304
O O2 0.570469 0.254534 0.767196
O O3 0.435880 0.204904 0.879402
O O4 0.396300 0.372241 0.727745
O O5 0.133615 0.507998 0.689028
O O6 0.136078 0.570837 0.514881
O O7 0.292873 0.466918 0.591163
O O8 0.111011 0.285080 0.576571
O O9 0.250000 0.250000 0.236516
O O10 0.311945 0.038990 0.356579
O O11 0.750000 0.250000 0.408567
O O12 0.500000 0.500000 0.093171
#
# Coordination Sequence:
#
# PCOD8176934 Si02
#       5
#     8   8   8   8   8
#     4  11  24  49  76 107 146 204 254 314 388 454
#     4  11  25  47  76 109 157 202 255 322 390 460
#     4  12  25  47  73 108 151 199 250 318 385 465
#     4  12  26  47  70 110 152 198 254 318 383 462
#     4  10  22  47  81 110 149 206 260 317 388 464
#
# _framework density 24.043583999999999
#
# number of rings (size 3 to 8) (size 9 to 14) (size 15 to 20)
#    0.000    0.800    2.000    6.000    2.800    0.000 
#   14.400    1.000    0.000    0.000    0.000    0.000 
#    0.000    0.000    0.000    0.000    0.000    0.000 
#
# Total GULP energy -247857.414784 kJ/mol
# GULP energy per Si atom -12392.870739 kJ/mol
# Density = 2.398886 g / cm^3
# Si number density = 24.043584 Si / 1000 Ang^3
#
#
#
# Elastic Constant Matrix: (Units=GPa)
#
#
# Indices 1 2 3 4 5 6 
#
# 1 119.9768 52.3493 20.6515 0.0000 0.0000 0.0000
# 2 52.3493 133.4927 23.5556 0.0000 0.0000 0.0000
# 3 20.6515 23.5556 88.8141 0.0000 0.0000 0.0000
# 4 0.0000 0.0000 0.0000 220.8425 0.0000 0.0000
# 5 0.0000 0.0000 0.0000 0.0000 23.0337 0.0000
# 6 0.0000 0.0000 0.0000 0.0000 0.0000 50.9612
#
#
#
# Elastic Compliance Matrix: (Units=1/GPa)
#
#
# Indices 1 2 3 4 5 6 
#
# 1 0.010214 -0.003762 -0.001377 0.000000 0.000000 0.000000
# 2 -0.003762 0.009245 -0.001577 0.000000 0.000000 0.000000
# 3 -0.001377 -0.001577 0.011998 0.000000 0.000000 0.000000
# 4 0.000000 0.000000 0.000000 0.004528 0.000000 0.000000
# 5 0.000000 0.000000 0.000000 0.000000 0.043415 0.000000
# 6 0.000000 0.000000 0.000000 0.000000 0.000000 0.019623
#
#
# Mechanical properties :
#
#
# Convention : Reuss Voigt Hill
#
# Bulk Modulus (GPa) = 55.48352 59.48850 57.48601
# Shear Modulus (GPa) = 42.20746 75.34929 58.77837
#
# Velocity S-wave (km/s) = 4.19436 5.60416 4.94971
# Velocity P-wave (km/s) = 6.82519 8.16524 7.52511
#
# Compressibility (1/GPa) = 0.01802337
#
# Stress axis : x y z
#
# Youngs Moduli (GPa) = 97.90903 108.16994 83.34755
#
# Poissons Ratio (x) = 0.40696 0.11477
# Poissons Ratio (y) = 0.36836 0.13145
# Poissons Ratio (z) = 0.13483 0.17059
#
# Static dielectric constant tensor:
#      x y z
#    x 4.242520 0.000000 0.000000 
#    y 0.000000 4.669810 0.000000 
#    z 0.000000 0.000000 4.050290 
# 
# 
# High freq. dielectric constant tensor:
#      x y z
#    x 1.957450 0.000000 0.000000 
#    y 0.000000 1.978740 0.000000 
#    z 0.000000 0.000000 1.935100 
# 
# From -- ./inp_files/14866.got.cif
#   From: 2010.03.12/outbox.cif.g09.slc.cpg/sg37_8_cif.got.tgz:14866.got - 2010.04.14 02:25:27.
