data_PCOD8176172
_publ_section_title
;
Structure prediction by ZEFSAII (Michael W. Deem and Ramdas Pophale) SiO2 
 PCOD8176172
Probable space group: C M C 21
;
_chemical_formula_sum "Si O2"
_cell_formula_units_Z 48
_cell_length_a 22.916731
_cell_length_b 9.807346
_cell_length_c 9.614382
_cell_angle_alpha 90.000000
_cell_angle_beta 90.000000
_cell_angle_gamma 90.000000
_cell_volume 2160.854565
_symmetry_space_group_name_H-M "C M C 21"
_symmetry_group_IT_number 36
_symmetry_cell_setting 'orthorhombic'
loop_
_space_group_symop_operation_xyz
x,y,z
-x,-y,1/2+z
x,-y,1/2+z
-x,y,z
1/2+x,1/2+y,z
1/2-x,1/2-y,1/2+z
1/2+x,1/2-y,1/2+z
1/2-x,1/2+y,z
loop_
_atom_site_type_symbol
_atom_site_label
_atom_site_fract_x
_atom_site_fract_y
_atom_site_fract_z
Si Si1 0.500000 0.578532 0.906440
Si Si2 0.833283 0.434621 0.827980
Si Si3 0.377366 0.634485 0.807395
Si Si4 0.000000 0.837213 0.707016
Si Si5 0.656696 0.597322 0.510828
Si Si6 0.783369 0.394492 0.114461
Si Si7 0.117748 0.704373 0.777834
O O1 0.443328 0.659467 0.855278
O O2 0.500000 0.425467 0.847492
O O3 0.500000 0.565888 0.072639
O O4 0.845949 0.278700 0.794074
O O5 0.779003 0.484051 0.729775
O O6 0.886976 0.540210 0.802008
O O7 0.817941 0.457480 0.986629
O O8 0.378797 0.566245 0.653505
O O9 0.342591 0.539362 0.917121
O O10 0.058218 0.746031 0.702054
O O11 0.720188 0.650917 0.560406
O O12 0.625701 0.715933 0.422807
O O13 0.823934 0.271580 0.179937
#
# Coordination Sequence:
#
# PCOD8176172 Si02
#       7
#     4   8   8   4   8   8   8
#     4  12  26  45  72 108 147 199 250 323 358 472
#     4  10  24  45  69 106 145 191 248 298 380 441
#     4  12  27  44  74 108 148 196 253 306 385 441
#     4  12  24  51  74 106 157 191 260 311 384 448
#     4  12  26  45  75 111 146 202 248 307 383 453
#     4  10  24  46  72 103 153 187 249 303 371 454
#     4  10  26  46  75 107 145 200 244 314 374 448
#
# _framework density 22.213433999999999
#
# number of rings (size 3 to 8) (size 9 to 14) (size 15 to 20)
#    1.000    0.000    1.667    4.000    4.667    2.000 
#    0.000    0.833    0.000    0.000    0.000    0.000 
#    0.000    0.000    0.000    0.000    0.000    0.000 
#
# Total GULP energy -297383.618629 kJ/mol
# GULP energy per Si atom -12390.984110 kJ/mol
# Density = 2.216288 g / cm^3
# Si number density = 22.213434 Si / 1000 Ang^3
#
#
#
# Elastic Constant Matrix: (Units=GPa)
#
#
# Indices 1 2 3 4 5 6 
#
# 1 134.2474 14.3458 45.4862 0.0000 0.0000 0.0000
# 2 14.3458 99.8678 39.3855 0.0000 0.0000 0.0000
# 3 45.4862 39.3855 165.8634 0.0000 0.0000 0.0000
# 4 0.0000 0.0000 0.0000 32.8187 0.0000 0.0000
# 5 0.0000 0.0000 0.0000 0.0000 34.7061 0.0000
# 6 0.0000 0.0000 0.0000 0.0000 0.0000 19.5569
#
#
#
# Elastic Compliance Matrix: (Units=1/GPa)
#
#
# Indices 1 2 3 4 5 6 
#
# 1 0.008221 -0.000322 -0.002178 0.000000 0.000000 0.000000
# 2 -0.000322 0.011060 -0.002538 0.000000 0.000000 0.000000
# 3 -0.002178 -0.002538 0.007229 0.000000 0.000000 0.000000
# 4 0.000000 0.000000 0.000000 0.030470 0.000000 0.000000
# 5 0.000000 0.000000 0.000000 0.000000 0.028813 0.000000
# 6 0.000000 0.000000 0.000000 0.000000 0.000000 0.051133
#
#
# Mechanical properties :
#
#
# Convention : Reuss Voigt Hill
#
# Bulk Modulus (GPa) = 60.84777 66.49038 63.66908
# Shear Modulus (GPa) = 32.79075 37.46709 35.12892
#
# Velocity S-wave (km/s) = 3.84626 4.11138 3.98103
# Velocity P-wave (km/s) = 6.86853 7.24813 7.06089
#
# Compressibility (1/GPa) = 0.01643446
#
# Stress axis : x y z
#
# Youngs Moduli (GPa) = 121.63444 90.41224 138.33013
#
# Poissons Ratio (x) = 0.02911 0.30131
# Poissons Ratio (y) = 0.03916 0.35109
# Poissons Ratio (z) = 0.26494 0.22947
#
# Static dielectric constant tensor:
#      x y z
#    x 4.202710 0.000000 0.000000 
#    y 0.000000 3.688620 0.000000 
#    z 0.000000 0.000000 4.334400 
# 
# 
# High freq. dielectric constant tensor:
#      x y z
#    x 1.862540 0.000000 0.000000 
#    y 0.000000 1.857120 0.000000 
#    z 0.000000 0.000000 1.901130 
# 
# From -- ./inp_files/5576.got.cif
#   From: 2010.03.12/outbox.cif.g09.slc.cpg/sg36_3_cif.got.tgz:5576.got - 2010.04.14 02:13:53.
