data_PCOD8176434
_publ_section_title
;
Structure prediction by ZEFSAII (Michael W. Deem and Ramdas Pophale) SiO2 
 PCOD8176434
Probable space group: C C C 2
;
_chemical_formula_sum "Si O2"
_cell_formula_units_Z 56
_cell_length_a 26.818843
_cell_length_b 14.929941
_cell_length_c 8.501583
_cell_angle_alpha 90.000000
_cell_angle_beta 90.000000
_cell_angle_gamma 90.000000
_cell_volume 3404.065660
_symmetry_space_group_name_H-M "C C C 2"
_symmetry_group_IT_number 37
_symmetry_cell_setting 'orthorhombic'
loop_
_space_group_symop_operation_xyz
x,y,z
-x,-y,z
-x,y,1/2+z
x,-y,1/2+z
1/2+x,1/2+y,z
1/2-x,1/2-y,z
1/2-x,1/2+y,1/2+z
1/2+x,1/2-y,1/2+z
loop_
_atom_site_type_symbol
_atom_site_label
_atom_site_fract_x
_atom_site_fract_y
_atom_site_fract_z
Si Si1 0.236241 0.614242 0.923390
Si Si2 0.566683 0.457878 0.433915
Si Si3 0.174532 0.899876 0.522402
Si Si4 0.676037 0.278404 0.806819
Si Si5 0.732382 0.457896 0.229649
Si Si6 0.069380 0.831670 0.899209
Si Si7 0.991580 0.868979 0.663700
O O1 0.292362 0.651426 0.907878
O O2 0.196187 0.679348 0.842743
O O3 0.230916 0.521653 0.829007
O O4 0.231706 0.599310 0.112308
O O5 0.615995 0.407255 0.490671
O O6 0.579218 0.562160 0.414570
O O7 0.521927 0.437365 0.552933
O O8 0.547745 0.426091 0.264503
O O9 0.181654 0.807672 0.622867
O O10 0.203260 0.894567 0.354847
O O11 0.193227 0.984749 0.624979
O O12 0.619683 0.278705 0.867242
O O13 0.030373 0.809422 0.760951
O O14 0.042443 0.800775 0.060454
#
# Coordination Sequence:
#
# PCOD8176434 Si02
#       7
#     8   8   8   8   8   8   8
#     4   9  19  35  52  72  95 124 165 208 252 299
#     4  11  18  28  40  64  93 136 183 192 223 271
#     4  10  19  29  50  70  95 133 166 202 242 291
#     4  10  20  33  48  71 104 129 157 207 259 284
#     4   9  18  34  53  70  89 129 168 205 242 303
#     4  11  18  30  42  63  98 136 167 207 236 269
#     4  10  21  27  41  63  96 139 179 205 217 274
#
# _framework density 16.450917
#
# number of rings (size 3 to 8) (size 9 to 14) (size 15 to 20)
#    0.000    2.000    1.429    6.000    4.000    0.000 
#    0.000    8.571    0.000    0.000    0.000    0.000 
#    0.000    3.429    0.000    0.000    0.000    0.000 
#
# Total GULP energy -346939.082031 kJ/mol
# GULP energy per Si atom -12390.681501 kJ/mol
# Density = 1.641347 g / cm^3
# Si number density = 16.450917 Si / 1000 Ang^3
#
#
#
# Elastic Constant Matrix: (Units=GPa)
#
#
# Indices 1 2 3 4 5 6 
#
# 1 93.2690 34.9058 50.2908 0.0000 0.0000 0.0000
# 2 34.9058 44.7653 37.0883 0.0000 0.0000 0.0000
# 3 50.2908 37.0883 130.2322 0.0000 0.0000 0.0000
# 4 0.0000 0.0000 0.0000 17.0220 0.0000 0.0000
# 5 0.0000 0.0000 0.0000 0.0000 17.7117 0.0000
# 6 0.0000 0.0000 0.0000 0.0000 0.0000 23.6904
#
#
#
# Elastic Compliance Matrix: (Units=1/GPa)
#
#
# Indices 1 2 3 4 5 6 
#
# 1 0.016270 -0.009792 -0.003495 0.000000 0.000000 0.000000
# 2 -0.009792 0.035130 -0.006223 0.000000 0.000000 0.000000
# 3 -0.003495 -0.006223 0.010800 0.000000 0.000000 0.000000
# 4 0.000000 0.000000 0.000000 0.058748 0.000000 0.000000
# 5 0.000000 0.000000 0.000000 0.000000 0.056460 0.000000
# 6 0.000000 0.000000 0.000000 0.000000 0.000000 0.042211
#
#
# Mechanical properties :
#
#
# Convention : Reuss Voigt Hill
#
# Bulk Modulus (GPa) = 43.13755 56.98182 50.05968
# Shear Modulus (GPa) = 18.77120 21.41692 20.09406
#
# Velocity S-wave (km/s) = 3.38160 3.61206 3.49872
# Velocity P-wave (km/s) = 6.44405 7.21863 6.84231
#
# Compressibility (1/GPa) = 0.02318166
#
# Stress axis : x y z
#
# Youngs Moduli (GPa) = 61.46114 28.46580 92.58956
#
# Poissons Ratio (x) = 0.27873 0.32355
# Poissons Ratio (y) = 0.60181 0.57621
# Poissons Ratio (z) = 0.21478 0.17715
#
# Static dielectric constant tensor:
#      x y z
#    x 3.157660 0.000000 0.000000 
#    y 0.000000 2.631420 0.000000 
#    z 0.000000 0.000000 3.624190 
# 
# 
# High freq. dielectric constant tensor:
#      x y z
#    x 1.624090 0.000000 0.000000 
#    y 0.000000 1.561880 0.000000 
#    z 0.000000 0.000000 1.660910 
# 
# From -- ./inp_files/3803.got.cif
#   From: 2010.03.12/outbox.cif.g09.slc.cpg/sg37_2_cif.got.tgz:3803.got - 2010.04.14 02:25:27.
