data_PCOD8176515
_publ_section_title
;
Structure prediction by ZEFSAII (Michael W. Deem and Ramdas Pophale) SiO2 
 PCOD8176515
Probable space group: C C C 2
;
_chemical_formula_sum "Si O2"
_cell_formula_units_Z 64
_cell_length_a 8.526988
_cell_length_b 25.479364
_cell_length_c 13.797677
_cell_angle_alpha 90.000000
_cell_angle_beta 90.000000
_cell_angle_gamma 90.000000
_cell_volume 2997.714089
_symmetry_space_group_name_H-M "C C C 2"
_symmetry_group_IT_number 37
_symmetry_cell_setting 'orthorhombic'
loop_
_space_group_symop_operation_xyz
x,y,z
-x,-y,z
-x,y,1/2+z
x,-y,1/2+z
1/2+x,1/2+y,z
1/2-x,1/2-y,z
1/2-x,1/2+y,1/2+z
1/2+x,1/2-y,1/2+z
loop_
_atom_site_type_symbol
_atom_site_label
_atom_site_fract_x
_atom_site_fract_y
_atom_site_fract_z
Si Si1 0.661008 0.520592 0.008510
Si Si2 0.058284 0.873726 0.427182
Si Si3 0.328318 0.801172 0.424929
Si Si4 0.732767 0.686657 0.491218
Si Si5 0.121069 0.041625 0.316623
Si Si6 0.123001 0.704193 0.802205
Si Si7 0.992395 0.651005 0.108193
Si Si8 0.114789 0.458317 0.168084
O O1 0.500000 0.500000 0.056400
O O2 0.805368 0.510752 0.079121
O O3 0.642526 0.583234 0.994893
O O4 0.692878 0.487759 0.910522
O O5 0.193532 0.838193 0.377607
O O6 0.944238 0.836026 0.492614
O O7 0.965051 0.904231 0.343396
O O8 0.250000 0.750000 0.471416
O O9 0.451661 0.780012 0.344636
O O10 0.400541 0.833909 0.512077
O O11 0.750000 0.750000 0.491866
O O12 0.805631 0.666805 0.387515
O O13 0.825619 0.665552 0.586013
O O14 0.256017 0.059885 0.244590
O O15 0.000000 0.000000 0.267847
O O16 0.250000 0.750000 0.784331
O O17 0.088618 0.678197 0.699808
O O18 0.986389 0.589522 0.128040
O O19 0.000000 0.500000 0.219226
#
# Coordination Sequence:
#
# PCOD8176515 Si02
#       8
#     8   8   8   8   8   8   8   8
#     4   9  21  41  65  89 120 170 213 271 331 393
#     4  10  19  41  66  89 125 170 219 271 325 389
#     4  11  22  40  67  96 130 175 227 267 327 390
#     4  10  22  41  64  93 130 174 214 274 331 386
#     4   9  22  42  67  91 125 172 216 271 337 394
#     4  10  22  41  62  92 138 173 217 266 327 391
#     4  11  24  40  62  99 129 172 216 269 335 402
#     4  12  25  40  61  98 130 163 217 273 337 404
#
# _framework density 21.349599000000001
#
# number of rings (size 3 to 8) (size 9 to 14) (size 15 to 20)
#    0.000    2.000    1.250    3.750    3.500    3.000 
#    2.250    0.000    0.000    0.000    0.000    0.000 
#    0.000    0.000    0.000    0.000    0.000    0.000 
#
# Total GULP energy -396460.271087 kJ/mol
# GULP energy per Si atom -12389.383471 kJ/mol
# Density = 2.130101 g / cm^3
# Si number density = 21.349599 Si / 1000 Ang^3
#
#
#
# Elastic Constant Matrix: (Units=GPa)
#
#
# Indices 1 2 3 4 5 6 
#
# 1 116.3993 53.6060 35.8994 0.0000 0.0000 0.0000
# 2 53.6060 111.3892 25.8761 0.0000 0.0000 0.0000
# 3 35.8994 25.8761 88.5585 0.0000 0.0000 0.0000
# 4 0.0000 0.0000 0.0000 19.1215 0.0000 0.0000
# 5 0.0000 0.0000 0.0000 0.0000 33.4896 0.0000
# 6 0.0000 0.0000 0.0000 0.0000 0.0000 37.1121
#
#
#
# Elastic Compliance Matrix: (Units=1/GPa)
#
#
# Indices 1 2 3 4 5 6 
#
# 1 0.011913 -0.004947 -0.003384 0.000000 0.000000 0.000000
# 2 -0.004947 0.011686 -0.001409 0.000000 0.000000 0.000000
# 3 -0.003384 -0.001409 0.013075 0.000000 0.000000 0.000000
# 4 0.000000 0.000000 0.000000 0.052297 0.000000 0.000000
# 5 0.000000 0.000000 0.000000 0.000000 0.029860 0.000000
# 6 0.000000 0.000000 0.000000 0.000000 0.000000 0.026945
#
#
# Mechanical properties :
#
#
# Convention : Reuss Voigt Hill
#
# Bulk Modulus (GPa) = 58.15875 60.78999 59.47437
# Shear Modulus (GPa) = 29.24187 31.34234 30.29210
#
# Velocity S-wave (km/s) = 3.70492 3.83567 3.77086
# Velocity P-wave (km/s) = 6.75294 6.93916 6.84668
#
# Compressibility (1/GPa) = 0.01719432
#
# Stress axis : x y z
#
# Youngs Moduli (GPa) = 83.94182 85.57520 76.47967
#
# Poissons Ratio (x) = 0.42335 0.25879
# Poissons Ratio (y) = 0.41527 0.10776
# Poissons Ratio (z) = 0.28404 0.12058
#
# Static dielectric constant tensor:
#      x y z
#    x 4.094840 0.000000 0.000000 
#    y 0.000000 3.847320 0.000000 
#    z 0.000000 0.000000 3.648180 
# 
# 
# High freq. dielectric constant tensor:
#      x y z
#    x 1.847570 0.000000 0.000000 
#    y 0.000000 1.840020 0.000000 
#    z 0.000000 0.000000 1.813840 
# 
# From -- ./inp_files/10972.got.cif
#   From: 2010.03.12/outbox.cif.g09.slc.cpg/sg37_6_cif.got.tgz:10972.got - 2010.04.14 02:25:27.
