data_PCOD8176519
_publ_section_title
;
Structure prediction by ZEFSAII (Michael W. Deem and Ramdas Pophale) SiO2 
 PCOD8176519
Probable space group: C C C 2
;
_chemical_formula_sum "Si O2"
_cell_formula_units_Z 48
_cell_length_a 13.890276
_cell_length_b 5.633842
_cell_length_c 26.249777
_cell_angle_alpha 90.000000
_cell_angle_beta 90.000000
_cell_angle_gamma 90.000000
_cell_volume 2054.192582
_symmetry_space_group_name_H-M "C C C 2"
_symmetry_group_IT_number 37
_symmetry_cell_setting 'orthorhombic'
loop_
_space_group_symop_operation_xyz
x,y,z
-x,-y,z
-x,y,1/2+z
x,-y,1/2+z
1/2+x,1/2+y,z
1/2-x,1/2-y,z
1/2-x,1/2+y,1/2+z
1/2+x,1/2-y,1/2+z
loop_
_atom_site_type_symbol
_atom_site_label
_atom_site_fract_x
_atom_site_fract_y
_atom_site_fract_z
Si Si1 0.500000 0.000000 0.018080
Si Si2 0.750000 0.250000 0.333609
Si Si3 0.750000 0.750000 0.668028
Si Si4 0.600260 0.111042 0.799562
Si Si5 0.903686 0.870203 0.585651
Si Si6 0.149834 0.120636 0.392884
Si Si7 0.852009 0.138720 0.489303
Si Si8 0.750000 0.750000 0.227734
O O1 0.426057 0.863486 0.053981
O O2 0.563823 0.831140 0.982347
O O3 0.810726 0.426637 0.298659
O O4 0.666918 0.364278 0.368358
O O5 0.843448 0.792740 0.633858
O O6 0.764896 0.498785 0.697183
O O7 0.579336 0.229223 0.855446
O O8 0.649512 0.296438 0.759991
O O9 0.500000 0.000000 0.779647
O O10 0.846102 0.045673 0.547222
O O11 0.000000 0.000000 0.605145
O O12 0.250000 0.250000 0.394087
O O13 0.115655 0.076884 0.451018
O O14 0.750000 0.250000 0.472945
#
# Coordination Sequence:
#
# PCOD8176519 Si02
#       8
#     4   4   4   8   8   8   8   4
#     4  10  24  44  66 100 152 184 252 298 350 460
#     4  10  19  46  67 100 146 185 246 299 350 456
#     4  12  29  48  83 106 143 196 246 319 400 440
#     4  11  25  49  75 102 149 197 239 315 393 441
#     4  10  25  46  70 103 148 187 242 304 370 454
#     4  10  22  41  68 101 144 191 246 298 360 451
#     4  11  23  41  69 101 144 200 240 296 366 439
#     4  12  28  50  80 114 145 181 266 328 374 476
#
# _framework density 23.366845999999999
#
# number of rings (size 3 to 8) (size 9 to 14) (size 15 to 20)
#    0.000    1.333    3.333    1.500    9.333    2.000 
#   12.000    0.000    0.000    0.000    0.000    0.000 
#    0.000    0.000    0.000    0.000    0.000    0.000 
#
# Total GULP energy -297389.549480 kJ/mol
# GULP energy per Si atom -12391.231228 kJ/mol
# Density = 2.331366 g / cm^3
# Si number density = 23.366846 Si / 1000 Ang^3
#
#
#
# Elastic Constant Matrix: (Units=GPa)
#
#
# Indices 1 2 3 4 5 6 
#
# 1 122.9666 30.6964 61.2983 0.0000 0.0000 0.0000
# 2 30.6964 102.3124 43.6549 0.0000 0.0000 0.0000
# 3 61.2983 43.6549 121.7520 0.0000 0.0000 0.0000
# 4 0.0000 0.0000 0.0000 35.1351 0.0000 0.0000
# 5 0.0000 0.0000 0.0000 0.0000 6.0105 0.0000
# 6 0.0000 0.0000 0.0000 0.0000 0.0000 23.7605
#
#
#
# Elastic Compliance Matrix: (Units=1/GPa)
#
#
# Indices 1 2 3 4 5 6 
#
# 1 0.010962 -0.001103 -0.005123 0.000000 0.000000 0.000000
# 2 -0.001103 0.011650 -0.003622 0.000000 0.000000 0.000000
# 3 -0.005123 -0.003622 0.012092 0.000000 0.000000 0.000000
# 4 0.000000 0.000000 0.000000 0.028462 0.000000 0.000000
# 5 0.000000 0.000000 0.000000 0.000000 0.166376 0.000000
# 6 0.000000 0.000000 0.000000 0.000000 0.000000 0.042087
#
#
# Mechanical properties :
#
#
# Convention : Reuss Voigt Hill
#
# Bulk Modulus (GPa) = 66.63537 68.70337 67.66937
# Shear Modulus (GPa) = 16.87325 27.07329 21.97327
#
# Velocity S-wave (km/s) = 2.69011 3.40754 3.06986
# Velocity P-wave (km/s) = 6.18287 6.70430 6.44886
#
# Compressibility (1/GPa) = 0.01500704
#
# Stress axis : x y z
#
# Youngs Moduli (GPa) = 91.22784 85.83457 82.70173
#
# Poissons Ratio (x) = 0.09465 0.42372
# Poissons Ratio (y) = 0.10060 0.29956
# Poissons Ratio (z) = 0.46740 0.31090
#
# Static dielectric constant tensor:
#      x y z
#    x 3.934750 0.000000 0.000000 
#    y 0.000000 5.821410 0.000000 
#    z 0.000000 0.000000 4.273880 
# 
# 
# High freq. dielectric constant tensor:
#      x y z
#    x 1.914780 0.000000 0.000000 
#    y 0.000000 1.940090 0.000000 
#    z 0.000000 0.000000 1.917140 
# 
# From -- ./inp_files/19420.got.cif
#   From: 2010.03.12/outbox.cif.g09.slc.cpg/sg37_10_cif.got.tgz:19420.got - 2010.04.14 02:25:27.
