data_PCOD8176889
_publ_section_title
;
Structure prediction by ZEFSAII (Michael W. Deem and Ramdas Pophale) SiO2 
 PCOD8176889
Probable space group: C C C 2
;
_chemical_formula_sum "Si O2"
_cell_formula_units_Z 48
_cell_length_a 14.860947
_cell_length_b 8.329195
_cell_length_c 16.494736
_cell_angle_alpha 90.000000
_cell_angle_beta 90.000000
_cell_angle_gamma 90.000000
_cell_volume 2041.713893
_symmetry_space_group_name_H-M "C C C 2"
_symmetry_group_IT_number 37
_symmetry_cell_setting 'orthorhombic'
loop_
_space_group_symop_operation_xyz
x,y,z
-x,-y,z
-x,y,1/2+z
x,-y,1/2+z
1/2+x,1/2+y,z
1/2-x,1/2-y,z
1/2-x,1/2+y,1/2+z
1/2+x,1/2-y,1/2+z
loop_
_atom_site_type_symbol
_atom_site_label
_atom_site_fract_x
_atom_site_fract_y
_atom_site_fract_z
Si Si1 0.477505 0.687161 0.781620
Si Si2 0.155334 0.832255 0.061520
Si Si3 0.159594 0.339928 0.169481
Si Si4 0.274002 0.083810 0.998243
Si Si5 0.844502 0.695143 0.733004
Si Si6 0.080349 0.373610 0.432041
O O1 0.500000 0.500000 0.788024
O O2 0.426415 0.732720 0.697567
O O3 0.572628 0.778241 0.793009
O O4 0.417153 0.756656 0.854517
O O5 0.250000 0.750000 0.042227
O O6 0.133797 0.812121 0.156128
O O7 0.178329 0.014636 0.034113
O O8 0.076868 0.746714 0.009576
O O9 0.250000 0.250000 0.196062
O O10 0.158405 0.376114 0.073397
O O11 0.157659 0.509250 0.213883
O O12 0.250000 0.250000 0.953302
O O13 0.325352 0.971964 0.933642
O O14 0.750000 0.750000 0.772154
O O15 0.000000 0.500000 0.435183
#
# Coordination Sequence:
#
# PCOD8176889 Si02
#       6
#     8   8   8   8   8   8
#     4  12  29  45  67 108 151 197 240 292 366 438
#     4   9  19  40  70 100 132 180 234 293 352 418
#     4  11  22  41  71 109 140 184 240 297 360 430
#     4  10  22  42  74 105 135 183 244 297 361 427
#     4  11  20  43  73 104 143 184 240 296 359 422
#     4  11  24  45  67 102 143 186 238 287 363 429
#
# _framework density 23.50966
#
# number of rings (size 3 to 8) (size 9 to 14) (size 15 to 20)
#    0.000    1.333    5.000    2.500    4.667    3.333 
#    0.000    9.167    0.000    0.000    0.000    0.000 
#    0.000    0.000    0.000    0.000    0.000    0.000 
#
# Total GULP energy -297445.637803 kJ/mol
# GULP energy per Si atom -12393.568242 kJ/mol
# Density = 2.345615 g / cm^3
# Si number density = 23.509660 Si / 1000 Ang^3
#
#
#
# Elastic Constant Matrix: (Units=GPa)
#
#
# Indices 1 2 3 4 5 6 
#
# 1 96.8527 42.9410 27.5060 0.0000 0.0000 0.0000
# 2 42.9410 157.7088 26.0526 0.0000 0.0000 0.0000
# 3 27.5060 26.0526 63.1537 0.0000 0.0000 0.0000
# 4 0.0000 0.0000 0.0000 18.8107 0.0000 0.0000
# 5 0.0000 0.0000 0.0000 0.0000 32.7603 0.0000
# 6 0.0000 0.0000 0.0000 0.0000 0.0000 46.5396
#
#
#
# Elastic Compliance Matrix: (Units=1/GPa)
#
#
# Indices 1 2 3 4 5 6 
#
# 1 0.012807 -0.002753 -0.004442 0.000000 0.000000 0.000000
# 2 -0.002753 0.007396 -0.001852 0.000000 0.000000 0.000000
# 3 -0.004442 -0.001852 0.018533 0.000000 0.000000 0.000000
# 4 0.000000 0.000000 0.000000 0.053161 0.000000 0.000000
# 5 0.000000 0.000000 0.000000 0.000000 0.030525 0.000000
# 6 0.000000 0.000000 0.000000 0.000000 0.000000 0.021487
#
#
# Mechanical properties :
#
#
# Convention : Reuss Voigt Hill
#
# Bulk Modulus (GPa) = 48.44580 56.74604 52.59592
# Shear Modulus (GPa) = 29.60582 34.36983 31.98782
#
# Velocity S-wave (km/s) = 3.55252 3.82769 3.69267
# Velocity P-wave (km/s) = 6.12198 6.61246 6.37194
#
# Compressibility (1/GPa) = 0.02064162
#
# Stress axis : x y z
#
# Youngs Moduli (GPa) = 78.08056 135.20040 53.95727
#
# Poissons Ratio (x) = 0.37225 0.23969
# Poissons Ratio (y) = 0.21498 0.09993
# Poissons Ratio (z) = 0.34685 0.25040
#
# Static dielectric constant tensor:
#      x y z
#    x 4.753190 0.000000 0.000000 
#    y 0.000000 4.898340 0.000000 
#    z 0.000000 0.000000 4.010340 
# 
# 
# High freq. dielectric constant tensor:
#      x y z
#    x 1.914760 0.000000 0.000000 
#    y 0.000000 1.952270 0.000000 
#    z 0.000000 0.000000 1.907400 
# 
# From -- ./inp_files/15228.got.cif
#   From: 2010.03.12/outbox.cif.g09.slc.cpg/sg37_8_cif.got.tgz:15228.got - 2010.04.14 02:25:27.
