data_PCOD8176851
_publ_section_title
;
Structure prediction by ZEFSAII (Michael W. Deem and Ramdas Pophale) SiO2 
 PCOD8176851
Probable space group: C C C 2
;
_chemical_formula_sum "Si O2"
_cell_formula_units_Z 64
_cell_length_a 8.758292
_cell_length_b 16.631751
_cell_length_c 21.055859
_cell_angle_alpha 90.000000
_cell_angle_beta 90.000000
_cell_angle_gamma 90.000000
_cell_volume 3067.117108
_symmetry_space_group_name_H-M "C C C 2"
_symmetry_group_IT_number 37
_symmetry_cell_setting 'orthorhombic'
loop_
_space_group_symop_operation_xyz
x,y,z
-x,-y,z
-x,y,1/2+z
x,-y,1/2+z
1/2+x,1/2+y,z
1/2-x,1/2-y,z
1/2-x,1/2+y,1/2+z
1/2+x,1/2-y,1/2+z
loop_
_atom_site_type_symbol
_atom_site_label
_atom_site_fract_x
_atom_site_fract_y
_atom_site_fract_z
Si Si1 0.645378 0.048806 0.575530
Si Si2 0.314276 0.332982 0.292054
Si Si3 0.076923 0.222080 0.591375
Si Si4 0.381452 0.811221 0.490839
Si Si5 0.623410 0.438816 0.027717
Si Si6 0.427123 0.249557 0.735334
Si Si7 0.192513 0.665506 0.933789
Si Si8 0.417352 0.083738 0.217334
O O1 0.695828 0.108255 0.518088
O O2 0.609668 0.091563 0.642208
O O3 0.500000 0.000000 0.551176
O O4 0.783281 0.985678 0.582617
O O5 0.250000 0.250000 0.261878
O O6 0.495655 0.316095 0.283156
O O7 0.260631 0.343581 0.363982
O O8 0.247682 0.408772 0.252431
O O9 0.250000 0.250000 0.583427
O O10 0.042357 0.134444 0.563070
O O11 0.032064 0.220828 0.664785
O O12 0.969716 0.282088 0.553347
O O13 0.250000 0.750000 0.465859
O O14 0.506235 0.830932 0.435477
O O15 0.500000 0.500000 0.997130
O O16 0.739739 0.408355 0.973533
O O17 0.250000 0.250000 0.751546
O O18 0.480202 0.157026 0.743575
O O19 0.250000 0.750000 0.963824
O O20 0.500000 0.000000 0.234882
#
# Coordination Sequence:
#
# PCOD8176851 Si02
#       8
#     8   8   8   8   8   8   8   8
#     4  11  22  37  59  96 133 162 202 263 328 384
#     4   9  22  44  69  85 123 181 214 265 322 386
#     4  11  20  39  63  92 134 165 202 264 326 388
#     4  12  22  36  64  99 121 165 216 263 315 387
#     4  12  24  38  61  93 129 170 207 261 325 387
#     4  10  22  39  67  98 121 165 220 267 320 391
#     4  11  22  46  65  85 127 175 221 259 322 387
#     4  10  22  40  61  93 131 164 209 261 323 381
#
# _framework density 20.866499999999998
#
# number of rings (size 3 to 8) (size 9 to 14) (size 15 to 20)
#    0.000    1.250    5.000    0.750    8.750    0.000 
#    2.250    7.500    0.000    0.000    0.000    0.000 
#    0.000    0.000    0.000    0.000    0.000    0.000 
#
# Total GULP energy -396595.072648 kJ/mol
# GULP energy per Si atom -12393.596020 kJ/mol
# Density = 2.081901 g / cm^3
# Si number density = 20.866500 Si / 1000 Ang^3
#
#
#
# Elastic Constant Matrix: (Units=GPa)
#
#
# Indices 1 2 3 4 5 6 
#
# 1 114.1779 37.6612 47.0513 0.0000 0.0000 0.0000
# 2 37.6612 101.8329 35.7683 0.0000 0.0000 0.0000
# 3 47.0513 35.7683 89.0646 0.0000 0.0000 0.0000
# 4 0.0000 0.0000 0.0000 9.8945 0.0000 0.0000
# 5 0.0000 0.0000 0.0000 0.0000 25.7268 0.0000
# 6 0.0000 0.0000 0.0000 0.0000 0.0000 40.4918
#
#
#
# Elastic Compliance Matrix: (Units=1/GPa)
#
#
# Indices 1 2 3 4 5 6 
#
# 1 0.011724 -0.002515 -0.005183 0.000000 0.000000 0.000000
# 2 -0.002515 0.011972 -0.003479 0.000000 0.000000 0.000000
# 3 -0.005183 -0.003479 0.015363 0.000000 0.000000 0.000000
# 4 0.000000 0.000000 0.000000 0.101067 0.000000 0.000000
# 5 0.000000 0.000000 0.000000 0.000000 0.038870 0.000000
# 6 0.000000 0.000000 0.000000 0.000000 0.000000 0.024696
#
#
# Mechanical properties :
#
#
# Convention : Reuss Voigt Hill
#
# Bulk Modulus (GPa) = 59.86704 60.67078 60.26891
# Shear Modulus (GPa) = 21.58742 27.52893 24.55817
#
# Velocity S-wave (km/s) = 3.21993 3.63614 3.43435
# Velocity P-wave (km/s) = 6.52508 6.83868 6.68372
#
# Compressibility (1/GPa) = 0.01670368
#
# Stress axis : x y z
#
# Youngs Moduli (GPa) = 85.29563 83.52600 65.08975
#
# Poissons Ratio (x) = 0.21009 0.33739
# Poissons Ratio (y) = 0.21454 0.22647
# Poissons Ratio (z) = 0.44212 0.29061
#
# Static dielectric constant tensor:
#      x y z
#    x 4.016730 0.000000 0.000000 
#    y 0.000000 3.893350 0.000000 
#    z 0.000000 0.000000 3.478960 
# 
# 
# High freq. dielectric constant tensor:
#      x y z
#    x 1.820500 0.000000 0.000000 
#    y 0.000000 1.817200 0.000000 
#    z 0.000000 0.000000 1.791630 
# 
# From -- ./inp_files/18490.got.cif
#   From: 2010.03.12/outbox.cif.g09.slc.cpg/sg37_10_cif.got.tgz:18490.got - 2010.04.14 02:25:27.
