data_PCOD8176860
_publ_section_title
;
Structure prediction by ZEFSAII (Michael W. Deem and Ramdas Pophale) SiO2 
 PCOD8176860
Probable space group: C C C 2
;
_chemical_formula_sum "Si O2"
_cell_formula_units_Z 60
_cell_length_a 25.786443
_cell_length_b 17.844277
_cell_length_c 5.490467
_cell_angle_alpha 90.000000
_cell_angle_beta 90.000000
_cell_angle_gamma 90.000000
_cell_volume 2526.385856
_symmetry_space_group_name_H-M "C C C 2"
_symmetry_group_IT_number 37
_symmetry_cell_setting 'orthorhombic'
loop_
_space_group_symop_operation_xyz
x,y,z
-x,-y,z
-x,y,1/2+z
x,-y,1/2+z
1/2+x,1/2+y,z
1/2-x,1/2-y,z
1/2-x,1/2+y,1/2+z
1/2+x,1/2-y,1/2+z
loop_
_atom_site_type_symbol
_atom_site_label
_atom_site_fract_x
_atom_site_fract_y
_atom_site_fract_z
Si Si1 0.512769 0.208571 0.827800
Si Si2 0.229812 0.897923 0.997829
Si Si3 0.377385 0.544542 0.152100
Si Si4 0.837853 0.539547 0.481109
Si Si5 0.250000 0.250000 0.761273
Si Si6 0.326812 0.307082 0.139724
Si Si7 0.421191 0.686715 0.342495
Si Si8 0.878450 0.295079 0.977736
O O1 0.491719 0.164265 0.589015
O O2 0.480911 0.287124 0.893779
O O3 0.573893 0.221025 0.787089
O O4 0.182571 0.926916 0.168034
O O5 0.258489 0.825268 0.108452
O O6 0.275056 0.958785 0.972301
O O7 0.207010 0.878399 0.728418
O O8 0.388130 0.495172 0.393485
O O9 0.417119 0.615668 0.159014
O O10 0.856326 0.496966 0.725973
O O11 0.865575 0.618773 0.497077
O O12 0.301037 0.260066 0.924645
O O13 0.329717 0.251835 0.374083
O O14 0.384456 0.336568 0.070312
O O15 0.394955 0.762162 0.236497
#
# Coordination Sequence:
#
# PCOD8176860 Si02
#       8
#     8   8   8   8   4   8   8   8
#     4  10  22  40  75 108 134 170 239 303 363 423
#     4  12  25  43  61 104 141 203 246 294 356 437
#     4  12  26  43  68 102 150 194 234 288 359 440
#     4  12  30  47  69 102 152 200 239 297 372 444
#     4  12  24  36  68 104 140 184 254 318 346 414
#     4  12  21  40  71 104 139 178 250 312 358 407
#     4  11  23  43  74 108 138 187 246 310 362 432
#     4  11  24  46  74 107 138 187 252 311 366 431
#
# _framework density 23.749341999999999
#
# number of rings (size 3 to 8) (size 9 to 14) (size 15 to 20)
#    0.000    0.533    4.000    4.400    5.600    0.000 
#    0.000    0.000    0.000   19.200    0.000    0.000 
#    0.000    0.000    0.000    0.000    0.000    0.000 
#
# Total GULP energy -371723.937396 kJ/mol
# GULP energy per Si atom -12390.797913 kJ/mol
# Density = 2.369529 g / cm^3
# Si number density = 23.749342 Si / 1000 Ang^3
#
#
#
# Elastic Constant Matrix: (Units=GPa)
#
#
# Indices 1 2 3 4 5 6 
#
# 1 83.1011 26.5543 0.1367 0.0000 0.0000 0.0000
# 2 26.5543 101.9827 28.5739 0.0000 0.0000 0.0000
# 3 0.1367 28.5739 130.5208 0.0000 0.0000 0.0000
# 4 0.0000 0.0000 0.0000 30.4128 0.0000 0.0000
# 5 0.0000 0.0000 0.0000 0.0000 38.2046 0.0000
# 6 0.0000 0.0000 0.0000 0.0000 0.0000 25.1820
#
#
#
# Elastic Compliance Matrix: (Units=1/GPa)
#
#
# Indices 1 2 3 4 5 6 
#
# 1 0.013201 -0.003658 0.000787 0.000000 0.000000 0.000000
# 2 -0.003658 0.011460 -0.002505 0.000000 0.000000 0.000000
# 3 0.000787 -0.002505 0.008209 0.000000 0.000000 0.000000
# 4 0.000000 0.000000 0.000000 0.032881 0.000000 0.000000
# 5 0.000000 0.000000 0.000000 0.000000 0.026175 0.000000
# 6 0.000000 0.000000 0.000000 0.000000 0.000000 0.039711
#
#
# Mechanical properties :
#
#
# Convention : Reuss Voigt Hill
#
# Bulk Modulus (GPa) = 45.21114 47.34826 46.27970
# Shear Modulus (GPa) = 33.38647 36.11585 34.75116
#
# Velocity S-wave (km/s) = 3.75345 3.90386 3.82939
# Velocity P-wave (km/s) = 6.15326 6.34823 6.25151
#
# Compressibility (1/GPa) = 0.02211844
#
# Stress axis : x y z
#
# Youngs Moduli (GPa) = 75.75156 87.26115 121.81476
#
# Poissons Ratio (x) = 0.31918 -0.09586
# Poissons Ratio (y) = 0.27708 0.30514
# Poissons Ratio (z) = -0.05961 0.21859
#
# Static dielectric constant tensor:
#      x y z
#    x 4.493130 0.000000 0.000000 
#    y 0.000000 4.025030 0.000000 
#    z 0.000000 0.000000 4.551900 
# 
# 
# High freq. dielectric constant tensor:
#      x y z
#    x 1.937800 0.000000 0.000000 
#    y 0.000000 1.906860 0.000000 
#    z 0.000000 0.000000 1.963390 
# 
# From -- ./inp_files/1385.got.cif
#   From: 2010.03.12/outbox.cif.g09.slc.cpg/sg37_1_cif.got.tgz:1385.got - 2010.04.14 02:25:27.
