data_PCOD8176571
_publ_section_title
;
Structure prediction by ZEFSAII (Michael W. Deem and Ramdas Pophale) SiO2 
 PCOD8176571
Probable space group: C C C 2
;
_chemical_formula_sum "Si O2"
_cell_formula_units_Z 52
_cell_length_a 11.971621
_cell_length_b 18.433902
_cell_length_c 12.083743
_cell_angle_alpha 90.000000
_cell_angle_beta 90.000000
_cell_angle_gamma 90.000000
_cell_volume 2666.684974
_symmetry_space_group_name_H-M "C C C 2"
_symmetry_group_IT_number 37
_symmetry_cell_setting 'orthorhombic'
loop_
_space_group_symop_operation_xyz
x,y,z
-x,-y,z
-x,y,1/2+z
x,-y,1/2+z
1/2+x,1/2+y,z
1/2-x,1/2-y,z
1/2-x,1/2+y,1/2+z
1/2+x,1/2-y,1/2+z
loop_
_atom_site_type_symbol
_atom_site_label
_atom_site_fract_x
_atom_site_fract_y
_atom_site_fract_z
Si Si1 0.874135 0.626935 0.817080
Si Si2 0.127067 0.488419 0.982567
Si Si3 0.210885 0.366347 0.412259
Si Si4 0.601367 0.721447 0.496017
Si Si5 0.598983 0.112754 0.688351
Si Si6 0.876083 0.273537 0.511391
Si Si7 0.250000 0.250000 0.693334
O O1 0.819729 0.556494 0.878185
O O2 0.924494 0.670225 0.921566
O O3 0.781596 0.679092 0.763904
O O4 0.971315 0.604683 0.730603
O O5 0.188659 0.565719 0.994106
O O6 0.000000 0.500000 0.945952
O O7 0.132917 0.449825 0.101907
O O8 0.340651 0.342726 0.425486
O O9 0.131768 0.299429 0.443766
O O10 0.186980 0.391993 0.287783
O O11 0.467226 0.708306 0.502143
O O12 0.646534 0.722076 0.621096
O O13 0.614854 0.191355 0.632492
O O14 0.750000 0.250000 0.485316
#
# Coordination Sequence:
#
# PCOD8176571 Si02
#       7
#     8   8   8   8   8   8   4
#     4  11  21  37  56  87 127 162 203 253 324 361
#     4  11  23  34  55  95 127 162 206 259 313 382
#     4  10  21  38  58  85 126 161 193 251 312 383
#     4  10  22  38  58  87 124 159 208 244 317 379
#     4  11  22  35  58  88 127 161 202 253 325 364
#     4  11  22  36  59  91 118 157 214 259 298 377
#     4  10  20  36  60  82 122 168 198 258 312 380
#
# _framework density 19.499866000000001
#
# number of rings (size 3 to 8) (size 9 to 14) (size 15 to 20)
#    0.000    1.538    5.385    0.923    6.462    0.000 
#    0.000    0.000    0.000    3.692    0.000    4.308 
#    0.000    0.000    0.000    0.000    0.000    0.000 
#
# Total GULP energy -322163.112521 kJ/mol
# GULP energy per Si atom -12390.888943 kJ/mol
# Density = 1.945548 g / cm^3
# Si number density = 19.499866 Si / 1000 Ang^3
#
#
#
# Elastic Constant Matrix: (Units=GPa)
#
#
# Indices 1 2 3 4 5 6 
#
# 1 129.2855 52.1902 30.7733 0.0000 0.0000 0.0000
# 2 52.1902 117.2837 48.5709 0.0000 0.0000 0.0000
# 3 30.7733 48.5709 111.5886 0.0000 0.0000 0.0000
# 4 0.0000 0.0000 0.0000 32.3048 0.0000 0.0000
# 5 0.0000 0.0000 0.0000 0.0000 18.2089 0.0000
# 6 0.0000 0.0000 0.0000 0.0000 0.0000 29.3145
#
#
#
# Elastic Compliance Matrix: (Units=1/GPa)
#
#
# Indices 1 2 3 4 5 6 
#
# 1 0.009511 -0.003838 -0.000952 0.000000 0.000000 0.000000
# 2 -0.003838 0.011950 -0.004143 0.000000 0.000000 0.000000
# 3 -0.000952 -0.004143 0.011027 0.000000 0.000000 0.000000
# 4 0.000000 0.000000 0.000000 0.030955 0.000000 0.000000
# 5 0.000000 0.000000 0.000000 0.000000 0.054918 0.000000
# 6 0.000000 0.000000 0.000000 0.000000 0.000000 0.034113
#
#
# Mechanical properties :
#
#
# Convention : Reuss Voigt Hill
#
# Bulk Modulus (GPa) = 68.39142 69.02519 68.70831
# Shear Modulus (GPa) = 28.53645 31.07386 29.80516
#
# Velocity S-wave (km/s) = 3.82961 3.99625 3.91382
# Velocity P-wave (km/s) = 7.39618 7.53445 7.46564
#
# Compressibility (1/GPa) = 0.01462172
#
# Stress axis : x y z
#
# Youngs Moduli (GPa) = 105.14417 83.68281 90.68277
#
# Poissons Ratio (x) = 0.32116 0.08636
# Poissons Ratio (y) = 0.40352 0.37570
# Poissons Ratio (z) = 0.10013 0.34670
#
# Static dielectric constant tensor:
#      x y z
#    x 3.309790 0.000000 0.000000 
#    y 0.000000 3.692050 0.000000 
#    z 0.000000 0.000000 3.768920 
# 
# 
# High freq. dielectric constant tensor:
#      x y z
#    x 1.722090 0.000000 0.000000 
#    y 0.000000 1.744970 0.000000 
#    z 0.000000 0.000000 1.779000 
# 
# From -- ./inp_files/7919.got.cif
#   From: 2010.03.12/outbox.cif.g09.slc.cpg/sg37_4_cif.got.tgz:7919.got - 2010.04.14 02:25:27.
