data_PCOD8176772
_publ_section_title
;
Structure prediction by ZEFSAII (Michael W. Deem and Ramdas Pophale) SiO2 
 PCOD8176772
Probable space group: C C C 2
;
_chemical_formula_sum "Si O2"
_cell_formula_units_Z 56
_cell_length_a 18.060001
_cell_length_b 9.652156
_cell_length_c 14.656886
_cell_angle_alpha 90.000000
_cell_angle_beta 90.000000
_cell_angle_gamma 90.000000
_cell_volume 2554.958277
_symmetry_space_group_name_H-M "C C C 2"
_symmetry_group_IT_number 37
_symmetry_cell_setting 'orthorhombic'
loop_
_space_group_symop_operation_xyz
x,y,z
-x,-y,z
-x,y,1/2+z
x,-y,1/2+z
1/2+x,1/2+y,z
1/2-x,1/2-y,z
1/2-x,1/2+y,1/2+z
1/2+x,1/2-y,1/2+z
loop_
_atom_site_type_symbol
_atom_site_label
_atom_site_fract_x
_atom_site_fract_y
_atom_site_fract_z
Si Si1 0.581390 0.527910 0.666490
Si Si2 0.782822 0.110781 0.067674
Si Si3 0.591298 0.221149 0.679197
Si Si4 0.560840 0.879336 0.982794
Si Si5 0.275220 0.090898 0.929181
Si Si6 0.183425 0.528646 0.235097
Si Si7 0.948135 0.270485 0.289806
O O1 0.500000 0.500000 0.623732
O O2 0.630775 0.617863 0.596286
O O3 0.619708 0.379848 0.687945
O O4 0.572498 0.614488 0.760135
O O5 0.750000 0.250000 0.021263
O O6 0.735179 0.091513 0.158532
O O7 0.780883 0.987357 0.995209
O O8 0.556798 0.199206 0.578691
O O9 0.527446 0.185624 0.751090
O O10 0.660653 0.124550 0.702368
O O11 0.500000 0.000000 0.980002
O O12 0.643572 0.938262 0.970657
O O13 0.546983 0.773318 0.899410
O O14 0.250000 0.250000 0.926301
O O15 0.269772 0.025416 0.828461
O O16 0.111393 0.622687 0.249921
#
# Coordination Sequence:
#
# PCOD8176772 Si02
#       7
#     8   8   8   8   8   8   8
#     4  10  24  44  66  96 139 186 227 281 364 415
#     4  12  24  44  68  97 135 182 231 290 348 421
#     4  11  22  42  68 102 141 179 230 289 347 416
#     4  11  22  39  71 103 135 181 238 291 337 417
#     4  11  25  43  65 103 135 178 232 283 356 417
#     4  11  22  41  70  97 131 182 226 287 341 416
#     4  10  21  41  65  98 137 181 230 277 348 423
#
# _framework density 21.918167
#
# number of rings (size 3 to 8) (size 9 to 14) (size 15 to 20)
#    0.000    1.143    2.857    4.286    2.000    0.000 
#    2.571    6.429    0.000    0.000    0.000    0.000 
#    0.000    0.000    0.000    0.000    0.000    0.000 
#
# Total GULP energy -347211.597793 kJ/mol
# GULP energy per Si atom -12400.414207 kJ/mol
# Density = 2.186828 g / cm^3
# Si number density = 21.918167 Si / 1000 Ang^3
#
#
#
# Elastic Constant Matrix: (Units=GPa)
#
#
# Indices 1 2 3 4 5 6 
#
# 1 71.5378 37.1728 21.7329 0.0000 0.0000 0.0000
# 2 37.1728 132.7153 45.1769 0.0000 0.0000 0.0000
# 3 21.7329 45.1769 128.3320 0.0000 0.0000 0.0000
# 4 0.0000 0.0000 0.0000 28.7092 0.0000 0.0000
# 5 0.0000 0.0000 0.0000 0.0000 21.4844 0.0000
# 6 0.0000 0.0000 0.0000 0.0000 0.0000 33.8965
#
#
#
# Elastic Compliance Matrix: (Units=1/GPa)
#
#
# Indices 1 2 3 4 5 6 
#
# 1 0.016557 -0.004185 -0.001331 0.000000 0.000000 0.000000
# 2 -0.004185 0.009618 -0.002677 0.000000 0.000000 0.000000
# 3 -0.001331 -0.002677 0.008960 0.000000 0.000000 0.000000
# 4 0.000000 0.000000 0.000000 0.034832 0.000000 0.000000
# 5 0.000000 0.000000 0.000000 0.000000 0.046545 0.000000
# 6 0.000000 0.000000 0.000000 0.000000 0.000000 0.029502
#
#
# Mechanical properties :
#
#
# Convention : Reuss Voigt Hill
#
# Bulk Modulus (GPa) = 53.33229 60.08335 56.70782
# Shear Modulus (GPa) = 29.64712 32.05153 30.84933
#
# Velocity S-wave (km/s) = 3.68180 3.82819 3.75571
# Velocity P-wave (km/s) = 6.51609 6.85654 6.68848
#
# Compressibility (1/GPa) = 0.01875037
#
# Stress axis : x y z
#
# Youngs Moduli (GPa) = 60.39616 103.96769 111.60509
#
# Poissons Ratio (x) = 0.43506 0.14853
# Poissons Ratio (y) = 0.25273 0.29880
# Poissons Ratio (z) = 0.08038 0.27835
#
# Static dielectric constant tensor:
#      x y z
#    x 4.054730 0.000000 0.000000 
#    y 0.000000 4.000190 0.000000 
#    z 0.000000 0.000000 4.022470 
# 
# 
# High freq. dielectric constant tensor:
#      x y z
#    x 1.866020 0.000000 0.000000 
#    y 0.000000 1.861730 0.000000 
#    z 0.000000 0.000000 1.859720 
# 
# From -- ./inp_files/12942.got.cif
#   From: 2010.03.12/outbox.cif.g09.slc.cpg/sg37_7_cif.got.tgz:12942.got - 2010.04.14 02:25:27.
