data_PCOD8176158
_publ_section_title
;
Structure prediction by ZEFSAII (Michael W. Deem and Ramdas Pophale) SiO2 
 PCOD8176158
Probable space group: C M C 21
;
_chemical_formula_sum "Si O2"
_cell_formula_units_Z 64
_cell_length_a 8.829446
_cell_length_b 30.181639
_cell_length_c 11.918098
_cell_angle_alpha 90.000000
_cell_angle_beta 90.000000
_cell_angle_gamma 90.000000
_cell_volume 3176.019990
_symmetry_space_group_name_H-M "C M C 21"
_symmetry_group_IT_number 36
_symmetry_cell_setting 'orthorhombic'
loop_
_space_group_symop_operation_xyz
x,y,z
-x,-y,1/2+z
x,-y,1/2+z
-x,y,z
1/2+x,1/2+y,z
1/2-x,1/2-y,1/2+z
1/2+x,1/2-y,1/2+z
1/2-x,1/2+y,z
loop_
_atom_site_type_symbol
_atom_site_label
_atom_site_fract_x
_atom_site_fract_y
_atom_site_fract_z
Si Si1 0.325805 0.548136 0.559470
Si Si2 0.822682 0.671607 0.317484
Si Si3 0.178791 0.374617 0.468363
Si Si4 0.324187 0.804810 0.064218
Si Si5 0.822873 0.459097 0.614745
Si Si6 0.324450 0.296114 0.607692
Si Si7 0.321547 0.373391 0.224302
Si Si8 0.174027 0.918260 0.811671
O O1 0.500000 0.533897 0.576748
O O2 0.218502 0.505636 0.558993
O O3 0.273853 0.583298 0.653321
O O4 0.300494 0.570364 0.440023
O O5 0.765695 0.677872 0.444211
O O6 0.735215 0.704945 0.235410
O O7 0.781023 0.622467 0.277239
O O8 0.000000 0.680393 0.305670
O O9 0.228579 0.419063 0.533665
O O10 0.235306 0.331092 0.532107
O O11 0.247327 0.376871 0.345094
O O12 0.000000 0.371546 0.457921
O O13 0.500000 0.815905 0.082837
O O14 0.293931 0.752649 0.061164
O O15 0.231719 0.828832 0.162030
O O16 0.729253 0.457796 0.731253
O O17 0.000000 0.457177 0.640326
O O18 0.500000 0.308801 0.604598
O O19 0.500000 0.370484 0.238729
O O20 0.000000 0.906331 0.787364
#
# Coordination Sequence:
#
# PCOD8176158 Si02
#       8
#     8   8   8   8   8   8   8   8
#     4  10  24  43  64  94 126 162 208 255 312 373
#     4  11  22  40  65  93 126 164 208 262 316 371
#     4  11  25  44  63  92 129 168 210 258 315 373
#     4  10  24  43  64  94 129 165 209 258 315 375
#     4  11  25  42  64  94 126 164 210 256 311 374
#     4  11  24  42  65  95 126 167 213 257 314 374
#     4  11  24  43  66  93 126 167 213 258 312 375
#     4  11  22  41  67  93 124 161 207 262 313 371
#
# _framework density 20.151005999999999
#
# number of rings (size 3 to 8) (size 9 to 14) (size 15 to 20)
#    0.000    1.250    2.500    2.250    3.500    5.000 
#    0.000    0.000    0.000    0.000    0.000    0.000 
#    0.000    0.000    0.000    0.000    0.000    0.000 
#
# Total GULP energy -396971.026312 kJ/mol
# GULP energy per Si atom -12405.344572 kJ/mol
# Density = 2.010514 g / cm^3
# Si number density = 20.151006 Si / 1000 Ang^3
#
#
#
# Elastic Constant Matrix: (Units=GPa)
#
#
# Indices 1 2 3 4 5 6 
#
# 1 80.0319 51.8311 54.5282 0.0000 0.0000 0.0000
# 2 51.8311 98.8663 41.4452 0.0000 0.0000 0.0000
# 3 54.5282 41.4452 125.8836 0.0000 0.0000 0.0000
# 4 0.0000 0.0000 0.0000 20.6474 0.0000 0.0000
# 5 0.0000 0.0000 0.0000 0.0000 37.6930 0.0000
# 6 0.0000 0.0000 0.0000 0.0000 0.0000 34.5066
#
#
#
# Elastic Compliance Matrix: (Units=1/GPa)
#
#
# Indices 1 2 3 4 5 6 
#
# 1 0.023286 -0.009257 -0.007039 0.000000 0.000000 0.000000
# 2 -0.009257 0.015414 -0.001065 0.000000 0.000000 0.000000
# 3 -0.007039 -0.001065 0.011343 0.000000 0.000000 0.000000
# 4 0.000000 0.000000 0.000000 0.048432 0.000000 0.000000
# 5 0.000000 0.000000 0.000000 0.000000 0.026530 0.000000
# 6 0.000000 0.000000 0.000000 0.000000 0.000000 0.028980
#
#
# Mechanical properties :
#
#
# Convention : Reuss Voigt Hill
#
# Bulk Modulus (GPa) = 65.26712 66.71009 65.98860
# Shear Modulus (GPa) = 25.79778 29.03457 27.41618
#
# Velocity S-wave (km/s) = 3.58190 3.79997 3.69255
# Velocity P-wave (km/s) = 7.04031 7.24086 7.14129
#
# Compressibility (1/GPa) = 0.01532165
#
# Stress axis : x y z
#
# Youngs Moduli (GPa) = 42.94432 64.87530 88.15625
#
# Poissons Ratio (x) = 0.60055 0.62052
# Poissons Ratio (y) = 0.39754 0.09389
# Poissons Ratio (z) = 0.30228 0.06910
#
# Static dielectric constant tensor:
#      x y z
#    x 3.675140 0.000000 0.000000 
#    y 0.000000 3.633210 0.000000 
#    z 0.000000 0.000000 3.811880 
# 
# 
# High freq. dielectric constant tensor:
#      x y z
#    x 1.792920 0.000000 0.000000 
#    y 0.000000 1.790440 0.000000 
#    z 0.000000 0.000000 1.801660 
# 
# From -- ./inp_files/7202.got.cif
#   From: 2010.03.12/outbox.cif.g09.slc.cpg/sg36_4_cif.got.tgz:7202.got - 2010.04.14 02:13:53.
