data_PCOD8176463
_publ_section_title
;
Structure prediction by ZEFSAII (Michael W. Deem and Ramdas Pophale) SiO2 
 PCOD8176463
Probable space group: C C C 2
;
_chemical_formula_sum "Si O2"
_cell_formula_units_Z 40
_cell_length_a 8.204136
_cell_length_b 22.997313
_cell_length_c 8.754291
_cell_angle_alpha 90.000000
_cell_angle_beta 90.000000
_cell_angle_gamma 90.000000
_cell_volume 1651.699077
_symmetry_space_group_name_H-M "C C C 2"
_symmetry_group_IT_number 37
_symmetry_cell_setting 'orthorhombic'
loop_
_space_group_symop_operation_xyz
x,y,z
-x,-y,z
-x,y,1/2+z
x,-y,1/2+z
1/2+x,1/2+y,z
1/2-x,1/2-y,z
1/2-x,1/2+y,1/2+z
1/2+x,1/2-y,1/2+z
loop_
_atom_site_type_symbol
_atom_site_label
_atom_site_fract_x
_atom_site_fract_y
_atom_site_fract_z
Si Si1 0.645120 0.565328 0.205030
Si Si2 0.192438 0.662548 0.141528
Si Si3 0.011041 0.729539 0.391165
Si Si4 0.297152 0.454333 0.562045
Si Si5 0.425752 0.690084 0.639337
O O1 0.668924 0.553236 0.383500
O O2 0.757441 0.520651 0.104649
O O3 0.457917 0.555858 0.162735
O O4 0.687232 0.632714 0.163978
O O5 0.125548 0.683576 0.304037
O O6 0.164639 0.593041 0.118901
O O7 0.383108 0.675279 0.130649
O O8 0.103241 0.695875 0.007055
O O9 0.121383 0.777521 0.481782
O O10 0.894691 0.764700 0.275519
#
# Coordination Sequence:
#
# PCOD8176463 Si02
#       5
#     8   8   8   8   8
#     4  10  19  34  60  87 118 153 195 256 303 353
#     4  10  22  39  58  86 123 159 197 248 298 363
#     4  10  19  36  58  84 123 157 189 235 300 372
#     4  10  20  37  59  89 121 152 199 252 310 353
#     4  10  20  36  56  87 122 151 195 253 303 353
#
# _framework density 24.217486000000001
#
# number of rings (size 3 to 8) (size 9 to 14) (size 15 to 20)
#    0.000    2.000    0.000    7.200    0.000    1.600 
#    0.000   36.000    0.000    3.600    0.000    0.000 
#    0.000    0.000    0.000    0.000    0.000    0.000 
#
# Total GULP energy -247847.005223 kJ/mol
# GULP energy per Si atom -12392.350261 kJ/mol
# Density = 2.416237 g / cm^3
# Si number density = 24.217486 Si / 1000 Ang^3
#
#
#
# Elastic Constant Matrix: (Units=GPa)
#
#
# Indices 1 2 3 4 5 6 
#
# 1 33.2857 38.3517 26.8977 0.0000 0.0000 0.0000
# 2 38.3517 199.8806 66.1183 0.0000 0.0000 0.0000
# 3 26.8977 66.1183 159.6317 0.0000 0.0000 0.0000
# 4 0.0000 0.0000 0.0000 44.5760 0.0000 0.0000
# 5 0.0000 0.0000 0.0000 0.0000 20.4128 0.0000
# 6 0.0000 0.0000 0.0000 0.0000 0.0000 36.0414
#
#
#
# Elastic Compliance Matrix: (Units=1/GPa)
#
#
# Indices 1 2 3 4 5 6 
#
# 1 0.040881 -0.006449 -0.004217 0.000000 0.000000 0.000000
# 2 -0.006449 0.006815 -0.001736 0.000000 0.000000 0.000000
# 3 -0.004217 -0.001736 0.007694 0.000000 0.000000 0.000000
# 4 0.000000 0.000000 0.000000 0.022434 0.000000 0.000000
# 5 0.000000 0.000000 0.000000 0.000000 0.048989 0.000000
# 6 0.000000 0.000000 0.000000 0.000000 0.000000 0.027746
#
#
# Mechanical properties :
#
#
# Convention : Reuss Voigt Hill
#
# Bulk Modulus (GPa) = 32.69516 72.83705 52.76611
# Shear Modulus (GPa) = 26.37714 37.63472 32.00593
#
# Velocity S-wave (km/s) = 3.30385 3.94640 3.63933
# Velocity P-wave (km/s) = 5.29942 7.13491 6.28453
#
# Compressibility (1/GPa) = 0.03058557
#
# Stress axis : x y z
#
# Youngs Moduli (GPa) = 24.46100 146.74387 129.97077
#
# Poissons Ratio (x) = 0.94635 0.54813
# Poissons Ratio (y) = 0.15775 0.22562
# Poissons Ratio (z) = 0.10316 0.25473
#
# Static dielectric constant tensor:
#      x y z
#    x 3.779460 0.000000 0.000000 
#    y 0.000000 6.779690 0.000000 
#    z 0.000000 0.000000 4.641590 
# 
# 
# High freq. dielectric constant tensor:
#      x y z
#    x 1.908690 0.000000 0.000000 
#    y 0.000000 1.988150 0.000000 
#    z 0.000000 0.000000 1.978260 
# 
# From -- ./inp_files/2221.got.cif
#   From: 2010.03.12/outbox.cif.g09.slc.cpg/sg37_2_cif.got.tgz:2221.got - 2010.04.14 02:25:27.
