data_PCOD8176364
_publ_section_title
;
Structure prediction by ZEFSAII (Michael W. Deem and Ramdas Pophale) SiO2 
 PCOD8176364
Probable space group: C C C 2
;
_chemical_formula_sum "Si O2"
_cell_formula_units_Z 52
_cell_length_a 17.140257
_cell_length_b 12.013897
_cell_length_c 13.778053
_cell_angle_alpha 90.000000
_cell_angle_beta 90.000000
_cell_angle_gamma 90.000000
_cell_volume 2837.194339
_symmetry_space_group_name_H-M "C C C 2"
_symmetry_group_IT_number 37
_symmetry_cell_setting 'orthorhombic'
loop_
_space_group_symop_operation_xyz
x,y,z
-x,-y,z
-x,y,1/2+z
x,-y,1/2+z
1/2+x,1/2+y,z
1/2-x,1/2-y,z
1/2-x,1/2+y,1/2+z
1/2+x,1/2-y,1/2+z
loop_
_atom_site_type_symbol
_atom_site_label
_atom_site_fract_x
_atom_site_fract_y
_atom_site_fract_z
Si Si1 0.337732 0.275594 0.201890
Si Si2 0.500000 0.000000 0.431493
Si Si3 0.901512 0.324844 0.520684
Si Si4 0.655734 0.085652 0.846171
Si Si5 0.178375 0.832160 0.386891
Si Si6 0.237287 0.502427 0.516113
Si Si7 0.789265 0.984333 0.724483
O O1 0.250000 0.250000 0.161765
O O2 0.402645 0.245592 0.120712
O O3 0.354103 0.207386 0.300329
O O4 0.343182 0.405549 0.227197
O O5 0.480230 0.894810 0.501316
O O6 0.572211 0.971835 0.361698
O O7 0.892800 0.241429 0.428463
O O8 0.830774 0.409727 0.536679
O O9 0.705783 0.004646 0.776515
O O10 0.702313 0.095724 0.948287
O O11 0.250000 0.750000 0.376750
O O12 0.163298 0.886679 0.280518
O O13 0.193130 0.932248 0.462572
O O14 0.270937 0.448234 0.614204
#
# Coordination Sequence:
#
# PCOD8176364 Si02
#       7
#     8   4   8   8   8   8   8
#     4  10  16  30  53  78 103 136 182 227 277 315
#     4  10  22  32  48  78 116 144 180 210 266 332
#     4  10  16  31  51  74 106 147 177 215 265 327
#     4   9  19  30  47  79 109 140 176 220 265 322
#     4   9  17  29  50  76 108 137 175 221 269 320
#     4   9  15  29  49  76 107 135 173 220 270 314
#     4  10  17  30  54  79 103 141 178 225 277 322
#
# _framework density 18.327964999999999
#
# number of rings (size 3 to 8) (size 9 to 14) (size 15 to 20)
#    0.000    2.462    4.615    1.385    0.000    0.615 
#    0.000    3.846    0.000    0.923    0.000    2.154 
#    0.000    0.000    0.000    0.000    0.000    0.000 
#
# Total GULP energy -322202.871868 kJ/mol
# GULP energy per Si atom -12392.418149 kJ/mol
# Density = 1.828625 g / cm^3
# Si number density = 18.327965 Si / 1000 Ang^3
#
#
#
# Elastic Constant Matrix: (Units=GPa)
#
#
# Indices 1 2 3 4 5 6 
#
# 1 49.7012 32.7246 28.1413 0.0000 0.0000 0.0000
# 2 32.7246 89.3548 70.0451 0.0000 0.0000 0.0000
# 3 28.1413 70.0451 149.1516 0.0000 0.0000 0.0000
# 4 0.0000 0.0000 0.0000 35.4940 0.0000 0.0000
# 5 0.0000 0.0000 0.0000 0.0000 13.6503 0.0000
# 6 0.0000 0.0000 0.0000 0.0000 0.0000 21.9662
#
#
#
# Elastic Compliance Matrix: (Units=1/GPa)
#
#
# Indices 1 2 3 4 5 6 
#
# 1 0.026560 -0.009177 -0.000701 0.000000 0.000000 0.000000
# 2 -0.009177 0.020883 -0.008075 0.000000 0.000000 0.000000
# 3 -0.000701 -0.008075 0.010629 0.000000 0.000000 0.000000
# 4 0.000000 0.000000 0.000000 0.028174 0.000000 0.000000
# 5 0.000000 0.000000 0.000000 0.000000 0.073258 0.000000
# 6 0.000000 0.000000 0.000000 0.000000 0.000000 0.045525
#
#
# Mechanical properties :
#
#
# Convention : Reuss Voigt Hill
#
# Bulk Modulus (GPa) = 45.11871 61.11438 53.11654
# Shear Modulus (GPa) = 20.13492 24.70855 22.42174
#
# Velocity S-wave (km/s) = 3.31809 3.67568 3.50145
# Velocity P-wave (km/s) = 6.27300 7.17157 6.73728
#
# Compressibility (1/GPa) = 0.02216375
#
# Stress axis : x y z
#
# Youngs Moduli (GPa) = 37.65066 47.88645 94.07916
#
# Poissons Ratio (x) = 0.43947 0.06598
# Poissons Ratio (y) = 0.34553 0.75973
# Poissons Ratio (z) = 0.02641 0.38671
#
# Static dielectric constant tensor:
#      x y z
#    x 2.935200 0.000000 0.000000 
#    y 0.000000 3.542950 0.000000 
#    z 0.000000 0.000000 3.611060 
# 
# 
# High freq. dielectric constant tensor:
#      x y z
#    x 1.648820 0.000000 0.000000 
#    y 0.000000 1.698960 0.000000 
#    z 0.000000 0.000000 1.718630 
# 
# From -- ./inp_files/11708.got.cif
#   From: 2010.03.12/outbox.cif.g09.slc.cpg/sg37_6_cif.got.tgz:11708.got - 2010.04.14 02:25:27.
