data_PCOD8176280
_publ_section_title
;
Structure prediction by ZEFSAII (Michael W. Deem and Ramdas Pophale) SiO2 
 PCOD8176280
Probable space group: C M C 21
;
_chemical_formula_sum "Si O2"
_cell_formula_units_Z 64
_cell_length_a 17.484809
_cell_length_b 14.804771
_cell_length_c 11.717627
_cell_angle_alpha 90.000000
_cell_angle_beta 90.000000
_cell_angle_gamma 90.000000
_cell_volume 3033.208441
_symmetry_space_group_name_H-M "C M C 21"
_symmetry_group_IT_number 36
_symmetry_cell_setting 'orthorhombic'
loop_
_space_group_symop_operation_xyz
x,y,z
-x,-y,1/2+z
x,-y,1/2+z
-x,y,z
1/2+x,1/2+y,z
1/2-x,1/2-y,1/2+z
1/2+x,1/2-y,1/2+z
1/2-x,1/2+y,z
loop_
_atom_site_type_symbol
_atom_site_label
_atom_site_fract_x
_atom_site_fract_y
_atom_site_fract_z
Si Si1 0.587944 0.339431 0.385730
Si Si2 0.830577 0.334894 0.918009
Si Si3 0.680548 0.894663 0.663934
Si Si4 0.349422 0.592154 0.108381
Si Si5 0.911348 0.434379 0.107136
Si Si6 0.830025 0.767171 0.993225
Si Si7 0.588189 0.403388 0.142745
Si Si8 0.089198 0.742376 0.754801
O O1 0.500000 0.366282 0.399936
O O2 0.598193 0.233544 0.410194
O O3 0.636107 0.398437 0.474042
O O4 0.619007 0.360500 0.260016
O O5 0.806221 0.368481 0.794604
O O6 0.859831 0.417460 0.995055
O O7 0.759964 0.281269 0.974670
O O8 0.760977 0.933679 0.621098
O O9 0.654907 0.809686 0.587529
O O10 0.615520 0.970856 0.659550
O O11 0.400758 0.510290 0.153429
O O12 0.371353 0.682695 0.175806
O O13 0.897878 0.354986 0.198204
O O14 0.000000 0.442404 0.073195
O O15 0.864798 0.861474 0.037785
O O16 0.871448 0.738488 0.877404
O O17 0.500000 0.379448 0.123810
O O18 0.000000 0.765416 0.767848
#
# Coordination Sequence:
#
# PCOD8176280 Si02
#       8
#     8   8   8   8   8   8   8   8
#     4  11  23  42  70  95 131 180 226 279 341 414
#     4  12  24  47  71  98 136 184 233 288 348 414
#     4  12  27  45  72 103 138 184 230 287 348 415
#     4  12  24  44  70 100 136 179 227 284 348 418
#     4  11  27  47  71 102 140 186 240 291 347 424
#     4  12  25  45  69  99 140 181 227 291 352 413
#     4  11  26  43  65 101 137 174 225 284 346 415
#     4  11  24  45  70  98 138 186 232 284 352 419
#
# _framework density 21.099768999999998
#
# number of rings (size 3 to 8) (size 9 to 14) (size 15 to 20)
#    0.000    0.500    5.000    2.625    3.500    4.000 
#    0.000    0.000    0.000    0.000    0.000    0.000 
#    0.000    0.000    0.000    0.000    0.000    0.000 
#
# Total GULP energy -397033.792045 kJ/mol
# GULP energy per Si atom -12407.306001 kJ/mol
# Density = 2.105174 g / cm^3
# Si number density = 21.099769 Si / 1000 Ang^3
#
#
#
# Elastic Constant Matrix: (Units=GPa)
#
#
# Indices 1 2 3 4 5 6 
#
# 1 104.8202 30.8853 48.2652 0.0000 0.0000 0.0000
# 2 30.8853 108.8902 30.2434 0.0000 0.0000 0.0000
# 3 48.2652 30.2434 115.4013 0.0000 0.0000 0.0000
# 4 0.0000 0.0000 0.0000 26.6155 0.0000 0.0000
# 5 0.0000 0.0000 0.0000 0.0000 31.5771 0.0000
# 6 0.0000 0.0000 0.0000 0.0000 0.0000 39.3158
#
#
#
# Elastic Compliance Matrix: (Units=1/GPa)
#
#
# Indices 1 2 3 4 5 6 
#
# 1 0.012294 -0.002221 -0.004560 0.000000 0.000000 0.000000
# 2 -0.002221 0.010306 -0.001772 0.000000 0.000000 0.000000
# 3 -0.004560 -0.001772 0.011037 0.000000 0.000000 0.000000
# 4 0.000000 0.000000 0.000000 0.037572 0.000000 0.000000
# 5 0.000000 0.000000 0.000000 0.000000 0.031669 0.000000
# 6 0.000000 0.000000 0.000000 0.000000 0.000000 0.025435
#
#
# Mechanical properties :
#
#
# Convention : Reuss Voigt Hill
#
# Bulk Modulus (GPa) = 60.49054 60.87772 60.68413
# Shear Modulus (GPa) = 33.12842 34.14954 33.63898
#
# Velocity S-wave (km/s) = 3.96673 4.02740 3.99718
# Velocity P-wave (km/s) = 7.05060 7.10926 7.07999
#
# Compressibility (1/GPa) = 0.01653151
#
# Stress axis : x y z
#
# Youngs Moduli (GPa) = 81.34005 97.03479 90.60482
#
# Poissons Ratio (x) = 0.21547 0.41315
# Poissons Ratio (y) = 0.18062 0.16056
# Poissons Ratio (z) = 0.37090 0.17195
#
# Static dielectric constant tensor:
#      x y z
#    x 3.796650 0.000000 0.000000 
#    y 0.000000 3.776220 0.000000 
#    z 0.000000 0.000000 3.944510 
# 
# 
# High freq. dielectric constant tensor:
#      x y z
#    x 1.835400 0.000000 0.000000 
#    y 0.000000 1.827830 0.000000 
#    z 0.000000 0.000000 1.839970 
# 
# From -- ./inp_files/8986.got.cif
#   From: 2010.03.12/outbox.cif.g09.slc.cpg/sg36_5_cif.got.tgz:8986.got - 2010.04.14 02:13:53.
