data_PCOD8176005
_publ_section_title
;
Structure prediction by ZEFSAII (Michael W. Deem and Ramdas Pophale) SiO2 
 PCOD8176005
Probable space group: C M C 21
;
_chemical_formula_sum "Si O2"
_cell_formula_units_Z 64
_cell_length_a 8.818264
_cell_length_b 23.610025
_cell_length_c 15.209474
_cell_angle_alpha 90.000000
_cell_angle_beta 90.000000
_cell_angle_gamma 90.000000
_cell_volume 3166.603871
_symmetry_space_group_name_H-M "C M C 21"
_symmetry_group_IT_number 36
_symmetry_cell_setting 'orthorhombic'
loop_
_space_group_symop_operation_xyz
x,y,z
-x,-y,1/2+z
x,-y,1/2+z
-x,y,z
1/2+x,1/2+y,z
1/2-x,1/2-y,1/2+z
1/2+x,1/2-y,1/2+z
1/2-x,1/2+y,z
loop_
_atom_site_type_symbol
_atom_site_label
_atom_site_fract_x
_atom_site_fract_y
_atom_site_fract_z
Si Si1 0.178518 0.249290 0.595210
Si Si2 0.175373 0.446738 0.694416
Si Si3 0.820874 0.249410 0.280958
Si Si4 0.174904 0.578877 0.694397
Si Si5 0.821464 0.125809 0.341381
Si Si6 0.177779 0.644496 0.518522
Si Si7 0.322822 0.872633 0.529632
Si Si8 0.677870 0.643476 0.852310
O O1 0.260859 0.233434 0.685489
O O2 0.233918 0.204289 0.522912
O O3 0.227808 0.311462 0.565231
O O4 0.000000 0.244697 0.609242
O O5 0.208574 0.512729 0.687349
O O6 0.277677 0.421910 0.771755
O O7 0.222678 0.418946 0.601987
O O8 0.000000 0.433286 0.715220
O O9 0.765207 0.186804 0.306137
O O10 0.756107 0.294787 0.349833
O O11 0.000000 0.253955 0.281268
O O12 0.220041 0.605864 0.601479
O O13 0.277751 0.604948 0.770053
O O14 0.000000 0.591250 0.717421
O O15 0.735808 0.111980 0.432062
O O16 0.000000 0.124935 0.357534
O O17 0.000000 0.656078 0.511973
O O18 0.500000 0.874271 0.507515
O O19 0.231442 0.887451 0.441367
O O20 0.500000 0.652152 0.853032
#
# Coordination Sequence:
#
# PCOD8176005 Si02
#       8
#     8   8   8   8   8   8   8   8
#     4  11  21  36  62  94 125 157 197 253 310 361
#     4  10  22  43  67  89 117 161 211 254 303 367
#     4  11  22  38  61  89 125 165 200 245 306 370
#     4  10  23  43  65  88 119 161 209 257 305 362
#     4  11  24  40  62  93 128 161 200 254 310 361
#     4  11  23  39  62  91 124 165 208 247 299 369
#     4  10  22  40  63  91 125 160 200 250 305 366
#     4  12  25  39  62  93 125 162 205 252 304 364
#
# _framework density 20.210926000000001
#
# number of rings (size 3 to 8) (size 9 to 14) (size 15 to 20)
#    0.000    1.250    2.500    3.375    0.000    8.000 
#    0.000    2.500    0.000    0.000    0.000    0.000 
#    0.000    0.000    0.000    0.000    0.000    0.000 
#
# Total GULP energy -397049.586871 kJ/mol
# GULP energy per Si atom -12407.799590 kJ/mol
# Density = 2.016493 g / cm^3
# Si number density = 20.210926 Si / 1000 Ang^3
#
#
#
# Elastic Constant Matrix: (Units=GPa)
#
#
# Indices 1 2 3 4 5 6 
#
# 1 84.1941 38.3311 47.6515 0.0000 0.0000 0.0000
# 2 38.3311 106.9593 35.7226 0.0000 0.0000 0.0000
# 3 47.6515 35.7226 119.8272 0.0000 0.0000 0.0000
# 4 0.0000 0.0000 0.0000 12.7124 0.0000 0.0000
# 5 0.0000 0.0000 0.0000 0.0000 35.7080 0.0000
# 6 0.0000 0.0000 0.0000 0.0000 0.0000 23.9120
#
#
#
# Elastic Compliance Matrix: (Units=1/GPa)
#
#
# Indices 1 2 3 4 5 6 
#
# 1 0.016892 -0.004231 -0.005456 0.000000 0.000000 0.000000
# 2 -0.004231 0.011443 -0.001729 0.000000 0.000000 0.000000
# 3 -0.005456 -0.001729 0.011030 0.000000 0.000000 0.000000
# 4 0.000000 0.000000 0.000000 0.078663 0.000000 0.000000
# 5 0.000000 0.000000 0.000000 0.000000 0.028005 0.000000
# 6 0.000000 0.000000 0.000000 0.000000 0.000000 0.041820
#
#
# Mechanical properties :
#
#
# Convention : Reuss Voigt Hill
#
# Bulk Modulus (GPa) = 60.48406 61.59898 61.04152
# Shear Modulus (GPa) = 23.12715 27.08484 25.10600
#
# Velocity S-wave (km/s) = 3.38640 3.66472 3.52831
# Velocity P-wave (km/s) = 6.72917 6.96068 6.84591
#
# Compressibility (1/GPa) = 0.01653328
#
# Stress axis : x y z
#
# Youngs Moduli (GPa) = 59.20127 87.38901 90.65922
#
# Poissons Ratio (x) = 0.36977 0.49462
# Poissons Ratio (y) = 0.25050 0.15673
# Poissons Ratio (z) = 0.32299 0.15107
#
# Static dielectric constant tensor:
#      x y z
#    x 3.564970 0.000000 0.000000 
#    y 0.000000 3.663130 0.000000 
#    z 0.000000 0.000000 3.754180 
# 
# 
# High freq. dielectric constant tensor:
#      x y z
#    x 1.788280 0.000000 0.000000 
#    y 0.000000 1.786890 0.000000 
#    z 0.000000 0.000000 1.802310 
# 
# From -- ./inp_files/10992.got.cif
#   From: 2010.03.12/outbox.cif.g09.slc.cpg/sg36_6_cif.got.tgz:10992.got - 2010.04.14 02:13:53.
