data_PCOD8176726
_publ_section_title
;
Structure prediction by ZEFSAII (Michael W. Deem and Ramdas Pophale) SiO2 
 PCOD8176726
Probable space group: C C C 2
;
_chemical_formula_sum "Si O2"
_cell_formula_units_Z 56
_cell_length_a 14.058605
_cell_length_b 11.781812
_cell_length_c 15.761537
_cell_angle_alpha 90.000000
_cell_angle_beta 90.000000
_cell_angle_gamma 90.000000
_cell_volume 2610.675438
_symmetry_space_group_name_H-M "C C C 2"
_symmetry_group_IT_number 37
_symmetry_cell_setting 'orthorhombic'
loop_
_space_group_symop_operation_xyz
x,y,z
-x,-y,z
-x,y,1/2+z
x,-y,1/2+z
1/2+x,1/2+y,z
1/2-x,1/2-y,z
1/2-x,1/2+y,1/2+z
1/2+x,1/2-y,1/2+z
loop_
_atom_site_type_symbol
_atom_site_label
_atom_site_fract_x
_atom_site_fract_y
_atom_site_fract_z
Si Si1 0.433804 0.194704 0.620520
Si Si2 0.207121 0.539820 0.028291
Si Si3 0.220215 0.626438 0.850667
Si Si4 0.595815 0.456755 0.108440
Si Si5 0.474764 0.177666 0.297841
Si Si6 0.588583 0.566029 0.289609
Si Si7 0.944361 0.383912 0.473080
O O1 0.348339 0.106205 0.602916
O O2 0.398652 0.323535 0.631263
O O3 0.476274 0.148961 0.709013
O O4 0.511172 0.199022 0.544287
O O5 0.314224 0.509847 0.052650
O O6 0.204016 0.628527 0.951058
O O7 0.163284 0.417783 0.999300
O O8 0.250000 0.750000 0.818037
O O9 0.117797 0.594251 0.808463
O O10 0.307166 0.539758 0.829968
O O11 0.500000 0.500000 0.059747
O O12 0.597535 0.531932 0.192524
O O13 0.435386 0.303493 0.299341
O O14 0.547484 0.164490 0.377436
O O15 0.500000 0.500000 0.333712
O O16 0.000000 0.500000 0.480856
#
# Coordination Sequence:
#
# PCOD8176726 Si02
#       7
#     8   8   8   8   8   8   8
#     4  11  22  42  72  98 137 181 221 284 343 405
#     4  11  24  43  66 102 137 172 235 279 340 417
#     4  10  21  38  66  97 130 181 225 277 346 409
#     4  11  23  44  66  98 135 181 231 276 341 421
#     4  11  21  42  72  95 142 173 228 290 337 411
#     4  10  22  42  63  99 134 177 235 274 341 417
#     4  10  23  42  65 103 136 170 231 278 342 412
#
# _framework density 21.450386000000002
#
# number of rings (size 3 to 8) (size 9 to 14) (size 15 to 20)
#    0.000    1.429    5.714    1.286    4.000    3.429 
#    0.000    0.714    0.000    0.000    0.000    0.000 
#    0.000    0.000    0.000    0.000    0.000    0.000 
#
# Total GULP energy -346988.869775 kJ/mol
# GULP energy per Si atom -12392.459635 kJ/mol
# Density = 2.140156 g / cm^3
# Si number density = 21.450386 Si / 1000 Ang^3
#
#
#
# Elastic Constant Matrix: (Units=GPa)
#
#
# Indices 1 2 3 4 5 6 
#
# 1 186.6881 38.8304 75.0661 0.0000 0.0000 0.0000
# 2 38.8304 59.3504 17.9091 0.0000 0.0000 0.0000
# 3 75.0661 17.9091 126.2344 0.0000 0.0000 0.0000
# 4 0.0000 0.0000 0.0000 26.5452 0.0000 0.0000
# 5 0.0000 0.0000 0.0000 0.0000 42.5013 0.0000
# 6 0.0000 0.0000 0.0000 0.0000 0.0000 31.9234
#
#
#
# Elastic Compliance Matrix: (Units=1/GPa)
#
#
# Indices 1 2 3 4 5 6 
#
# 1 0.007808 -0.003873 -0.004094 0.000000 0.000000 0.000000
# 2 -0.003873 0.019524 -0.000467 0.000000 0.000000 0.000000
# 3 -0.004094 -0.000467 0.010422 0.000000 0.000000 0.000000
# 4 0.000000 0.000000 0.000000 0.037672 0.000000 0.000000
# 5 0.000000 0.000000 0.000000 0.000000 0.023529 0.000000
# 6 0.000000 0.000000 0.000000 0.000000 0.000000 0.031325
#
#
# Mechanical properties :
#
#
# Convention : Reuss Voigt Hill
#
# Bulk Modulus (GPa) = 47.87599 70.65380 59.26489
# Shear Modulus (GPa) = 32.44448 36.22514 34.33481
#
# Velocity S-wave (km/s) = 3.89335 4.11394 4.00517
# Velocity P-wave (km/s) = 6.52524 7.45492 7.00552
#
# Compressibility (1/GPa) = 0.02088730
#
# Stress axis : x y z
#
# Youngs Moduli (GPa) = 128.07049 51.21899 95.94808
#
# Poissons Ratio (x) = 0.19839 0.39278
# Poissons Ratio (y) = 0.49605 0.04477
# Poissons Ratio (z) = 0.52428 0.02390
#
# Static dielectric constant tensor:
#      x y z
#    x 5.104000 0.000000 0.000000 
#    y 0.000000 3.896360 0.000000 
#    z 0.000000 0.000000 3.885840 
# 
# 
# High freq. dielectric constant tensor:
#      x y z
#    x 1.855070 0.000000 0.000000 
#    y 0.000000 1.821140 0.000000 
#    z 0.000000 0.000000 1.835960 
# 
# From -- ./inp_files/11622.got.cif
#   From: 2010.03.12/outbox.cif.g09.slc.cpg/sg37_6_cif.got.tgz:11622.got - 2010.04.14 02:25:27.
