data_PCOD8176655
_publ_section_title
;
Structure prediction by ZEFSAII (Michael W. Deem and Ramdas Pophale) SiO2 
 PCOD8176655
Probable space group: C C C 2
;
_chemical_formula_sum "Si O2"
_cell_formula_units_Z 48
_cell_length_a 9.511969
_cell_length_b 17.641254
_cell_length_c 15.288607
_cell_angle_alpha 90.000000
_cell_angle_beta 90.000000
_cell_angle_gamma 90.000000
_cell_volume 2565.475056
_symmetry_space_group_name_H-M "C C C 2"
_symmetry_group_IT_number 37
_symmetry_cell_setting 'orthorhombic'
loop_
_space_group_symop_operation_xyz
x,y,z
-x,-y,z
-x,y,1/2+z
x,-y,1/2+z
1/2+x,1/2+y,z
1/2-x,1/2-y,z
1/2-x,1/2+y,1/2+z
1/2+x,1/2-y,1/2+z
loop_
_atom_site_type_symbol
_atom_site_label
_atom_site_fract_x
_atom_site_fract_y
_atom_site_fract_z
Si Si1 0.856529 0.040125 0.058920
Si Si2 0.354872 0.956629 0.216618
Si Si3 0.850927 0.031603 0.373251
Si Si4 0.401210 0.716949 0.036841
Si Si5 0.102831 0.208761 0.882652
Si Si6 0.595513 0.219041 0.210006
O O1 0.734348 0.026400 0.129452
O O2 0.889301 0.128185 0.053061
O O3 0.000000 0.000000 0.089956
O O4 0.806755 0.007812 0.964730
O O5 0.267752 0.985050 0.301021
O O6 0.397453 0.869573 0.228315
O O7 0.500000 0.000000 0.209771
O O8 0.870320 0.120208 0.387649
O O9 0.000000 0.000000 0.339392
O O10 0.250000 0.750000 0.012996
O O11 0.479714 0.758504 0.119040
O O12 0.500013 0.737062 0.956773
O O13 0.250000 0.250000 0.893036
O O14 0.029828 0.235073 0.791506
O O15 0.750000 0.250000 0.192047
#
# Coordination Sequence:
#
# PCOD8176655 Si02
#       6
#     8   8   8   8   8   8
#     4  11  22  42  66  97 129 170 222 267 324 389
#     4  12  25  42  66 100 133 174 215 278 326 382
#     4  11  22  42  66  97 129 170 222 267 324 389
#     4  11  21  41  69  92 125 171 215 264 325 388
#     4  11  21  41  69  92 125 171 215 264 325 388
#     4  10  20  42  66  86 127 175 206 250 335 383
#
# _framework density 18.709985
#
# number of rings (size 3 to 8) (size 9 to 14) (size 15 to 20)
#    0.000    1.000   10.000    0.500    0.000    3.333 
#    0.000    0.833    0.000    0.000    0.000    0.000 
#    0.000    0.000    0.000    0.000    0.000    0.000 
#
# Total GULP energy -297528.861732 kJ/mol
# GULP energy per Si atom -12397.035905 kJ/mol
# Density = 1.866740 g / cm^3
# Si number density = 18.709985 Si / 1000 Ang^3
#
#
#
# Elastic Constant Matrix: (Units=GPa)
#
#
# Indices 1 2 3 4 5 6 
#
# 1 82.3575 27.7814 54.4238 0.0000 0.0000 0.0000
# 2 27.7814 93.7144 12.1464 0.0000 0.0000 0.0000
# 3 54.4238 12.1464 158.3101 0.0000 0.0000 0.0000
# 4 0.0000 0.0000 0.0000 33.3576 0.0000 0.0000
# 5 0.0000 0.0000 0.0000 0.0000 42.1822 0.0000
# 6 0.0000 0.0000 0.0000 0.0000 0.0000 23.8093
#
#
#
# Elastic Compliance Matrix: (Units=1/GPa)
#
#
# Indices 1 2 3 4 5 6 
#
# 1 0.017348 -0.004414 -0.005625 0.000000 0.000000 0.000000
# 2 -0.004414 0.011901 0.000604 0.000000 0.000000 0.000000
# 3 -0.005625 0.000604 0.008204 0.000000 0.000000 0.000000
# 4 0.000000 0.000000 0.000000 0.029978 0.000000 0.000000
# 5 0.000000 0.000000 0.000000 0.000000 0.023707 0.000000
# 6 0.000000 0.000000 0.000000 0.000000 0.000000 0.042000
#
#
# Mechanical properties :
#
#
# Convention : Reuss Voigt Hill
#
# Bulk Modulus (GPa) = 53.81051 58.12059 55.96555
# Shear Modulus (GPa) = 31.60491 35.87185 33.73838
#
# Velocity S-wave (km/s) = 4.11445 4.38340 4.25105
# Velocity P-wave (km/s) = 7.16898 7.53328 7.35339
#
# Compressibility (1/GPa) = 0.01858373
#
# Stress axis : x y z
#
# Youngs Moduli (GPa) = 57.64189 84.02756 121.88803
#
# Poissons Ratio (x) = 0.37088 0.68567
# Poissons Ratio (y) = 0.25442 -0.07365
# Poissons Ratio (z) = 0.32426 -0.05078
#
# Static dielectric constant tensor:
#      x y z
#    x 3.157680 0.000000 0.000000 
#    y 0.000000 3.647690 0.000000 
#    z 0.000000 0.000000 4.076980 
# 
# 
# High freq. dielectric constant tensor:
#      x y z
#    x 1.702720 0.000000 0.000000 
#    y 0.000000 1.740550 0.000000 
#    z 0.000000 0.000000 1.748630 
# 
# From -- ./inp_files/10627.got.cif
#   From: 2010.03.12/outbox.cif.g09.slc.cpg/sg37_6_cif.got.tgz:10627.got - 2010.04.14 02:25:27.
