data_PCOD8176318
_publ_section_title
;
Structure prediction by ZEFSAII (Michael W. Deem and Ramdas Pophale) SiO2 
 PCOD8176318
Probable space group: C M C 21
;
_chemical_formula_sum "Si O2"
_cell_formula_units_Z 64
_cell_length_a 15.254545
_cell_length_b 8.887299
_cell_length_c 22.116459
_cell_angle_alpha 90.000000
_cell_angle_beta 90.000000
_cell_angle_gamma 90.000000
_cell_volume 2998.366000
_symmetry_space_group_name_H-M "C M C 21"
_symmetry_group_IT_number 36
_symmetry_cell_setting 'orthorhombic'
loop_
_space_group_symop_operation_xyz
x,y,z
-x,-y,1/2+z
x,-y,1/2+z
-x,y,z
1/2+x,1/2+y,z
1/2-x,1/2-y,1/2+z
1/2+x,1/2-y,1/2+z
1/2-x,1/2+y,z
loop_
_atom_site_type_symbol
_atom_site_label
_atom_site_fract_x
_atom_site_fract_y
_atom_site_fract_z
Si Si1 0.655001 0.944912 0.839460
Si Si2 0.599105 0.450757 0.716249
Si Si3 0.154723 0.802018 0.836623
Si Si4 0.752343 0.656249 0.132837
Si Si5 0.401339 0.549999 0.456843
Si Si6 0.900831 0.294975 0.959615
Si Si7 0.402046 0.203561 0.220892
Si Si8 0.251816 0.906092 0.045892
O O1 0.750140 0.873601 0.836706
O O2 0.607908 0.898470 0.901022
O O3 0.597996 0.881535 0.784540
O O4 0.661708 0.123353 0.836171
O O5 0.500000 0.442023 0.691213
O O6 0.603580 0.355347 0.777464
O O7 0.661366 0.379586 0.665692
O O8 0.626054 0.622894 0.730237
O O9 0.102353 0.856311 0.895249
O O10 0.834262 0.620821 0.176278
O O11 0.756056 0.829378 0.112143
O O12 0.759649 0.578575 0.066720
O O13 0.500000 0.562705 0.483047
O O14 0.375909 0.376836 0.443255
O O15 0.334050 0.620075 0.505003
O O16 0.000000 0.305183 0.983807
O O17 0.838949 0.356570 0.011896
O O18 0.500000 0.191976 0.193700
#
# Coordination Sequence:
#
# PCOD8176318 Si02
#       8
#     8   8   8   8   8   8   8   8
#     4  12  25  42  71 104 138 174 221 277 346 405
#     4  11  25  46  72 101 136 179 225 276 340 405
#     4  12  25  42  71 104 136 176 221 277 344 403
#     4  12  26  45  69  98 134 180 231 278 330 392
#     4  11  25  46  72 101 136 179 225 276 340 405
#     4  11  25  46  71 102 137 177 222 280 341 401
#     4  11  25  46  71 102 137 177 222 280 341 401
#     4  12  26  45  69  98 134 180 231 278 330 392
#
# _framework density 21.34496
#
# number of rings (size 3 to 8) (size 9 to 14) (size 15 to 20)
#    0.000    0.500    5.000    3.000    3.500    6.000 
#    0.000    0.000    0.000    0.000    0.000    0.000 
#    0.000    0.000    0.000    0.000    0.000    0.000 
#
# Total GULP energy -396955.768396 kJ/mol
# GULP energy per Si atom -12404.867762 kJ/mol
# Density = 2.129638 g / cm^3
# Si number density = 21.344960 Si / 1000 Ang^3
#
#
#
# Elastic Constant Matrix: (Units=GPa)
#
#
# Indices 1 2 3 4 5 6 
#
# 1 143.1016 44.3130 50.6174 0.0000 0.0000 0.0000
# 2 44.3130 110.9267 47.7072 0.0000 0.0000 0.0000
# 3 50.6174 47.7072 115.4160 0.0000 0.0000 0.0000
# 4 0.0000 0.0000 0.0000 42.0893 0.0000 0.0000
# 5 0.0000 0.0000 0.0000 0.0000 12.6081 0.0000
# 6 0.0000 0.0000 0.0000 0.0000 0.0000 29.5184
#
#
#
# Elastic Compliance Matrix: (Units=1/GPa)
#
#
# Indices 1 2 3 4 5 6 
#
# 1 0.008703 -0.002232 -0.002894 0.000000 0.000000 0.000000
# 2 -0.002232 0.011536 -0.003790 0.000000 0.000000 0.000000
# 3 -0.002894 -0.003790 0.011500 0.000000 0.000000 0.000000
# 4 0.000000 0.000000 0.000000 0.023759 0.000000 0.000000
# 5 0.000000 0.000000 0.000000 0.000000 0.079314 0.000000
# 6 0.000000 0.000000 0.000000 0.000000 0.000000 0.033877
#
#
# Mechanical properties :
#
#
# Convention : Reuss Voigt Hill
#
# Bulk Modulus (GPa) = 71.90263 72.74663 72.32463
# Shear Modulus (GPa) = 26.15646 31.96360 29.06003
#
# Velocity S-wave (km/s) = 3.50439 3.87392 3.69378
# Velocity P-wave (km/s) = 7.08050 7.35969 7.22145
#
# Compressibility (1/GPa) = 0.01390770
#
# Stress axis : x y z
#
# Youngs Moduli (GPa) = 114.90407 86.68179 86.95560
#
# Poissons Ratio (x) = 0.19346 0.25167
# Poissons Ratio (y) = 0.25645 0.32954
# Poissons Ratio (z) = 0.33256 0.32850
#
# Static dielectric constant tensor:
#      x y z
#    x 3.898570 0.000000 0.000000 
#    y 0.000000 4.014240 0.000000 
#    z 0.000000 0.000000 3.799510 
# 
# 
# High freq. dielectric constant tensor:
#      x y z
#    x 1.847970 0.000000 0.000000 
#    y 0.000000 1.849200 0.000000 
#    z 0.000000 0.000000 1.837430 
# 
# From -- ./inp_files/16967.got.cif
#   From: 2010.03.12/outbox.cif.g09.slc.cpg/sg36_9_cif.got.tgz:16967.got - 2010.04.14 02:13:53.
