data_PCOD8176858
_publ_section_title
;
Structure prediction by ZEFSAII (Michael W. Deem and Ramdas Pophale) SiO2 
 PCOD8176858
Probable space group: C C C 2
;
_chemical_formula_sum "Si O2"
_cell_formula_units_Z 64
_cell_length_a 11.692095
_cell_length_b 29.418780
_cell_length_c 8.483200
_cell_angle_alpha 90.000000
_cell_angle_beta 90.000000
_cell_angle_gamma 90.000000
_cell_volume 2917.942301
_symmetry_space_group_name_H-M "C C C 2"
_symmetry_group_IT_number 37
_symmetry_cell_setting 'orthorhombic'
loop_
_space_group_symop_operation_xyz
x,y,z
-x,-y,z
-x,y,1/2+z
x,-y,1/2+z
1/2+x,1/2+y,z
1/2-x,1/2-y,z
1/2-x,1/2+y,1/2+z
1/2+x,1/2-y,1/2+z
loop_
_atom_site_type_symbol
_atom_site_label
_atom_site_fract_x
_atom_site_fract_y
_atom_site_fract_z
Si Si1 0.489040 0.094009 0.925670
Si Si2 0.694206 0.202438 0.133037
Si Si3 0.970963 0.339887 0.670011
Si Si4 0.254144 0.052965 0.998800
Si Si5 0.087295 0.126614 0.898428
Si Si6 0.845614 0.875202 0.535500
Si Si7 0.287597 0.954424 0.869675
Si Si8 0.758954 0.302602 0.495042
O O1 0.516158 0.144638 0.851269
O O2 0.576181 0.053076 0.891024
O O3 0.503351 0.109307 0.106748
O O4 0.357923 0.077848 0.905918
O O5 0.750000 0.250000 0.086869
O O6 0.556944 0.199923 0.108983
O O7 0.757504 0.166585 0.020332
O O8 0.700165 0.191610 0.317273
O O9 0.843025 0.326037 0.621380
O O10 0.265018 0.051726 0.186066
O O11 0.136819 0.079694 0.967419
O O12 0.246232 0.003175 0.926534
O O13 0.110419 0.124795 0.713392
O O14 0.139710 0.169809 0.994760
O O15 0.951957 0.130755 0.918812
O O16 0.779659 0.919973 0.482132
O O17 0.750000 0.250000 0.544480
#
# Coordination Sequence:
#
# PCOD8176858 Si02
#       8
#     8   8   8   8   8   8   8   8
#     4  12  23  40  68  96 137 171 219 270 341 399
#     4  10  22  40  65  97 134 179 227 278 337 399
#     4  12  21  41  68  97 135 182 218 280 338 397
#     4  12  26  43  67  99 132 172 220 275 336 406
#     4  11  23  44  66  93 132 177 223 276 333 396
#     4  11  24  43  68  93 133 177 223 277 330 399
#     4  12  26  42  67  99 132 172 221 273 337 406
#     4  10  22  41  66  96 135 180 226 279 337 400
#
# _framework density 21.933264999999999
#
# number of rings (size 3 to 8) (size 9 to 14) (size 15 to 20)
#    0.000    0.750    5.000    2.625    3.500    1.500 
#    0.000    3.125    0.000    0.000    0.000    0.000 
#    0.000    0.000    0.000    0.000    0.000    0.000 
#
# Total GULP energy -396558.648498 kJ/mol
# GULP energy per Si atom -12392.457766 kJ/mol
# Density = 2.188334 g / cm^3
# Si number density = 21.933265 Si / 1000 Ang^3
#
#
#
# Elastic Constant Matrix: (Units=GPa)
#
#
# Indices 1 2 3 4 5 6 
#
# 1 93.1285 19.1214 18.8484 0.0000 0.0000 0.0000
# 2 19.1214 120.7425 21.9486 0.0000 0.0000 0.0000
# 3 18.8484 21.9486 63.7904 0.0000 0.0000 0.0000
# 4 0.0000 0.0000 0.0000 32.9804 0.0000 0.0000
# 5 0.0000 0.0000 0.0000 0.0000 34.1007 0.0000
# 6 0.0000 0.0000 0.0000 0.0000 0.0000 31.8758
#
#
#
# Elastic Compliance Matrix: (Units=1/GPa)
#
#
# Indices 1 2 3 4 5 6 
#
# 1 0.011608 -0.001296 -0.002984 0.000000 0.000000 0.000000
# 2 -0.001296 0.008979 -0.002707 0.000000 0.000000 0.000000
# 3 -0.002984 -0.002707 0.017489 0.000000 0.000000 0.000000
# 4 0.000000 0.000000 0.000000 0.030321 0.000000 0.000000
# 5 0.000000 0.000000 0.000000 0.000000 0.029325 0.000000
# 6 0.000000 0.000000 0.000000 0.000000 0.000000 0.031372
#
#
# Mechanical properties :
#
#
# Convention : Reuss Voigt Hill
#
# Bulk Modulus (GPa) = 41.48766 44.16647 42.82707
# Shear Modulus (GPa) = 33.09032 34.30758 33.69895
#
# Velocity S-wave (km/s) = 3.88839 3.95926 3.92399
# Velocity P-wave (km/s) = 6.25427 6.40948 6.33235
#
# Compressibility (1/GPa) = 0.02410355
#
# Stress axis : x y z
#
# Youngs Moduli (GPa) = 86.14858 111.36698 57.17784
#
# Poissons Ratio (x) = 0.14432 0.17062
# Poissons Ratio (y) = 0.11164 0.15476
# Poissons Ratio (z) = 0.25706 0.30143
#
# Static dielectric constant tensor:
#      x y z
#    x 4.012700 0.000000 0.000000 
#    y 0.000000 4.021460 0.000000 
#    z 0.000000 0.000000 3.942160 
# 
# 
# High freq. dielectric constant tensor:
#      x y z
#    x 1.862070 0.000000 0.000000 
#    y 0.000000 1.859220 0.000000 
#    z 0.000000 0.000000 1.873570 
# 
# From -- ./inp_files/3114.got.cif
#   From: 2010.03.12/outbox.cif.g09.slc.cpg/sg37_2_cif.got.tgz:3114.got - 2010.04.14 02:25:27.
