data_PCOD8176622
_publ_section_title
;
Structure prediction by ZEFSAII (Michael W. Deem and Ramdas Pophale) SiO2 
 PCOD8176622
Probable space group: C C C 2
;
_chemical_formula_sum "Si O2"
_cell_formula_units_Z 64
_cell_length_a 25.614299
_cell_length_b 8.823216
_cell_length_c 14.093189
_cell_angle_alpha 90.000000
_cell_angle_beta 90.000000
_cell_angle_gamma 90.000000
_cell_volume 3185.067659
_symmetry_space_group_name_H-M "C C C 2"
_symmetry_group_IT_number 37
_symmetry_cell_setting 'orthorhombic'
loop_
_space_group_symop_operation_xyz
x,y,z
-x,-y,z
-x,y,1/2+z
x,-y,1/2+z
1/2+x,1/2+y,z
1/2-x,1/2-y,z
1/2-x,1/2+y,1/2+z
1/2+x,1/2-y,1/2+z
loop_
_atom_site_type_symbol
_atom_site_label
_atom_site_fract_x
_atom_site_fract_y
_atom_site_fract_z
Si Si1 0.654284 0.565144 0.481920
Si Si2 0.962962 0.132377 0.168758
Si Si3 0.940768 0.735312 0.480043
Si Si4 0.476699 0.842840 0.329315
Si Si5 0.809974 0.229878 0.806068
Si Si6 0.152937 0.058828 0.700483
Si Si7 0.874574 0.498814 0.874453
Si Si8 0.189738 0.227129 0.881902
O O1 0.593366 0.611196 0.461155
O O2 0.690307 0.668807 0.414446
O O3 0.670611 0.591154 0.591716
O O4 0.662591 0.391211 0.453196
O O5 0.991517 0.213277 0.255431
O O6 0.909203 0.063778 0.206256
O O7 0.955028 0.262668 0.090243
O O8 0.000000 0.000000 0.128649
O O9 0.904086 0.591006 0.457984
O O10 0.995347 0.719102 0.424478
O O11 0.500000 0.000000 0.294418
O O12 0.414833 0.876269 0.331610
O O13 0.750000 0.250000 0.776128
O O14 0.846645 0.381113 0.800814
O O15 0.832756 0.110554 0.731635
O O16 0.179097 0.181142 0.771731
O O17 0.829792 0.607042 0.913243
O O18 0.250000 0.250000 0.900113
#
# Coordination Sequence:
#
# PCOD8176622 Si02
#       8
#     8   8   8   8   8   8   8   8
#     4   9  21  40  63  87 125 160 212 251 306 375
#     4  11  24  39  63  94 122 163 213 252 302 376
#     4   9  22  42  59  91 124 166 204 246 317 371
#     4  10  22  37  62  89 124 163 197 253 314 366
#     4  10  21  40  65  89 125 165 206 258 319 370
#     4  10  22  42  61  93 124 162 209 259 304 373
#     4  10  20  39  61  87 127 162 197 260 313 362
#     4  11  22  39  64  95 123 161 216 257 311 370
#
# _framework density 20.093762999999999
#
# number of rings (size 3 to 8) (size 9 to 14) (size 15 to 20)
#    0.000    2.000    1.250    1.500    7.000    5.000 
#    2.250    1.250    0.000    0.000    0.000    0.000 
#    0.000    0.000    0.000    0.000    0.000    0.000 
#
# Total GULP energy -396512.895345 kJ/mol
# GULP energy per Si atom -12391.027980 kJ/mol
# Density = 2.004803 g / cm^3
# Si number density = 20.093763 Si / 1000 Ang^3
#
#
#
# Elastic Constant Matrix: (Units=GPa)
#
#
# Indices 1 2 3 4 5 6 
#
# 1 112.0137 43.9173 31.6978 0.0000 0.0000 0.0000
# 2 43.9173 104.9151 38.8396 0.0000 0.0000 0.0000
# 3 31.6978 38.8396 101.2988 0.0000 0.0000 0.0000
# 4 0.0000 0.0000 0.0000 27.7068 0.0000 0.0000
# 5 0.0000 0.0000 0.0000 0.0000 25.1789 0.0000
# 6 0.0000 0.0000 0.0000 0.0000 0.0000 34.4613
#
#
#
# Elastic Compliance Matrix: (Units=1/GPa)
#
#
# Indices 1 2 3 4 5 6 
#
# 1 0.011003 -0.003882 -0.001954 0.000000 0.000000 0.000000
# 2 -0.003882 0.012478 -0.003569 0.000000 0.000000 0.000000
# 3 -0.001954 -0.003569 0.011852 0.000000 0.000000 0.000000
# 4 0.000000 0.000000 0.000000 0.036092 0.000000 0.000000
# 5 0.000000 0.000000 0.000000 0.000000 0.039716 0.000000
# 6 0.000000 0.000000 0.000000 0.000000 0.000000 0.029018
#
#
# Mechanical properties :
#
#
# Convention : Reuss Voigt Hill
#
# Bulk Modulus (GPa) = 60.53092 60.79302 60.66197
# Shear Modulus (GPa) = 30.39928 31.05425 30.72677
#
# Velocity S-wave (km/s) = 3.89378 3.93551 3.91470
# Velocity P-wave (km/s) = 7.09965 7.13942 7.11956
#
# Compressibility (1/GPa) = 0.01652048
#
# Stress axis : x y z
#
# Youngs Moduli (GPa) = 90.88743 80.14099 84.37437
#
# Poissons Ratio (x) = 0.31112 0.16490
# Poissons Ratio (y) = 0.35284 0.30117
# Poissons Ratio (z) = 0.17763 0.28606
#
# Static dielectric constant tensor:
#      x y z
#    x 3.937520 0.000000 0.000000 
#    y 0.000000 3.773350 0.000000 
#    z 0.000000 0.000000 3.490510 
# 
# 
# High freq. dielectric constant tensor:
#      x y z
#    x 1.792910 0.000000 0.000000 
#    y 0.000000 1.792130 0.000000 
#    z 0.000000 0.000000 1.762130 
# 
# From -- ./inp_files/11014.got.cif
#   From: 2010.03.12/outbox.cif.g09.slc.cpg/sg37_6_cif.got.tgz:11014.got - 2010.04.14 02:25:27.
