data_PCOD8176206
_publ_section_title
;
Structure prediction by ZEFSAII (Michael W. Deem and Ramdas Pophale) SiO2 
 PCOD8176206
Probable space group: C M C 21
;
_chemical_formula_sum "Si O2"
_cell_formula_units_Z 64
_cell_length_a 8.713482
_cell_length_b 18.577799
_cell_length_c 20.783015
_cell_angle_alpha 90.000000
_cell_angle_beta 90.000000
_cell_angle_gamma 90.000000
_cell_volume 3364.298711
_symmetry_space_group_name_H-M "C M C 21"
_symmetry_group_IT_number 36
_symmetry_cell_setting 'orthorhombic'
loop_
_space_group_symop_operation_xyz
x,y,z
-x,-y,1/2+z
x,-y,1/2+z
-x,y,z
1/2+x,1/2+y,z
1/2-x,1/2-y,1/2+z
1/2+x,1/2-y,1/2+z
1/2-x,1/2+y,z
loop_
_atom_site_type_symbol
_atom_site_label
_atom_site_fract_x
_atom_site_fract_y
_atom_site_fract_z
Si Si1 0.167806 0.834315 0.934280
Si Si2 0.167538 0.335643 0.428392
Si Si3 0.817177 0.672339 0.065833
Si Si4 0.820255 0.837300 0.791800
Si Si5 0.178675 0.326748 0.063657
Si Si6 0.682311 0.170342 0.789489
Si Si7 0.820503 0.082772 0.674083
Si Si8 0.179907 0.571522 0.181853
O O1 0.148947 0.749597 0.928152
O O2 0.224633 0.861935 0.864495
O O3 0.000000 0.867409 0.950459
O O4 0.283913 0.854511 0.991502
O O5 0.251271 0.355653 0.496220
O O6 0.246393 0.356168 0.360179
O O7 0.000000 0.372279 0.428637
O O8 0.758753 0.751923 0.082268
O O9 0.763843 0.617582 0.120478
O O10 0.000000 0.677507 0.060924
O O11 0.780688 0.754063 0.778928
O O12 0.713705 0.883942 0.745833
O O13 0.000000 0.851752 0.778840
O O14 0.231156 0.387910 0.112493
O O15 0.000000 0.314365 0.070476
O O16 0.500000 0.156684 0.784353
O O17 0.773459 0.125443 0.737543
O O18 0.000000 0.091696 0.662429
O O19 0.778645 0.000111 0.683362
O O20 0.000000 0.553574 0.177961
#
# Coordination Sequence:
#
# PCOD8176206 Si02
#       8
#     8   8   8   8   8   8   8   8
#     4   8  15  31  54  80 109 139 172 211 260 315
#     4   7  12  27  53  81 107 134 164 206 260 312
#     4   9  18  35  58  83 109 138 173 213 264 321
#     4   9  18  34  58  84 110 141 174 213 264 320
#     4  11  21  34  56  84 110 137 175 220 264 314
#     4   9  17  33  58  84 108 136 173 216 262 315
#     4  12  25  39  53  71 104 147 185 224 270 319
#     4  11  23  37  54  77 107 142 182 227 268 314
#
# _framework density 19.02328
#
# number of rings (size 3 to 8) (size 9 to 14) (size 15 to 20)
#    0.000    2.500    0.000    5.625    0.000    4.000 
#    0.000    6.250    0.000    4.500    0.000    0.000 
#    0.000    0.000    0.000    0.000    0.000    0.000 
#
# Total GULP energy -396562.830452 kJ/mol
# GULP energy per Si atom -12392.588452 kJ/mol
# Density = 1.897998 g / cm^3
# Si number density = 19.023280 Si / 1000 Ang^3
#
#
#
# Elastic Constant Matrix: (Units=GPa)
#
#
# Indices 1 2 3 4 5 6 
#
# 1 46.8975 15.7618 29.0777 0.0000 0.0000 0.0000
# 2 15.7618 62.5230 43.7268 0.0000 0.0000 0.0000
# 3 29.0777 43.7268 149.3264 0.0000 0.0000 0.0000
# 4 0.0000 0.0000 0.0000 -2.8524 0.0000 0.0000
# 5 0.0000 0.0000 0.0000 0.0000 27.2037 0.0000
# 6 0.0000 0.0000 0.0000 0.0000 0.0000 1035.1405
#
#
#
# Elastic Compliance Matrix: (Units=1/GPa)
#
#
# Indices 1 2 3 4 5 6 
#
# 1 0.024889 -0.003628 -0.003784 0.000000 0.000000 0.000000
# 2 -0.003628 0.020642 -0.005338 0.000000 0.000000 0.000000
# 3 -0.003784 -0.005338 0.008997 0.000000 0.000000 0.000000
# 4 0.000000 0.000000 0.000000 -0.350586 0.000000 0.000000
# 5 0.000000 0.000000 0.000000 0.000000 0.036760 0.000000
# 6 0.000000 0.000000 0.000000 0.000000 0.000000 0.000966
#
#
# Mechanical properties :
#
#
# Convention : Reuss Voigt Hill
#
# Bulk Modulus (GPa) = 34.45039 48.43105 41.44072
# Shear Modulus (GPa) = -22.40576 223.24375 100.41900
#
# Velocity S-wave (km/s) = -3.43564 10.84471 7.27338
# Velocity P-wave (km/s) = 1.55265 13.50275 9.61080
#
# Compressibility (1/GPa) = 0.02902725
#
# Stress axis : x y z
#
# Youngs Moduli (GPa) = 40.17902 48.44501 111.15143
#
# Poissons Ratio (x) = 0.17575 0.42061
# Poissons Ratio (y) = 0.14576 0.59334
# Poissons Ratio (z) = 0.15204 0.25860
#
# Static dielectric constant tensor:
#      x y z
#    x 3.263040 0.000000 0.000000 
#    y 0.000000 3.145240 0.000000 
#    z 0.000000 0.000000 4.115200 
# 
# 
# High freq. dielectric constant tensor:
#      x y z
#    x 1.719810 0.000000 0.000000 
#    y 0.000000 1.702540 0.000000 
#    z 0.000000 0.000000 1.767210 
# 
# From -- ./inp_files/15686.got.cif
#   From: 2010.03.12/outbox.cif.g09.slc.cpg/sg36_8_cif.got.tgz:15686.got - 2010.04.14 02:13:53.
