data_PCOD8176983
_publ_section_title
;
Structure prediction by ZEFSAII (Michael W. Deem and Ramdas Pophale) SiO2 
 PCOD8176983
Probable space group: C C C 2
;
_chemical_formula_sum "Si O2"
_cell_formula_units_Z 48
_cell_length_a 17.229099
_cell_length_b 7.809735
_cell_length_c 16.428198
_cell_angle_alpha 90.000000
_cell_angle_beta 90.000000
_cell_angle_gamma 90.000000
_cell_volume 2210.491212
_symmetry_space_group_name_H-M "C C C 2"
_symmetry_group_IT_number 37
_symmetry_cell_setting 'orthorhombic'
loop_
_space_group_symop_operation_xyz
x,y,z
-x,-y,z
-x,y,1/2+z
x,-y,1/2+z
1/2+x,1/2+y,z
1/2-x,1/2-y,z
1/2-x,1/2+y,1/2+z
1/2+x,1/2-y,1/2+z
loop_
_atom_site_type_symbol
_atom_site_label
_atom_site_fract_x
_atom_site_fract_y
_atom_site_fract_z
Si Si1 0.500000 0.500000 0.517530
Si Si2 0.261573 0.049595 0.748855
Si Si3 0.929592 0.605615 0.237695
Si Si4 0.750000 0.750000 0.026195
Si Si5 0.278336 0.926358 0.925152
Si Si6 0.631369 0.388616 0.633952
Si Si7 0.547263 0.155734 0.924066
O O1 0.576505 0.497283 0.574294
O O2 0.484644 0.334316 0.460702
O O3 0.250000 0.250000 0.765707
O O4 0.350927 0.006101 0.726661
O O5 0.248038 0.944577 0.832217
O O6 0.198857 0.997231 0.680095
O O7 0.922823 0.790725 0.196959
O O8 0.958611 0.659915 0.326889
O O9 0.000000 0.500000 0.196314
O O10 0.673606 0.758329 0.081458
O O11 0.740845 0.582043 0.972656
O O12 0.250000 0.750000 0.962828
O O13 0.367853 0.910970 0.942951
O O14 0.500000 0.000000 0.963065
#
# Coordination Sequence:
#
# PCOD8176983 Si02
#       7
#     4   8   8   4   8   8   8
#     4  12  28  44  68 110 140 192 232 294 370 424
#     4  11  23  45  71 103 142 190 247 292 354 433
#     4  10  23  46  73 102 136 188 234 301 355 424
#     4  12  24  44  68 104 144 184 232 302 360 420
#     4  11  23  43  74 102 137 190 242 292 352 431
#     4  12  26  44  66 104 150 180 234 301 360 427
#     4  10  23  47  71  98 138 181 242 293 348 425
#
# _framework density 21.714632000000002
#
# number of rings (size 3 to 8) (size 9 to 14) (size 15 to 20)
#    0.000    1.000    2.500    4.000    2.333    4.667 
#    9.000    0.000    0.000    0.000    0.000    0.000 
#    0.000    0.000    0.000    0.000    0.000    0.000 
#
# Total GULP energy -297349.659302 kJ/mol
# GULP energy per Si atom -12389.569138 kJ/mol
# Density = 2.166521 g / cm^3
# Si number density = 21.714632 Si / 1000 Ang^3
#
#
#
# Elastic Constant Matrix: (Units=GPa)
#
#
# Indices 1 2 3 4 5 6 
#
# 1 123.9051 52.2193 59.5638 0.0000 0.0000 0.0000
# 2 52.2193 169.5570 55.6587 0.0000 0.0000 0.0000
# 3 59.5638 55.6587 78.5685 0.0000 0.0000 0.0000
# 4 0.0000 0.0000 0.0000 21.5411 0.0000 0.0000
# 5 0.0000 0.0000 0.0000 0.0000 392.9664 0.0000
# 6 0.0000 0.0000 0.0000 0.0000 0.0000 41.7142
#
#
#
# Elastic Compliance Matrix: (Units=1/GPa)
#
#
# Indices 1 2 3 4 5 6 
#
# 1 0.012824 -0.000988 -0.009022 0.000000 0.000000 0.000000
# 2 -0.000988 0.007761 -0.004749 0.000000 0.000000 0.000000
# 3 -0.009022 -0.004749 0.022932 0.000000 0.000000 0.000000
# 4 0.000000 0.000000 0.000000 0.046423 0.000000 0.000000
# 5 0.000000 0.000000 0.000000 0.000000 0.002545 0.000000
# 6 0.000000 0.000000 0.000000 0.000000 0.000000 0.023973
#
#
# Mechanical properties :
#
#
# Convention : Reuss Voigt Hill
#
# Bulk Modulus (GPa) = 71.43568 78.54601 74.99084
# Shear Modulus (GPa) = 33.19120 104.88358 69.03739
#
# Velocity S-wave (km/s) = 3.91387 6.95742 5.64465
# Velocity P-wave (km/s) = 7.30708 10.03949 8.78023
#
# Compressibility (1/GPa) = 0.01399861
#
# Stress axis : x y z
#
# Youngs Moduli (GPa) = 77.97682 128.85195 43.60717
#
# Poissons Ratio (x) = 0.12729 0.39344
# Poissons Ratio (y) = 0.07703 0.20709
# Poissons Ratio (z) = 0.70354 0.61191
#
# Static dielectric constant tensor:
#      x y z
#    x 2.379030 0.000000 0.000000 
#    y 0.000000 3.936660 0.000000 
#    z 0.000000 0.000000 4.028910 
# 
# 
# High freq. dielectric constant tensor:
#      x y z
#    x 1.866630 0.000000 0.000000 
#    y 0.000000 1.857750 0.000000 
#    z 0.000000 0.000000 1.854870 
# 
# From -- ./inp_files/12574.got.cif
#   From: 2010.03.12/outbox.cif.g09.slc.cpg/sg37_7_cif.got.tgz:12574.got - 2010.04.14 02:25:27.
