data_PCOD8176710
_publ_section_title
;
Structure prediction by ZEFSAII (Michael W. Deem and Ramdas Pophale) SiO2 
 PCOD8176710
Probable space group: C C C 2
;
_chemical_formula_sum "Si O2"
_cell_formula_units_Z 52
_cell_length_a 29.515449
_cell_length_b 7.244289
_cell_length_c 11.791465
_cell_angle_alpha 90.000000
_cell_angle_beta 90.000000
_cell_angle_gamma 90.000000
_cell_volume 2521.232681
_symmetry_space_group_name_H-M "C C C 2"
_symmetry_group_IT_number 37
_symmetry_cell_setting 'orthorhombic'
loop_
_space_group_symop_operation_xyz
x,y,z
-x,-y,z
-x,y,1/2+z
x,-y,1/2+z
1/2+x,1/2+y,z
1/2-x,1/2-y,z
1/2-x,1/2+y,1/2+z
1/2+x,1/2-y,1/2+z
loop_
_atom_site_type_symbol
_atom_site_label
_atom_site_fract_x
_atom_site_fract_y
_atom_site_fract_z
Si Si1 0.801720 0.771166 0.982950
Si Si2 0.472272 0.181204 0.886777
Si Si3 0.127805 0.664326 0.310589
Si Si4 0.427948 0.585912 0.562357
Si Si5 0.638759 0.454929 0.882198
Si Si6 0.353246 0.817264 0.687205
Si Si7 0.000000 0.000000 0.231526
O O1 0.750000 0.750000 0.945719
O O2 0.835195 0.633199 0.912347
O O3 0.816744 0.983165 0.954309
O O4 0.807152 0.724231 0.117269
O O5 0.423080 0.112978 0.845194
O O6 0.501132 0.310347 0.801848
O O7 0.500000 0.000000 0.914331
O O8 0.467250 0.297626 0.001359
O O9 0.128880 0.886000 0.285243
O O10 0.141333 0.538160 0.203151
O O11 0.403653 0.449110 0.470753
O O12 0.392959 0.733906 0.611517
O O13 0.453409 0.476870 0.661017
O O14 0.646973 0.265893 0.815245
#
# Coordination Sequence:
#
# PCOD8176710 Si02
#       7
#     8   8   8   8   8   8   4
#     4   9  21  42  61  91 125 147 204 261 296 377
#     4  11  23  41  57  89 127 164 207 255 302 367
#     4   9  21  40  59  88 125 153 203 255 297 363
#     4  10  21  38  57  89 120 159 208 253 294 359
#     4   8  20  40  60  86 122 154 197 250 306 359
#     4  11  19  40  66  83 120 168 193 247 323 356
#     4  12  24  38  62  88 124 168 214 250 304 364
#
# _framework density 20.624832000000001
#
# number of rings (size 3 to 8) (size 9 to 14) (size 15 to 20)
#    0.923    1.231    1.538    3.231    0.000    4.308 
#    8.308    1.538    0.000    0.000    0.000    0.000 
#    0.000    0.000    0.000    0.000    0.000    0.000 
#
# Total GULP energy -322093.796613 kJ/mol
# GULP energy per Si atom -12388.222947 kJ/mol
# Density = 2.057789 g / cm^3
# Si number density = 20.624832 Si / 1000 Ang^3
#
#
#
# Elastic Constant Matrix: (Units=GPa)
#
#
# Indices 1 2 3 4 5 6 
#
# 1 106.2919 8.4231 15.3360 0.0000 0.0000 0.0000
# 2 8.4231 41.7236 12.2897 0.0000 0.0000 0.0000
# 3 15.3360 12.2897 69.7228 0.0000 0.0000 0.0000
# 4 0.0000 0.0000 0.0000 25.0512 0.0000 0.0000
# 5 0.0000 0.0000 0.0000 0.0000 25.0754 0.0000
# 6 0.0000 0.0000 0.0000 0.0000 0.0000 13.5693
#
#
#
# Elastic Compliance Matrix: (Units=1/GPa)
#
#
# Indices 1 2 3 4 5 6 
#
# 1 0.009795 -0.001416 -0.001905 0.000000 0.000000 0.000000
# 2 -0.001416 0.025485 -0.004180 0.000000 0.000000 0.000000
# 3 -0.001905 -0.004180 0.015498 0.000000 0.000000 0.000000
# 4 0.000000 0.000000 0.000000 0.039918 0.000000 0.000000
# 5 0.000000 0.000000 0.000000 0.000000 0.039880 0.000000
# 6 0.000000 0.000000 0.000000 0.000000 0.000000 0.073696
#
#
# Mechanical properties :
#
#
# Convention : Reuss Voigt Hill
#
# Bulk Modulus (GPa) = 27.95274 32.20397 30.07836
# Shear Modulus (GPa) = 21.62628 24.85180 23.23904
#
# Velocity S-wave (km/s) = 3.24165 3.47500 3.36035
# Velocity P-wave (km/s) = 5.25295 5.63462 5.44713
#
# Compressibility (1/GPa) = 0.03577466
#
# Stress axis : x y z
#
# Youngs Moduli (GPa) = 102.09151 39.23950 64.52289
#
# Poissons Ratio (x) = 0.05558 0.12291
# Poissons Ratio (y) = 0.14460 0.26974
# Poissons Ratio (z) = 0.19447 0.16404
#
# Static dielectric constant tensor:
#      x y z
#    x 3.603460 0.000000 0.000000 
#    y 0.000000 3.383050 0.000000 
#    z 0.000000 0.000000 3.750900 
# 
# 
# High freq. dielectric constant tensor:
#      x y z
#    x 1.798190 0.000000 0.000000 
#    y 0.000000 1.780640 0.000000 
#    z 0.000000 0.000000 1.801640 
# 
# From -- ./inp_files/9180.got.cif
#   From: 2010.03.12/outbox.cif.g09.slc.cpg/sg37_5_cif.got.tgz:9180.got - 2010.04.14 02:25:27.
