data_PCOD8176800
_publ_section_title
;
Structure prediction by ZEFSAII (Michael W. Deem and Ramdas Pophale) SiO2 
 PCOD8176800
Probable space group: C C C 2
;
_chemical_formula_sum "Si O2"
_cell_formula_units_Z 64
_cell_length_a 8.161013
_cell_length_b 23.898382
_cell_length_c 15.042124
_cell_angle_alpha 90.000000
_cell_angle_beta 90.000000
_cell_angle_gamma 90.000000
_cell_volume 2933.740747
_symmetry_space_group_name_H-M "C C C 2"
_symmetry_group_IT_number 37
_symmetry_cell_setting 'orthorhombic'
loop_
_space_group_symop_operation_xyz
x,y,z
-x,-y,z
-x,y,1/2+z
x,-y,1/2+z
1/2+x,1/2+y,z
1/2-x,1/2-y,z
1/2-x,1/2+y,1/2+z
1/2+x,1/2-y,1/2+z
loop_
_atom_site_type_symbol
_atom_site_label
_atom_site_fract_x
_atom_site_fract_y
_atom_site_fract_z
Si Si1 0.170672 0.304608 0.375000
Si Si2 0.422867 0.221770 0.743176
Si Si3 0.649020 0.101993 0.018035
Si Si4 0.610481 0.675745 0.204043
Si Si5 0.309360 0.506849 0.449614
Si Si6 0.298828 0.088103 0.096670
Si Si7 0.192639 0.997801 0.240528
Si Si8 0.225539 0.876422 0.187334
O O1 0.250000 0.250000 0.423380
O O2 0.138549 0.357496 0.435147
O O3 0.274940 0.325072 0.290178
O O4 0.994398 0.283719 0.341841
O O5 0.250000 0.250000 0.750317
O O6 0.550586 0.259804 0.683383
O O7 0.388723 0.159925 0.707224
O O8 0.487029 0.101982 0.078776
O O9 0.795042 0.125991 0.080259
O O10 0.693035 0.039514 0.991725
O O11 0.702184 0.645905 0.121482
O O12 0.444703 0.642401 0.232166
O O13 0.500000 0.500000 0.468121
O O14 0.266092 0.564183 0.501650
O O15 0.269930 0.501399 0.345417
O O16 0.277100 0.046541 0.181757
O O17 0.270480 0.939479 0.211727
O O18 0.000000 0.000000 0.220344
#
# Coordination Sequence:
#
# PCOD8176800 Si02
#       8
#     8   8   8   8   8   8   8   8
#     4  10  23  45  69  98 136 179 234 293 356 426
#     4   9  21  42  68 100 131 180 241 286 357 428
#     4  12  26  42  63 102 144 175 228 296 352 422
#     4  10  21  43  72  92 133 183 229 297 353 425
#     4  11  25  43  66 100 138 182 237 285 352 430
#     4  12  23  44  65 104 143 182 232 291 359 425
#     4  11  23  42  70  98 141 192 236 283 357 427
#     4  11  22  40  67  95 133 182 235 283 351 424
#
# _framework density 21.815152000000001
#
# number of rings (size 3 to 8) (size 9 to 14) (size 15 to 20)
#    0.000    1.250    2.500    3.000    3.500    1.500 
#    2.250    2.500    0.000    0.000    0.000    0.000 
#    0.000    0.000    0.000    0.000    0.000    0.000 
#
# Total GULP energy -396422.788704 kJ/mol
# GULP energy per Si atom -12388.212147 kJ/mol
# Density = 2.176550 g / cm^3
# Si number density = 21.815152 Si / 1000 Ang^3
#
#
#
# Elastic Constant Matrix: (Units=GPa)
#
#
# Indices 1 2 3 4 5 6 
#
# 1 94.3992 56.2264 50.8938 0.0000 0.0000 0.0000
# 2 56.2264 132.8767 39.9982 0.0000 0.0000 0.0000
# 3 50.8938 39.9982 100.5497 0.0000 0.0000 0.0000
# 4 0.0000 0.0000 0.0000 18.5365 0.0000 0.0000
# 5 0.0000 0.0000 0.0000 0.0000 28.6651 0.0000
# 6 0.0000 0.0000 0.0000 0.0000 0.0000 12.6100
#
#
#
# Elastic Compliance Matrix: (Units=1/GPa)
#
#
# Indices 1 2 3 4 5 6 
#
# 1 0.017370 -0.005343 -0.006666 0.000000 0.000000 0.000000
# 2 -0.005343 0.010193 -0.001350 0.000000 0.000000 0.000000
# 3 -0.006666 -0.001350 0.013857 0.000000 0.000000 0.000000
# 4 0.000000 0.000000 0.000000 0.053948 0.000000 0.000000
# 5 0.000000 0.000000 0.000000 0.000000 0.034886 0.000000
# 6 0.000000 0.000000 0.000000 0.000000 0.000000 0.079302
#
#
# Mechanical properties :
#
#
# Convention : Reuss Voigt Hill
#
# Bulk Modulus (GPa) = 68.02737 69.11803 68.57270
# Shear Modulus (GPa) = 20.73182 24.00947 22.37064
#
# Velocity S-wave (km/s) = 3.08610 3.32111 3.20576
# Velocity P-wave (km/s) = 6.62948 6.81606 6.72341
#
# Compressibility (1/GPa) = 0.01469997
#
# Stress axis : x y z
#
# Youngs Moduli (GPa) = 57.57045 98.10406 72.16733
#
# Poissons Ratio (x) = 0.52421 0.48109
# Poissons Ratio (y) = 0.30762 0.09744
# Poissons Ratio (z) = 0.38379 0.13246
#
# Static dielectric constant tensor:
#      x y z
#    x 4.214210 0.000000 0.000000 
#    y 0.000000 4.500450 0.000000 
#    z 0.000000 0.000000 3.954000 
# 
# 
# High freq. dielectric constant tensor:
#      x y z
#    x 1.870310 0.000000 0.000000 
#    y 0.000000 1.872500 0.000000 
#    z 0.000000 0.000000 1.840150 
# 
# From -- ./inp_files/10978.got.cif
#   From: 2010.03.12/outbox.cif.g09.slc.cpg/sg37_6_cif.got.tgz:10978.got - 2010.04.14 02:25:27.
