data_PCOD8176252
_publ_section_title
;
Structure prediction by ZEFSAII (Michael W. Deem and Ramdas Pophale) SiO2 
 PCOD8176252
Probable space group: C M C 21
;
_chemical_formula_sum "Si O2"
_cell_formula_units_Z 48
_cell_length_a 16.634787
_cell_length_b 11.510260
_cell_length_c 11.214766
_cell_angle_alpha 90.000000
_cell_angle_beta 90.000000
_cell_angle_gamma 90.000000
_cell_volume 2147.299359
_symmetry_space_group_name_H-M "C M C 21"
_symmetry_group_IT_number 36
_symmetry_cell_setting 'orthorhombic'
loop_
_space_group_symop_operation_xyz
x,y,z
-x,-y,1/2+z
x,-y,1/2+z
-x,y,z
1/2+x,1/2+y,z
1/2-x,1/2-y,1/2+z
1/2+x,1/2-y,1/2+z
1/2-x,1/2+y,z
loop_
_atom_site_type_symbol
_atom_site_label
_atom_site_fract_x
_atom_site_fract_y
_atom_site_fract_z
Si Si1 0.831757 0.023080 0.489280
Si Si2 0.410147 0.289520 0.131551
Si Si3 0.791951 0.810387 0.793393
Si Si4 0.817501 0.433382 0.609531
Si Si5 0.407416 0.159587 0.627616
Si Si6 0.136362 0.216392 0.895365
O O1 0.868085 0.086135 0.606357
O O2 0.845007 0.115264 0.383932
O O3 0.737706 0.991702 0.507384
O O4 0.881095 0.907325 0.457928
O O5 0.500000 0.289686 0.080310
O O6 0.361318 0.185041 0.066570
O O7 0.413182 0.269947 0.273666
O O8 0.740750 0.902921 0.718517
O O9 0.850372 0.739082 0.708039
O O10 0.731448 0.726507 0.865999
O O11 0.884949 0.525308 0.650146
O O12 0.500000 0.179058 0.663451
O O13 0.393305 0.186510 0.487983
#
# Coordination Sequence:
#
# PCOD8176252 Si02
#       6
#     8   8   8   8   8   8
#     4  12  22  43  70 100 130 183 238 275 337 423
#     4  11  26  44  67 101 141 179 225 291 356 404
#     4  11  23  43  72  99 136 180 240 275 342 423
#     4  11  22  45  69  98 129 185 229 277 338 422
#     4  12  25  44  71 108 140 173 231 301 352 399
#     4  11  24  43  71  98 138 188 231 275 347 427
#
# _framework density 22.353659
#
# number of rings (size 3 to 8) (size 9 to 14) (size 15 to 20)
#    0.000    0.667    3.333    6.000    0.000    2.000 
#    0.000    0.000    0.000    0.000    0.000    0.000 
#    0.000    0.000    0.000    0.000    0.000    0.000 
#
# Total GULP energy -297667.017434 kJ/mol
# GULP energy per Si atom -12402.792393 kJ/mol
# Density = 2.230278 g / cm^3
# Si number density = 22.353659 Si / 1000 Ang^3
#
#
#
# Elastic Constant Matrix: (Units=GPa)
#
#
# Indices 1 2 3 4 5 6 
#
# 1 130.9261 45.9254 29.1548 0.0000 0.0000 0.0000
# 2 45.9254 135.0077 43.9872 0.0000 0.0000 0.0000
# 3 29.1548 43.9872 48.6408 0.0000 0.0000 0.0000
# 4 0.0000 0.0000 0.0000 33.3422 0.0000 0.0000
# 5 0.0000 0.0000 0.0000 0.0000 21.5505 0.0000
# 6 0.0000 0.0000 0.0000 0.0000 0.0000 27.8718
#
#
#
# Elastic Compliance Matrix: (Units=1/GPa)
#
#
# Indices 1 2 3 4 5 6 
#
# 1 0.009138 -0.001877 -0.003780 0.000000 0.000000 0.000000
# 2 -0.001877 0.010887 -0.008720 0.000000 0.000000 0.000000
# 3 -0.003780 -0.008720 0.030710 0.000000 0.000000 0.000000
# 4 0.000000 0.000000 0.000000 0.029992 0.000000 0.000000
# 5 0.000000 0.000000 0.000000 0.000000 0.046403 0.000000
# 6 0.000000 0.000000 0.000000 0.000000 0.000000 0.035878
#
#
# Mechanical properties :
#
#
# Convention : Reuss Voigt Hill
#
# Bulk Modulus (GPa) = 45.49346 61.41215 53.45281
# Shear Modulus (GPa) = 25.11447 29.58672 27.35060
#
# Velocity S-wave (km/s) = 3.35551 3.64204 3.50171
# Velocity P-wave (km/s) = 5.95050 6.72448 6.34929
#
# Compressibility (1/GPa) = 0.02198118
#
# Stress axis : x y z
#
# Youngs Moduli (GPa) = 109.43340 91.85669 32.56252
#
# Poissons Ratio (x) = 0.17241 0.12308
# Poissons Ratio (y) = 0.20540 0.28394
# Poissons Ratio (z) = 0.41364 0.80099
#
# Static dielectric constant tensor:
#      x y z
#    x 3.854840 0.000000 0.000000 
#    y 0.000000 4.150060 0.000000 
#    z 0.000000 0.000000 3.924710 
# 
# 
# High freq. dielectric constant tensor:
#      x y z
#    x 1.865930 0.000000 0.000000 
#    y 0.000000 1.893840 0.000000 
#    z 0.000000 0.000000 1.876800 
# 
# From -- ./inp_files/8873.got.cif
#   From: 2010.03.12/outbox.cif.g09.slc.cpg/sg36_5_cif.got.tgz:8873.got - 2010.04.14 02:13:53.
