data_PCOD8176061
_publ_section_title
;
Structure prediction by ZEFSAII (Michael W. Deem and Ramdas Pophale) SiO2 
 PCOD8176061
Probable space group: C M C 21
;
_chemical_formula_sum "Si O2"
_cell_formula_units_Z 64
_cell_length_a 14.410548
_cell_length_b 9.263670
_cell_length_c 22.641713
_cell_angle_alpha 90.000000
_cell_angle_beta 90.000000
_cell_angle_gamma 90.000000
_cell_volume 3022.545542
_symmetry_space_group_name_H-M "C M C 21"
_symmetry_group_IT_number 36
_symmetry_cell_setting 'orthorhombic'
loop_
_space_group_symop_operation_xyz
x,y,z
-x,-y,1/2+z
x,-y,1/2+z
-x,y,z
1/2+x,1/2+y,z
1/2-x,1/2-y,1/2+z
1/2+x,1/2-y,1/2+z
1/2-x,1/2+y,z
loop_
_atom_site_type_symbol
_atom_site_label
_atom_site_fract_x
_atom_site_fract_y
_atom_site_fract_z
Si Si1 0.609162 0.547149 0.134720
Si Si2 0.608487 0.546308 0.365927
Si Si3 0.891757 0.712160 0.370834
Si Si4 0.246095 0.600546 0.463427
Si Si5 0.891601 0.711961 0.144458
Si Si6 0.257125 0.850669 0.545956
Si Si7 0.889657 0.540582 0.258169
Si Si8 0.610221 0.284781 0.750390
O O1 0.500000 0.568767 0.124091
O O2 0.633448 0.380486 0.146463
O O3 0.659899 0.607336 0.076616
O O4 0.645867 0.636908 0.191215
O O5 0.500000 0.575132 0.377557
O O6 0.629529 0.378075 0.355919
O O7 0.662941 0.607582 0.422382
O O8 0.645226 0.628867 0.307851
O O9 0.843223 0.662755 0.430593
O O10 0.852035 0.613082 0.318059
O O11 0.000000 0.686816 0.380470
O O12 0.259081 0.685676 0.524754
O O13 0.226945 0.438567 0.485338
O O14 0.841231 0.628501 0.091407
O O15 0.854539 0.639138 0.204411
O O16 0.000000 0.685744 0.135593
O O17 0.850407 0.378231 0.252375
O O18 0.000000 0.539212 0.259288
O O19 0.500000 0.285175 0.750086
#
# Coordination Sequence:
#
# PCOD8176061 Si02
#       8
#     8   8   8   8   8   8   8   8
#     4  10  22  42  67  90 122 165 204 248 307 370
#     4  10  22  42  67  90 122 165 204 248 307 370
#     4  10  22  42  66  91 123 163 202 251 310 365
#     4  12  26  43  61  90 126 162 211 258 296 359
#     4  10  22  42  66  91 123 163 202 251 310 365
#     4  12  26  43  61  90 126 162 211 258 296 359
#     4   9  19  36  63  98 126 150 198 258 311 363
#     4   9  19  36  63  98 124 152 200 254 309 367
#
# _framework density 21.174206000000002
#
# number of rings (size 3 to 8) (size 9 to 14) (size 15 to 20)
#    0.000    1.750    2.500    0.750    3.500    6.000 
#    0.000    0.000    0.000    0.000    0.000    0.000 
#    0.000    0.000    0.000    0.000    0.000    0.000 
#
# Total GULP energy -396928.337999 kJ/mol
# GULP energy per Si atom -12404.010562 kJ/mol
# Density = 2.112601 g / cm^3
# Si number density = 21.174206 Si / 1000 Ang^3
#
#
#
# Elastic Constant Matrix: (Units=GPa)
#
#
# Indices 1 2 3 4 5 6 
#
# 1 56.7772 42.2022 37.9373 0.0000 0.0000 0.0000
# 2 42.2022 118.3327 57.4159 0.0000 0.0000 0.0000
# 3 37.9373 57.4159 125.9441 0.0000 0.0000 0.0000
# 4 0.0000 0.0000 0.0000 53.0576 0.0000 0.0000
# 5 0.0000 0.0000 0.0000 0.0000 34.2639 0.0000
# 6 0.0000 0.0000 0.0000 0.0000 0.0000 23.7221
#
#
#
# Elastic Compliance Matrix: (Units=1/GPa)
#
#
# Indices 1 2 3 4 5 6 
#
# 1 0.025895 -0.006998 -0.004610 0.000000 0.000000 0.000000
# 2 -0.006998 0.012742 -0.003701 0.000000 0.000000 0.000000
# 3 -0.004610 -0.003701 0.011016 0.000000 0.000000 0.000000
# 4 0.000000 0.000000 0.000000 0.018847 0.000000 0.000000
# 5 0.000000 0.000000 0.000000 0.000000 0.029185 0.000000
# 6 0.000000 0.000000 0.000000 0.000000 0.000000 0.042155
#
#
# Mechanical properties :
#
#
# Convention : Reuss Voigt Hill
#
# Bulk Modulus (GPa) = 52.53536 64.01832 58.27684
# Shear Modulus (GPa) = 28.28002 33.10863 30.69432
#
# Velocity S-wave (km/s) = 3.65853 3.95857 3.81150
# Velocity P-wave (km/s) = 6.53539 7.15496 6.85218
#
# Compressibility (1/GPa) = 0.01903480
#
# Stress axis : x y z
#
# Youngs Moduli (GPa) = 38.61796 78.47800 90.77904
#
# Poissons Ratio (x) = 0.54923 0.41845
# Poissons Ratio (y) = 0.27027 0.33597
# Poissons Ratio (z) = 0.17801 0.29044
#
# Static dielectric constant tensor:
#      x y z
#    x 3.575170 0.000000 0.000000 
#    y 0.000000 3.989230 0.000000 
#    z 0.000000 0.000000 3.833050 
# 
# 
# High freq. dielectric constant tensor:
#      x y z
#    x 1.822390 0.000000 0.000000 
#    y 0.000000 1.840760 0.000000 
#    z 0.000000 0.000000 1.835930 
# 
# From -- ./inp_files/16966.got.cif
#   From: 2010.03.12/outbox.cif.g09.slc.cpg/sg36_9_cif.got.tgz:16966.got - 2010.04.14 02:13:53.
