data_PCOD8176248
_publ_section_title
;
Structure prediction by ZEFSAII (Michael W. Deem and Ramdas Pophale) SiO2 
 PCOD8176248
Probable space group: C M C 21
;
_chemical_formula_sum "Si O2"
_cell_formula_units_Z 64
_cell_length_a 26.314582
_cell_length_b 9.537652
_cell_length_c 11.286785
_cell_angle_alpha 90.000000
_cell_angle_beta 90.000000
_cell_angle_gamma 90.000000
_cell_volume 2832.749688
_symmetry_space_group_name_H-M "C M C 21"
_symmetry_group_IT_number 36
_symmetry_cell_setting 'orthorhombic'
loop_
_space_group_symop_operation_xyz
x,y,z
-x,-y,1/2+z
x,-y,1/2+z
-x,y,z
1/2+x,1/2+y,z
1/2-x,1/2-y,1/2+z
1/2+x,1/2-y,1/2+z
1/2-x,1/2+y,z
loop_
_atom_site_type_symbol
_atom_site_label
_atom_site_fract_x
_atom_site_fract_y
_atom_site_fract_z
Si Si1 0.612752 0.437855 0.364990
Si Si2 0.731667 0.851936 0.983854
Si Si3 0.897198 0.702080 0.172498
Si Si4 0.202914 0.906741 0.774639
Si Si5 0.941201 0.786325 0.923894
Si Si6 0.865080 0.230345 0.077096
Si Si7 0.442374 0.087779 0.710038
Si Si8 0.714211 0.878608 0.608563
O O1 0.595213 0.323322 0.269434
O O2 0.672060 0.471242 0.340515
O O3 0.578340 0.576890 0.352987
O O4 0.606466 0.390558 0.502396
O O5 0.767318 0.814039 0.872393
O O6 0.675357 0.786383 0.980119
O O7 0.763010 0.776572 0.089954
O O8 0.719873 0.018622 0.995303
O O9 0.934901 0.579135 0.213206
O O10 0.841041 0.635260 0.165902
O O11 0.909750 0.764130 0.043711
O O12 0.162199 0.820022 0.696901
O O13 0.248954 0.966540 0.696731
O O14 0.931786 0.652471 0.839611
O O15 0.000000 0.805234 0.955907
O O16 0.905591 0.348523 0.110405
O O17 0.500000 0.120961 0.671490
#
# Coordination Sequence:
#
# PCOD8176248 Si02
#       8
#     8   8   8   8   8   8   8   8
#     4  12  25  46  75 107 150 191 255 310 370 454
#     4  11  23  40  63  97 141 189 244 287 362 436
#     4  12  26  47  75 110 149 194 251 317 382 454
#     4  11  22  42  67 102 145 192 237 299 361 437
#     4  11  27  49  75 107 145 194 251 318 383 448
#     4  11  24  45  69 109 145 192 247 309 374 445
#     4  11  26  50  76 104 147 197 251 317 388 451
#     4  11  24  39  65  98 141 187 245 297 360 439
#
# _framework density 22.592887999999999
#
# number of rings (size 3 to 8) (size 9 to 14) (size 15 to 20)
#    0.000    0.750    2.500    4.875    1.750    5.500 
#    0.000    0.000    0.000    0.000    0.000    0.000 
#    0.000    0.000    0.000    0.000    0.000    0.000 
#
# Total GULP energy -396631.665469 kJ/mol
# GULP energy per Si atom -12394.739546 kJ/mol
# Density = 2.254147 g / cm^3
# Si number density = 22.592888 Si / 1000 Ang^3
#
#
#
# Elastic Constant Matrix: (Units=GPa)
#
#
# Indices 1 2 3 4 5 6 
#
# 1 96.9778 32.0771 34.0018 0.0000 0.0000 0.0000
# 2 32.0771 123.0025 49.4997 0.0000 0.0000 0.0000
# 3 34.0018 49.4997 97.8625 0.0000 0.0000 0.0000
# 4 0.0000 0.0000 0.0000 40.3312 0.0000 0.0000
# 5 0.0000 0.0000 0.0000 0.0000 29.5101 0.0000
# 6 0.0000 0.0000 0.0000 0.0000 0.0000 26.5037
#
#
#
# Elastic Compliance Matrix: (Units=1/GPa)
#
#
# Indices 1 2 3 4 5 6 
#
# 1 0.012062 -0.001832 -0.003264 0.000000 0.000000 0.000000
# 2 -0.001832 0.010486 -0.004667 0.000000 0.000000 0.000000
# 3 -0.003264 -0.004667 0.013713 0.000000 0.000000 0.000000
# 4 0.000000 0.000000 0.000000 0.024795 0.000000 0.000000
# 5 0.000000 0.000000 0.000000 0.000000 0.033887 0.000000
# 6 0.000000 0.000000 0.000000 0.000000 0.000000 0.037731
#
#
# Mechanical properties :
#
#
# Convention : Reuss Voigt Hill
#
# Bulk Modulus (GPa) = 59.75795 60.99997 60.37896
# Shear Modulus (GPa) = 31.68996 32.75329 32.22162
#
# Velocity S-wave (km/s) = 3.74926 3.81165 3.78058
# Velocity P-wave (km/s) = 6.72681 6.81394 6.77051
#
# Compressibility (1/GPa) = 0.01673418
#
# Stress axis : x y z
#
# Youngs Moduli (GPa) = 82.90434 95.36580 72.92151
#
# Poissons Ratio (x) = 0.17471 0.23804
# Poissons Ratio (y) = 0.15188 0.34035
# Poissons Ratio (z) = 0.27062 0.44511
#
# Static dielectric constant tensor:
#      x y z
#    x 4.139060 0.000000 0.000000 
#    y 0.000000 4.024250 0.000000 
#    z 0.000000 0.000000 4.098110 
# 
# 
# High freq. dielectric constant tensor:
#      x y z
#    x 1.895610 0.000000 0.000000 
#    y 0.000000 1.891960 0.000000 
#    z 0.000000 0.000000 1.890240 
# 
# From -- ./inp_files/9753.got.cif
#   From: 2010.03.12/outbox.cif.g09.slc.cpg/sg36_5_cif.got.tgz:9753.got - 2010.04.14 02:13:53.
