data_PCOD8176226
_publ_section_title
;
Structure prediction by ZEFSAII (Michael W. Deem and Ramdas Pophale) SiO2 
 PCOD8176226
Probable space group: C M C 21
;
_chemical_formula_sum "Si O2"
_cell_formula_units_Z 64
_cell_length_a 8.786818
_cell_length_b 18.694634
_cell_length_c 20.505624
_cell_angle_alpha 90.000000
_cell_angle_beta 90.000000
_cell_angle_gamma 90.000000
_cell_volume 3368.383938
_symmetry_space_group_name_H-M "C M C 21"
_symmetry_group_IT_number 36
_symmetry_cell_setting 'orthorhombic'
loop_
_space_group_symop_operation_xyz
x,y,z
-x,-y,1/2+z
x,-y,1/2+z
-x,y,z
1/2+x,1/2+y,z
1/2-x,1/2-y,1/2+z
1/2+x,1/2-y,1/2+z
1/2-x,1/2+y,z
loop_
_atom_site_type_symbol
_atom_site_label
_atom_site_fract_x
_atom_site_fract_y
_atom_site_fract_z
Si Si1 0.818616 0.545197 0.058890
Si Si2 0.181026 0.452053 0.798169
Si Si3 0.676922 0.209548 0.294423
Si Si4 0.176921 0.709550 0.445078
Si Si5 0.179646 0.707072 0.060180
Si Si6 0.818616 0.545198 0.680614
Si Si7 0.681025 0.952051 0.941336
Si Si8 0.820354 0.707072 0.679320
O O1 0.758199 0.625959 0.063343
O O2 0.755782 0.500001 0.119753
O O3 0.000000 0.543811 0.057731
O O4 0.752709 0.507917 0.993589
O O5 0.231319 0.371469 0.780308
O O6 0.247290 0.507920 0.745917
O O7 0.244141 0.473188 0.869752
O O8 0.000000 0.453928 0.799248
O O9 0.500000 0.218541 0.276821
O O10 0.707098 0.229821 0.369750
O O11 0.774753 0.261210 0.249074
O O12 0.274754 0.761213 0.490425
O O13 0.231313 0.628533 0.459194
O O14 0.000000 0.718546 0.462679
O O15 0.250002 0.750001 0.119749
O O16 0.000000 0.708904 0.067698
O O17 0.758197 0.625960 0.676159
O O18 0.000000 0.543812 0.681773
O O19 0.500000 0.953930 0.940257
O O20 0.000000 0.708903 0.671804
#
# Coordination Sequence:
#
# PCOD8176226 Si02
#       8
#     8   8   8   8   8   8   8   8
#     4   9  17  29  47  71  96 124 165 215 254 284
#     4   8  14  27  49  74  97 124 162 206 247 288
#     4   9  18  34  56  79 104 135 167 202 250 306
#     4   9  18  34  56  79 104 135 167 202 250 306
#     4  11  22  34  52  77 104 135 170 211 257 302
#     4   9  17  29  47  71  96 124 165 215 254 284
#     4   8  14  27  49  74  97 124 162 206 247 288
#     4  11  22  34  52  77 104 135 170 211 257 302
#
# _framework density 19.000209999999999
#
# number of rings (size 3 to 8) (size 9 to 14) (size 15 to 20)
#    0.000    2.750    0.000    3.750    0.000    5.500 
#    0.000    2.500    0.000   13.500    0.000    0.000 
#    0.000    0.000    0.000    0.000    0.000    0.000 
#
# Total GULP energy -396733.157600 kJ/mol
# GULP energy per Si atom -12397.911175 kJ/mol
# Density = 1.895697 g / cm^3
# Si number density = 19.000210 Si / 1000 Ang^3
#
#
#
# Elastic Constant Matrix: (Units=GPa)
#
#
# Indices 1 2 3 4 5 6 
#
# 1 31.2511 28.7168 25.6408 0.0000 0.0000 0.0000
# 2 28.7168 174.7656 107.1087 0.0000 0.0000 0.0000
# 3 25.6408 107.1087 155.1802 0.0000 0.0000 0.0000
# 4 0.0000 0.0000 0.0000 42.4369 0.0000 0.0000
# 5 0.0000 0.0000 0.0000 0.0000 24.3075 0.0000
# 6 0.0000 0.0000 0.0000 0.0000 0.0000 22.8467
#
#
#
# Elastic Compliance Matrix: (Units=1/GPa)
#
#
# Indices 1 2 3 4 5 6 
#
# 1 0.038744 -0.004234 -0.003480 0.000000 0.000000 0.000000
# 2 -0.004234 0.010380 -0.006465 0.000000 0.000000 0.000000
# 3 -0.003480 -0.006465 0.011481 0.000000 0.000000 0.000000
# 4 0.000000 0.000000 0.000000 0.023564 0.000000 0.000000
# 5 0.000000 0.000000 0.000000 0.000000 0.041140 0.000000
# 6 0.000000 0.000000 0.000000 0.000000 0.000000 0.043770
#
#
# Mechanical properties :
#
#
# Convention : Reuss Voigt Hill
#
# Bulk Modulus (GPa) = 31.00876 76.01440 53.51158
# Shear Modulus (GPa) = 24.01712 31.23358 27.62535
#
# Velocity S-wave (km/s) = 3.55920 4.05885 3.81721
# Velocity P-wave (km/s) = 5.76595 7.87779 6.90311
#
# Compressibility (1/GPa) = 0.03224895
#
# Stress axis : x y z
#
# Youngs Moduli (GPa) = 25.81027 96.34235 87.09944
#
# Poissons Ratio (x) = 0.40789 0.30307
# Poissons Ratio (y) = 0.10928 0.56307
# Poissons Ratio (z) = 0.08981 0.62282
#
# Static dielectric constant tensor:
#      x y z
#    x 2.946130 0.000000 0.000000 
#    y 0.000000 3.678670 0.000000 
#    z 0.000000 0.000000 3.817720 
# 
# 
# High freq. dielectric constant tensor:
#      x y z
#    x 1.683510 0.000000 0.000000 
#    y 0.000000 1.744150 0.000000 
#    z 0.000000 0.000000 1.756930 
# 
# From -- ./inp_files/15667.got.cif
#   From: 2010.03.12/outbox.cif.g09.slc.cpg/sg36_8_cif.got.tgz:15667.got - 2010.04.14 02:13:53.
