data_PCOD8176880
_publ_section_title
;
Structure prediction by ZEFSAII (Michael W. Deem and Ramdas Pophale) SiO2 
 PCOD8176880
Probable space group: C C C 2
;
_chemical_formula_sum "Si O2"
_cell_formula_units_Z 40
_cell_length_a 13.983030
_cell_length_b 11.562046
_cell_length_c 11.639790
_cell_angle_alpha 90.000000
_cell_angle_beta 90.000000
_cell_angle_gamma 90.000000
_cell_volume 1881.833205
_symmetry_space_group_name_H-M "C C C 2"
_symmetry_group_IT_number 37
_symmetry_cell_setting 'orthorhombic'
loop_
_space_group_symop_operation_xyz
x,y,z
-x,-y,z
-x,y,1/2+z
x,-y,1/2+z
1/2+x,1/2+y,z
1/2-x,1/2-y,z
1/2-x,1/2+y,1/2+z
1/2+x,1/2-y,1/2+z
loop_
_atom_site_type_symbol
_atom_site_label
_atom_site_fract_x
_atom_site_fract_y
_atom_site_fract_z
Si Si1 0.401943 0.533369 0.339310
Si Si2 0.975853 0.634485 0.827871
Si Si3 0.857149 0.769491 0.001716
Si Si4 0.854862 0.794942 0.403223
Si Si5 0.458365 0.696075 0.139221
O O1 0.500000 0.500000 0.407571
O O2 0.343375 0.625975 0.412113
O O3 0.345304 0.413146 0.328784
O O4 0.434656 0.585678 0.217632
O O5 0.073525 0.705709 0.844111
O O6 0.000000 0.500000 0.819333
O O7 0.901856 0.659163 0.932457
O O8 0.933950 0.683971 0.707679
O O9 0.750000 0.750000 0.051324
O O10 0.929127 0.802770 0.104164
O O11 0.750000 0.750000 0.408392
O O12 0.888982 0.816819 0.532235
#
# Coordination Sequence:
#
# PCOD8176880 Si02
#       5
#     8   8   8   8   8
#     4  11  21  42  69  90 128 174 213 272 319 379
#     4  10  23  43  64  88 137 170 206 264 326 376
#     4  10  23  41  66  96 127 170 218 267 318 382
#     4  11  25  43  66  97 129 167 217 270 321 386
#     4  10  22  42  68  93 131 171 218 258 329 381
#
# _framework density 21.255869000000001
#
# number of rings (size 3 to 8) (size 9 to 14) (size 15 to 20)
#    0.000    1.600    6.000    0.000    5.600    7.200 
#    0.000    0.000    0.000    0.000    0.000    0.000 
#    0.000    0.000    0.000    0.000    0.000    0.000 
#
# Total GULP energy -247859.141467 kJ/mol
# GULP energy per Si atom -12392.957073 kJ/mol
# Density = 2.120749 g / cm^3
# Si number density = 21.255869 Si / 1000 Ang^3
#
#
#
# Elastic Constant Matrix: (Units=GPa)
#
#
# Indices 1 2 3 4 5 6 
#
# 1 107.8928 41.8289 26.2928 0.0000 0.0000 0.0000
# 2 41.8289 187.7534 58.5874 0.0000 0.0000 0.0000
# 3 26.2928 58.5874 99.7216 0.0000 0.0000 0.0000
# 4 0.0000 0.0000 0.0000 22.2189 0.0000 0.0000
# 5 0.0000 0.0000 0.0000 0.0000 20.6373 0.0000
# 6 0.0000 0.0000 0.0000 0.0000 0.0000 12.7225
#
#
#
# Elastic Compliance Matrix: (Units=1/GPa)
#
#
# Indices 1 2 3 4 5 6 
#
# 1 0.010371 -0.001784 -0.001686 0.000000 0.000000 0.000000
# 2 -0.001784 0.006829 -0.003541 0.000000 0.000000 0.000000
# 3 -0.001686 -0.003541 0.012553 0.000000 0.000000 0.000000
# 4 0.000000 0.000000 0.000000 0.045007 0.000000 0.000000
# 5 0.000000 0.000000 0.000000 0.000000 0.048456 0.000000
# 6 0.000000 0.000000 0.000000 0.000000 0.000000 0.078601
#
#
# Mechanical properties :
#
#
# Convention : Reuss Voigt Hill
#
# Bulk Modulus (GPa) = 63.57673 72.08736 67.83205
# Shear Modulus (GPa) = 22.61585 29.02631 25.82108
#
# Velocity S-wave (km/s) = 3.26541 3.69937 3.48914
# Velocity P-wave (km/s) = 6.64773 7.22737 6.94360
#
# Compressibility (1/GPa) = 0.01572903
#
# Stress axis : x y z
#
# Youngs Moduli (GPa) = 96.42129 146.43903 79.66126
#
# Poissons Ratio (x) = 0.26131 0.13432
# Poissons Ratio (y) = 0.17205 0.28212
# Poissons Ratio (z) = 0.16258 0.51861
#
# Static dielectric constant tensor:
#      x y z
#    x 3.668500 0.000000 0.000000 
#    y 0.000000 3.969830 0.000000 
#    z 0.000000 0.000000 3.922650 
# 
# 
# High freq. dielectric constant tensor:
#      x y z
#    x 1.818020 0.000000 0.000000 
#    y 0.000000 1.837180 0.000000 
#    z 0.000000 0.000000 1.834890 
# 
# From -- ./inp_files/7066.got.cif
#   From: 2010.03.12/outbox.cif.g09.slc.cpg/sg37_4_cif.got.tgz:7066.got - 2010.04.14 02:25:27.
