data_PCOD8176564
_publ_section_title
;
Structure prediction by ZEFSAII (Michael W. Deem and Ramdas Pophale) SiO2 
 PCOD8176564
Probable space group: C C C 2
;
_chemical_formula_sum "Si O2"
_cell_formula_units_Z 48
_cell_length_a 15.446760
_cell_length_b 8.442682
_cell_length_c 18.787375
_cell_angle_alpha 90.000000
_cell_angle_beta 90.000000
_cell_angle_gamma 90.000000
_cell_volume 2450.100701
_symmetry_space_group_name_H-M "C C C 2"
_symmetry_group_IT_number 37
_symmetry_cell_setting 'orthorhombic'
loop_
_space_group_symop_operation_xyz
x,y,z
-x,-y,z
-x,y,1/2+z
x,-y,1/2+z
1/2+x,1/2+y,z
1/2-x,1/2-y,z
1/2-x,1/2+y,1/2+z
1/2+x,1/2-y,1/2+z
loop_
_atom_site_type_symbol
_atom_site_label
_atom_site_fract_x
_atom_site_fract_y
_atom_site_fract_z
Si Si1 0.506278 0.186857 0.608990
Si Si2 0.845961 0.300110 0.198073
Si Si3 0.343483 0.698286 0.866967
Si Si4 0.156273 0.675090 0.713734
Si Si5 0.416243 0.610726 0.332109
Si Si6 0.000131 0.687362 0.948954
O O1 0.413574 0.250515 0.636571
O O2 0.585945 0.245528 0.658347
O O3 0.522970 0.244717 0.528637
O O4 0.500000 0.000000 0.611493
O O5 0.750000 0.250000 0.174943
O O6 0.842856 0.486682 0.211385
O O7 0.879848 0.209759 0.267097
O O8 0.250000 0.750000 0.891521
O O9 0.373916 0.777534 0.792761
O O10 0.341141 0.508556 0.857311
O O11 0.404954 0.749536 0.930866
O O12 0.250000 0.750000 0.695880
O O13 0.500000 0.500000 0.314343
O O14 0.432202 0.734559 0.395327
O O15 0.000000 0.500000 0.940774
#
# Coordination Sequence:
#
# PCOD8176564 Si02
#       6
#     8   8   8   8   8   8
#     4   9  20  37  56  79 113 149 184 224 277 335
#     4  11  21  35  58  87 112 143 185 231 279 333
#     4  10  20  36  56  81 111 142 181 233 278 324
#     4  10  20  38  60  83 110 146 186 231 280 329
#     4  10  21  37  56  83 111 145 191 231 276 332
#     4  10  20  37  57  79 109 149 185 224 276 331
#
# _framework density 19.591031000000001
#
# number of rings (size 3 to 8) (size 9 to 14) (size 15 to 20)
#    0.000    2.000    0.000    5.000    0.000    2.000 
#    0.000   18.333    0.000    0.000    0.000    0.000 
#    0.000    0.000    0.000    0.000    0.000    0.000 
#
# Total GULP energy -297533.313070 kJ/mol
# GULP energy per Si atom -12397.221378 kJ/mol
# Density = 1.954644 g / cm^3
# Si number density = 19.591031 Si / 1000 Ang^3
#
#
#
# Elastic Constant Matrix: (Units=GPa)
#
#
# Indices 1 2 3 4 5 6 
#
# 1 110.7707 25.7819 40.6843 0.0000 0.0000 0.0000
# 2 25.7819 98.7978 20.5504 0.0000 0.0000 0.0000
# 3 40.6843 20.5504 75.4827 0.0000 0.0000 0.0000
# 4 0.0000 0.0000 0.0000 17.1348 0.0000 0.0000
# 5 0.0000 0.0000 0.0000 0.0000 23.5172 0.0000
# 6 0.0000 0.0000 0.0000 0.0000 0.0000 35.7165
#
#
#
# Elastic Compliance Matrix: (Units=1/GPa)
#
#
# Indices 1 2 3 4 5 6 
#
# 1 0.011558 -0.001824 -0.005733 0.000000 0.000000 0.000000
# 2 -0.001824 0.011017 -0.002017 0.000000 0.000000 0.000000
# 3 -0.005733 -0.002017 0.016887 0.000000 0.000000 0.000000
# 4 0.000000 0.000000 0.000000 0.058361 0.000000 0.000000
# 5 0.000000 0.000000 0.000000 0.000000 0.042522 0.000000
# 6 0.000000 0.000000 0.000000 0.000000 0.000000 0.027998
#
#
# Mechanical properties :
#
#
# Convention : Reuss Voigt Hill
#
# Bulk Modulus (GPa) = 49.22323 51.00940 50.11631
# Shear Modulus (GPa) = 25.73855 28.47601 27.10728
#
# Velocity S-wave (km/s) = 3.62856 3.81665 3.72379
# Velocity P-wave (km/s) = 6.53722 6.74656 6.64271
#
# Compressibility (1/GPa) = 0.02031561
#
# Stress axis : x y z
#
# Youngs Moduli (GPa) = 86.52210 90.76880 59.21674
#
# Poissons Ratio (x) = 0.16552 0.33949
# Poissons Ratio (y) = 0.15778 0.11941
# Poissons Ratio (z) = 0.49603 0.18304
#
# Static dielectric constant tensor:
#      x y z
#    x 3.763170 0.000000 0.000000 
#    y 0.000000 3.667290 0.000000 
#    z 0.000000 0.000000 3.641800 
# 
# 
# High freq. dielectric constant tensor:
#      x y z
#    x 1.767330 0.000000 0.000000 
#    y 0.000000 1.769700 0.000000 
#    z 0.000000 0.000000 1.755470 
# 
# From -- ./inp_files/14486.got.cif
#   From: 2010.03.12/outbox.cif.g09.slc.cpg/sg37_8_cif.got.tgz:14486.got - 2010.04.14 02:25:27.
