data_PCOD8176195
_publ_section_title
;
Structure prediction by ZEFSAII (Michael W. Deem and Ramdas Pophale) SiO2 
 PCOD8176195
Probable space group: C M C 21
;
_chemical_formula_sum "Si O2"
_cell_formula_units_Z 48
_cell_length_a 15.503573
_cell_length_b 15.486832
_cell_length_c 9.194703
_cell_angle_alpha 90.000000
_cell_angle_beta 90.000000
_cell_angle_gamma 90.000000
_cell_volume 2207.659504
_symmetry_space_group_name_H-M "C M C 21"
_symmetry_group_IT_number 36
_symmetry_cell_setting 'orthorhombic'
loop_
_space_group_symop_operation_xyz
x,y,z
-x,-y,1/2+z
x,-y,1/2+z
-x,y,z
1/2+x,1/2+y,z
1/2-x,1/2-y,1/2+z
1/2+x,1/2-y,1/2+z
1/2-x,1/2+y,z
loop_
_atom_site_type_symbol
_atom_site_label
_atom_site_fract_x
_atom_site_fract_y
_atom_site_fract_z
Si Si1 0.684947 0.178936 0.333580
Si Si2 0.363836 0.495266 0.969286
Si Si3 0.184212 0.314235 0.182181
Si Si4 0.748570 0.998723 0.220757
Si Si5 0.500000 0.644863 0.541886
Si Si6 0.000000 0.251783 0.811831
Si Si7 0.500000 0.628174 0.056387
Si Si8 0.500000 0.752547 0.282827
O O1 0.751619 0.243984 0.254372
O O2 0.697247 0.187522 0.507524
O O3 0.587004 0.195271 0.283382
O O4 0.696970 0.081442 0.277191
O O5 0.271245 0.500735 0.049847
O O6 0.414686 0.579362 0.014078
O O7 0.342636 0.500747 0.799054
O O8 0.413640 0.407676 0.005686
O O9 0.200321 0.408768 0.250454
O O10 0.085501 0.299004 0.226428
O O11 0.500000 0.666188 0.711798
O O12 0.500000 0.737009 0.456671
O O13 0.000000 0.220818 0.977899
O O14 0.500000 0.652330 0.226097
#
# Coordination Sequence:
#
# PCOD8176195 Si02
#       8
#     8   8   8   8   4   4   4   4
#     4  12  27  48  75 106 147 196 243 302 364 430
#     4  11  22  40  66 103 140 180 236 303 372 427
#     4  12  27  48  75 106 147 196 243 302 364 430
#     4  12  26  42  70 104 144 190 242 293 350 439
#     4  11  24  42  68 107 140 182 240 303 374 437
#     4  12  26  44  70 103 142 189 244 298 355 434
#     4  11  20  38  68  95 138 182 226 305 376 415
#     4  12  26  44  70 103 142 189 244 298 355 434
#
# _framework density 21.742484000000001
#
# number of rings (size 3 to 8) (size 9 to 14) (size 15 to 20)
#    0.000    0.333    3.333    6.000    4.667    3.333 
#    0.000    0.000    0.000    0.000    0.000    0.000 
#    0.000    0.000    0.000    0.000    0.000    0.000 
#
# Total GULP energy -297535.161783 kJ/mol
# GULP energy per Si atom -12397.298408 kJ/mol
# Density = 2.169300 g / cm^3
# Si number density = 21.742484 Si / 1000 Ang^3
#
#
#
# Elastic Constant Matrix: (Units=GPa)
#
#
# Indices 1 2 3 4 5 6 
#
# 1 153.9182 69.6900 34.5418 0.0000 0.0000 0.0000
# 2 69.6900 153.3699 36.6984 0.0000 0.0000 0.0000
# 3 34.5418 36.6984 87.7676 0.0000 0.0000 0.0000
# 4 0.0000 0.0000 0.0000 38.5159 0.0000 0.0000
# 5 0.0000 0.0000 0.0000 0.0000 33.4600 0.0000
# 6 0.0000 0.0000 0.0000 0.0000 0.0000 24.3307
#
#
#
# Elastic Compliance Matrix: (Units=1/GPa)
#
#
# Indices 1 2 3 4 5 6 
#
# 1 0.008460 -0.003386 -0.001914 0.000000 0.000000 0.000000
# 2 -0.003386 0.008600 -0.002263 0.000000 0.000000 0.000000
# 3 -0.001914 -0.002263 0.013093 0.000000 0.000000 0.000000
# 4 0.000000 0.000000 0.000000 0.025963 0.000000 0.000000
# 5 0.000000 0.000000 0.000000 0.000000 0.029886 0.000000
# 6 0.000000 0.000000 0.000000 0.000000 0.000000 0.041100
#
#
# Mechanical properties :
#
#
# Convention : Reuss Voigt Hill
#
# Bulk Modulus (GPa) = 66.54668 75.21291 70.87979
# Shear Modulus (GPa) = 33.95858 36.20303 35.08080
#
# Velocity S-wave (km/s) = 3.95632 4.08497 4.02116
# Velocity P-wave (km/s) = 7.17935 7.54434 7.36411
#
# Compressibility (1/GPa) = 0.01502705
#
# Stress axis : x y z
#
# Youngs Moduli (GPa) = 118.21028 116.27384 76.37532
#
# Poissons Ratio (x) = 0.39371 0.14614
# Poissons Ratio (y) = 0.40027 0.17287
# Poissons Ratio (z) = 0.22620 0.26318
#
# Static dielectric constant tensor:
#      x y z
#    x 4.000020 0.000000 0.000000 
#    y 0.000000 3.931160 0.000000 
#    z 0.000000 0.000000 4.177180 
# 
# 
# High freq. dielectric constant tensor:
#      x y z
#    x 1.855610 0.000000 0.000000 
#    y 0.000000 1.853950 0.000000 
#    z 0.000000 0.000000 1.876560 
# 
# From -- ./inp_files/4707.got.cif
#   From: 2010.03.12/outbox.cif.g09.slc.cpg/sg36_3_cif.got.tgz:4707.got - 2010.04.14 02:13:53.
