data_PCOD8176513
_publ_section_title
;
Structure prediction by ZEFSAII (Michael W. Deem and Ramdas Pophale) SiO2 
 PCOD8176513
Probable space group: C C C 2
;
_chemical_formula_sum "Si O2"
_cell_formula_units_Z 64
_cell_length_a 12.504784
_cell_length_b 17.350303
_cell_length_c 14.097844
_cell_angle_alpha 90.000000
_cell_angle_beta 90.000000
_cell_angle_gamma 90.000000
_cell_volume 3058.693488
_symmetry_space_group_name_H-M "C C C 2"
_symmetry_group_IT_number 37
_symmetry_cell_setting 'orthorhombic'
loop_
_space_group_symop_operation_xyz
x,y,z
-x,-y,z
-x,y,1/2+z
x,-y,1/2+z
1/2+x,1/2+y,z
1/2-x,1/2-y,z
1/2-x,1/2+y,1/2+z
1/2+x,1/2-y,1/2+z
loop_
_atom_site_type_symbol
_atom_site_label
_atom_site_fract_x
_atom_site_fract_y
_atom_site_fract_z
Si Si1 0.049217 0.379290 0.534700
Si Si2 0.876001 0.764786 0.440266
Si Si3 0.536161 0.693900 0.798819
Si Si4 0.334348 0.186678 0.715399
Si Si5 0.301870 0.432379 0.827943
Si Si6 0.334537 0.038271 0.015495
Si Si7 0.157457 0.020002 0.152769
Si Si8 0.459903 0.375227 0.601600
O O1 0.069960 0.317355 0.453747
O O2 0.084325 0.343968 0.635575
O O3 0.114577 0.454681 0.507398
O O4 0.923331 0.396129 0.527443
O O5 0.750000 0.750000 0.447082
O O6 0.931555 0.827098 0.508900
O O7 0.915796 0.794796 0.337685
O O8 0.605798 0.772692 0.805173
O O9 0.594630 0.621281 0.850121
O O10 0.532587 0.684995 0.686196
O O11 0.250000 0.250000 0.671072
O O12 0.276831 0.112344 0.757485
O O13 0.243745 0.452949 0.925378
O O14 0.339522 0.509893 0.768731
O O15 0.270370 0.047722 0.113362
O O16 0.070395 0.077740 0.108824
O O17 0.137341 0.934418 0.112195
#
# Coordination Sequence:
#
# PCOD8176513 Si02
#       8
#     8   8   8   8   8   8   8   8
#     4  11  23  40  60  93 128 169 218 264 318 405
#     4  12  24  41  66  96 130 173 218 272 334 393
#     4  10  22  40  64  94 124 162 221 270 319 392
#     4  10  19  40  70  90 120 174 224 267 324 397
#     4  10  21  40  68  89 125 171 216 268 331 386
#     4  11  23  41  59  94 131 166 215 264 332 388
#     4  10  21  40  64  92 123 168 216 270 322 385
#     4  10  22  40  66  93 126 166 219 268 325 386
#
# _framework density 20.923967000000001
#
# number of rings (size 3 to 8) (size 9 to 14) (size 15 to 20)
#    0.000    1.500    2.500    2.625    1.750    2.000 
#    9.000    4.375    0.000    0.000    0.000    0.000 
#    0.000    0.000    0.000    0.000    0.000    0.000 
#
# Total GULP energy -396477.362995 kJ/mol
# GULP energy per Si atom -12389.917594 kJ/mol
# Density = 2.087634 g / cm^3
# Si number density = 20.923967 Si / 1000 Ang^3
#
#
#
# Elastic Constant Matrix: (Units=GPa)
#
#
# Indices 1 2 3 4 5 6 
#
# 1 118.5626 51.7768 62.5138 0.0000 0.0000 0.0000
# 2 51.7768 84.1068 31.3477 0.0000 0.0000 0.0000
# 3 62.5138 31.3477 77.0182 0.0000 0.0000 0.0000
# 4 0.0000 0.0000 0.0000 18.4040 0.0000 0.0000
# 5 0.0000 0.0000 0.0000 0.0000 38.5935 0.0000
# 6 0.0000 0.0000 0.0000 0.0000 0.0000 25.9399
#
#
#
# Elastic Compliance Matrix: (Units=1/GPa)
#
#
# Indices 1 2 3 4 5 6 
#
# 1 0.017211 -0.006352 -0.011384 0.000000 0.000000 0.000000
# 2 -0.006352 0.016360 -0.001503 0.000000 0.000000 0.000000
# 3 -0.011384 -0.001503 0.022836 0.000000 0.000000 0.000000
# 4 0.000000 0.000000 0.000000 0.054336 0.000000 0.000000
# 5 0.000000 0.000000 0.000000 0.000000 0.025911 0.000000
# 6 0.000000 0.000000 0.000000 0.000000 0.000000 0.038551
#
#
# Mechanical properties :
#
#
# Convention : Reuss Voigt Hill
#
# Bulk Modulus (GPa) = 55.77751 63.44047 59.60899
# Shear Modulus (GPa) = 22.76246 25.52409 24.14328
#
# Velocity S-wave (km/s) = 3.30186 3.49642 3.40053
# Velocity P-wave (km/s) = 6.42273 6.83267 6.63087
#
# Compressibility (1/GPa) = 0.01792837
#
# Stress axis : x y z
#
# Youngs Moduli (GPa) = 58.10291 61.12384 43.79046
#
# Poissons Ratio (x) = 0.38826 0.49852
# Poissons Ratio (y) = 0.36907 0.06582
# Poissons Ratio (z) = 0.66146 0.09187
#
# Static dielectric constant tensor:
#      x y z
#    x 4.124110 0.000000 0.000000 
#    y 0.000000 4.041710 0.000000 
#    z 0.000000 0.000000 3.617510 
# 
# 
# High freq. dielectric constant tensor:
#      x y z
#    x 1.824610 0.000000 0.000000 
#    y 0.000000 1.828180 0.000000 
#    z 0.000000 0.000000 1.803680 
# 
# From -- ./inp_files/11781.got.cif
#   From: 2010.03.12/outbox.cif.g09.slc.cpg/sg37_6_cif.got.tgz:11781.got - 2010.04.14 02:25:27.
