data_PCOD8176905
_publ_section_title
;
Structure prediction by ZEFSAII (Michael W. Deem and Ramdas Pophale) SiO2 
 PCOD8176905
Probable space group: C C C 2
;
_chemical_formula_sum "Si O2"
_cell_formula_units_Z 44
_cell_length_a 6.315521
_cell_length_b 21.947698
_cell_length_c 14.323829
_cell_angle_alpha 90.000000
_cell_angle_beta 90.000000
_cell_angle_gamma 90.000000
_cell_volume 1985.442376
_symmetry_space_group_name_H-M "C C C 2"
_symmetry_group_IT_number 37
_symmetry_cell_setting 'orthorhombic'
loop_
_space_group_symop_operation_xyz
x,y,z
-x,-y,z
-x,y,1/2+z
x,-y,1/2+z
1/2+x,1/2+y,z
1/2-x,1/2-y,z
1/2-x,1/2+y,1/2+z
1/2+x,1/2-y,1/2+z
loop_
_atom_site_type_symbol
_atom_site_label
_atom_site_fract_x
_atom_site_fract_y
_atom_site_fract_z
Si Si1 0.526692 0.808038 0.991010
Si Si2 0.163777 0.089314 0.064222
Si Si3 0.750000 0.250000 0.324324
Si Si4 0.707118 0.598331 0.435245
Si Si5 0.750000 0.250000 0.639357
Si Si6 0.500000 0.000000 0.505007
Si Si7 0.447266 0.349385 0.244218
O O1 0.567378 0.778683 0.889457
O O2 0.299348 0.840717 0.985756
O O3 0.719976 0.851918 0.021306
O O4 0.539092 0.756401 0.072466
O O5 0.331645 0.033802 0.073064
O O6 0.032086 0.101526 0.160061
O O7 0.987030 0.069737 0.990541
O O8 0.651427 0.305406 0.262280
O O9 0.627325 0.612937 0.332626
O O10 0.892783 0.548208 0.434303
O O11 0.743456 0.307263 0.708234
#
# Coordination Sequence:
#
# PCOD8176905 Si02
#       7
#     8   8   4   8   4   4   8
#     4   9  20  38  63  90 140 174 216 260 321 396
#     4  10  22  44  63 100 128 173 221 283 326 398
#     4  11  20  38  57 102 136 178 213 260 323 400
#     4  11  22  43  67  94 126 176 222 280 331 393
#     4   9  20  38  55 100 136 184 213 254 323 394
#     4  10  24  46  72  84 130 170 228 288 346 368
#     4  11  23  37  66  98 138 170 226 259 327 401
#
# _framework density 22.161307000000001
#
# number of rings (size 3 to 8) (size 9 to 14) (size 15 to 20)
#    0.000    1.818    1.818    1.636    2.545    0.727 
#    3.273    3.636    0.000    0.000    0.000    0.000 
#    0.000    0.000    0.000    0.000    0.000    0.000 
#
# Total GULP energy -272576.168520 kJ/mol
# GULP energy per Si atom -12389.825842 kJ/mol
# Density = 2.211087 g / cm^3
# Si number density = 22.161307 Si / 1000 Ang^3
#
#
#
# Elastic Constant Matrix: (Units=GPa)
#
#
# Indices 1 2 3 4 5 6 
#
# 1 92.5218 39.5352 53.2877 0.0000 0.0000 0.0000
# 2 39.5352 95.3691 56.1004 0.0000 0.0000 0.0000
# 3 53.2877 56.1004 153.2858 0.0000 0.0000 0.0000
# 4 0.0000 0.0000 0.0000 19.8081 0.0000 0.0000
# 5 0.0000 0.0000 0.0000 0.0000 21.8336 0.0000
# 6 0.0000 0.0000 0.0000 0.0000 0.0000 46.4789
#
#
#
# Elastic Compliance Matrix: (Units=1/GPa)
#
#
# Indices 1 2 3 4 5 6 
#
# 1 0.014570 -0.003900 -0.003638 0.000000 0.000000 0.000000
# 2 -0.003900 0.014406 -0.003917 0.000000 0.000000 0.000000
# 3 -0.003638 -0.003917 0.009222 0.000000 0.000000 0.000000
# 4 0.000000 0.000000 0.000000 0.050484 0.000000 0.000000
# 5 0.000000 0.000000 0.000000 0.000000 0.045801 0.000000
# 6 0.000000 0.000000 0.000000 0.000000 0.000000 0.021515
#
#
# Mechanical properties :
#
#
# Convention : Reuss Voigt Hill
#
# Bulk Modulus (GPa) = 65.40593 71.00259 68.20426
# Shear Modulus (GPa) = 27.17336 30.44102 28.80719
#
# Velocity S-wave (km/s) = 3.50546 3.71025 3.60931
# Velocity P-wave (km/s) = 6.77953 7.10374 6.94353
#
# Compressibility (1/GPa) = 0.01528913
#
# Stress axis : x y z
#
# Youngs Moduli (GPa) = 68.63473 69.41388 108.43879
#
# Poissons Ratio (x) = 0.27072 0.39446
# Poissons Ratio (y) = 0.26768 0.42472
# Poissons Ratio (z) = 0.24967 0.27187
#
# Static dielectric constant tensor:
#      x y z
#    x 3.800420 0.000000 0.000000 
#    y 0.000000 4.167680 0.000000 
#    z 0.000000 0.000000 4.019800 
# 
# 
# High freq. dielectric constant tensor:
#      x y z
#    x 1.857810 0.000000 0.000000 
#    y 0.000000 1.875850 0.000000 
#    z 0.000000 0.000000 1.864990 
# 
# From -- ./inp_files/9722.got.cif
#   From: 2010.03.12/outbox.cif.g09.slc.cpg/sg37_5_cif.got.tgz:9722.got - 2010.04.14 02:25:27.
