data_PCOD8176663
_publ_section_title
;
Structure prediction by ZEFSAII (Michael W. Deem and Ramdas Pophale) SiO2 
 PCOD8176663
Probable space group: C C C 2
;
_chemical_formula_sum "Si O2"
_cell_formula_units_Z 64
_cell_length_a 22.499690
_cell_length_b 16.309403
_cell_length_c 8.546455
_cell_angle_alpha 90.000000
_cell_angle_beta 90.000000
_cell_angle_gamma 90.000000
_cell_volume 3136.177313
_symmetry_space_group_name_H-M "C C C 2"
_symmetry_group_IT_number 37
_symmetry_cell_setting 'orthorhombic'
loop_
_space_group_symop_operation_xyz
x,y,z
-x,-y,z
-x,y,1/2+z
x,-y,1/2+z
1/2+x,1/2+y,z
1/2-x,1/2-y,z
1/2-x,1/2+y,1/2+z
1/2+x,1/2-y,1/2+z
loop_
_atom_site_type_symbol
_atom_site_label
_atom_site_fract_x
_atom_site_fract_y
_atom_site_fract_z
Si Si1 0.192363 0.298971 0.337170
Si Si2 0.886645 0.079390 0.817707
Si Si3 0.755436 0.886799 0.908839
Si Si4 0.243535 0.048326 0.241214
Si Si5 0.922859 0.238745 0.984846
Si Si6 0.054396 0.058967 0.990709
Si Si7 0.163104 0.743739 0.485664
Si Si8 0.541968 0.729141 0.843372
O O1 0.250000 0.250000 0.403362
O O2 0.204736 0.396219 0.319572
O O3 0.136046 0.292451 0.452787
O O4 0.176081 0.257558 0.170384
O O5 0.816776 0.089717 0.800563
O O6 0.909460 0.145185 0.941633
O O7 0.917981 0.093236 0.650637
O O8 0.897246 0.989373 0.888266
O O9 0.815119 0.831308 0.915253
O O10 0.698272 0.828258 0.897843
O O11 0.753464 0.950358 0.765944
O O12 0.751632 0.946255 0.056290
O O13 0.979053 0.272729 0.883743
O O14 0.940549 0.243270 0.165275
O O15 0.032086 0.133492 0.883600
O O16 0.000000 0.000000 0.033017
O O17 0.093492 0.733336 0.453144
#
# Coordination Sequence:
#
# PCOD8176663 Si02
#       8
#     8   8   8   8   8   8   8   8
#     4  11  20  42  65  88 125 172 214 259 324 384
#     4  12  22  36  55  82 123 166 207 253 311 378
#     4  10  21  38  60  93 123 165 206 258 318 375
#     4  11  21  36  62  89 125 161 205 262 318 372
#     4  12  25  40  60  87 118 167 214 261 317 382
#     4  12  24  36  54  84 123 170 214 260 307 382
#     4  10  20  43  66  86 126 173 216 253 319 391
#     4  12  25  41  60  86 121 165 215 262 317 386
#
# _framework density 20.407008999999999
#
# number of rings (size 3 to 8) (size 9 to 14) (size 15 to 20)
#    0.000    0.750    5.000    5.625    0.000    2.000 
#    2.250    0.000    0.000    0.750    0.000    5.250 
#    0.000    0.000    0.000    0.000    0.000    0.000 
#
# Total GULP energy -396868.205435 kJ/mol
# GULP energy per Si atom -12402.131420 kJ/mol
# Density = 2.036056 g / cm^3
# Si number density = 20.407009 Si / 1000 Ang^3
#
#
#
# Elastic Constant Matrix: (Units=GPa)
#
#
# Indices 1 2 3 4 5 6 
#
# 1 140.8067 28.1862 38.8839 0.0000 0.0000 0.0000
# 2 28.1862 76.7386 28.0521 0.0000 0.0000 0.0000
# 3 38.8839 28.0521 85.3031 0.0000 0.0000 0.0000
# 4 0.0000 0.0000 0.0000 28.9993 0.0000 0.0000
# 5 0.0000 0.0000 0.0000 0.0000 33.3839 0.0000
# 6 0.0000 0.0000 0.0000 0.0000 0.0000 25.8040
#
#
#
# Elastic Compliance Matrix: (Units=1/GPa)
#
#
# Indices 1 2 3 4 5 6 
#
# 1 0.008363 -0.001908 -0.003185 0.000000 0.000000 0.000000
# 2 -0.001908 0.015247 -0.004144 0.000000 0.000000 0.000000
# 3 -0.003185 -0.004144 0.014538 0.000000 0.000000 0.000000
# 4 0.000000 0.000000 0.000000 0.034484 0.000000 0.000000
# 5 0.000000 0.000000 0.000000 0.000000 0.029955 0.000000
# 6 0.000000 0.000000 0.000000 0.000000 0.000000 0.038754
#
#
# Mechanical properties :
#
#
# Convention : Reuss Voigt Hill
#
# Bulk Modulus (GPa) = 50.82880 54.78811 52.80845
# Shear Modulus (GPa) = 30.05321 31.48586 30.76953
#
# Velocity S-wave (km/s) = 3.84173 3.93223 3.88724
# Velocity P-wave (km/s) = 6.68132 6.89366 6.78832
#
# Compressibility (1/GPa) = 0.01967389
#
# Stress axis : x y z
#
# Youngs Moduli (GPa) = 119.56981 65.58696 68.78706
#
# Poissons Ratio (x) = 0.12511 0.21908
# Poissons Ratio (y) = 0.22809 0.28508
# Poissons Ratio (z) = 0.38082 0.27182
#
# Static dielectric constant tensor:
#      x y z
#    x 4.010430 0.000000 0.000000 
#    y 0.000000 3.565650 0.000000 
#    z 0.000000 0.000000 3.573620 
# 
# 
# High freq. dielectric constant tensor:
#      x y z
#    x 1.807670 0.000000 0.000000 
#    y 0.000000 1.769160 0.000000 
#    z 0.000000 0.000000 1.793850 
# 
# From -- ./inp_files/4691.got.cif
#   From: 2010.03.12/outbox.cif.g09.slc.cpg/sg37_3_cif.got.tgz:4691.got - 2010.04.14 02:25:27.
