data_PCOD8176258
_publ_section_title
;
Structure prediction by ZEFSAII (Michael W. Deem and Ramdas Pophale) SiO2 
 PCOD8176258
Probable space group: C M C 21
;
_chemical_formula_sum "Si O2"
_cell_formula_units_Z 56
_cell_length_a 23.046398
_cell_length_b 13.948622
_cell_length_c 8.800076
_cell_angle_alpha 90.000000
_cell_angle_beta 90.000000
_cell_angle_gamma 90.000000
_cell_volume 2828.920780
_symmetry_space_group_name_H-M "C M C 21"
_symmetry_group_IT_number 36
_symmetry_cell_setting 'orthorhombic'
loop_
_space_group_symop_operation_xyz
x,y,z
-x,-y,1/2+z
x,-y,1/2+z
-x,y,z
1/2+x,1/2+y,z
1/2-x,1/2-y,1/2+z
1/2+x,1/2-y,1/2+z
1/2-x,1/2+y,z
loop_
_atom_site_type_symbol
_atom_site_label
_atom_site_fract_x
_atom_site_fract_y
_atom_site_fract_z
Si Si1 0.839455 0.040151 0.625000
Si Si2 0.624849 0.708579 0.411775
Si Si3 0.116767 0.114449 0.925297
Si Si4 0.212448 0.449554 0.189863
Si Si5 0.000000 0.081600 0.785515
Si Si6 0.307500 0.737172 0.107826
Si Si7 0.306388 0.122236 0.019427
Si Si8 0.500000 0.626898 0.427558
O O1 0.852728 0.137153 0.538598
O O2 0.849222 0.052795 0.802456
O O3 0.772332 0.013000 0.613260
O O4 0.882302 0.955170 0.572210
O O5 0.662998 0.694606 0.259940
O O6 0.636722 0.815300 0.477380
O O7 0.556212 0.690957 0.384409
O O8 0.053238 0.137215 0.863300
O O9 0.150940 0.211721 0.965061
O O10 0.194048 0.351516 0.108334
O O11 0.215995 0.433325 0.369076
O O12 0.172696 0.540981 0.141308
O O13 0.000000 0.096683 0.604784
O O14 0.000000 0.968757 0.824688
O O15 0.243683 0.692450 0.085513
#
# Coordination Sequence:
#
# PCOD8176258 Si02
#       8
#     8   8   8   8   4   8   8   4
#     4  12  20  35  58  87 126 162 198 246 305 377
#     4  11  25  41  62  90 128 169 208 255 315 380
#     4  12  23  36  56  90 127 161 202 249 307 375
#     4  11  23  38  61  92 127 163 200 252 317 379
#     4  12  24  38  62  89 123 168 208 251 309 373
#     4  11  24  38  61  94 126 164 203 257 319 375
#     4  11  24  40  62  91 126 166 206 256 316 371
#     4  12  26  44  62  91 129 172 214 257 315 373
#
# _framework density 19.795534
#
# number of rings (size 3 to 8) (size 9 to 14) (size 15 to 20)
#    0.000    0.571    7.143    0.857    4.000    1.143 
#    0.000    0.000    0.000    4.286    0.000    0.000 
#    0.000    0.000    0.000    0.000    0.000    0.000 
#
# Total GULP energy -347086.751509 kJ/mol
# GULP energy per Si atom -12395.955411 kJ/mol
# Density = 1.975048 g / cm^3
# Si number density = 19.795534 Si / 1000 Ang^3
#
#
#
# Elastic Constant Matrix: (Units=GPa)
#
#
# Indices 1 2 3 4 5 6 
#
# 1 87.2367 24.9802 25.4324 0.0000 0.0000 0.0000
# 2 24.9802 77.2854 24.0512 0.0000 0.0000 0.0000
# 3 25.4324 24.0512 66.6442 0.0000 0.0000 0.0000
# 4 0.0000 0.0000 0.0000 34.1467 0.0000 0.0000
# 5 0.0000 0.0000 0.0000 0.0000 29.1705 0.0000
# 6 0.0000 0.0000 0.0000 0.0000 0.0000 29.5892
#
#
#
# Elastic Compliance Matrix: (Units=1/GPa)
#
#
# Indices 1 2 3 4 5 6 
#
# 1 0.013533 -0.003117 -0.004040 0.000000 0.000000 0.000000
# 2 -0.003117 0.015294 -0.004330 0.000000 0.000000 0.000000
# 3 -0.004040 -0.004330 0.018109 0.000000 0.000000 0.000000
# 4 0.000000 0.000000 0.000000 0.029285 0.000000 0.000000
# 5 0.000000 0.000000 0.000000 0.000000 0.034281 0.000000
# 6 0.000000 0.000000 0.000000 0.000000 0.000000 0.033796
#
#
# Mechanical properties :
#
#
# Convention : Reuss Voigt Hill
#
# Bulk Modulus (GPa) = 41.73035 42.23263 41.98149
# Shear Modulus (GPa) = 28.52899 29.02813 28.77856
#
# Velocity S-wave (km/s) = 3.80041 3.83351 3.81700
# Velocity P-wave (km/s) = 6.35484 6.40118 6.37805
#
# Compressibility (1/GPa) = 0.02396337
#
# Stress axis : x y z
#
# Youngs Moduli (GPa) = 73.89167 65.38495 55.22041
#
# Poissons Ratio (x) = 0.20381 0.22307
# Poissons Ratio (y) = 0.23033 0.23910
# Poissons Ratio (z) = 0.29849 0.28311
#
# Static dielectric constant tensor:
#      x y z
#    x 3.671920 0.000000 0.000000 
#    y 0.000000 3.679860 0.000000 
#    z 0.000000 0.000000 3.806730 
# 
# 
# High freq. dielectric constant tensor:
#      x y z
#    x 1.748010 0.000000 0.000000 
#    y 0.000000 1.763600 0.000000 
#    z 0.000000 0.000000 1.791520 
# 
# From -- ./inp_files/5241.got.cif
#   From: 2010.03.12/outbox.cif.g09.slc.cpg/sg36_3_cif.got.tgz:5241.got - 2010.04.14 02:13:53.
