data_PCOD8176824
_publ_section_title
;
Structure prediction by ZEFSAII (Michael W. Deem and Ramdas Pophale) SiO2 
 PCOD8176824
Probable space group: C C C 2
;
_chemical_formula_sum "Si O2"
_cell_formula_units_Z 48
_cell_length_a 19.047896
_cell_length_b 9.239463
_cell_length_c 13.879190
_cell_angle_alpha 90.000000
_cell_angle_beta 90.000000
_cell_angle_gamma 90.000000
_cell_volume 2442.630991
_symmetry_space_group_name_H-M "C C C 2"
_symmetry_group_IT_number 37
_symmetry_cell_setting 'orthorhombic'
loop_
_space_group_symop_operation_xyz
x,y,z
-x,-y,z
-x,y,1/2+z
x,-y,1/2+z
1/2+x,1/2+y,z
1/2-x,1/2-y,z
1/2-x,1/2+y,1/2+z
1/2+x,1/2-y,1/2+z
loop_
_atom_site_type_symbol
_atom_site_label
_atom_site_fract_x
_atom_site_fract_y
_atom_site_fract_z
Si Si1 0.923168 0.968035 0.620700
Si Si2 0.181862 0.649848 0.822642
Si Si3 0.919561 0.149488 0.924884
Si Si4 0.319410 0.844500 0.412594
Si Si5 0.832912 0.263514 0.618737
Si Si6 0.572480 0.640029 0.833984
O O1 0.898767 0.855884 0.538306
O O2 0.936363 0.887307 0.720884
O O3 0.872358 0.107999 0.627595
O O4 0.000000 0.000000 0.578758
O O5 0.250000 0.750000 0.824590
O O6 0.120491 0.711585 0.887827
O O7 0.202105 0.497248 0.868260
O O8 0.150576 0.640544 0.713596
O O9 0.000149 0.167503 0.890887
O O10 0.889682 0.000360 0.879590
O O11 0.250000 0.750000 0.412624
O O12 0.353838 0.847586 0.520414
O O13 0.377899 0.777958 0.342893
O O14 0.750000 0.250000 0.614856
#
# Coordination Sequence:
#
# PCOD8176824 Si02
#       6
#     8   8   8   8   8   8
#     4  12  20  37  67  95 124 164 218 253 308 387
#     4  11  24  41  62  88 127 165 209 258 316 374
#     4  11  21  38  64  94 121 164 210 255 307 370
#     4  11  24  41  62  88 127 165 209 258 316 374
#     4  10  22  37  61  89 123 163 203 269 313 360
#     4  11  21  38  64  94 121 164 210 255 307 370
#
# _framework density 19.650941
#
# number of rings (size 3 to 8) (size 9 to 14) (size 15 to 20)
#    0.000    1.000    6.667    1.000    4.667    2.000 
#    0.000    1.667    0.000    6.000    0.000    0.000 
#    0.000    0.000    0.000    0.000    0.000    0.000 
#
# Total GULP energy -297383.766247 kJ/mol
# GULP energy per Si atom -12390.990260 kJ/mol
# Density = 1.960621 g / cm^3
# Si number density = 19.650941 Si / 1000 Ang^3
#
#
#
# Elastic Constant Matrix: (Units=GPa)
#
#
# Indices 1 2 3 4 5 6 
#
# 1 78.3598 44.2209 28.9984 0.0000 0.0000 0.0000
# 2 44.2209 106.2141 51.2116 0.0000 0.0000 0.0000
# 3 28.9984 51.2116 160.0666 0.0000 0.0000 0.0000
# 4 0.0000 0.0000 0.0000 24.8545 0.0000 0.0000
# 5 0.0000 0.0000 0.0000 0.0000 24.1866 0.0000
# 6 0.0000 0.0000 0.0000 0.0000 0.0000 28.1053
#
#
#
# Elastic Compliance Matrix: (Units=1/GPa)
#
#
# Indices 1 2 3 4 5 6 
#
# 1 0.016803 -0.006536 -0.000953 0.000000 0.000000 0.000000
# 2 -0.006536 0.013675 -0.003191 0.000000 0.000000 0.000000
# 3 -0.000953 -0.003191 0.007441 0.000000 0.000000 0.000000
# 4 0.000000 0.000000 0.000000 0.040234 0.000000 0.000000
# 5 0.000000 0.000000 0.000000 0.000000 0.041345 0.000000
# 6 0.000000 0.000000 0.000000 0.000000 0.000000 0.035580
#
#
# Mechanical properties :
#
#
# Convention : Reuss Voigt Hill
#
# Bulk Modulus (GPa) = 60.39220 65.94469 63.16845
# Shear Modulus (GPa) = 27.47885 30.10992 28.79438
#
# Velocity S-wave (km/s) = 3.74351 3.91863 3.83207
# Velocity P-wave (km/s) = 7.03451 7.35562 7.19685
#
# Compressibility (1/GPa) = 0.01655843
#
# Stress axis : x y z
#
# Youngs Moduli (GPa) = 59.51354 73.12744 134.39161
#
# Poissons Ratio (x) = 0.47798 0.12806
# Poissons Ratio (y) = 0.38899 0.42884
# Poissons Ratio (z) = 0.05671 0.23335
#
# Static dielectric constant tensor:
#      x y z
#    x 3.489800 0.000000 0.000000 
#    y 0.000000 3.184720 0.000000 
#    z 0.000000 0.000000 4.153070 
# 
# 
# High freq. dielectric constant tensor:
#      x y z
#    x 1.764790 0.000000 0.000000 
#    y 0.000000 1.733000 0.000000 
#    z 0.000000 0.000000 1.794120 
# 
# From -- ./inp_files/10704.got.cif
#   From: 2010.03.12/outbox.cif.g09.slc.cpg/sg37_6_cif.got.tgz:10704.got - 2010.04.14 02:25:27.
