data_PCOD8176818
_publ_section_title
;
Structure prediction by ZEFSAII (Michael W. Deem and Ramdas Pophale) SiO2 
 PCOD8176818
Probable space group: C C C 2
;
_chemical_formula_sum "Si O2"
_cell_formula_units_Z 60
_cell_length_a 11.387417
_cell_length_b 24.346095
_cell_length_c 9.693286
_cell_angle_alpha 90.000000
_cell_angle_beta 90.000000
_cell_angle_gamma 90.000000
_cell_volume 2687.358236
_symmetry_space_group_name_H-M "C C C 2"
_symmetry_group_IT_number 37
_symmetry_cell_setting 'orthorhombic'
loop_
_space_group_symop_operation_xyz
x,y,z
-x,-y,z
-x,y,1/2+z
x,-y,1/2+z
1/2+x,1/2+y,z
1/2-x,1/2-y,z
1/2-x,1/2+y,1/2+z
1/2+x,1/2-y,1/2+z
loop_
_atom_site_type_symbol
_atom_site_label
_atom_site_fract_x
_atom_site_fract_y
_atom_site_fract_z
Si Si1 0.817085 0.192591 0.926860
Si Si2 0.742087 0.617638 0.667966
Si Si3 0.990114 0.657658 0.624992
Si Si4 0.898011 0.965660 0.505230
Si Si5 0.251025 0.140969 0.156046
Si Si6 0.508393 0.230277 0.375767
Si Si7 0.877399 0.078783 0.431823
Si Si8 0.250000 0.750000 0.499353
O O1 0.750000 0.250000 0.905683
O O2 0.773699 0.145073 0.820571
O O3 0.952697 0.209584 0.901230
O O4 0.802951 0.170132 0.082300
O O5 0.883949 0.619344 0.679987
O O6 0.703555 0.560961 0.595776
O O7 0.682654 0.618436 0.818904
O O8 0.014300 0.710824 0.720445
O O9 0.112834 0.624332 0.624565
O O10 0.954807 0.682582 0.476175
O O11 0.977780 0.918370 0.426881
O O12 0.841029 0.013806 0.408464
O O13 0.000000 0.000000 0.592923
O O14 0.215290 0.200013 0.096804
O O15 0.168682 0.096103 0.083492
O O16 0.646368 0.233366 0.397730
#
# Coordination Sequence:
#
# PCOD8176818 Si02
#       8
#     8   8   8   8   8   8   8   4
#     4  12  23  42  62  97 146 189 231 266 334 404
#     4  12  23  41  71 103 127 180 231 280 346 408
#     4  11  22  39  64  90 140 174 225 274 336 393
#     4   8  24  46  67  97 137 163 215 312 350 398
#     4  11  21  44  64  94 138 194 217 274 345 410
#     4  11  23  41  56  90 138 189 222 285 314 395
#     4   9  24  44  71  97 130 172 227 285 357 404
#     4  10  22  36  60  90 134 184 240 266 328 398
#
# _framework density 22.326758000000002
#
# number of rings (size 3 to 8) (size 9 to 14) (size 15 to 20)
#    0.800    0.533    3.333    2.400    3.733    4.267 
#    3.600    0.667    0.000    1.600    0.000    0.000 
#    0.000    0.000    0.000    0.000    0.000    0.000 
#
# Total GULP energy -371747.327080 kJ/mol
# GULP energy per Si atom -12391.577569 kJ/mol
# Density = 2.227594 g / cm^3
# Si number density = 22.326758 Si / 1000 Ang^3
#
#
#
# Elastic Constant Matrix: (Units=GPa)
#
#
# Indices 1 2 3 4 5 6 
#
# 1 96.1319 43.4527 31.1700 0.0000 0.0000 0.0000
# 2 43.4527 66.6844 28.4715 0.0000 0.0000 0.0000
# 3 31.1700 28.4715 95.7102 0.0000 0.0000 0.0000
# 4 0.0000 0.0000 0.0000 28.7598 0.0000 0.0000
# 5 0.0000 0.0000 0.0000 0.0000 23.8002 0.0000
# 6 0.0000 0.0000 0.0000 0.0000 0.0000 44.1071
#
#
#
# Elastic Compliance Matrix: (Units=1/GPa)
#
#
# Indices 1 2 3 4 5 6 
#
# 1 0.015172 -0.008908 -0.002291 0.000000 0.000000 0.000000
# 2 -0.008908 0.022408 -0.003765 0.000000 0.000000 0.000000
# 3 -0.002291 -0.003765 0.012314 0.000000 0.000000 0.000000
# 4 0.000000 0.000000 0.000000 0.034771 0.000000 0.000000
# 5 0.000000 0.000000 0.000000 0.000000 0.042016 0.000000
# 6 0.000000 0.000000 0.000000 0.000000 0.000000 0.022672
#
#
# Mechanical properties :
#
#
# Convention : Reuss Voigt Hill
#
# Bulk Modulus (GPa) = 50.08427 51.63500 50.85963
# Shear Modulus (GPa) = 26.89090 29.69556 28.29323
#
# Velocity S-wave (km/s) = 3.47425 3.65093 3.56369
# Velocity P-wave (km/s) = 6.21087 6.39919 6.30573
#
# Compressibility (1/GPa) = 0.01996635
#
# Stress axis : x y z
#
# Youngs Moduli (GPa) = 65.91193 44.62688 81.20653
#
# Poissons Ratio (x) = 0.39754 0.18605
# Poissons Ratio (y) = 0.58714 0.30572
# Poissons Ratio (z) = 0.15101 0.16801
#
# Static dielectric constant tensor:
#      x y z
#    x 4.157170 0.000000 0.000000 
#    y 0.000000 3.859190 0.000000 
#    z 0.000000 0.000000 3.865610 
# 
# 
# High freq. dielectric constant tensor:
#      x y z
#    x 1.884810 0.000000 0.000000 
#    y 0.000000 1.852140 0.000000 
#    z 0.000000 0.000000 1.870630 
# 
# From -- ./inp_files/3063.got.cif
#   From: 2010.03.12/outbox.cif.g09.slc.cpg/sg37_2_cif.got.tgz:3063.got - 2010.04.14 02:25:27.
