data_PCOD8176569
_publ_section_title
;
Structure prediction by ZEFSAII (Michael W. Deem and Ramdas Pophale) SiO2 
 PCOD8176569
Probable space group: C C C 2
;
_chemical_formula_sum "Si O2"
_cell_formula_units_Z 44
_cell_length_a 15.842310
_cell_length_b 18.693357
_cell_length_c 8.339765
_cell_angle_alpha 90.000000
_cell_angle_beta 90.000000
_cell_angle_gamma 90.000000
_cell_volume 2469.787683
_symmetry_space_group_name_H-M "C C C 2"
_symmetry_group_IT_number 37
_symmetry_cell_setting 'orthorhombic'
loop_
_space_group_symop_operation_xyz
x,y,z
-x,-y,z
-x,y,1/2+z
x,-y,1/2+z
1/2+x,1/2+y,z
1/2-x,1/2-y,z
1/2-x,1/2+y,1/2+z
1/2+x,1/2-y,1/2+z
loop_
_atom_site_type_symbol
_atom_site_label
_atom_site_fract_x
_atom_site_fract_y
_atom_site_fract_z
Si Si1 0.568244 0.776730 0.299780
Si Si2 0.410335 0.963439 0.281084
Si Si3 0.598353 0.182040 0.436212
Si Si4 0.191754 0.811399 0.965109
Si Si5 0.250000 0.750000 0.271679
Si Si6 0.162293 0.591829 0.951834
O O1 0.467596 0.775662 0.323454
O O2 0.603384 0.700032 0.369774
O O3 0.604949 0.841112 0.405573
O O4 0.589264 0.790272 0.115928
O O5 0.419172 0.903474 0.420944
O O6 0.500000 0.000000 0.241755
O O7 0.346568 0.024691 0.336294
O O8 0.369138 0.926185 0.129000
O O9 0.693510 0.198612 0.381321
O O10 0.250000 0.750000 0.883355
O O11 0.187412 0.796910 0.157496
O O12 0.237916 0.887888 0.941460
#
# Coordination Sequence:
#
# PCOD8176569 Si02
#       6
#     8   8   8   8   4   8
#     4  11  22  37  56  78 114 154 192 241 285 336
#     4  12  22  33  53  83 120 158 187 223 292 359
#     4  12  23  36  57  85 116 151 194 234 293 350
#     4   8  18  37  53  72 111 146 190 233 280 322
#     4  10  20  36  58  78 112 148 190 240 284 338
#     4  11  21  35  50  79 114 153 184 230 273 347
#
# _framework density 17.815296
#
# number of rings (size 3 to 8) (size 9 to 14) (size 15 to 20)
#    0.545    0.727    3.636    3.818    3.818    0.000 
#    0.000    0.000    0.000    0.000    0.000    1.273 
#    0.000    0.000    0.000    0.000    0.000    0.000 
#
# Total GULP energy -272604.684538 kJ/mol
# GULP energy per Si atom -12391.122024 kJ/mol
# Density = 1.777475 g / cm^3
# Si number density = 17.815296 Si / 1000 Ang^3
#
#
#
# Elastic Constant Matrix: (Units=GPa)
#
#
# Indices 1 2 3 4 5 6 
#
# 1 77.1202 56.7322 32.8365 0.0000 0.0000 0.0000
# 2 56.7322 78.2898 40.1478 0.0000 0.0000 0.0000
# 3 32.8365 40.1478 115.5571 0.0000 0.0000 0.0000
# 4 0.0000 0.0000 0.0000 23.4847 0.0000 0.0000
# 5 0.0000 0.0000 0.0000 0.0000 24.3362 0.0000
# 6 0.0000 0.0000 0.0000 0.0000 0.0000 43.7556
#
#
#
# Elastic Compliance Matrix: (Units=1/GPa)
#
#
# Indices 1 2 3 4 5 6 
#
# 1 0.027885 -0.019643 -0.001099 0.000000 0.000000 0.000000
# 2 -0.019643 0.029379 -0.004625 0.000000 0.000000 0.000000
# 3 -0.001099 -0.004625 0.010573 0.000000 0.000000 0.000000
# 4 0.000000 0.000000 0.000000 0.042581 0.000000 0.000000
# 5 0.000000 0.000000 0.000000 0.000000 0.041091 0.000000
# 6 0.000000 0.000000 0.000000 0.000000 0.000000 0.022854
#
#
# Mechanical properties :
#
#
# Convention : Reuss Voigt Hill
#
# Bulk Modulus (GPa) = 58.47288 58.93336 58.70312
# Shear Modulus (GPa) = 21.66390 27.73200 24.69795
#
# Velocity S-wave (km/s) = 3.49094 3.94971 3.72739
# Velocity P-wave (km/s) = 7.01013 7.34522 7.17963
#
# Compressibility (1/GPa) = 0.01710195
#
# Stress axis : x y z
#
# Youngs Moduli (GPa) = 35.86193 34.03784 94.57969
#
# Poissons Ratio (x) = 0.66860 0.10396
# Poissons Ratio (y) = 0.70443 0.43747
# Poissons Ratio (z) = 0.03942 0.15744
#
# Static dielectric constant tensor:
#      x y z
#    x 3.462600 0.000000 0.000000 
#    y 0.000000 3.307800 0.000000 
#    z 0.000000 0.000000 3.283840 
# 
# 
# High freq. dielectric constant tensor:
#      x y z
#    x 1.669010 0.000000 0.000000 
#    y 0.000000 1.657790 0.000000 
#    z 0.000000 0.000000 1.700560 
# 
# From -- ./inp_files/3457.got.cif
#   From: 2010.03.12/outbox.cif.g09.slc.cpg/sg37_2_cif.got.tgz:3457.got - 2010.04.14 02:25:27.
