data_PCOD8176500
_publ_section_title
;
Structure prediction by ZEFSAII (Michael W. Deem and Ramdas Pophale) SiO2 
 PCOD8176500
Probable space group: C C C 2
;
_chemical_formula_sum "Si O2"
_cell_formula_units_Z 48
_cell_length_a 15.124764
_cell_length_b 17.450531
_cell_length_c 9.957015
_cell_angle_alpha 90.000000
_cell_angle_beta 90.000000
_cell_angle_gamma 90.000000
_cell_volume 2628.006378
_symmetry_space_group_name_H-M "C C C 2"
_symmetry_group_IT_number 37
_symmetry_cell_setting 'orthorhombic'
loop_
_space_group_symop_operation_xyz
x,y,z
-x,-y,z
-x,y,1/2+z
x,-y,1/2+z
1/2+x,1/2+y,z
1/2-x,1/2-y,z
1/2-x,1/2+y,1/2+z
1/2+x,1/2-y,1/2+z
loop_
_atom_site_type_symbol
_atom_site_label
_atom_site_fract_x
_atom_site_fract_y
_atom_site_fract_z
Si Si1 0.245757 0.638907 0.177990
Si Si2 0.714327 0.331146 0.876951
Si Si3 0.808675 0.980676 0.235528
Si Si4 0.917389 0.047035 0.476749
Si Si5 0.098103 0.247924 0.724932
Si Si6 0.019465 0.200316 0.450115
O O1 0.239041 0.549767 0.215930
O O2 0.159039 0.677520 0.239199
O O3 0.338110 0.673169 0.235525
O O4 0.241018 0.656719 0.020457
O O5 0.750000 0.250000 0.817260
O O6 0.741372 0.404048 0.786196
O O7 0.608195 0.333329 0.884111
O O8 0.842737 0.961231 0.087999
O O9 0.884734 0.010110 0.336812
O O10 0.946763 0.134649 0.469606
O O11 0.000000 0.000000 0.530859
O O12 0.042458 0.244906 0.586464
O O13 0.027318 0.256551 0.844058
#
# Coordination Sequence:
#
# PCOD8176500 Si02
#       6
#     8   8   8   8   8   8
#     4  10  19  39  58  84 121 167 192 231 302 374
#     4  11  21  38  60  86 119 161 198 235 299 363
#     4  12  22  36  57  89 123 154 195 240 296 365
#     4  12  22  31  54  91 125 148 182 239 308 365
#     4  10  20  35  61  83 119 158 201 234 298 356
#     4  11  20  34  57  90 117 153 194 243 292 365
#
# _framework density 18.264794999999999
#
# number of rings (size 3 to 8) (size 9 to 14) (size 15 to 20)
#    0.000    1.000    8.333    2.500    0.000    0.000 
#    0.000    3.333    0.000    1.000    0.000    0.000 
#    0.000    0.000    0.000    0.000    0.000    0.000 
#
# Total GULP energy -297529.531909 kJ/mol
# GULP energy per Si atom -12397.063830 kJ/mol
# Density = 1.822322 g / cm^3
# Si number density = 18.264795 Si / 1000 Ang^3
#
#
#
# Elastic Constant Matrix: (Units=GPa)
#
#
# Indices 1 2 3 4 5 6 
#
# 1 53.0104 40.0938 44.3052 0.0000 0.0000 0.0000
# 2 40.0938 139.0209 35.5333 0.0000 0.0000 0.0000
# 3 44.3052 35.5333 76.2360 0.0000 0.0000 0.0000
# 4 0.0000 0.0000 0.0000 18.2248 0.0000 0.0000
# 5 0.0000 0.0000 0.0000 0.0000 21.6303 0.0000
# 6 0.0000 0.0000 0.0000 0.0000 0.0000 32.4096
#
#
#
# Elastic Compliance Matrix: (Units=1/GPa)
#
#
# Indices 1 2 3 4 5 6 
#
# 1 0.041365 -0.006568 -0.020979 0.000000 0.000000 0.000000
# 2 -0.006568 0.009209 -0.000475 0.000000 0.000000 0.000000
# 3 -0.020979 -0.000475 0.025531 0.000000 0.000000 0.000000
# 4 0.000000 0.000000 0.000000 0.054870 0.000000 0.000000
# 5 0.000000 0.000000 0.000000 0.000000 0.046231 0.000000
# 6 0.000000 0.000000 0.000000 0.000000 0.000000 0.030855
#
#
# Mechanical properties :
#
#
# Convention : Reuss Voigt Hill
#
# Bulk Modulus (GPa) = 49.84697 56.45910 53.15304
# Shear Modulus (GPa) = 18.46439 24.34195 21.40317
#
# Velocity S-wave (km/s) = 3.18296 3.65461 3.42691
# Velocity P-wave (km/s) = 6.39209 6.98475 6.69498
#
# Compressibility (1/GPa) = 0.02006140
#
# Stress axis : x y z
#
# Youngs Moduli (GPa) = 24.17494 108.59199 39.16872
#
# Poissons Ratio (x) = 0.71320 0.82170
# Poissons Ratio (y) = 0.15877 0.01862
# Poissons Ratio (z) = 0.50716 0.05161
#
# Static dielectric constant tensor:
#      x y z
#    x 3.172060 0.000000 0.000000 
#    y 0.000000 3.436230 0.000000 
#    z 0.000000 0.000000 3.339040 
# 
# 
# High freq. dielectric constant tensor:
#      x y z
#    x 1.676800 0.000000 0.000000 
#    y 0.000000 1.700650 0.000000 
#    z 0.000000 0.000000 1.708310 
# 
# From -- ./inp_files/3502.got.cif
#   From: 2010.03.12/outbox.cif.g09.slc.cpg/sg37_2_cif.got.tgz:3502.got - 2010.04.14 02:25:27.
