data_PCOD8176595
_publ_section_title
;
Structure prediction by ZEFSAII (Michael W. Deem and Ramdas Pophale) SiO2 
 PCOD8176595
Probable space group: C C C 2
;
_chemical_formula_sum "Si O2"
_cell_formula_units_Z 60
_cell_length_a 16.981234
_cell_length_b 18.503204
_cell_length_c 9.419493
_cell_angle_alpha 90.000000
_cell_angle_beta 90.000000
_cell_angle_gamma 90.000000
_cell_volume 2959.672868
_symmetry_space_group_name_H-M "C C C 2"
_symmetry_group_IT_number 37
_symmetry_cell_setting 'orthorhombic'
loop_
_space_group_symop_operation_xyz
x,y,z
-x,-y,z
-x,y,1/2+z
x,-y,1/2+z
1/2+x,1/2+y,z
1/2-x,1/2-y,z
1/2-x,1/2+y,1/2+z
1/2+x,1/2-y,1/2+z
loop_
_atom_site_type_symbol
_atom_site_label
_atom_site_fract_x
_atom_site_fract_y
_atom_site_fract_z
Si Si1 0.214173 0.570660 0.889090
Si Si2 0.779667 0.424552 0.219453
Si Si3 0.081276 0.670566 0.891454
Si Si4 0.650041 0.680109 0.371330
Si Si5 0.078977 0.679446 0.218525
Si Si6 0.965053 0.908305 0.227942
Si Si7 0.626566 0.661951 0.694833
Si Si8 0.500000 0.500000 0.972675
O O1 0.233265 0.497900 0.805833
O O2 0.124890 0.595503 0.854433
O O3 0.268341 0.638968 0.843327
O O4 0.222018 0.554208 0.055045
O O5 0.860799 0.384406 0.263166
O O6 0.708163 0.370051 0.252797
O O7 0.148100 0.732857 0.864389
O O8 0.002016 0.675588 0.803151
O O9 0.055740 0.672631 0.054787
O O10 0.591427 0.659960 0.241485
O O11 0.618108 0.657193 0.525407
O O12 0.121004 0.755908 0.249831
O O13 0.941230 0.958384 0.364326
O O14 0.055366 0.886268 0.253475
O O15 0.950162 0.947631 0.077513
#
# Coordination Sequence:
#
# PCOD8176595 Si02
#       8
#     8   8   8   8   8   8   8   4
#     4  10  23  40  61  87 118 156 196 244 295 348
#     4  10  23  40  61  87 118 156 196 244 295 348
#     4  10  21  40  64  88 116 152 199 246 293 348
#     4  10  20  37  61  86 115 153 196 239 289 348
#     4  10  21  40  64  88 116 152 199 246 293 348
#     4  11  20  34  52  82 115 156 190 230 283 352
#     4  10  20  37  61  86 115 153 196 239 289 348
#     4  10  24  30  48  82 124 150 188 230 288 342
#
# _framework density 20.27251
#
# number of rings (size 3 to 8) (size 9 to 14) (size 15 to 20)
#    0.000    1.867    2.667    0.800    3.733    4.800 
#    0.000    2.667    0.000    3.200    0.000    0.000 
#    0.000    0.000    0.000    0.000    0.000    0.000 
#
# Total GULP energy -371774.767126 kJ/mol
# GULP energy per Si atom -12392.492238 kJ/mol
# Density = 2.022637 g / cm^3
# Si number density = 20.272510 Si / 1000 Ang^3
#
#
#
# Elastic Constant Matrix: (Units=GPa)
#
#
# Indices 1 2 3 4 5 6 
#
# 1 117.2552 55.8487 41.4083 0.0000 0.0000 0.0000
# 2 55.8487 80.9105 39.3148 0.0000 0.0000 0.0000
# 3 41.4083 39.3148 77.8250 0.0000 0.0000 0.0000
# 4 0.0000 0.0000 0.0000 29.5466 0.0000 0.0000
# 5 0.0000 0.0000 0.0000 0.0000 29.5573 0.0000
# 6 0.0000 0.0000 0.0000 0.0000 0.0000 24.6066
#
#
#
# Elastic Compliance Matrix: (Units=1/GPa)
#
#
# Indices 1 2 3 4 5 6 
#
# 1 0.013291 -0.007605 -0.003230 0.000000 0.000000 0.000000
# 2 -0.007605 0.020731 -0.006427 0.000000 0.000000 0.000000
# 3 -0.003230 -0.006427 0.017815 0.000000 0.000000 0.000000
# 4 0.000000 0.000000 0.000000 0.033845 0.000000 0.000000
# 5 0.000000 0.000000 0.000000 0.000000 0.033833 0.000000
# 6 0.000000 0.000000 0.000000 0.000000 0.000000 0.040640
#
#
# Mechanical properties :
#
#
# Convention : Reuss Voigt Hill
#
# Bulk Modulus (GPa) = 57.75652 61.01492 59.38572
# Shear Modulus (GPa) = 24.94407 26.03668 25.49037
#
# Velocity S-wave (km/s) = 3.51157 3.58765 3.54981
# Velocity P-wave (km/s) = 6.70771 6.87927 6.79403
#
# Compressibility (1/GPa) = 0.01731406
#
# Stress axis : x y z
#
# Youngs Moduli (GPa) = 75.23719 48.23634 56.13399
#
# Poissons Ratio (x) = 0.36683 0.18132
# Poissons Ratio (y) = 0.57216 0.36075
# Poissons Ratio (z) = 0.24303 0.30999
#
# Static dielectric constant tensor:
#      x y z
#    x 3.561240 0.000000 0.000000 
#    y 0.000000 3.811200 0.000000 
#    z 0.000000 0.000000 3.579280 
# 
# 
# High freq. dielectric constant tensor:
#      x y z
#    x 1.784210 0.000000 0.000000 
#    y 0.000000 1.800920 0.000000 
#    z 0.000000 0.000000 1.776020 
# 
# From -- ./inp_files/4082.got.cif
#   From: 2010.03.12/outbox.cif.g09.slc.cpg/sg37_3_cif.got.tgz:4082.got - 2010.04.14 02:25:27.
