data_PCOD8176746
_publ_section_title
;
Structure prediction by ZEFSAII (Michael W. Deem and Ramdas Pophale) SiO2 
 PCOD8176746
Probable space group: C C C 2
;
_chemical_formula_sum "Si O2"
_cell_formula_units_Z 56
_cell_length_a 21.260620
_cell_length_b 23.484541
_cell_length_c 5.196628
_cell_angle_alpha 90.000000
_cell_angle_beta 90.000000
_cell_angle_gamma 90.000000
_cell_volume 2594.655065
_symmetry_space_group_name_H-M "C C C 2"
_symmetry_group_IT_number 37
_symmetry_cell_setting 'orthorhombic'
loop_
_space_group_symop_operation_xyz
x,y,z
-x,-y,z
-x,y,1/2+z
x,-y,1/2+z
1/2+x,1/2+y,z
1/2-x,1/2-y,z
1/2-x,1/2+y,1/2+z
1/2+x,1/2-y,1/2+z
loop_
_atom_site_type_symbol
_atom_site_label
_atom_site_fract_x
_atom_site_fract_y
_atom_site_fract_z
Si Si1 0.538049 0.175439 0.500000
Si Si2 0.254681 0.536858 0.509617
Si Si3 0.647673 0.616434 0.815529
Si Si4 0.971447 0.063719 0.150845
Si Si5 0.825250 0.360756 0.586745
Si Si6 0.961213 0.192587 0.461514
Si Si7 0.740602 0.184012 0.095160
O O1 0.486940 0.159209 0.717444
O O2 0.599983 0.140682 0.571390
O O3 0.555624 0.241710 0.503439
O O4 0.258178 0.489249 0.725143
O O5 0.312896 0.580966 0.526117
O O6 0.191168 0.572993 0.540212
O O7 0.603984 0.570511 0.656205
O O8 0.605432 0.659945 0.980864
O O9 0.692913 0.650359 0.617405
O O10 0.999106 0.095368 0.404507
O O11 0.000000 0.000000 0.160127
O O12 0.800714 0.342209 0.866595
O O13 0.795668 0.321073 0.365450
O O14 0.012199 0.176985 0.678797
O O15 0.750000 0.250000 0.032712
#
# Coordination Sequence:
#
# PCOD8176746 Si02
#       7
#     8   8   8   8   8   8   8
#     4  10  21  39  68  99 127 167 201 253 333 418
#     4  11  26  43  64  90 123 175 226 280 324 377
#     4  11  24  40  64  87 128 175 230 272 334 387
#     4  10  23  38  56  83 117 166 220 283 318 360
#     4  11  23  44  66  96 134 167 217 273 334 402
#     4  10  22  38  59  92 132 167 214 269 330 390
#     4  11  24  40  64  98 131 174 219 278 342 405
#
# _framework density 21.582830000000001
#
# number of rings (size 3 to 8) (size 9 to 14) (size 15 to 20)
#    0.000    1.429    0.000    4.714    4.000    9.143 
#    0.000    0.000    0.000    2.571    0.000    0.000 
#    0.000    0.000    0.000    0.000    0.000    0.000 
#
# Total GULP energy -347206.006876 kJ/mol
# GULP energy per Si atom -12400.214531 kJ/mol
# Density = 2.153371 g / cm^3
# Si number density = 21.582830 Si / 1000 Ang^3
#
#
#
# Elastic Constant Matrix: (Units=GPa)
#
#
# Indices 1 2 3 4 5 6 
#
# 1 138.7563 52.2891 23.1054 0.0000 0.0000 0.0000
# 2 52.2891 74.9642 25.6174 0.0000 0.0000 0.0000
# 3 23.1054 25.6174 98.0769 0.0000 0.0000 0.0000
# 4 0.0000 0.0000 0.0000 29.5310 0.0000 0.0000
# 5 0.0000 0.0000 0.0000 0.0000 30.1734 0.0000
# 6 0.0000 0.0000 0.0000 0.0000 0.0000 44.0963
#
#
#
# Elastic Compliance Matrix: (Units=1/GPa)
#
#
# Indices 1 2 3 4 5 6 
#
# 1 0.009806 -0.006644 -0.000575 0.000000 0.000000 0.000000
# 2 -0.006644 0.019148 -0.003436 0.000000 0.000000 0.000000
# 3 -0.000575 -0.003436 0.011229 0.000000 0.000000 0.000000
# 4 0.000000 0.000000 0.000000 0.033863 0.000000 0.000000
# 5 0.000000 0.000000 0.000000 0.000000 0.033142 0.000000
# 6 0.000000 0.000000 0.000000 0.000000 0.000000 0.022678
#
#
# Mechanical properties :
#
#
# Convention : Reuss Voigt Hill
#
# Bulk Modulus (GPa) = 52.98364 57.09125 55.03745
# Shear Modulus (GPa) = 31.75287 34.81250 33.28268
#
# Velocity S-wave (km/s) = 3.83980 4.02054 3.93121
# Velocity P-wave (km/s) = 6.65289 6.93272 6.79425
#
# Compressibility (1/GPa) = 0.01887375
#
# Stress axis : x y z
#
# Youngs Moduli (GPa) = 101.97662 52.22487 89.05461
#
# Poissons Ratio (x) = 0.34696 0.05120
# Poissons Ratio (y) = 0.67749 0.30602
# Poissons Ratio (z) = 0.05863 0.17946
#
# Static dielectric constant tensor:
#      x y z
#    x 3.863620 0.000000 0.000000 
#    y 0.000000 4.022870 0.000000 
#    z 0.000000 0.000000 4.809630 
# 
# 
# High freq. dielectric constant tensor:
#      x y z
#    x 1.839050 0.000000 0.000000 
#    y 0.000000 1.852460 0.000000 
#    z 0.000000 0.000000 1.862740 
# 
# From -- ./inp_files/1033.got.cif
#   From: 2010.03.12/outbox.cif.g09.slc.cpg/sg37_1_cif.got.tgz:1033.got - 2010.04.14 02:25:27.
