data_PCOD8176331
_publ_section_title
;
Structure prediction by ZEFSAII (Michael W. Deem and Ramdas Pophale) SiO2 
 PCOD8176331
Probable space group: C M C 21
;
_chemical_formula_sum "Si O2"
_cell_formula_units_Z 48
_cell_length_a 13.623324
_cell_length_b 19.722022
_cell_length_c 8.328355
_cell_angle_alpha 90.000000
_cell_angle_beta 90.000000
_cell_angle_gamma 90.000000
_cell_volume 2237.658221
_symmetry_space_group_name_H-M "C M C 21"
_symmetry_group_IT_number 36
_symmetry_cell_setting 'orthorhombic'
loop_
_space_group_symop_operation_xyz
x,y,z
-x,-y,1/2+z
x,-y,1/2+z
-x,y,z
1/2+x,1/2+y,z
1/2-x,1/2-y,1/2+z
1/2+x,1/2-y,1/2+z
1/2-x,1/2+y,z
loop_
_atom_site_type_symbol
_atom_site_label
_atom_site_fract_x
_atom_site_fract_y
_atom_site_fract_z
Si Si1 0.198820 0.328177 0.301520
Si Si2 0.302765 0.688100 0.128617
Si Si3 0.297726 0.555212 0.633735
Si Si4 0.000000 0.594866 0.751549
Si Si5 0.000000 0.895475 0.614400
Si Si6 0.500000 0.534252 0.465288
Si Si7 0.290191 0.071848 0.308726
Si Si8 0.500000 0.952742 0.881135
O O1 0.230768 0.306641 0.477951
O O2 0.185269 0.264134 0.187479
O O3 0.283766 0.380420 0.247988
O O4 0.094648 0.363486 0.300829
O O5 0.407058 0.653342 0.092284
O O6 0.249020 0.645625 0.266490
O O7 0.405331 0.560893 0.559189
O O8 0.278396 0.484176 0.722591
O O9 0.215431 0.559201 0.497815
O O10 0.000000 0.533525 0.877261
O O11 0.000000 0.574867 0.563321
O O12 0.000000 0.936890 0.783961
O O13 0.000000 0.951633 0.470440
O O14 0.406097 0.070222 0.274624
#
# Coordination Sequence:
#
# PCOD8176331 Si02
#       8
#     8   8   8   4   4   4   8   4
#     4  12  28  49  72 101 148 193 248 298 364 431
#     4  12  28  49  72 101 148 193 248 298 364 431
#     4  12  23  43  71 107 143 187 237 301 357 425
#     4  12  27  46  76 107 145 189 241 301 365 438
#     4  12  27  46  76 107 145 189 241 301 365 438
#     4  12  24  42  76 108 147 178 243 292 368 420
#     4  12  23  43  71 107 143 187 237 301 357 425
#     4  12  24  42  76 108 147 178 243 292 368 420
#
# _framework density 21.450998999999999
#
# number of rings (size 3 to 8) (size 9 to 14) (size 15 to 20)
#    0.000    0.000    6.667    2.500    4.667    0.000 
#    0.000    1.667    0.000    0.000    0.000    0.000 
#    0.000    0.000    0.000    0.000    0.000    0.000 
#
# Total GULP energy -297611.410055 kJ/mol
# GULP energy per Si atom -12400.475419 kJ/mol
# Density = 2.140218 g / cm^3
# Si number density = 21.450999 Si / 1000 Ang^3
#
#
#
# Elastic Constant Matrix: (Units=GPa)
#
#
# Indices 1 2 3 4 5 6 
#
# 1 143.5534 51.3650 19.6252 0.0000 0.0000 0.0000
# 2 51.3650 72.0174 -0.7043 0.0000 0.0000 0.0000
# 3 19.6252 -0.7043 66.4280 0.0000 0.0000 0.0000
# 4 0.0000 0.0000 0.0000 24.5871 0.0000 0.0000
# 5 0.0000 0.0000 0.0000 0.0000 27.4919 0.0000
# 6 0.0000 0.0000 0.0000 0.0000 0.0000 35.6834
#
#
#
# Elastic Compliance Matrix: (Units=1/GPa)
#
#
# Indices 1 2 3 4 5 6 
#
# 1 0.009919 -0.007104 -0.003006 0.000000 0.000000 0.000000
# 2 -0.007104 0.018975 0.002300 0.000000 0.000000 0.000000
# 3 -0.003006 0.002300 0.015966 0.000000 0.000000 0.000000
# 4 0.000000 0.000000 0.000000 0.040672 0.000000 0.000000
# 5 0.000000 0.000000 0.000000 0.000000 0.036374 0.000000
# 6 0.000000 0.000000 0.000000 0.000000 0.000000 0.028024
#
#
# Mechanical properties :
#
#
# Convention : Reuss Voigt Hill
#
# Bulk Modulus (GPa) = 34.19907 46.95229 40.57568
# Shear Modulus (GPa) = 28.52319 31.66668 30.09493
#
# Velocity S-wave (km/s) = 3.65045 3.84635 3.74968
# Velocity P-wave (km/s) = 5.80906 6.45457 6.14031
#
# Compressibility (1/GPa) = 0.02924057
#
# Stress axis : x y z
#
# Youngs Moduli (GPa) = 100.81908 52.70190 62.63210
#
# Poissons Ratio (x) = 0.37438 0.18825
# Poissons Ratio (y) = 0.71619 -0.14405
# Poissons Ratio (z) = 0.30303 -0.12121
#
# Static dielectric constant tensor:
#      x y z
#    x 4.070440 0.000000 0.000000 
#    y 0.000000 3.957690 0.000000 
#    z 0.000000 0.000000 3.918880 
# 
# 
# High freq. dielectric constant tensor:
#      x y z
#    x 1.865880 0.000000 0.000000 
#    y 0.000000 1.840930 0.000000 
#    z 0.000000 0.000000 1.846340 
# 
# From -- ./inp_files/4045.got.cif
#   From: 2010.03.12/outbox.cif.g09.slc.cpg/sg36_3_cif.got.tgz:4045.got - 2010.04.14 02:13:53.
