data_PCOD8176286
_publ_section_title
;
Structure prediction by ZEFSAII (Michael W. Deem and Ramdas Pophale) SiO2 
 PCOD8176286
Probable space group: C M C 21
;
_chemical_formula_sum "Si O2"
_cell_formula_units_Z 48
_cell_length_a 16.334131
_cell_length_b 13.441600
_cell_length_c 9.824616
_cell_angle_alpha 90.000000
_cell_angle_beta 90.000000
_cell_angle_gamma 90.000000
_cell_volume 2157.061793
_symmetry_space_group_name_H-M "C M C 21"
_symmetry_group_IT_number 36
_symmetry_cell_setting 'orthorhombic'
loop_
_space_group_symop_operation_xyz
x,y,z
-x,-y,1/2+z
x,-y,1/2+z
-x,y,z
1/2+x,1/2+y,z
1/2-x,1/2-y,1/2+z
1/2+x,1/2-y,1/2+z
1/2-x,1/2+y,z
loop_
_atom_site_type_symbol
_atom_site_label
_atom_site_fract_x
_atom_site_fract_y
_atom_site_fract_z
Si Si1 0.410085 0.944912 0.038750
Si Si2 0.150793 0.114722 0.357855
Si Si3 0.832754 0.420886 0.753554
Si Si4 0.824245 0.787363 0.138593
Si Si5 0.638880 0.263766 0.611890
Si Si6 0.904968 0.899160 0.370389
O O1 0.500000 0.992917 0.059165
O O2 0.417969 0.829157 0.077995
O O3 0.343139 0.999266 0.132821
O O4 0.386820 0.954766 0.880912
O O5 0.239599 0.083583 0.302125
O O6 0.154123 0.191109 0.482678
O O7 0.102920 0.173432 0.238476
O O8 0.101750 0.016400 0.400625
O O9 0.863573 0.315474 0.692961
O O10 0.726984 0.780305 0.151841
O O11 0.861451 0.877117 0.226923
O O12 0.644488 0.337006 0.483103
O O13 0.000000 0.868003 0.369773
#
# Coordination Sequence:
#
# PCOD8176286 Si02
#       6
#     8   8   8   8   8   8
#     4  12  25  45  70 101 143 186 230 298 366 414
#     4  11  25  42  72 101 136 182 239 286 349 430
#     4  11  26  44  72 102 139 181 245 293 348 424
#     4  11  23  46  71 101 135 188 237 289 350 423
#     4  11  23  44  69 102 137 185 236 288 351 427
#     4  12  26  45  70 103 146 182 229 298 362 416
#
# _framework density 22.252492
#
# number of rings (size 3 to 8) (size 9 to 14) (size 15 to 20)
#    0.000    0.667    3.333    4.000    7.000    4.000 
#    0.000    0.000    0.000    0.000    0.000    0.000 
#    0.000    0.000    0.000    0.000    0.000    0.000 
#
# Total GULP energy -297687.766559 kJ/mol
# GULP energy per Si atom -12403.656940 kJ/mol
# Density = 2.220184 g / cm^3
# Si number density = 22.252492 Si / 1000 Ang^3
#
#
#
# Elastic Constant Matrix: (Units=GPa)
#
#
# Indices 1 2 3 4 5 6 
#
# 1 77.1793 8.0240 34.3941 0.0000 0.0000 0.0000
# 2 8.0240 101.3693 51.2371 0.0000 0.0000 0.0000
# 3 34.3941 51.2371 151.7635 0.0000 0.0000 0.0000
# 4 0.0000 0.0000 0.0000 49.8631 0.0000 0.0000
# 5 0.0000 0.0000 0.0000 0.0000 18.1993 0.0000
# 6 0.0000 0.0000 0.0000 0.0000 0.0000 23.7086
#
#
#
# Elastic Compliance Matrix: (Units=1/GPa)
#
#
# Indices 1 2 3 4 5 6 
#
# 1 0.014444 0.000616 -0.003482 0.000000 0.000000 0.000000
# 2 0.000616 0.011921 -0.004164 0.000000 0.000000 0.000000
# 3 -0.003482 -0.004164 0.008784 0.000000 0.000000 0.000000
# 4 0.000000 0.000000 0.000000 0.020055 0.000000 0.000000
# 5 0.000000 0.000000 0.000000 0.000000 0.054947 0.000000
# 6 0.000000 0.000000 0.000000 0.000000 0.000000 0.042179
#
#
# Mechanical properties :
#
#
# Convention : Reuss Voigt Hill
#
# Bulk Modulus (GPa) = 47.41501 57.51359 52.46430
# Shear Modulus (GPa) = 28.83179 34.13132 31.48156
#
# Velocity S-wave (km/s) = 3.60344 3.92065 3.76539
# Velocity P-wave (km/s) = 6.21828 6.81156 6.52167
#
# Compressibility (1/GPa) = 0.02109037
#
# Stress axis : x y z
#
# Youngs Moduli (GPa) = 69.23145 83.88556 113.84119
#
# Poissons Ratio (x) = -0.05171 0.39635
# Poissons Ratio (y) = -0.04268 0.47408
# Poissons Ratio (z) = 0.24104 0.34933
#
# Static dielectric constant tensor:
#      x y z
#    x 3.699860 0.000000 0.000000 
#    y 0.000000 4.170700 0.000000 
#    z 0.000000 0.000000 4.159730 
# 
# 
# High freq. dielectric constant tensor:
#      x y z
#    x 1.860570 0.000000 0.000000 
#    y 0.000000 1.884020 0.000000 
#    z 0.000000 0.000000 1.890460 
# 
# From -- ./inp_files/4668.got.cif
#   From: 2010.03.12/outbox.cif.g09.slc.cpg/sg36_3_cif.got.tgz:4668.got - 2010.04.14 02:13:53.
