data_PCOD8176200
_publ_section_title
;
Structure prediction by ZEFSAII (Michael W. Deem and Ramdas Pophale) SiO2 
 PCOD8176200
Probable space group: C M C 21
;
_chemical_formula_sum "Si O2"
_cell_formula_units_Z 64
_cell_length_a 9.172473
_cell_length_b 22.690165
_cell_length_c 18.190341
_cell_angle_alpha 90.000000
_cell_angle_beta 90.000000
_cell_angle_gamma 90.000000
_cell_volume 3785.863371
_symmetry_space_group_name_H-M "C M C 21"
_symmetry_group_IT_number 36
_symmetry_cell_setting 'orthorhombic'
loop_
_space_group_symop_operation_xyz
x,y,z
-x,-y,1/2+z
x,-y,1/2+z
-x,y,z
1/2+x,1/2+y,z
1/2-x,1/2-y,1/2+z
1/2+x,1/2-y,1/2+z
1/2-x,1/2+y,z
loop_
_atom_site_type_symbol
_atom_site_label
_atom_site_fract_x
_atom_site_fract_y
_atom_site_fract_z
Si Si1 0.341068 0.670477 0.123190
Si Si2 0.826839 0.113127 0.505566
Si Si3 0.671544 0.615027 0.341636
Si Si4 0.674478 0.935335 0.144308
Si Si5 0.662189 0.669484 0.716514
Si Si6 0.158578 0.765876 0.063187
Si Si7 0.673679 0.551956 0.196861
Si Si8 0.162038 0.233123 0.278219
O O1 0.500000 0.662666 0.088178
O O2 0.248846 0.705120 0.061376
O O3 0.279989 0.605865 0.143402
O O4 0.350667 0.709775 0.195586
O O5 0.787852 0.092017 0.423020
O O6 0.737201 0.073112 0.562074
O O7 0.776113 0.181555 0.512900
O O8 0.000000 0.107756 0.523058
O O9 0.500000 0.623372 0.331960
O O10 0.722334 0.568019 0.280478
O O11 0.734967 0.680950 0.327330
O O12 0.500000 0.932159 0.142765
O O13 0.736610 0.886622 0.200095
O O14 0.728734 0.997752 0.172932
O O15 0.500000 0.648983 0.741602
O O16 0.647695 0.709518 0.645140
O O17 0.736161 0.708757 0.780796
O O18 0.000000 0.748798 0.032884
O O19 0.500000 0.538840 0.191826
O O20 0.000000 0.250646 0.306350
#
# Coordination Sequence:
#
# PCOD8176200 Si02
#       8
#     8   8   8   8   8   8   8   8
#     4   8  14  24  41  63  87 112 140 176 220 267
#     4   9  17  31  49  70  95 125 157 192 237 292
#     4   8  15  29  51  73  94 122 156 192 238 292
#     4  11  21  31  45  68  95 126 163 205 244 279
#     4   9  16  27  43  64  89 118 149 184 224 271
#     4   8  14  23  39  63  89 113 140 175 218 263
#     4   9  17  31  49  69  91 121 161 202 239 283
#     4   8  13  24  43  68  92 113 140 178 224 275
#
# _framework density 16.904995
#
# number of rings (size 3 to 8) (size 9 to 14) (size 15 to 20)
#    0.000    3.250    0.000    3.750    0.000    3.500 
#    0.000    3.125    0.000    1.500    0.000    3.500 
#    0.000    0.000    0.000    0.000    0.000    0.000 
#
# Total GULP energy -396461.777546 kJ/mol
# GULP energy per Si atom -12389.430548 kJ/mol
# Density = 1.686652 g / cm^3
# Si number density = 16.904995 Si / 1000 Ang^3
#
#
#
# Elastic Constant Matrix: (Units=GPa)
#
#
# Indices 1 2 3 4 5 6 
#
# 1 90.5840 58.2609 36.2289 0.0000 0.0000 0.0000
# 2 58.2609 114.9199 49.3630 0.0000 0.0000 0.0000
# 3 36.2289 49.3630 68.6493 0.0000 0.0000 0.0000
# 4 0.0000 0.0000 0.0000 16.1693 0.0000 0.0000
# 5 0.0000 0.0000 0.0000 0.0000 13.3318 0.0000
# 6 0.0000 0.0000 0.0000 0.0000 0.0000 28.7837
#
#
#
# Elastic Compliance Matrix: (Units=1/GPa)
#
#
# Indices 1 2 3 4 5 6 
#
# 1 0.017123 -0.006944 -0.004043 0.000000 0.000000 0.000000
# 2 -0.006944 0.015407 -0.007414 0.000000 0.000000 0.000000
# 3 -0.004043 -0.007414 0.022031 0.000000 0.000000 0.000000
# 4 0.000000 0.000000 0.000000 0.061846 0.000000 0.000000
# 5 0.000000 0.000000 0.000000 0.000000 0.075009 0.000000
# 6 0.000000 0.000000 0.000000 0.000000 0.000000 0.034742
#
#
# Mechanical properties :
#
#
# Convention : Reuss Voigt Hill
#
# Bulk Modulus (GPa) = 56.30927 62.42877 59.36902
# Shear Modulus (GPa) = 18.59579 20.34365 19.46972
#
# Velocity S-wave (km/s) = 3.32025 3.47278 3.39737
# Velocity P-wave (km/s) = 6.93400 7.28627 7.11231
#
# Compressibility (1/GPa) = 0.01775906
#
# Stress axis : x y z
#
# Youngs Moduli (GPa) = 58.40202 64.90727 45.38978
#
# Poissons Ratio (x) = 0.45072 0.18352
# Poissons Ratio (y) = 0.40554 0.33651
# Poissons Ratio (z) = 0.23613 0.48120
#
# Static dielectric constant tensor:
#      x y z
#    x 3.290900 0.000000 0.000000 
#    y 0.000000 3.137680 0.000000 
#    z 0.000000 0.000000 2.980370 
# 
# 
# High freq. dielectric constant tensor:
#      x y z
#    x 1.637630 0.000000 0.000000 
#    y 0.000000 1.641860 0.000000 
#    z 0.000000 0.000000 1.612770 
# 
# From -- ./inp_files/16756.got.cif
#   From: 2010.03.12/outbox.cif.g09.slc.cpg/sg36_9_cif.got.tgz:16756.got - 2010.04.14 02:13:53.
