data_PCOD8176392
_publ_section_title
;
Structure prediction by ZEFSAII (Michael W. Deem and Ramdas Pophale) SiO2 
 PCOD8176392
Probable space group: C C C 2
;
_chemical_formula_sum "Si O2"
_cell_formula_units_Z 60
_cell_length_a 5.152676
_cell_length_b 18.178870
_cell_length_c 30.805864
_cell_angle_alpha 90.000000
_cell_angle_beta 90.000000
_cell_angle_gamma 90.000000
_cell_volume 2885.579956
_symmetry_space_group_name_H-M "C C C 2"
_symmetry_group_IT_number 37
_symmetry_cell_setting 'orthorhombic'
loop_
_space_group_symop_operation_xyz
x,y,z
-x,-y,z
-x,y,1/2+z
x,-y,1/2+z
1/2+x,1/2+y,z
1/2-x,1/2-y,z
1/2-x,1/2+y,1/2+z
1/2+x,1/2-y,1/2+z
loop_
_atom_site_type_symbol
_atom_site_label
_atom_site_fract_x
_atom_site_fract_y
_atom_site_fract_z
Si Si1 0.653851 0.925490 0.608110
Si Si2 0.500000 0.500000 0.674325
Si Si3 0.752815 0.162684 0.821517
Si Si4 0.248321 0.163248 0.969800
Si Si5 0.125890 0.325132 0.681093
Si Si6 0.750563 0.837219 0.873304
Si Si7 0.648685 0.624990 0.225966
Si Si8 0.753004 0.662668 0.523033
O O1 0.505233 0.866535 0.638341
O O2 0.769586 0.886001 0.566117
O O3 0.500000 0.000000 0.596014
O O4 0.883315 0.940682 0.641648
O O5 0.293466 0.544037 0.704860
O O6 0.750000 0.250000 0.812996
O O7 0.480899 0.135688 0.841944
O O8 0.821016 0.120261 0.777493
O O9 0.973534 0.137581 0.855058
O O10 0.250000 0.250000 0.965325
O O11 0.277583 0.128691 0.921730
O O12 0.484838 0.137346 0.999609
O O13 0.982446 0.138160 0.992320
O O14 0.250000 0.250000 0.663881
O O15 0.350169 0.359411 0.712261
O O16 0.866980 0.316304 0.710253
O O17 0.750000 0.750000 0.876469
O O18 0.750000 0.750000 0.533607
#
# Coordination Sequence:
#
# PCOD8176392 Si02
#       8
#     8   4   8   8   8   8   8   8
#     4  11  23  40  58  81 115 150 200 239 286 352
#     4  10  24  42  58  80 112 160 206 238 290 352
#     4  10  18  29  50  83 113 145 184 229 281 338
#     4   9  18  34  54  84 117 147 180 228 293 354
#     4  11  22  37  58  82 115 154 191 247 300 340
#     4   9  17  30  51  80 117 146 174 221 286 350
#     4  11  22  37  57  82 117 153 198 242 286 351
#     4  10  21  35  58  87 114 146 190 240 288 342
#
# _framework density 20.793047999999999
#
# number of rings (size 3 to 8) (size 9 to 14) (size 15 to 20)
#    0.000    1.867    1.333    3.200    1.867    4.267 
#    0.000    2.667    0.000    0.000    6.933    0.000 
#    0.000    0.000    0.000    0.000    0.000    0.000 
#
# Total GULP energy -371690.580995 kJ/mol
# GULP energy per Si atom -12389.686033 kJ/mol
# Density = 2.074572 g / cm^3
# Si number density = 20.793048 Si / 1000 Ang^3
#
#
#
# Elastic Constant Matrix: (Units=GPa)
#
#
# Indices 1 2 3 4 5 6 
#
# 1 120.1065 19.6649 47.5090 0.0000 0.0000 0.0000
# 2 19.6649 59.9890 46.4108 0.0000 0.0000 0.0000
# 3 47.5090 46.4108 166.3144 0.0000 0.0000 0.0000
# 4 0.0000 0.0000 0.0000 -17.4964 0.0000 0.0000
# 5 0.0000 0.0000 0.0000 0.0000 10.3902 0.0000
# 6 0.0000 0.0000 0.0000 0.0000 0.0000 19.2013
#
#
#
# Elastic Compliance Matrix: (Units=1/GPa)
#
#
# Indices 1 2 3 4 5 6 
#
# 1 0.009464 -0.001289 -0.002344 0.000000 0.000000 0.000000
# 2 -0.001289 0.021435 -0.005613 0.000000 0.000000 0.000000
# 3 -0.002344 -0.005613 0.008249 0.000000 0.000000 0.000000
# 4 0.000000 0.000000 0.000000 -0.057155 0.000000 0.000000
# 5 0.000000 0.000000 0.000000 0.000000 0.096245 0.000000
# 6 0.000000 0.000000 0.000000 0.000000 0.000000 0.052080
#
#
# Mechanical properties :
#
#
# Convention : Reuss Voigt Hill
#
# Bulk Modulus (GPa) = 48.41349 63.73103 56.07226
# Shear Modulus (GPa) = 32.11399 17.94070 25.02735
#
# Velocity S-wave (km/s) = 3.93422 2.94057 3.47312
# Velocity P-wave (km/s) = 6.63110 6.49969 6.56573
#
# Compressibility (1/GPa) = 0.02065540
#
# Stress axis : x y z
#
# Youngs Moduli (GPa) = 105.66247 46.65253 121.23221
#
# Poissons Ratio (x) = 0.06014 0.28414
# Poissons Ratio (y) = 0.13622 0.68051
# Poissons Ratio (z) = 0.24765 0.26187
#
# Static dielectric constant tensor:
#      x y z
#    x 3.912740 0.000000 0.000000 
#    y 0.000000 5.870280 0.000000 
#    z 0.000000 0.000000 3.871290 
# 
# 
# High freq. dielectric constant tensor:
#      x y z
#    x 1.819790 0.000000 0.000000 
#    y 0.000000 1.771120 0.000000 
#    z 0.000000 0.000000 1.824670 
# 
# From -- ./inp_files/19511.got.cif
#   From: 2010.03.12/outbox.cif.g09.slc.cpg/sg37_10_cif.got.tgz:19511.got - 2010.04.14 02:25:27.
