data_PCOD8176984
_publ_section_title
;
Structure prediction by ZEFSAII (Michael W. Deem and Ramdas Pophale) SiO2 
 PCOD8176984
Probable space group: C C C 2
;
_chemical_formula_sum "Si O2"
_cell_formula_units_Z 48
_cell_length_a 8.437065
_cell_length_b 19.774986
_cell_length_c 12.902024
_cell_angle_alpha 90.000000
_cell_angle_beta 90.000000
_cell_angle_gamma 90.000000
_cell_volume 2152.610355
_symmetry_space_group_name_H-M "C C C 2"
_symmetry_group_IT_number 37
_symmetry_cell_setting 'orthorhombic'
loop_
_space_group_symop_operation_xyz
x,y,z
-x,-y,z
-x,y,1/2+z
x,-y,1/2+z
1/2+x,1/2+y,z
1/2-x,1/2-y,z
1/2-x,1/2+y,1/2+z
1/2+x,1/2-y,1/2+z
loop_
_atom_site_type_symbol
_atom_site_label
_atom_site_fract_x
_atom_site_fract_y
_atom_site_fract_z
Si Si1 0.233443 0.613766 0.688750
Si Si2 0.250000 0.750000 0.358664
Si Si3 0.677107 0.521379 0.577792
Si Si4 0.903079 0.438521 0.894022
Si Si5 0.406477 0.653394 0.197515
Si Si6 0.460643 0.827011 0.508543
Si Si7 0.250000 0.250000 0.554797
O O1 0.236950 0.540563 0.634873
O O2 0.156167 0.608502 0.801083
O O3 0.407715 0.642502 0.712422
O O4 0.129309 0.666303 0.619487
O O5 0.313614 0.683881 0.297009
O O6 0.388823 0.771511 0.434068
O O7 0.500000 0.500000 0.547282
O O8 0.760523 0.539037 0.469700
O O9 0.678371 0.584601 0.658299
O O10 0.000000 0.500000 0.843980
O O11 0.040200 0.401102 0.959303
O O12 0.392652 0.713605 0.115438
O O13 0.649461 0.808983 0.501569
#
# Coordination Sequence:
#
# PCOD8176984 Si02
#       7
#     8   4   8   8   8   8   4
#     4  11  27  45  73 104 143 187 242 303 362 427
#     4  11  28  46  75 106 150 197 240 292 357 434
#     4  10  23  47  72 103 144 185 233 305 363 422
#     4  12  27  43  73 105 140 186 238 298 369 433
#     4  10  24  46  73 105 141 188 240 292 352 433
#     4  12  27  47  71 102 146 191 239 299 354 432
#     4  11  24  44  71  96 146 191 234 292 345 428
#
# _framework density 22.298508999999999
#
# number of rings (size 3 to 8) (size 9 to 14) (size 15 to 20)
#    0.000    1.000    3.333    1.000   11.667    4.667 
#    0.000    0.000    0.000    0.000    0.000    0.000 
#    0.000    0.000    0.000    0.000    0.000    0.000 
#
# Total GULP energy -297396.117515 kJ/mol
# GULP energy per Si atom -12391.504896 kJ/mol
# Density = 2.224776 g / cm^3
# Si number density = 22.298509 Si / 1000 Ang^3
#
#
#
# Elastic Constant Matrix: (Units=GPa)
#
#
# Indices 1 2 3 4 5 6 
#
# 1 113.7143 44.6690 57.9904 0.0000 0.0000 0.0000
# 2 44.6690 98.5970 39.2403 0.0000 0.0000 0.0000
# 3 57.9904 39.2403 131.3905 0.0000 0.0000 0.0000
# 4 0.0000 0.0000 0.0000 -12.5538 0.0000 0.0000
# 5 0.0000 0.0000 0.0000 0.0000-1141.0525 0.0000
# 6 0.0000 0.0000 0.0000 0.0000 0.0000 48.2642
#
#
#
# Elastic Compliance Matrix: (Units=1/GPa)
#
#
# Indices 1 2 3 4 5 6 
#
# 1 0.012577 -0.003959 -0.004369 0.000000 0.000000 0.000000
# 2 -0.003959 0.012757 -0.002062 0.000000 0.000000 0.000000
# 3 -0.004369 -0.002062 0.010155 0.000000 0.000000 0.000000
# 4 0.000000 0.000000 0.000000 -0.079657 0.000000 0.000000
# 5 0.000000 0.000000 0.000000 0.000000 -0.000876 0.000000
# 6 0.000000 0.000000 0.000000 0.000000 0.000000 0.020719
#
#
# Mechanical properties :
#
#
# Convention : Reuss Voigt Hill
#
# Bulk Modulus (GPa) = 67.98878 69.72235 68.85556
# Shear Modulus (GPa) = 3682.17489 -207.61494 1737.27998
#
# Velocity S-wave (km/s) = 40.68040 -9.65967 27.94267
# Velocity P-wave (km/s) = 47.29781 9.64763 32.74146
#
# Compressibility (1/GPa) = 0.01470831
#
# Stress axis : x y z
#
# Youngs Moduli (GPa) = 79.50970 78.38904 98.47439
#
# Poissons Ratio (x) = 0.31037 0.43019
# Poissons Ratio (y) = 0.31481 0.20309
# Poissons Ratio (z) = 0.34734 0.16167
#
# Static dielectric constant tensor:
#      x y z
#    x 30.314260 0.000000 0.000000 
#    y 0.000000 4.228860 0.000000 
#    z 0.000000 0.000000 3.860360 
# 
# 
# High freq. dielectric constant tensor:
#      x y z
#    x 1.887360 0.000000 0.000000 
#    y 0.000000 1.897390 0.000000 
#    z 0.000000 0.000000 1.869240 
# 
# From -- ./inp_files/10648.got.cif
#   From: 2010.03.12/outbox.cif.g09.slc.cpg/sg37_6_cif.got.tgz:10648.got - 2010.04.14 02:25:27.
