data_PCOD8176141
_publ_section_title
;
Structure prediction by ZEFSAII (Michael W. Deem and Ramdas Pophale) SiO2 
 PCOD8176141
Probable space group: C M C 21
;
_chemical_formula_sum "Si O2"
_cell_formula_units_Z 48
_cell_length_a 17.823947
_cell_length_b 15.323588
_cell_length_c 8.712663
_cell_angle_alpha 90.000000
_cell_angle_beta 90.000000
_cell_angle_gamma 90.000000
_cell_volume 2379.661942
_symmetry_space_group_name_H-M "C M C 21"
_symmetry_group_IT_number 36
_symmetry_cell_setting 'orthorhombic'
loop_
_space_group_symop_operation_xyz
x,y,z
-x,-y,1/2+z
x,-y,1/2+z
-x,y,z
1/2+x,1/2+y,z
1/2-x,1/2-y,1/2+z
1/2+x,1/2-y,1/2+z
1/2-x,1/2+y,z
loop_
_atom_site_type_symbol
_atom_site_label
_atom_site_fract_x
_atom_site_fract_y
_atom_site_fract_z
Si Si1 0.366057 0.296898 0.696900
Si Si2 0.915945 0.757443 0.356918
Si Si3 0.915182 0.614872 0.760420
Si Si4 0.707196 0.123096 0.255920
Si Si5 0.845184 0.503743 0.504855
Si Si6 0.500000 0.397161 0.192133
Si Si7 0.500000 0.589616 0.327051
O O1 0.377024 0.286301 0.514874
O O2 0.369787 0.204043 0.782143
O O3 0.282974 0.324851 0.739113
O O4 0.425940 0.364904 0.761679
O O5 0.864790 0.686824 0.269201
O O6 0.925952 0.842978 0.247818
O O7 0.000000 0.717971 0.389207
O O8 0.895420 0.570197 0.600197
O O9 0.000000 0.644892 0.756761
O O10 0.901964 0.548980 0.898269
O O11 0.701407 0.063062 0.106439
O O12 0.712815 0.060277 0.403941
O O13 0.500000 0.490130 0.273811
O O14 0.500000 0.406973 0.010236
#
# Coordination Sequence:
#
# PCOD8176141 Si02
#       7
#     8   8   8   8   8   4   4
#     4  12  25  42  73  98 145 180 237 292 357 421
#     4  10  23  47  70 103 139 187 228 300 356 427
#     4  11  22  41  68  98 135 180 229 285 351 420
#     4  11  26  44  70 100 141 185 234 288 357 416
#     4  10  25  43  62 102 138 182 230 287 348 425
#     4  10  26  44  76  97 136 179 235 287 360 415
#     4  12  24  48  68 107 128 187 231 293 350 431
#
# _framework density 20.170933000000002
#
# number of rings (size 3 to 8) (size 9 to 14) (size 15 to 20)
#    0.500    0.667    3.333    1.500    4.667    6.000 
#    3.000    0.000    0.000    0.000    0.000    0.000 
#    0.000    0.000    0.000    0.000    0.000    0.000 
#
# Total GULP energy -297599.774050 kJ/mol
# GULP energy per Si atom -12399.990585 kJ/mol
# Density = 2.012502 g / cm^3
# Si number density = 20.170933 Si / 1000 Ang^3
#
#
#
# Elastic Constant Matrix: (Units=GPa)
#
#
# Indices 1 2 3 4 5 6 
#
# 1 144.5782 77.5814 56.4617 0.0000 0.0000 0.0000
# 2 77.5814 159.3963 52.8463 0.0000 0.0000 0.0000
# 3 56.4617 52.8463 105.8767 0.0000 0.0000 0.0000
# 4 0.0000 0.0000 0.0000 88.8363 0.0000 0.0000
# 5 0.0000 0.0000 0.0000 0.0000 18.1437 0.0000
# 6 0.0000 0.0000 0.0000 0.0000 0.0000 23.4456
#
#
#
# Elastic Compliance Matrix: (Units=1/GPa)
#
#
# Indices 1 2 3 4 5 6 
#
# 1 0.010403 -0.003864 -0.003619 0.000000 0.000000 0.000000
# 2 -0.003864 0.008953 -0.002408 0.000000 0.000000 0.000000
# 3 -0.003619 -0.002408 0.012577 0.000000 0.000000 0.000000
# 4 0.000000 0.000000 0.000000 0.011257 0.000000 0.000000
# 5 0.000000 0.000000 0.000000 0.000000 0.055115 0.000000
# 6 0.000000 0.000000 0.000000 0.000000 0.000000 0.042652
#
#
# Mechanical properties :
#
#
# Convention : Reuss Voigt Hill
#
# Bulk Modulus (GPa) = 82.29974 87.06998 84.68486
# Shear Modulus (GPa) = 30.34173 40.94925 35.64549
#
# Velocity S-wave (km/s) = 3.88265 4.51056 4.20833
# Velocity P-wave (km/s) = 7.80959 8.38968 8.10482
#
# Compressibility (1/GPa) = 0.01215071
#
# Stress axis : x y z
#
# Youngs Moduli (GPa) = 96.12279 111.70034 79.50944
#
# Poissons Ratio (x) = 0.43156 0.28778
# Poissons Ratio (y) = 0.37137 0.19147
# Poissons Ratio (z) = 0.34791 0.26899
#
# Static dielectric constant tensor:
#      x y z
#    x 3.431890 0.000000 0.000000 
#    y 0.000000 3.874330 0.000000 
#    z 0.000000 0.000000 3.996960 
# 
# 
# High freq. dielectric constant tensor:
#      x y z
#    x 1.773910 0.000000 0.000000 
#    y 0.000000 1.808130 0.000000 
#    z 0.000000 0.000000 1.801290 
# 
# From -- ./inp_files/4692.got.cif
#   From: 2010.03.12/outbox.cif.g09.slc.cpg/sg36_3_cif.got.tgz:4692.got - 2010.04.14 02:13:53.
