data_PCOD8176081
_publ_section_title
;
Structure prediction by ZEFSAII (Michael W. Deem and Ramdas Pophale) SiO2 
 PCOD8176081
Probable space group: C M C 21
;
_chemical_formula_sum "Si O2"
_cell_formula_units_Z 56
_cell_length_a 23.123229
_cell_length_b 9.043225
_cell_length_c 12.862481
_cell_angle_alpha 90.000000
_cell_angle_beta 90.000000
_cell_angle_gamma 90.000000
_cell_volume 2689.654913
_symmetry_space_group_name_H-M "C M C 21"
_symmetry_group_IT_number 36
_symmetry_cell_setting 'orthorhombic'
loop_
_space_group_symop_operation_xyz
x,y,z
-x,-y,1/2+z
x,-y,1/2+z
-x,y,z
1/2+x,1/2+y,z
1/2-x,1/2-y,1/2+z
1/2+x,1/2-y,1/2+z
1/2-x,1/2+y,z
loop_
_atom_site_type_symbol
_atom_site_label
_atom_site_fract_x
_atom_site_fract_y
_atom_site_fract_z
Si Si1 0.344812 0.427523 0.965200
Si Si2 0.435346 0.196776 0.991146
Si Si3 0.064943 0.513330 0.294463
Si Si4 0.861655 0.734627 0.409285
Si Si5 0.758578 0.087281 0.655762
Si Si6 0.367025 0.041275 0.601371
Si Si7 0.743055 0.343031 0.806415
O O1 0.408323 0.358582 0.974937
O O2 0.355519 0.589724 0.917546
O O3 0.309282 0.318169 0.887523
O O4 0.311885 0.429311 0.076417
O O5 0.500000 0.219204 0.034476
O O6 0.436458 0.097533 0.889686
O O7 0.395204 0.116062 0.074700
O O8 0.090985 0.674791 0.326340
O O9 0.105276 0.424036 0.213206
O O10 0.000000 0.538924 0.251116
O O11 0.881380 0.672543 0.521456
O O12 0.801213 0.664270 0.373294
O O13 0.701757 0.019770 0.602333
O O14 0.744982 0.251722 0.698132
O O15 0.769837 0.007550 0.765501
#
# Coordination Sequence:
#
# PCOD8176081 Si02
#       7
#     8   8   8   8   8   8   8
#     4  12  26  41  65  98 137 177 222 276 348 405
#     4  10  24  43  66  94 130 176 225 276 325 391
#     4  10  22  43  71  96 125 178 232 275 327 398
#     4  11  24  41  63  96 135 172 218 282 339 393
#     4  12  24  38  65  95 135 174 219 272 339 403
#     4  11  21  40  66  94 130 171 221 274 327 397
#     4  12  24  40  60  97 135 170 219 275 337 407
#
# _framework density 20.820513999999999
#
# number of rings (size 3 to 8) (size 9 to 14) (size 15 to 20)
#    0.000    0.857    4.286    3.000    4.000    1.143 
#    0.000    0.000    0.000    2.571    0.000    0.000 
#    0.000    0.000    0.000    0.000    0.000    0.000 
#
# Total GULP energy -347061.772253 kJ/mol
# GULP energy per Si atom -12395.063295 kJ/mol
# Density = 2.077313 g / cm^3
# Si number density = 20.820514 Si / 1000 Ang^3
#
#
#
# Elastic Constant Matrix: (Units=GPa)
#
#
# Indices 1 2 3 4 5 6 
#
# 1 124.2673 43.6856 31.6235 0.0000 0.0000 0.0000
# 2 43.6856 90.6567 27.8843 0.0000 0.0000 0.0000
# 3 31.6235 27.8843 71.5415 0.0000 0.0000 0.0000
# 4 0.0000 0.0000 0.0000 34.8865 0.0000 0.0000
# 5 0.0000 0.0000 0.0000 0.0000 25.6608 0.0000
# 6 0.0000 0.0000 0.0000 0.0000 0.0000 28.7020
#
#
#
# Elastic Compliance Matrix: (Units=1/GPa)
#
#
# Indices 1 2 3 4 5 6 
#
# 1 0.010208 -0.004012 -0.002948 0.000000 0.000000 0.000000
# 2 -0.004012 0.014110 -0.003726 0.000000 0.000000 0.000000
# 3 -0.002948 -0.003726 0.016734 0.000000 0.000000 0.000000
# 4 0.000000 0.000000 0.000000 0.028664 0.000000 0.000000
# 5 0.000000 0.000000 0.000000 0.000000 0.038970 0.000000
# 6 0.000000 0.000000 0.000000 0.000000 0.000000 0.034841
#
#
# Mechanical properties :
#
#
# Convention : Reuss Voigt Hill
#
# Bulk Modulus (GPa) = 50.81774 54.76136 52.78955
# Shear Modulus (GPa) = 29.16145 30.06801 29.61473
#
# Velocity S-wave (km/s) = 3.74653 3.80432 3.77554
# Velocity P-wave (km/s) = 6.57084 6.75692 6.66453
#
# Compressibility (1/GPa) = 0.01967817
#
# Stress axis : x y z
#
# Youngs Moduli (GPa) = 97.96313 70.87146 59.76032
#
# Poissons Ratio (x) = 0.28434 0.17620
# Poissons Ratio (y) = 0.39304 0.22267
# Poissons Ratio (z) = 0.28884 0.26408
#
# Static dielectric constant tensor:
#      x y z
#    x 3.893780 0.000000 0.000000 
#    y 0.000000 3.575500 0.000000 
#    z 0.000000 0.000000 3.892650 
# 
# 
# High freq. dielectric constant tensor:
#      x y z
#    x 1.811980 0.000000 0.000000 
#    y 0.000000 1.803180 0.000000 
#    z 0.000000 0.000000 1.829130 
# 
# From -- ./inp_files/12841.got.cif
#   From: 2010.03.12/outbox.cif.g09.slc.cpg/sg36_7_cif.got.tgz:12841.got - 2010.04.14 02:13:53.
