data_PCOD8176727
_publ_section_title
;
Structure prediction by ZEFSAII (Michael W. Deem and Ramdas Pophale) SiO2 
 PCOD8176727
Probable space group: C C C 2
;
_chemical_formula_sum "Si O2"
_cell_formula_units_Z 56
_cell_length_a 4.981246
_cell_length_b 25.115375
_cell_length_c 22.295431
_cell_angle_alpha 90.000000
_cell_angle_beta 90.000000
_cell_angle_gamma 90.000000
_cell_volume 2789.289097
_symmetry_space_group_name_H-M "C C C 2"
_symmetry_group_IT_number 37
_symmetry_cell_setting 'orthorhombic'
loop_
_space_group_symop_operation_xyz
x,y,z
-x,-y,z
-x,y,1/2+z
x,-y,1/2+z
1/2+x,1/2+y,z
1/2-x,1/2-y,z
1/2-x,1/2+y,1/2+z
1/2+x,1/2-y,1/2+z
loop_
_atom_site_type_symbol
_atom_site_label
_atom_site_fract_x
_atom_site_fract_y
_atom_site_fract_z
Si Si1 0.390951 0.800334 0.826980
Si Si2 0.000462 0.718672 0.693573
Si Si3 0.027846 0.061122 0.954864
Si Si4 0.907569 0.940945 0.727869
Si Si5 0.426430 0.098845 0.160960
Si Si6 0.477570 0.060674 0.533160
Si Si7 0.894920 0.870058 0.840713
O O1 0.250000 0.750000 0.863200
O O2 0.502036 0.776596 0.765340
O O3 0.645686 0.830448 0.858012
O O4 0.152236 0.840888 0.813600
O O5 0.250000 0.750000 0.665103
O O6 0.750000 0.750000 0.666750
O O7 0.979299 0.657802 0.675789
O O8 0.992816 0.099780 0.898795
O O9 0.325111 0.071833 0.978269
O O10 0.000000 0.000000 0.933503
O O11 0.818253 0.074402 0.008208
O O12 0.135751 0.911392 0.689318
O O13 0.642302 0.943161 0.686878
O O14 0.814173 0.911277 0.788636
O O15 0.000000 0.000000 0.745018
O O16 0.430950 0.095975 0.089121
O O17 0.500000 0.000000 0.554821
#
# Coordination Sequence:
#
# PCOD8176727 Si02
#       7
#     8   8   8   8   8   8   8
#     4  11  22  37  60  87 121 155 200 243 297 364
#     4  11  21  37  59  86 118 154 197 243 293 358
#     4  10  22  39  61  86 116 161 207 241 285 356
#     4  12  23  36  56  91 127 156 186 244 316 371
#     4  12  23  39  60  89 122 158 198 250 305 360
#     4  10  21  39  60  84 116 161 208 242 283 355
#     4  12  21  39  59  89 122 156 195 248 302 359
#
# _framework density 20.076802000000001
#
# number of rings (size 3 to 8) (size 9 to 14) (size 15 to 20)
#    0.000    0.857    2.857    6.429    0.000    1.143 
#    0.000    4.286    0.000    8.571    0.000    0.000 
#    0.000    0.000    0.000    0.000    0.000    0.000 
#
# Total GULP energy -347154.474463 kJ/mol
# GULP energy per Si atom -12398.374088 kJ/mol
# Density = 2.003111 g / cm^3
# Si number density = 20.076802 Si / 1000 Ang^3
#
#
#
# Elastic Constant Matrix: (Units=GPa)
#
#
# Indices 1 2 3 4 5 6 
#
# 1 112.3842 29.9537 14.3954 0.0000 0.0000 0.0000
# 2 29.9537 84.3889 28.0735 0.0000 0.0000 0.0000
# 3 14.3954 28.0735 70.7761 0.0000 0.0000 0.0000
# 4 0.0000 0.0000 0.0000 15.3752 0.0000 0.0000
# 5 0.0000 0.0000 0.0000 0.0000 4.8416 0.0000
# 6 0.0000 0.0000 0.0000 0.0000 0.0000 37.2608
#
#
#
# Elastic Compliance Matrix: (Units=1/GPa)
#
#
# Indices 1 2 3 4 5 6 
#
# 1 0.009859 -0.003263 -0.000711 0.000000 0.000000 0.000000
# 2 -0.003263 0.014731 -0.005179 0.000000 0.000000 0.000000
# 3 -0.000711 -0.005179 0.016328 0.000000 0.000000 0.000000
# 4 0.000000 0.000000 0.000000 0.065040 0.000000 0.000000
# 5 0.000000 0.000000 0.000000 0.000000 0.206542 0.000000
# 6 0.000000 0.000000 0.000000 0.000000 0.000000 0.026838
#
#
# Mechanical properties :
#
#
# Convention : Reuss Voigt Hill
#
# Bulk Modulus (GPa) = 44.22555 45.82160 45.02357
# Shear Modulus (GPa) = 13.69182 24.50396 19.09789
#
# Velocity S-wave (km/s) = 2.61429 3.49737 3.08757
# Velocity P-wave (km/s) = 5.58469 6.25951 5.93170
#
# Compressibility (1/GPa) = 0.02261137
#
# Stress axis : x y z
#
# Youngs Moduli (GPa) = 101.43266 67.88369 61.24398
#
# Poissons Ratio (x) = 0.22149 0.04354
# Poissons Ratio (y) = 0.33096 0.31721
# Poissons Ratio (z) = 0.07212 0.35160
#
# Static dielectric constant tensor:
#      x y z
#    x 4.070770 0.000000 0.000000 
#    y 0.000000 3.913080 0.000000 
#    z 0.000000 0.000000 3.266590 
# 
# 
# High freq. dielectric constant tensor:
#      x y z
#    x 1.807700 0.000000 0.000000 
#    y 0.000000 1.786490 0.000000 
#    z 0.000000 0.000000 1.746670 
# 
# From -- ./inp_files/15915.got.cif
#   From: 2010.03.12/outbox.cif.g09.slc.cpg/sg37_8_cif.got.tgz:15915.got - 2010.04.14 02:25:27.
