data_PCOD8176056
_publ_section_title
;
Structure prediction by ZEFSAII (Michael W. Deem and Ramdas Pophale) SiO2 
 PCOD8176056
Probable space group: C M C 21
;
_chemical_formula_sum "Si O2"
_cell_formula_units_Z 64
_cell_length_a 29.070588
_cell_length_b 8.795695
_cell_length_c 11.918434
_cell_angle_alpha 90.000000
_cell_angle_beta 90.000000
_cell_angle_gamma 90.000000
_cell_volume 3047.496204
_symmetry_space_group_name_H-M "C M C 21"
_symmetry_group_IT_number 36
_symmetry_cell_setting 'orthorhombic'
loop_
_space_group_symop_operation_xyz
x,y,z
-x,-y,1/2+z
x,-y,1/2+z
-x,y,z
1/2+x,1/2+y,z
1/2-x,1/2-y,1/2+z
1/2+x,1/2-y,1/2+z
1/2-x,1/2+y,z
loop_
_atom_site_type_symbol
_atom_site_label
_atom_site_fract_x
_atom_site_fract_y
_atom_site_fract_z
Si Si1 0.896089 0.937544 0.422980
Si Si2 0.812084 0.935016 0.790894
Si Si3 0.250000 0.325431 0.376051
Si Si4 0.312084 0.935016 0.961207
Si Si5 0.362313 0.250000 0.626051
Si Si6 0.947464 0.728957 0.256896
Si Si7 0.447464 0.271043 0.995205
Si Si8 0.896089 0.562456 0.829122
O O1 0.891639 0.811911 0.521436
O O2 0.915729 0.854184 0.314437
O O3 0.848260 0.016564 0.387208
O O4 0.932588 0.060149 0.463244
O O5 0.790588 0.773195 0.824741
O O6 0.833901 0.898225 0.669578
O O7 0.772820 0.064485 0.781060
O O8 0.290588 0.226805 0.427360
O O9 0.227180 0.435515 0.471041
O O10 0.348260 0.983436 0.864894
O O11 0.333901 0.898225 0.082524
O O12 0.391639 0.188089 0.730666
O O13 0.932588 0.560149 0.288858
O O14 0.000000 0.752416 0.294487
O O15 0.940730 0.750000 0.126051
O O16 0.500000 0.247584 0.957615
O O17 0.415729 0.145816 0.937665
#
# Coordination Sequence:
#
# PCOD8176056 Si02
#       8
#     8   8   8   8   8   8   8   8
#     4  12  23  46  68 100 136 176 225 272 338 406
#     4  11  22  42  64  96 134 173 221 270 326 394
#     4  10  22  42  64  94 136 172 224 276 322 384
#     4  11  22  42  64  96 134 173 221 270 326 394
#     4  12  24  40  73  98 128 186 220 266 345 398
#     4  11  25  44  70 101 134 175 222 278 336 398
#     4  11  25  44  70 101 134 175 222 278 336 398
#     4  12  23  46  68 100 136 176 225 272 338 406
#
# _framework density 21.000847
#
# number of rings (size 3 to 8) (size 9 to 14) (size 15 to 20)
#    0.000    0.750    5.000    2.250    0.000    1.000 
#    0.000    1.250    0.000    0.000    0.000    0.000 
#    0.000    0.000    0.000    0.000    0.000    0.000 
#
# Total GULP energy -396831.802761 kJ/mol
# GULP energy per Si atom -12400.993836 kJ/mol
# Density = 2.095305 g / cm^3
# Si number density = 21.000847 Si / 1000 Ang^3
#
#
#
# Elastic Constant Matrix: (Units=GPa)
#
#
# Indices 1 2 3 4 5 6 
#
# 1 97.7177 57.6435 54.1514 0.0000 0.0000 0.0000
# 2 57.6435 132.1832 45.1810 0.0000 0.0000 0.0000
# 3 54.1514 45.1810 87.8351 0.0000 0.0000 0.0000
# 4 0.0000 0.0000 0.0000 34.7944 0.0000 0.0000
# 5 0.0000 0.0000 0.0000 0.0000 39.9804 0.0000
# 6 0.0000 0.0000 0.0000 0.0000 0.0000 35.8918
#
#
#
# Elastic Compliance Matrix: (Units=1/GPa)
#
#
# Indices 1 2 3 4 5 6 
#
# 1 0.017798 -0.004867 -0.008469 0.000000 0.000000 0.000000
# 2 -0.004867 0.010510 -0.002406 0.000000 0.000000 0.000000
# 3 -0.008469 -0.002406 0.017844 0.000000 0.000000 0.000000
# 4 0.000000 0.000000 0.000000 0.028740 0.000000 0.000000
# 5 0.000000 0.000000 0.000000 0.000000 0.025012 0.000000
# 6 0.000000 0.000000 0.000000 0.000000 0.000000 0.027862
#
#
# Mechanical properties :
#
#
# Convention : Reuss Voigt Hill
#
# Bulk Modulus (GPa) = 68.17456 70.18755 69.18105
# Shear Modulus (GPa) = 30.46222 32.85065 31.65643
#
# Velocity S-wave (km/s) = 3.81271 3.95936 3.88672
# Velocity P-wave (km/s) = 7.20524 7.37535 7.29079
#
# Compressibility (1/GPa) = 0.01466823
#
# Stress axis : x y z
#
# Youngs Moduli (GPa) = 56.18731 95.14927 56.04178
#
# Poissons Ratio (x) = 0.46304 0.47463
# Poissons Ratio (y) = 0.27344 0.13483
# Poissons Ratio (z) = 0.47586 0.22891
#
# Static dielectric constant tensor:
#      x y z
#    x 3.909030 0.000000 0.000000 
#    y 0.000000 4.064860 0.000000 
#    z 0.000000 0.000000 3.713310 
# 
# 
# High freq. dielectric constant tensor:
#      x y z
#    x 1.828920 0.000000 0.000000 
#    y 0.000000 1.842890 0.000000 
#    z 0.000000 0.000000 1.811710 
# 
# From -- ./inp_files/9726.got.cif
#   From: 2010.03.12/outbox.cif.g09.slc.cpg/sg36_5_cif.got.tgz:9726.got - 2010.04.14 02:13:53.
