data_PCOD8176989
_publ_section_title
;
Structure prediction by ZEFSAII (Michael W. Deem and Ramdas Pophale) SiO2 
 PCOD8176989
Probable space group: C C C 2
;
_chemical_formula_sum "Si O2"
_cell_formula_units_Z 60
_cell_length_a 16.219187
_cell_length_b 18.821579
_cell_length_c 8.747944
_cell_angle_alpha 90.000000
_cell_angle_beta 90.000000
_cell_angle_gamma 90.000000
_cell_volume 2670.491071
_symmetry_space_group_name_H-M "C C C 2"
_symmetry_group_IT_number 37
_symmetry_cell_setting 'orthorhombic'
loop_
_space_group_symop_operation_xyz
x,y,z
-x,-y,z
-x,y,1/2+z
x,-y,1/2+z
1/2+x,1/2+y,z
1/2-x,1/2-y,z
1/2-x,1/2+y,1/2+z
1/2+x,1/2-y,1/2+z
loop_
_atom_site_type_symbol
_atom_site_label
_atom_site_fract_x
_atom_site_fract_y
_atom_site_fract_z
Si Si1 0.199033 0.581525 0.669410
Si Si2 0.801902 0.428260 0.028907
Si Si3 0.918203 0.692651 0.028270
Si Si4 0.639844 0.669373 0.187030
Si Si5 0.095975 0.682757 0.166149
Si Si6 0.967019 0.098376 0.162360
Si Si7 0.664677 0.687000 0.540227
Si Si8 0.500000 0.500000 0.911999
O O1 0.214927 0.506924 0.587473
O O2 0.119387 0.620845 0.599859
O O3 0.278567 0.629059 0.634637
O O4 0.183993 0.570080 0.848267
O O5 0.882417 0.397650 0.115659
O O6 0.728434 0.375112 0.076914
O O7 0.866911 0.761118 0.082580
O O8 0.011755 0.703497 0.081432
O O9 0.914268 0.688547 0.846300
O O10 0.563882 0.615551 0.166544
O O11 0.645862 0.694254 0.361761
O O12 0.174274 0.731665 0.101334
O O13 0.915356 0.169440 0.146078
O O14 0.942472 0.051502 0.309727
O O15 0.942723 0.049894 0.016114
#
# Coordination Sequence:
#
# PCOD8176989 Si02
#       8
#     8   8   8   8   8   8   8   4
#     4  11  26  46  70 101 139 179 225 282 342 403
#     4  11  26  46  70 101 139 179 225 282 342 403
#     4  12  26  46  72 101 134 177 231 283 340 405
#     4  11  24  42  67 100 138 179 223 278 337 400
#     4  12  26  46  72 101 134 177 231 283 340 405
#     4  11  22  38  58  94 133 182 222 268 327 396
#     4  11  24  42  67 100 138 179 223 278 337 400
#     4  10  24  34  56  90 140 178 224 266 324 394
#
# _framework density 22.467777999999999
#
# number of rings (size 3 to 8) (size 9 to 14) (size 15 to 20)
#    0.000    0.800    2.667    4.000    5.600    5.867 
#    0.000    2.667    0.000    0.000    0.000    0.000 
#    0.000    0.000    0.000    0.000    0.000    0.000 
#
# Total GULP energy -371955.905993 kJ/mol
# GULP energy per Si atom -12398.530200 kJ/mol
# Density = 2.241664 g / cm^3
# Si number density = 22.467778 Si / 1000 Ang^3
#
#
#
# Elastic Constant Matrix: (Units=GPa)
#
#
# Indices 1 2 3 4 5 6 
#
# 1 61.2959 53.6606 35.5155 0.0000 0.0000 0.0000
# 2 53.6606 137.0159 71.4285 0.0000 0.0000 0.0000
# 3 35.5155 71.4285 165.6046 0.0000 0.0000 0.0000
# 4 0.0000 0.0000 0.0000 37.5028 0.0000 0.0000
# 5 0.0000 0.0000 0.0000 0.0000 27.4344 0.0000
# 6 0.0000 0.0000 0.0000 0.0000 0.0000 22.5203
#
#
#
# Elastic Compliance Matrix: (Units=1/GPa)
#
#
# Indices 1 2 3 4 5 6 
#
# 1 0.025102 -0.009062 -0.001475 0.000000 0.000000 0.000000
# 2 -0.009062 0.012687 -0.003529 0.000000 0.000000 0.000000
# 3 -0.001475 -0.003529 0.007877 0.000000 0.000000 0.000000
# 4 0.000000 0.000000 0.000000 0.026665 0.000000 0.000000
# 5 0.000000 0.000000 0.000000 0.000000 0.036451 0.000000
# 6 0.000000 0.000000 0.000000 0.000000 0.000000 0.044404
#
#
# Mechanical properties :
#
#
# Convention : Reuss Voigt Hill
#
# Bulk Modulus (GPa) = 57.02951 76.12508 66.57730
# Shear Modulus (GPa) = 26.71488 31.04562 28.88025
#
# Velocity S-wave (km/s) = 3.45197 3.72127 3.58915
# Velocity P-wave (km/s) = 6.42854 7.24011 6.84636
#
# Compressibility (1/GPa) = 0.01753478
#
# Stress axis : x y z
#
# Youngs Moduli (GPa) = 39.83732 78.82033 126.95583
#
# Poissons Ratio (x) = 0.71428 0.18722
# Poissons Ratio (y) = 0.36101 0.44799
# Poissons Ratio (z) = 0.05875 0.27814
#
# Static dielectric constant tensor:
#      x y z
#    x 3.612090 0.000000 0.000000 
#    y 0.000000 4.304400 0.000000 
#    z 0.000000 0.000000 4.127350 
# 
# 
# High freq. dielectric constant tensor:
#      x y z
#    x 1.874640 0.000000 0.000000 
#    y 0.000000 1.907920 0.000000 
#    z 0.000000 0.000000 1.896390 
# 
# From -- ./inp_files/4081.got.cif
#   From: 2010.03.12/outbox.cif.g09.slc.cpg/sg37_3_cif.got.tgz:4081.got - 2010.04.14 02:25:27.
