data_PCOD8176999
_publ_section_title
;
Structure prediction by ZEFSAII (Michael W. Deem and Ramdas Pophale) SiO2 
 PCOD8176999
Probable space group: C C C 2
;
_chemical_formula_sum "Si O2"
_cell_formula_units_Z 40
_cell_length_a 19.008575
_cell_length_b 6.268812
_cell_length_c 14.110611
_cell_angle_alpha 90.000000
_cell_angle_beta 90.000000
_cell_angle_gamma 90.000000
_cell_volume 1681.437101
_symmetry_space_group_name_H-M "C C C 2"
_symmetry_group_IT_number 37
_symmetry_cell_setting 'orthorhombic'
loop_
_space_group_symop_operation_xyz
x,y,z
-x,-y,z
-x,y,1/2+z
x,-y,1/2+z
1/2+x,1/2+y,z
1/2-x,1/2-y,z
1/2-x,1/2+y,1/2+z
1/2+x,1/2-y,1/2+z
loop_
_atom_site_type_symbol
_atom_site_label
_atom_site_fract_x
_atom_site_fract_y
_atom_site_fract_z
Si Si1 0.065473 0.344426 0.118300
Si Si2 0.065473 0.344426 0.905799
Si Si3 0.332434 0.790180 0.906264
Si Si4 0.091005 1.000000 0.262049
Si Si5 0.667566 0.209820 0.117834
O O1 0.138358 0.471585 0.144271
O O2 0.000000 0.500000 0.124016
O O3 0.046683 0.163098 0.196152
O O4 0.071945 0.247023 0.012049
O O5 0.138358 0.471585 0.879827
O O6 0.046682 0.163098 0.827946
O O7 0.000000 0.500000 0.900082
O O8 0.250000 0.750000 0.903411
O O9 0.360101 0.619509 0.834467
O O10 0.361183 0.743119 0.012049
O O11 0.139899 0.880491 0.189632
O O12 0.750000 0.250000 0.120687
#
# Coordination Sequence:
#
# PCOD8176999 Si02
#       5
#     8   8   8   8   8
#     4  10  24  46  69 100 142 183 231 292 355 419
#     4  10  24  46  69 100 142 183 231 292 355 419
#     4  10  24  43  64  97 141 181 225 285 351 415
#     4  12  24  39  74 100 131 180 234 284 339 418
#     4  10  24  43  64  97 141 181 225 285 351 415
#
# _framework density 23.789173999999999
#
# number of rings (size 3 to 8) (size 9 to 14) (size 15 to 20)
#    0.000    1.600    0.000    2.400    5.600    6.400 
#    0.000   12.000    0.000    3.600    0.000    0.000 
#    0.000    0.000    0.000    0.000    0.000    0.000 
#
# Total GULP energy -247818.153334 kJ/mol
# GULP energy per Si atom -12390.907667 kJ/mol
# Density = 2.373503 g / cm^3
# Si number density = 23.789174 Si / 1000 Ang^3
#
#
#
# Elastic Constant Matrix: (Units=GPa)
#
#
# Indices 1 2 3 4 5 6 
#
# 1 93.5343 42.3955 45.6510 0.0000 0.0000 0.0000
# 2 42.3955 122.9661 91.1389 0.0000 0.0000 0.0000
# 3 45.6510 91.1389 164.1499 0.0000 0.0000 0.0000
# 4 0.0000 0.0000 0.0000 68.8074 0.0000 0.0000
# 5 0.0000 0.0000 0.0000 0.0000 7.2790 0.0000
# 6 0.0000 0.0000 0.0000 0.0000 0.0000 28.7384
#
#
#
# Elastic Compliance Matrix: (Units=1/GPa)
#
#
# Indices 1 2 3 4 5 6 
#
# 1 0.013017 -0.003067 -0.001917 0.000000 0.000000 0.000000
# 2 -0.003067 0.014542 -0.007221 0.000000 0.000000 0.000000
# 3 -0.001917 -0.007221 0.010634 0.000000 0.000000 0.000000
# 4 0.000000 0.000000 0.000000 0.014533 0.000000 0.000000
# 5 0.000000 0.000000 0.000000 0.000000 0.137381 0.000000
# 6 0.000000 0.000000 0.000000 0.000000 0.000000 0.034797
#
#
# Mechanical properties :
#
#
# Convention : Reuss Voigt Hill
#
# Bulk Modulus (GPa) = 72.55336 82.11345 77.33341
# Shear Modulus (GPa) = 19.69215 34.39597 27.04406
#
# Velocity S-wave (km/s) = 2.88023 3.80658 3.37534
# Velocity P-wave (km/s) = 6.45180 7.34249 6.91151
#
# Compressibility (1/GPa) = 0.01378296
#
# Stress axis : x y z
#
# Youngs Moduli (GPa) = 76.82163 68.76841 94.03496
#
# Poissons Ratio (x) = 0.21091 0.18030
# Poissons Ratio (y) = 0.23560 0.67901
# Poissons Ratio (z) = 0.14729 0.49656
#
# Static dielectric constant tensor:
#      x y z
#    x 4.262800 0.000000 0.000000 
#    y 0.000000 4.776210 0.000000 
#    z 0.000000 0.000000 5.027540 
# 
# 
# High freq. dielectric constant tensor:
#      x y z
#    x 1.940120 0.000000 0.000000 
#    y 0.000000 1.933580 0.000000 
#    z 0.000000 0.000000 1.979600 
# 
# From -- ./inp_files/13059.got.cif
#   From: 2010.03.12/outbox.cif.g09.slc.cpg/sg37_7_cif.got.tgz:13059.got - 2010.04.14 02:25:27.
