data_PCOD8176279
_publ_section_title
;
Structure prediction by ZEFSAII (Michael W. Deem and Ramdas Pophale) SiO2 
 PCOD8176279
Probable space group: C M C 21
;
_chemical_formula_sum "Si O2"
_cell_formula_units_Z 48
_cell_length_a 21.341793
_cell_length_b 11.436144
_cell_length_c 8.925924
_cell_angle_alpha 90.000000
_cell_angle_beta 90.000000
_cell_angle_gamma 90.000000
_cell_volume 2178.530794
_symmetry_space_group_name_H-M "C M C 21"
_symmetry_group_IT_number 36
_symmetry_cell_setting 'orthorhombic'
loop_
_space_group_symop_operation_xyz
x,y,z
-x,-y,1/2+z
x,-y,1/2+z
-x,y,z
1/2+x,1/2+y,z
1/2-x,1/2-y,1/2+z
1/2+x,1/2-y,1/2+z
1/2-x,1/2+y,z
loop_
_atom_site_type_symbol
_atom_site_label
_atom_site_fract_x
_atom_site_fract_y
_atom_site_fract_z
Si Si1 0.763096 0.932337 0.064030
Si Si2 0.429010 0.835972 0.389686
Si Si3 0.144247 0.254623 0.656102
Si Si4 0.679073 0.984023 0.808324
Si Si5 0.867243 0.074703 0.917322
Si Si6 0.930290 0.109261 0.216213
O O1 0.802715 0.812936 0.061176
O O2 0.736692 0.944237 0.233614
O O3 0.803736 0.045065 0.009810
O O4 0.703702 0.918200 0.955733
O O5 0.500000 0.885887 0.398049
O O6 0.415376 0.765935 0.545149
O O7 0.380961 0.940016 0.354402
O O8 0.422061 0.745461 0.253421
O O9 0.162532 0.387893 0.684762
O O10 0.132475 0.189240 0.812662
O O11 0.921155 0.093728 0.039061
O O12 0.880566 0.965887 0.809092
O O13 0.000000 0.065832 0.256900
#
# Coordination Sequence:
#
# PCOD8176279 Si02
#       6
#     8   8   8   8   8   8
#     4  12  25  45  70 108 145 185 238 301 371 435
#     4  11  27  52  73 102 148 199 252 301 359 442
#     4  12  27  45  75 107 145 194 241 305 370 437
#     4  12  28  47  71 108 142 195 238 304 367 443
#     4  12  23  43  69 110 145 186 239 306 369 433
#     4  11  23  42  70 101 144 191 244 301 360 428
#
# _framework density 22.033197999999999
#
# number of rings (size 3 to 8) (size 9 to 14) (size 15 to 20)
#    0.000    0.333    6.667    0.500    7.000    3.333 
#    0.000    0.000    0.000    0.000    0.000    0.000 
#    0.000    0.000    0.000    0.000    0.000    0.000 
#
# Total GULP energy -297590.653085 kJ/mol
# GULP energy per Si atom -12399.610545 kJ/mol
# Density = 2.198305 g / cm^3
# Si number density = 22.033198 Si / 1000 Ang^3
#
#
#
# Elastic Constant Matrix: (Units=GPa)
#
#
# Indices 1 2 3 4 5 6 
#
# 1 113.8382 44.8066 49.3623 0.0000 0.0000 0.0000
# 2 44.8066 89.9966 37.8334 0.0000 0.0000 0.0000
# 3 49.3623 37.8334 125.0531 0.0000 0.0000 0.0000
# 4 0.0000 0.0000 0.0000 47.4999 0.0000 0.0000
# 5 0.0000 0.0000 0.0000 0.0000 38.5690 0.0000
# 6 0.0000 0.0000 0.0000 0.0000 0.0000 36.5467
#
#
#
# Elastic Compliance Matrix: (Units=1/GPa)
#
#
# Indices 1 2 3 4 5 6 
#
# 1 0.012049 -0.004582 -0.003370 0.000000 0.000000 0.000000
# 2 -0.004582 0.014473 -0.002570 0.000000 0.000000 0.000000
# 3 -0.003370 -0.002570 0.010104 0.000000 0.000000 0.000000
# 4 0.000000 0.000000 0.000000 0.021053 0.000000 0.000000
# 5 0.000000 0.000000 0.000000 0.000000 0.025928 0.000000
# 6 0.000000 0.000000 0.000000 0.000000 0.000000 0.027362
#
#
# Mechanical properties :
#
#
# Convention : Reuss Voigt Hill
#
# Bulk Modulus (GPa) = 64.17429 65.87695 65.02562
# Shear Modulus (GPa) = 36.44109 37.64883 37.04496
#
# Velocity S-wave (km/s) = 4.07125 4.13817 4.10484
# Velocity P-wave (km/s) = 7.16167 7.26611 7.21408
#
# Compressibility (1/GPa) = 0.01558256
#
# Stress axis : x y z
#
# Youngs Moduli (GPa) = 82.99288 69.09280 98.96768
#
# Poissons Ratio (x) = 0.31660 0.33351
# Poissons Ratio (y) = 0.38030 0.25434
# Poissons Ratio (z) = 0.27968 0.17757
#
# Static dielectric constant tensor:
#      x y z
#    x 3.951950 0.000000 0.000000 
#    y 0.000000 3.760450 0.000000 
#    z 0.000000 0.000000 4.186980 
# 
# 
# High freq. dielectric constant tensor:
#      x y z
#    x 1.863980 0.000000 0.000000 
#    y 0.000000 1.852660 0.000000 
#    z 0.000000 0.000000 1.887300 
# 
# From -- ./inp_files/5558.got.cif
#   From: 2010.03.12/outbox.cif.g09.slc.cpg/sg36_3_cif.got.tgz:5558.got - 2010.04.14 02:13:53.
