data_PCOD8176973
_publ_section_title
;
Structure prediction by ZEFSAII (Michael W. Deem and Ramdas Pophale) SiO2 
 PCOD8176973
Probable space group: C C C 2
;
_chemical_formula_sum "Si O2"
_cell_formula_units_Z 40
_cell_length_a 8.655199
_cell_length_b 21.286918
_cell_length_c 9.017532
_cell_angle_alpha 90.000000
_cell_angle_beta 90.000000
_cell_angle_gamma 90.000000
_cell_volume 1661.412742
_symmetry_space_group_name_H-M "C C C 2"
_symmetry_group_IT_number 37
_symmetry_cell_setting 'orthorhombic'
loop_
_space_group_symop_operation_xyz
x,y,z
-x,-y,z
-x,y,1/2+z
x,-y,1/2+z
1/2+x,1/2+y,z
1/2-x,1/2-y,z
1/2-x,1/2+y,1/2+z
1/2+x,1/2-y,1/2+z
loop_
_atom_site_type_symbol
_atom_site_label
_atom_site_fract_x
_atom_site_fract_y
_atom_site_fract_z
Si Si1 0.358635 0.955179 0.828530
Si Si2 0.319602 0.664309 0.415371
Si Si3 0.518725 0.733719 0.657918
Si Si4 0.039828 0.682779 0.908757
Si Si5 0.336296 0.468029 0.042060
O O1 0.415591 0.888177 0.883433
O O2 0.237899 0.945279 0.696055
O O3 0.500000 0.000000 0.778998
O O4 0.275690 0.980633 0.973297
O O5 0.417430 0.691642 0.550139
O O6 0.373621 0.687244 0.253278
O O7 0.343110 0.589230 0.425019
O O8 0.144989 0.687124 0.431917
O O9 0.411643 0.774508 0.769146
O O10 0.613253 0.785433 0.557076
O O11 0.500000 0.500000 0.074048
#
# Coordination Sequence:
#
# PCOD8176973 Si02
#       5
#     8   8   8   8   8
#     4  12  27  49  82 111 150 209 261 318 387 463
#     4  11  25  48  73 108 159 195 260 320 390 467
#     4  10  23  44  73 110 150 200 245 322 392 457
#     4  11  24  48  75 110 150 196 264 318 380 470
#     4  12  29  50  76 116 159 204 259 326 394 464
#
# _framework density 24.075897999999999
#
# number of rings (size 3 to 8) (size 9 to 14) (size 15 to 20)
#    0.000    0.800    2.000    4.800    8.400    0.000 
#    3.600    8.000    0.000    0.000    0.000    0.000 
#    0.000    0.000    0.000    0.000    0.000    0.000 
#
# Total GULP energy -247999.548490 kJ/mol
# GULP energy per Si atom -12399.977424 kJ/mol
# Density = 2.402110 g / cm^3
# Si number density = 24.075898 Si / 1000 Ang^3
#
#
#
# Elastic Constant Matrix: (Units=GPa)
#
#
# Indices 1 2 3 4 5 6 
#
# 1 107.4521 37.5078 40.8812 0.0000 0.0000 0.0000
# 2 37.5078 86.7321 42.3795 0.0000 0.0000 0.0000
# 3 40.8812 42.3795 156.8730 0.0000 0.0000 0.0000
# 4 0.0000 0.0000 0.0000 34.3989 0.0000 0.0000
# 5 0.0000 0.0000 0.0000 0.0000 25.0288 0.0000
# 6 0.0000 0.0000 0.0000 0.0000 0.0000 41.9238
#
#
#
# Elastic Compliance Matrix: (Units=1/GPa)
#
#
# Indices 1 2 3 4 5 6 
#
# 1 0.011429 -0.004018 -0.001893 0.000000 0.000000 0.000000
# 2 -0.004018 0.014695 -0.002923 0.000000 0.000000 0.000000
# 3 -0.001893 -0.002923 0.007658 0.000000 0.000000 0.000000
# 4 0.000000 0.000000 0.000000 0.029071 0.000000 0.000000
# 5 0.000000 0.000000 0.000000 0.000000 0.039954 0.000000
# 6 0.000000 0.000000 0.000000 0.000000 0.000000 0.023853
#
#
# Mechanical properties :
#
#
# Convention : Reuss Voigt Hill
#
# Bulk Modulus (GPa) = 62.05482 65.84381 63.94931
# Shear Modulus (GPa) = 33.40046 35.62287 34.51167
#
# Velocity S-wave (km/s) = 3.72869 3.85074 3.79020
# Velocity P-wave (km/s) = 6.66094 6.86868 6.76560
#
# Compressibility (1/GPa) = 0.01611478
#
# Stress axis : x y z
#
# Youngs Moduli (GPa) = 87.49584 68.04832 130.58960
#
# Poissons Ratio (x) = 0.27339 0.24722
# Poissons Ratio (y) = 0.35152 0.38172
# Poissons Ratio (z) = 0.16564 0.19891
#
# Static dielectric constant tensor:
#      x y z
#    x 4.272320 0.000000 0.000000 
#    y 0.000000 4.665490 0.000000 
#    z 0.000000 0.000000 4.565940 
# 
# 
# High freq. dielectric constant tensor:
#      x y z
#    x 1.947400 0.000000 0.000000 
#    y 0.000000 1.977900 0.000000 
#    z 0.000000 0.000000 1.973130 
# 
# From -- ./inp_files/2214.got.cif
#   From: 2010.03.12/outbox.cif.g09.slc.cpg/sg37_2_cif.got.tgz:2214.got - 2010.04.14 02:25:27.
