data_PCOD8176885
_publ_section_title
;
Structure prediction by ZEFSAII (Michael W. Deem and Ramdas Pophale) SiO2 
 PCOD8176885
Probable space group: C C C 2
;
_chemical_formula_sum "Si O2"
_cell_formula_units_Z 56
_cell_length_a 12.843623
_cell_length_b 19.940988
_cell_length_c 9.359765
_cell_angle_alpha 90.000000
_cell_angle_beta 90.000000
_cell_angle_gamma 90.000000
_cell_volume 2397.171834
_symmetry_space_group_name_H-M "C C C 2"
_symmetry_group_IT_number 37
_symmetry_cell_setting 'orthorhombic'
loop_
_space_group_symop_operation_xyz
x,y,z
-x,-y,z
-x,y,1/2+z
x,-y,1/2+z
1/2+x,1/2+y,z
1/2-x,1/2-y,z
1/2-x,1/2+y,1/2+z
1/2+x,1/2-y,1/2+z
loop_
_atom_site_type_symbol
_atom_site_label
_atom_site_fract_x
_atom_site_fract_y
_atom_site_fract_z
Si Si1 0.728291 0.991006 0.572610
Si Si2 0.323003 0.308526 0.194417
Si Si3 0.467048 0.211931 0.363800
Si Si4 0.911546 0.085894 0.497294
Si Si5 0.095957 0.095474 0.677938
Si Si6 0.338758 0.088211 0.303817
Si Si7 0.625450 0.253186 0.152516
O O1 0.790159 0.937732 0.670382
O O2 0.662888 0.952489 0.452329
O O3 0.812974 0.037538 0.497060
O O4 0.651967 0.035369 0.672643
O O5 0.250000 0.250000 0.131256
O O6 0.402021 0.273733 0.301558
O O7 0.264901 0.366599 0.285241
O O8 0.381125 0.341358 0.060644
O O9 0.436548 0.138391 0.303186
O O10 0.585825 0.225098 0.308134
O O11 0.441952 0.211788 0.533446
O O12 0.948723 0.095076 0.336793
O O13 0.010632 0.056233 0.582529
O O14 0.099173 0.170523 0.622526
O O15 0.750000 0.250000 0.139924
#
# Coordination Sequence:
#
# PCOD8176885 Si02
#       7
#     8   8   8   8   8   8   8
#     4  11  22  40  63 100 137 192 244 295 359 440
#     4   9  19  38  65  95 138 193 235 302 376 443
#     4  11  23  47  72 106 147 197 242 312 383 438
#     4  11  24  36  58  95 140 188 241 302 365 449
#     4  12  24  39  61  97 147 186 238 306 374 441
#     4  10  22  42  70  98 146 189 246 300 368 438
#     4  12  26  46  75 112 147 193 252 313 381 450
#
# _framework density 23.360859999999999
#
# number of rings (size 3 to 8) (size 9 to 14) (size 15 to 20)
#    0.000    1.143    2.857    4.286    4.000    1.714 
#    5.143    0.714    0.000    6.857    0.000    0.000 
#    0.000    0.000    0.000    0.000    0.000    0.000 
#
# Total GULP energy -347105.564436 kJ/mol
# GULP energy per Si atom -12396.627301 kJ/mol
# Density = 2.330769 g / cm^3
# Si number density = 23.360860 Si / 1000 Ang^3
#
#
#
# Elastic Constant Matrix: (Units=GPa)
#
#
# Indices 1 2 3 4 5 6 
#
# 1 66.2276 24.2969 35.5492 0.0000 0.0000 0.0000
# 2 24.2969 121.8610 40.9424 0.0000 0.0000 0.0000
# 3 35.5492 40.9424 135.3826 0.0000 0.0000 0.0000
# 4 0.0000 0.0000 0.0000 25.5133 0.0000 0.0000
# 5 0.0000 0.0000 0.0000 0.0000 24.4780 0.0000
# 6 0.0000 0.0000 0.0000 0.0000 0.0000 20.6842
#
#
#
# Elastic Compliance Matrix: (Units=1/GPa)
#
#
# Indices 1 2 3 4 5 6 
#
# 1 0.018110 -0.002241 -0.004078 0.000000 0.000000 0.000000
# 2 -0.002241 0.009411 -0.002258 0.000000 0.000000 0.000000
# 3 -0.004078 -0.002258 0.009140 0.000000 0.000000 0.000000
# 4 0.000000 0.000000 0.000000 0.039195 0.000000 0.000000
# 5 0.000000 0.000000 0.000000 0.000000 0.040853 0.000000
# 6 0.000000 0.000000 0.000000 0.000000 0.000000 0.048346
#
#
# Mechanical properties :
#
#
# Convention : Reuss Voigt Hill
#
# Bulk Modulus (GPa) = 51.25847 58.33867 54.79857
# Shear Modulus (GPa) = 26.49540 28.98063 27.73801
#
# Velocity S-wave (km/s) = 3.37141 3.52598 3.44956
# Velocity P-wave (km/s) = 6.09466 6.45010 6.27490
#
# Compressibility (1/GPa) = 0.01950897
#
# Stress axis : x y z
#
# Youngs Moduli (GPa) = 55.21693 106.25396 109.40876
#
# Poissons Ratio (x) = 0.23810 0.44615
# Poissons Ratio (y) = 0.12373 0.24702
# Poissons Ratio (z) = 0.22516 0.23990
#
# Static dielectric constant tensor:
#      x y z
#    x 4.127910 0.000000 0.000000 
#    y 0.000000 4.511340 0.000000 
#    z 0.000000 0.000000 4.185790 
# 
# 
# High freq. dielectric constant tensor:
#      x y z
#    x 1.895680 0.000000 0.000000 
#    y 0.000000 1.940440 0.000000 
#    z 0.000000 0.000000 1.919960 
# 
# From -- ./inp_files/3640.got.cif
#   From: 2010.03.12/outbox.cif.g09.slc.cpg/sg37_2_cif.got.tgz:3640.got - 2010.04.14 02:25:27.
