data_PCOD8176151
_publ_section_title
;
Structure prediction by ZEFSAII (Michael W. Deem and Ramdas Pophale) SiO2 
 PCOD8176151
Probable space group: C M C 21
;
_chemical_formula_sum "Si O2"
_cell_formula_units_Z 56
_cell_length_a 22.118522
_cell_length_b 14.492678
_cell_length_c 8.393276
_cell_angle_alpha 90.000000
_cell_angle_beta 90.000000
_cell_angle_gamma 90.000000
_cell_volume 2690.520162
_symmetry_space_group_name_H-M "C M C 21"
_symmetry_group_IT_number 36
_symmetry_cell_setting 'orthorhombic'
loop_
_space_group_symop_operation_xyz
x,y,z
-x,-y,1/2+z
x,-y,1/2+z
-x,y,z
1/2+x,1/2+y,z
1/2-x,1/2-y,1/2+z
1/2+x,1/2-y,1/2+z
1/2-x,1/2+y,z
loop_
_atom_site_type_symbol
_atom_site_label
_atom_site_fract_x
_atom_site_fract_y
_atom_site_fract_z
Si Si1 0.500000 0.896695 0.595250
Si Si2 0.387670 0.777647 0.593108
Si Si3 0.714313 0.098974 0.220163
Si Si4 0.653147 0.595720 0.720584
Si Si5 0.387670 0.777647 0.220599
Si Si6 0.000000 0.603305 0.718457
Si Si7 0.214313 0.401026 0.093545
Si Si8 0.153147 0.904280 0.593124
O O1 0.440917 0.843137 0.659154
O O2 0.500000 0.899880 0.406854
O O3 0.500000 1.000000 0.656854
O O4 0.323174 0.822966 0.629585
O O5 0.392465 0.679109 0.682164
O O6 0.394956 0.759666 0.406854
O O7 0.701649 0.106390 0.406854
O O8 0.784500 0.114950 0.185160
O O9 0.692289 0.000000 0.156854
O O10 0.715500 0.614950 0.628548
O O11 0.624444 0.500000 0.656854
O O12 0.666671 0.587754 0.906854
O O13 0.440917 0.843137 0.154553
O O14 0.323174 0.822966 0.184122
O O15 0.392465 0.679109 0.131543
#
# Coordination Sequence:
#
# PCOD8176151 Si02
#       8
#     4   8   8   8   8   4   8   8
#     4  10  24  42  63  86 115 150 189 234 282 332
#     4  11  22  39  59  84 115 152 193 237 284 338
#     4  11  21  35  56  86 119 154 190 234 286 342
#     4  11  22  38  59  86 116 151 189 235 286 340
#     4  11  22  39  59  84 115 152 193 237 284 338
#     4  10  24  42  63  86 115 150 189 234 282 332
#     4  11  21  35  56  86 119 154 190 234 286 342
#     4  11  22  38  59  86 116 151 189 235 286 340
#
# _framework density 20.813821000000001
#
# number of rings (size 3 to 8) (size 9 to 14) (size 15 to 20)
#    0.000    1.143    0.000    9.429    0.000    4.571 
#    0.000    0.714    0.000    0.000    0.000    0.000 
#    0.000    0.000    0.000    0.000    0.000    0.000 
#
# Total GULP energy -347365.608965 kJ/mol
# GULP energy per Si atom -12405.914606 kJ/mol
# Density = 2.076645 g / cm^3
# Si number density = 20.813821 Si / 1000 Ang^3
#
#
#
# Elastic Constant Matrix: (Units=GPa)
#
#
# Indices 1 2 3 4 5 6 
#
# 1 60.8938 57.8735 14.9329 0.0000 0.0000 0.0000
# 2 57.8735 187.0074 27.8713 0.0000 0.0000 0.0000
# 3 14.9329 27.8713 78.5652 0.0000 0.0000 0.0000
# 4 0.0000 0.0000 0.0000 40.0931 0.0000 0.0000
# 5 0.0000 0.0000 0.0000 0.0000 19.7386 0.0000
# 6 0.0000 0.0000 0.0000 0.0000 0.0000 31.7963
#
#
#
# Elastic Compliance Matrix: (Units=1/GPa)
#
#
# Indices 1 2 3 4 5 6 
#
# 1 0.023558 -0.006993 -0.001997 0.000000 0.000000 0.000000
# 2 -0.006993 0.007722 -0.001410 0.000000 0.000000 0.000000
# 3 -0.001997 -0.001410 0.013608 0.000000 0.000000 0.000000
# 4 0.000000 0.000000 0.000000 0.024942 0.000000 0.000000
# 5 0.000000 0.000000 0.000000 0.000000 0.050662 0.000000
# 6 0.000000 0.000000 0.000000 0.000000 0.000000 0.031450
#
#
# Mechanical properties :
#
#
# Convention : Reuss Voigt Hill
#
# Bulk Modulus (GPa) = 41.51493 58.64685 50.08089
# Shear Modulus (GPa) = 27.65936 33.37819 30.51878
#
# Velocity S-wave (km/s) = 3.64935 4.00891 3.83335
# Velocity P-wave (km/s) = 6.14379 7.04745 6.61108
#
# Compressibility (1/GPa) = 0.02408772
#
# Stress axis : x y z
#
# Youngs Moduli (GPa) = 42.44892 129.50632 73.48572
#
# Poissons Ratio (x) = 0.90562 0.14674
# Poissons Ratio (y) = 0.29684 0.10363
# Poissons Ratio (z) = 0.08477 0.18262
#
# Static dielectric constant tensor:
#      x y z
#    x 3.609890 0.000000 0.000000 
#    y 0.000000 4.354950 0.000000 
#    z 0.000000 0.000000 3.750840 
# 
# 
# High freq. dielectric constant tensor:
#      x y z
#    x 1.784430 0.000000 0.000000 
#    y 0.000000 1.836220 0.000000 
#    z 0.000000 0.000000 1.823370 
# 
# From -- ./inp_files/5240.got.cif
#   From: 2010.03.12/outbox.cif.g09.slc.cpg/sg36_3_cif.got.tgz:5240.got - 2010.04.14 02:13:53.
