data_PCOD8176618
_publ_section_title
;
Structure prediction by ZEFSAII (Michael W. Deem and Ramdas Pophale) SiO2 
 PCOD8176618
Probable space group: C C C 2
;
_chemical_formula_sum "Si O2"
_cell_formula_units_Z 60
_cell_length_a 22.242253
_cell_length_b 8.486005
_cell_length_c 14.141849
_cell_angle_alpha 90.000000
_cell_angle_beta 90.000000
_cell_angle_gamma 90.000000
_cell_volume 2669.243879
_symmetry_space_group_name_H-M "C C C 2"
_symmetry_group_IT_number 37
_symmetry_cell_setting 'orthorhombic'
loop_
_space_group_symop_operation_xyz
x,y,z
-x,-y,z
-x,y,1/2+z
x,-y,1/2+z
1/2+x,1/2+y,z
1/2-x,1/2-y,z
1/2-x,1/2+y,1/2+z
1/2+x,1/2-y,1/2+z
loop_
_atom_site_type_symbol
_atom_site_label
_atom_site_fract_x
_atom_site_fract_y
_atom_site_fract_z
Si Si1 0.071005 0.134347 0.250000
Si Si2 0.230925 0.993625 0.891561
Si Si3 0.435638 0.952801 0.031816
Si Si4 0.619878 0.341812 0.348088
Si Si5 0.844823 0.690457 0.379008
Si Si6 0.379406 0.274761 0.068639
Si Si7 0.250000 0.750000 0.541082
Si Si8 0.537211 0.156175 0.230699
O O1 0.115750 0.271281 0.287445
O O2 0.089057 0.102721 0.140284
O O3 0.002820 0.191572 0.255213
O O4 0.076567 0.980014 0.312870
O O5 0.187572 0.847450 0.920821
O O6 0.292843 0.931709 0.844590
O O7 0.190175 0.112765 0.825907
O O8 0.254153 0.089126 0.981461
O O9 0.446185 0.834864 0.119910
O O10 0.500000 0.000000 0.983261
O O11 0.410400 0.107410 0.082348
O O12 0.389152 0.879315 0.958484
O O13 0.614344 0.330884 0.460960
O O14 0.597465 0.180082 0.296610
O O15 0.310167 0.259169 0.102707
O O16 0.500000 0.000000 0.258040
#
# Coordination Sequence:
#
# PCOD8176618 Si02
#       8
#     8   8   8   8   8   8   4   8
#     4  11  24  43  65 103 136 174 232 286 335 420
#     4   9  20  42  65 104 135 175 242 280 344 424
#     4  11  23  42  69 105 137 181 227 286 345 416
#     4  10  25  42  68  94 139 184 219 289 350 401
#     4  10  22  40  73  97 139 186 226 289 353 409
#     4  11  23  42  67  99 134 178 232 281 349 410
#     4  10  20  38  70  92 138 186 224 294 346 414
#     4  11  24  42  66 101 135 173 229 279 335 414
#
# _framework density 22.478276999999999
#
# number of rings (size 3 to 8) (size 9 to 14) (size 15 to 20)
#    0.000    1.600    4.000    0.400    3.733    5.333 
#    0.000    1.333    0.000    0.000    0.000    0.000 
#    0.000    0.000    0.000    0.000    0.000    0.000 
#
# Total GULP energy -371722.499825 kJ/mol
# GULP energy per Si atom -12390.749994 kJ/mol
# Density = 2.242712 g / cm^3
# Si number density = 22.478277 Si / 1000 Ang^3
#
#
#
# Elastic Constant Matrix: (Units=GPa)
#
#
# Indices 1 2 3 4 5 6 
#
# 1 152.7009 41.8617 46.2005 0.0000 0.0000 0.0000
# 2 41.8617 53.9880 24.4470 0.0000 0.0000 0.0000
# 3 46.2005 24.4470 95.5515 0.0000 0.0000 0.0000
# 4 0.0000 0.0000 0.0000 23.6171 0.0000 0.0000
# 5 0.0000 0.0000 0.0000 0.0000 27.8152 0.0000
# 6 0.0000 0.0000 0.0000 0.0000 0.0000 51.5214
#
#
#
# Elastic Compliance Matrix: (Units=1/GPa)
#
#
# Indices 1 2 3 4 5 6 
#
# 1 0.008972 -0.005647 -0.002893 0.000000 0.000000 0.000000
# 2 -0.005647 0.024504 -0.003539 0.000000 0.000000 0.000000
# 3 -0.002893 -0.003539 0.012770 0.000000 0.000000 0.000000
# 4 0.000000 0.000000 0.000000 0.042342 0.000000 0.000000
# 5 0.000000 0.000000 0.000000 0.000000 0.035952 0.000000
# 6 0.000000 0.000000 0.000000 0.000000 0.000000 0.019409
#
#
# Mechanical properties :
#
#
# Convention : Reuss Voigt Hill
#
# Bulk Modulus (GPa) = 45.27460 58.58431 51.92945
# Shear Modulus (GPa) = 28.49493 33.23949 30.86721
#
# Velocity S-wave (km/s) = 3.56429 3.84961 3.70969
# Velocity P-wave (km/s) = 6.09296 6.77337 6.44215
#
# Compressibility (1/GPa) = 0.02208744
#
# Stress axis : x y z
#
# Youngs Moduli (GPa) = 111.45561 40.81041 78.30824
#
# Poissons Ratio (x) = 0.23044 0.22658
# Poissons Ratio (y) = 0.62936 0.27713
# Poissons Ratio (z) = 0.32249 0.14443
#
# Static dielectric constant tensor:
#      x y z
#    x 4.655450 0.000000 0.000000 
#    y 0.000000 4.180830 0.000000 
#    z 0.000000 0.000000 3.734490 
# 
# 
# High freq. dielectric constant tensor:
#      x y z
#    x 1.913330 0.000000 0.000000 
#    y 0.000000 1.887790 0.000000 
#    z 0.000000 0.000000 1.854050 
# 
# From -- ./inp_files/13128.got.cif
#   From: 2010.03.12/outbox.cif.g09.slc.cpg/sg37_7_cif.got.tgz:13128.got - 2010.04.14 02:25:27.
