data_PCOD8176262
_publ_section_title
;
Structure prediction by ZEFSAII (Michael W. Deem and Ramdas Pophale) SiO2 
 PCOD8176262
Probable space group: C M C 21
;
_chemical_formula_sum "Si O2"
_cell_formula_units_Z 32
_cell_length_a 12.456521
_cell_length_b 17.710167
_cell_length_c 6.787353
_cell_angle_alpha 90.000000
_cell_angle_beta 90.000000
_cell_angle_gamma 90.000000
_cell_volume 1497.338039
_symmetry_space_group_name_H-M "C M C 21"
_symmetry_group_IT_number 36
_symmetry_cell_setting 'orthorhombic'
loop_
_space_group_symop_operation_xyz
x,y,z
-x,-y,1/2+z
x,-y,1/2+z
-x,y,z
1/2+x,1/2+y,z
1/2-x,1/2-y,1/2+z
1/2+x,1/2-y,1/2+z
1/2-x,1/2+y,z
loop_
_atom_site_type_symbol
_atom_site_label
_atom_site_fract_x
_atom_site_fract_y
_atom_site_fract_z
Si Si1 0.212120 0.323085 0.315400
Si Si2 0.874262 0.830187 0.962874
Si Si3 0.766014 0.414630 0.696230
Si Si4 0.881810 0.442793 0.063019
O O1 0.162565 0.240181 0.328858
O O2 0.240825 0.349788 0.534173
O O3 0.316619 0.326834 0.175375
O O4 0.121663 0.379105 0.230293
O O5 0.840353 0.904641 0.834917
O O6 0.000000 0.830955 0.002972
O O7 0.865014 0.403653 0.849815
O O8 0.785431 0.496290 0.595759
O O9 0.000000 0.480549 0.069250
#
# Coordination Sequence:
#
# PCOD8176262 Si02
#       4
#     8   8   8   8
#     4  11  23  45  66  99 135 169 225 276 321 402
#     4  11  25  45  69  97 135 180 217 270 335 389
#     4  11  23  41  64  97 138 168 218 273 323 401
#     4  11  23  39  69 103 132 169 216 281 337 380
#
# _framework density 21.371258000000001
#
# number of rings (size 3 to 8) (size 9 to 14) (size 15 to 20)
#    0.000    1.000    5.000    1.500    0.000    4.000 
#    0.000    5.000    0.000    0.000    0.000    0.000 
#    0.000    0.000    0.000    0.000    0.000    0.000 
#
# Total GULP energy -198239.518457 kJ/mol
# GULP energy per Si atom -12389.969904 kJ/mol
# Density = 2.132262 g / cm^3
# Si number density = 21.371258 Si / 1000 Ang^3
#
#
#
# Elastic Constant Matrix: (Units=GPa)
#
#
# Indices 1 2 3 4 5 6 
#
# 1 152.8733 52.7083 51.2258 0.0000 0.0000 0.0000
# 2 52.7083 89.2283 42.0550 0.0000 0.0000 0.0000
# 3 51.2258 42.0550 130.0288 0.0000 0.0000 0.0000
# 4 0.0000 0.0000 0.0000 46.9941 0.0000 0.0000
# 5 0.0000 0.0000 0.0000 0.0000 17.5291 0.0000
# 6 0.0000 0.0000 0.0000 0.0000 0.0000 26.4569
#
#
#
# Elastic Compliance Matrix: (Units=1/GPa)
#
#
# Indices 1 2 3 4 5 6 
#
# 1 0.008664 -0.004140 -0.002074 0.000000 0.000000 0.000000
# 2 -0.004140 0.015201 -0.003285 0.000000 0.000000 0.000000
# 3 -0.002074 -0.003285 0.009570 0.000000 0.000000 0.000000
# 4 0.000000 0.000000 0.000000 0.021279 0.000000 0.000000
# 5 0.000000 0.000000 0.000000 0.000000 0.057048 0.000000
# 6 0.000000 0.000000 0.000000 0.000000 0.000000 0.037797
#
#
# Mechanical properties :
#
#
# Convention : Reuss Voigt Hill
#
# Bulk Modulus (GPa) = 69.27183 73.78986 71.53085
# Shear Modulus (GPa) = 28.83974 33.27212 31.05593
#
# Velocity S-wave (km/s) = 3.67749 3.94999 3.81617
# Velocity P-wave (km/s) = 7.10745 7.44351 7.27742
#
# Compressibility (1/GPa) = 0.01443588
#
# Stress axis : x y z
#
# Youngs Moduli (GPa) = 115.42174 65.78327 104.48960
#
# Poissons Ratio (x) = 0.27236 0.21672
# Poissons Ratio (y) = 0.47788 0.34330
# Poissons Ratio (z) = 0.23940 0.21613
#
# Static dielectric constant tensor:
#      x y z
#    x 3.589840 0.000000 0.000000 
#    y 0.000000 3.863590 0.000000 
#    z 0.000000 0.000000 4.166910 
# 
# 
# High freq. dielectric constant tensor:
#      x y z
#    x 1.804390 0.000000 0.000000 
#    y 0.000000 1.833860 0.000000 
#    z 0.000000 0.000000 1.869450 
# 
# From -- ./inp_files/404.got.cif
#   From: 2010.03.12/outbox.cif.g09.slc.cpg/sg36_1_cif.got.tgz:404.got - 2010.04.14 02:13:53.
