data_PCOD8176283
_publ_section_title
;
Structure prediction by ZEFSAII (Michael W. Deem and Ramdas Pophale) SiO2 
 PCOD8176283
Probable space group: C M C 21
;
_chemical_formula_sum "Si O2"
_cell_formula_units_Z 40
_cell_length_a 11.333238
_cell_length_b 16.275020
_cell_length_c 9.490516
_cell_angle_alpha 90.000000
_cell_angle_beta 90.000000
_cell_angle_gamma 90.000000
_cell_volume 1750.513102
_symmetry_space_group_name_H-M "C M C 21"
_symmetry_group_IT_number 36
_symmetry_cell_setting 'orthorhombic'
loop_
_space_group_symop_operation_xyz
x,y,z
-x,-y,1/2+z
x,-y,1/2+z
-x,y,z
1/2+x,1/2+y,z
1/2-x,1/2-y,1/2+z
1/2+x,1/2-y,1/2+z
1/2-x,1/2+y,z
loop_
_atom_site_type_symbol
_atom_site_label
_atom_site_fract_x
_atom_site_fract_y
_atom_site_fract_z
Si Si1 0.363446 0.689434 0.607480
Si Si2 0.000000 0.609668 0.386911
Si Si3 0.635411 0.581107 0.004921
Si Si4 0.306490 0.756291 0.893986
Si Si5 0.000000 0.484025 0.161959
Si Si6 0.261568 0.469298 0.217651
O O1 0.500000 0.708202 0.629202
O O2 0.291718 0.737011 0.729681
O O3 0.322138 0.723419 0.456733
O O4 0.336473 0.593483 0.621887
O O5 0.886073 0.663892 0.419368
O O6 0.000000 0.577772 0.224039
O O7 0.000000 0.529720 0.492167
O O8 0.500000 0.554613 0.025418
O O9 0.639617 0.678038 0.975031
O O10 0.692014 0.529854 0.876343
O O11 0.711758 0.557691 0.144467
O O12 0.877673 0.445274 0.220638
#
# Coordination Sequence:
#
# PCOD8176283 Si02
#       6
#     8   4   8   8   4   8
#     4  11  24  46  70 103 144 190 237 308 356 433
#     4  12  24  50  70 104 146 182 234 300 346 440
#     4  11  23  43  68  97 134 185 226 290 345 420
#     4  11  24  46  71 100 146 180 235 297 368 410
#     4  12  26  44  74 100 144 188 234 294 366 424
#     4  11  24  42  67  99 135 177 238 282 353 423
#
# _framework density 22.850442000000001
#
# number of rings (size 3 to 8) (size 9 to 14) (size 15 to 20)
#    0.000    0.800    4.000    4.200    2.800    0.000 
#    9.000    2.000    0.000    0.000    0.000    0.000 
#    0.000    0.000    0.000    0.000    0.000    0.000 
#
# Total GULP energy -247941.416743 kJ/mol
# GULP energy per Si atom -12397.070837 kJ/mol
# Density = 2.279843 g / cm^3
# Si number density = 22.850442 Si / 1000 Ang^3
#
#
#
# Elastic Constant Matrix: (Units=GPa)
#
#
# Indices 1 2 3 4 5 6 
#
# 1 116.3953 18.2601 36.5672 0.0000 0.0000 0.0000
# 2 18.2601 93.3057 55.7447 0.0000 0.0000 0.0000
# 3 36.5672 55.7447 71.7278 0.0000 0.0000 0.0000
# 4 0.0000 0.0000 0.0000 42.6919 0.0000 0.0000
# 5 0.0000 0.0000 0.0000 0.0000 34.0891 0.0000
# 6 0.0000 0.0000 0.0000 0.0000 0.0000 25.6695
#
#
#
# Elastic Compliance Matrix: (Units=1/GPa)
#
#
# Indices 1 2 3 4 5 6 
#
# 1 0.010451 0.002124 -0.006979 0.000000 0.000000 0.000000
# 2 0.002124 0.020439 -0.016967 0.000000 0.000000 0.000000
# 3 -0.006979 -0.016967 0.030686 0.000000 0.000000 0.000000
# 4 0.000000 0.000000 0.000000 0.023424 0.000000 0.000000
# 5 0.000000 0.000000 0.000000 0.000000 0.029335 0.000000
# 6 0.000000 0.000000 0.000000 0.000000 0.000000 0.038957
#
#
# Mechanical properties :
#
#
# Convention : Reuss Voigt Hill
#
# Bulk Modulus (GPa) = 55.76732 55.84141 55.80437
# Shear Modulus (GPa) = 24.64139 31.88054 28.26097
#
# Velocity S-wave (km/s) = 3.28743 3.73927 3.52060
# Velocity P-wave (km/s) = 6.23441 6.56762 6.40319
#
# Compressibility (1/GPa) = 0.01793165
#
# Stress axis : x y z
#
# Youngs Moduli (GPa) = 95.68840 48.92689 32.58855
#
# Poissons Ratio (x) = -0.10392 0.22742
# Poissons Ratio (y) = -0.20325 0.55294
# Poissons Ratio (z) = 0.66776 0.83015
#
# Static dielectric constant tensor:
#      x y z
#    x 4.096490 0.000000 0.000000 
#    y 0.000000 4.074870 0.000000 
#    z 0.000000 0.000000 4.036980 
# 
# 
# High freq. dielectric constant tensor:
#      x y z
#    x 1.907010 0.000000 0.000000 
#    y 0.000000 1.896280 0.000000 
#    z 0.000000 0.000000 1.898210 
# 
# From -- ./inp_files/3101.got.cif
#   From: 2010.03.12/outbox.cif.g09.slc.cpg/sg36_2_cif.got.tgz:3101.got - 2010.04.14 02:13:53.
