data_PCOD8176278
_publ_section_title
;
Structure prediction by ZEFSAII (Michael W. Deem and Ramdas Pophale) SiO2 
 PCOD8176278
Probable space group: C M C 21
;
_chemical_formula_sum "Si O2"
_cell_formula_units_Z 48
_cell_length_a 17.662375
_cell_length_b 8.879569
_cell_length_c 14.324961
_cell_angle_alpha 90.000000
_cell_angle_beta 90.000000
_cell_angle_gamma 90.000000
_cell_volume 2246.644909
_symmetry_space_group_name_H-M "C M C 21"
_symmetry_group_IT_number 36
_symmetry_cell_setting 'orthorhombic'
loop_
_space_group_symop_operation_xyz
x,y,z
-x,-y,1/2+z
x,-y,1/2+z
-x,y,z
1/2+x,1/2+y,z
1/2-x,1/2-y,1/2+z
1/2+x,1/2-y,1/2+z
1/2-x,1/2+y,z
loop_
_atom_site_type_symbol
_atom_site_label
_atom_site_fract_x
_atom_site_fract_y
_atom_site_fract_z
Si Si1 0.170188 0.836043 0.404480
Si Si2 0.174168 0.342664 0.288083
Si Si3 0.645159 0.808265 0.574722
Si Si4 0.413598 0.363267 0.910998
Si Si5 0.914582 0.635228 0.274548
Si Si6 0.789690 0.366373 0.076472
O O1 0.248815 0.829032 0.347365
O O2 0.103922 0.781281 0.335457
O O3 0.171872 0.734288 0.496779
O O4 0.144702 0.002331 0.434866
O O5 0.115098 0.212879 0.315717
O O6 0.142324 0.507413 0.309846
O O7 0.179720 0.319701 0.177659
O O8 0.589971 0.767887 0.489531
O O9 0.594820 0.828190 0.665783
O O10 0.700604 0.665270 0.583130
O O11 0.694855 0.958197 0.553179
O O12 0.500000 0.419311 0.900636
O O13 0.000000 0.582471 0.291907
#
# Coordination Sequence:
#
# PCOD8176278 Si02
#       6
#     8   8   8   8   8   8
#     4  12  24  43  69  99 131 176 220 277 323 393
#     4  11  24  43  69  96 130 177 225 272 324 391
#     4  11  23  42  68  97 133 172 221 274 329 385
#     4  12  26  43  66 100 139 176 217 272 335 392
#     4  11  24  44  67  97 134 176 220 270 333 391
#     4  11  24  41  71 101 128 171 229 279 317 392
#
# _framework density 21.365192
#
# number of rings (size 3 to 8) (size 9 to 14) (size 15 to 20)
#    0.000    0.667    3.333    4.500    2.333    1.333 
#    0.000   10.833    0.000    0.000    0.000    0.000 
#    0.000    0.000    0.000    0.000    0.000    0.000 
#
# Total GULP energy -297629.484058 kJ/mol
# GULP energy per Si atom -12401.228502 kJ/mol
# Density = 2.131656 g / cm^3
# Si number density = 21.365192 Si / 1000 Ang^3
#
#
#
# Elastic Constant Matrix: (Units=GPa)
#
#
# Indices 1 2 3 4 5 6 
#
# 1 113.2169 30.8396 42.5671 0.0000 0.0000 0.0000
# 2 30.8396 95.1946 54.2883 0.0000 0.0000 0.0000
# 3 42.5671 54.2883 115.3644 0.0000 0.0000 0.0000
# 4 0.0000 0.0000 0.0000 36.9155 0.0000 0.0000
# 5 0.0000 0.0000 0.0000 0.0000 22.5246 0.0000
# 6 0.0000 0.0000 0.0000 0.0000 0.0000 25.8275
#
#
#
# Elastic Compliance Matrix: (Units=1/GPa)
#
#
# Indices 1 2 3 4 5 6 
#
# 1 0.010435 -0.001619 -0.003088 0.000000 0.000000 0.000000
# 2 -0.001619 0.014609 -0.006277 0.000000 0.000000 0.000000
# 3 -0.003088 -0.006277 0.012762 0.000000 0.000000 0.000000
# 4 0.000000 0.000000 0.000000 0.027089 0.000000 0.000000
# 5 0.000000 0.000000 0.000000 0.000000 0.044396 0.000000
# 6 0.000000 0.000000 0.000000 0.000000 0.000000 0.038718
#
#
# Mechanical properties :
#
#
# Convention : Reuss Voigt Hill
#
# Bulk Modulus (GPa) = 63.14730 64.35176 63.74953
# Shear Modulus (GPa) = 28.52947 30.12559 29.32753
#
# Velocity S-wave (km/s) = 3.65817 3.75911 3.70899
# Velocity P-wave (km/s) = 6.88936 7.00189 6.94586
#
# Compressibility (1/GPa) = 0.01583599
#
# Stress axis : x y z
#
# Youngs Moduli (GPa) = 95.83324 68.44949 78.35962
#
# Poissons Ratio (x) = 0.11084 0.24199
# Poissons Ratio (y) = 0.15519 0.49189
# Poissons Ratio (z) = 0.29595 0.42968
#
# Static dielectric constant tensor:
#      x y z
#    x 3.681710 0.000000 0.000000 
#    y 0.000000 3.923180 0.000000 
#    z 0.000000 0.000000 4.042200 
# 
# 
# High freq. dielectric constant tensor:
#      x y z
#    x 1.829720 0.000000 0.000000 
#    y 0.000000 1.844270 0.000000 
#    z 0.000000 0.000000 1.855520 
# 
# From -- ./inp_files/12504.got.cif
#   From: 2010.03.12/outbox.cif.g09.slc.cpg/sg36_7_cif.got.tgz:12504.got - 2010.04.14 02:13:53.
