data_PCOD8176657
_publ_section_title
;
Structure prediction by ZEFSAII (Michael W. Deem and Ramdas Pophale) SiO2 
 PCOD8176657
Probable space group: C C C 2
;
_chemical_formula_sum "Si O2"
_cell_formula_units_Z 60
_cell_length_a 24.212658
_cell_length_b 8.664673
_cell_length_c 12.208467
_cell_angle_alpha 90.000000
_cell_angle_beta 90.000000
_cell_angle_gamma 90.000000
_cell_volume 2561.272453
_symmetry_space_group_name_H-M "C C C 2"
_symmetry_group_IT_number 37
_symmetry_cell_setting 'orthorhombic'
loop_
_space_group_symop_operation_xyz
x,y,z
-x,-y,z
-x,y,1/2+z
x,-y,1/2+z
1/2+x,1/2+y,z
1/2-x,1/2-y,z
1/2-x,1/2+y,1/2+z
1/2+x,1/2-y,1/2+z
loop_
_atom_site_type_symbol
_atom_site_label
_atom_site_fract_x
_atom_site_fract_y
_atom_site_fract_z
Si Si1 0.666632 0.026837 0.133240
Si Si2 0.157804 0.067366 0.412302
Si Si3 0.088238 0.071457 0.208649
Si Si4 0.923659 0.294487 0.994721
Si Si5 0.140113 0.763243 0.511850
Si Si6 0.521709 0.734061 0.698137
Si Si7 0.750000 0.750000 0.534063
Si Si8 0.909189 0.450999 0.332302
O O1 0.677109 0.854880 0.083771
O O2 0.618101 0.107256 0.067920
O O3 0.646623 0.016902 0.260039
O O4 0.722769 0.124518 0.116077
O O5 0.143389 0.083743 0.283338
O O6 0.101632 0.125384 0.471655
O O7 0.207387 0.176488 0.448765
O O8 0.174581 0.891568 0.443641
O O9 0.101719 0.133844 0.089291
O O10 0.036239 0.176724 0.247000
O O11 0.069909 0.893833 0.210693
O O12 0.979840 0.273233 0.066537
O O13 0.931708 0.387941 0.881805
O O14 0.102859 0.670290 0.427270
O O15 0.540259 0.886788 0.761446
#
# Coordination Sequence:
#
# PCOD8176657 Si02
#       8
#     8   8   8   8   8   8   4   8
#     4   9  21  42  67  97 138 178 236 300 359 451
#     4  11  22  42  68  98 141 185 239 306 364 435
#     4  11  23  40  66 104 146 185 249 301 356 445
#     4   9  19  39  64  91 141 181 229 294 357 428
#     4  11  22  41  68  97 137 188 233 298 370 435
#     4  10  21  40  65 103 143 196 239 295 370 438
#     4  10  24  46  74 104 142 188 240 308 394 432
#     4  10  20  42  68 101 140 188 236 295 370 436
#
# _framework density 23.425858000000002
#
# number of rings (size 3 to 8) (size 9 to 14) (size 15 to 20)
#    0.000    1.867    2.667    0.800    0.000    1.600 
#    0.000   26.667    0.000    0.000    0.000    0.000 
#    0.000    0.000    0.000    0.000    0.000    0.000 
#
# Total GULP energy -371748.418688 kJ/mol
# GULP energy per Si atom -12391.613956 kJ/mol
# Density = 2.337254 g / cm^3
# Si number density = 23.425858 Si / 1000 Ang^3
#
#
#
# Elastic Constant Matrix: (Units=GPa)
#
#
# Indices 1 2 3 4 5 6 
#
# 1 68.7803 33.1093 35.3252 0.0000 0.0000 0.0000
# 2 33.1093 133.9163 47.8333 0.0000 0.0000 0.0000
# 3 35.3252 47.8333 121.1311 0.0000 0.0000 0.0000
# 4 0.0000 0.0000 0.0000 46.0849 0.0000 0.0000
# 5 0.0000 0.0000 0.0000 0.0000 19.8441 0.0000
# 6 0.0000 0.0000 0.0000 0.0000 0.0000 21.3085
#
#
#
# Elastic Compliance Matrix: (Units=1/GPa)
#
#
# Indices 1 2 3 4 5 6 
#
# 1 0.018087 -0.003013 -0.004085 0.000000 0.000000 0.000000
# 2 -0.003013 0.009195 -0.002753 0.000000 0.000000 0.000000
# 3 -0.004085 -0.002753 0.010534 0.000000 0.000000 0.000000
# 4 0.000000 0.000000 0.000000 0.021699 0.000000 0.000000
# 5 0.000000 0.000000 0.000000 0.000000 0.050393 0.000000
# 6 0.000000 0.000000 0.000000 0.000000 0.000000 0.046930
#
#
# Mechanical properties :
#
#
# Convention : Reuss Voigt Hill
#
# Bulk Modulus (GPa) = 55.20045 61.81815 58.50930
# Shear Modulus (GPa) = 27.38560 31.28481 29.33520
#
# Velocity S-wave (km/s) = 3.42282 3.65839 3.54256
# Velocity P-wave (km/s) = 6.26386 6.65517 6.46248
#
# Compressibility (1/GPa) = 0.01811579
#
# Stress axis : x y z
#
# Youngs Moduli (GPa) = 55.28713 108.75003 94.93252
#
# Poissons Ratio (x) = 0.32764 0.38781
# Poissons Ratio (y) = 0.16657 0.26131
# Poissons Ratio (z) = 0.22585 0.29934
#
# Static dielectric constant tensor:
#      x y z
#    x 3.724120 0.000000 0.000000 
#    y 0.000000 4.602050 0.000000 
#    z 0.000000 0.000000 4.469220 
# 
# 
# High freq. dielectric constant tensor:
#      x y z
#    x 1.879090 0.000000 0.000000 
#    y 0.000000 1.950020 0.000000 
#    z 0.000000 0.000000 1.934380 
# 
# From -- ./inp_files/9089.got.cif
#   From: 2010.03.12/outbox.cif.g09.slc.cpg/sg37_5_cif.got.tgz:9089.got - 2010.04.14 02:25:27.
