data_PCOD8176768
_publ_section_title
;
Structure prediction by ZEFSAII (Michael W. Deem and Ramdas Pophale) SiO2 
 PCOD8176768
Probable space group: C C C 2
;
_chemical_formula_sum "Si O2"
_cell_formula_units_Z 56
_cell_length_a 24.945920
_cell_length_b 8.657651
_cell_length_c 12.510795
_cell_angle_alpha 90.000000
_cell_angle_beta 90.000000
_cell_angle_gamma 90.000000
_cell_volume 2701.994795
_symmetry_space_group_name_H-M "C C C 2"
_symmetry_group_IT_number 37
_symmetry_cell_setting 'orthorhombic'
loop_
_space_group_symop_operation_xyz
x,y,z
-x,-y,z
-x,y,1/2+z
x,-y,1/2+z
1/2+x,1/2+y,z
1/2-x,1/2-y,z
1/2-x,1/2+y,1/2+z
1/2+x,1/2-y,1/2+z
loop_
_atom_site_type_symbol
_atom_site_label
_atom_site_fract_x
_atom_site_fract_y
_atom_site_fract_z
Si Si1 0.313022 0.755133 0.856170
Si Si2 0.012565 0.327685 0.528234
Si Si3 0.878710 0.471485 0.262807
Si Si4 0.031344 0.714336 0.739670
Si Si5 0.436083 0.279248 0.884929
Si Si6 0.126391 0.755168 0.071627
Si Si7 0.612076 0.524284 0.242019
O O1 0.250000 0.750000 0.845706
O O2 0.335820 0.614194 0.784764
O O3 0.331871 0.918662 0.806785
O O4 0.327787 0.736193 0.981525
O O5 0.072294 0.266683 0.499020
O O6 0.000000 0.500000 0.486184
O O7 0.016604 0.316211 0.656478
O O8 0.956716 0.227084 0.506947
O O9 0.933231 0.563104 0.247223
O O10 0.890939 0.345139 0.354292
O O11 0.862327 0.390117 0.150660
O O12 0.067097 0.858407 0.703136
O O13 0.998107 0.742648 0.846882
O O14 0.414332 0.441475 0.845304
O O15 0.126251 0.910532 0.143958
#
# Coordination Sequence:
#
# PCOD8176768 Si02
#       7
#     8   8   8   8   8   8   8
#     4  11  26  47  67  86 118 165 218 281 331 359
#     4  12  20  32  61  93 130 174 201 234 301 379
#     4  10  21  41  63  90 124 165 213 256 300 381
#     4  11  19  35  56  90 131 166 194 229 301 383
#     4  11  21  35  59  90 131 166 202 249 297 380
#     4  11  23  41  66  97 127 164 214 256 309 382
#     4  10  24  41  59  93 128 163 207 258 314 377
#
# _framework density 20.725428999999998
#
# number of rings (size 3 to 8) (size 9 to 14) (size 15 to 20)
#    0.000    1.143    4.286    4.286    2.000    1.143 
#    0.000    2.143    0.000    0.000    0.000    0.000 
#    0.000    0.000    0.000    0.000    0.000    0.000 
#
# Total GULP energy -346926.485392 kJ/mol
# GULP energy per Si atom -12390.231621 kJ/mol
# Density = 2.067826 g / cm^3
# Si number density = 20.725429 Si / 1000 Ang^3
#
#
#
# Elastic Constant Matrix: (Units=GPa)
#
#
# Indices 1 2 3 4 5 6 
#
# 1 125.5922 41.3041 34.7469 0.0000 0.0000 0.0000
# 2 41.3041 85.3369 39.6060 0.0000 0.0000 0.0000
# 3 34.7469 39.6060 55.7330 0.0000 0.0000 0.0000
# 4 0.0000 0.0000 0.0000 26.0652 0.0000 0.0000
# 5 0.0000 0.0000 0.0000 0.0000 29.2377 0.0000
# 6 0.0000 0.0000 0.0000 0.0000 0.0000 14.5711
#
#
#
# Elastic Compliance Matrix: (Units=1/GPa)
#
#
# Indices 1 2 3 4 5 6 
#
# 1 0.010090 -0.002931 -0.004208 0.000000 0.000000 0.000000
# 2 -0.002931 0.018336 -0.011203 0.000000 0.000000 0.000000
# 3 -0.004208 -0.011203 0.028528 0.000000 0.000000 0.000000
# 4 0.000000 0.000000 0.000000 0.038365 0.000000 0.000000
# 5 0.000000 0.000000 0.000000 0.000000 0.034202 0.000000
# 6 0.000000 0.000000 0.000000 0.000000 0.000000 0.068629
#
#
# Mechanical properties :
#
#
# Convention : Reuss Voigt Hill
#
# Bulk Modulus (GPa) = 49.33395 55.33068 52.33231
# Shear Modulus (GPa) = 20.69601 24.04181 22.36891
#
# Velocity S-wave (km/s) = 3.16346 3.40959 3.28883
# Velocity P-wave (km/s) = 6.09906 6.50042 6.30293
#
# Compressibility (1/GPa) = 0.02027002
#
# Stress axis : x y z
#
# Youngs Moduli (GPa) = 99.10427 54.53622 35.05355
#
# Poissons Ratio (x) = 0.15984 0.14751
# Poissons Ratio (y) = 0.29046 0.39272
# Poissons Ratio (z) = 0.41704 0.61099
#
# Static dielectric constant tensor:
#      x y z
#    x 3.354840 0.000000 0.000000 
#    y 0.000000 4.038820 0.000000 
#    z 0.000000 0.000000 3.792910 
# 
# 
# High freq. dielectric constant tensor:
#      x y z
#    x 1.774800 0.000000 0.000000 
#    y 0.000000 1.821590 0.000000 
#    z 0.000000 0.000000 1.827260 
# 
# From -- ./inp_files/12919.got.cif
#   From: 2010.03.12/outbox.cif.g09.slc.cpg/sg37_7_cif.got.tgz:12919.got - 2010.04.14 02:25:27.
