data_PCOD8176729
_publ_section_title
;
Structure prediction by ZEFSAII (Michael W. Deem and Ramdas Pophale) SiO2 
 PCOD8176729
Probable space group: C C C 2
;
_chemical_formula_sum "Si O2"
_cell_formula_units_Z 48
_cell_length_a 25.075596
_cell_length_b 8.332294
_cell_length_c 10.584998
_cell_angle_alpha 90.000000
_cell_angle_beta 90.000000
_cell_angle_gamma 90.000000
_cell_volume 2211.600247
_symmetry_space_group_name_H-M "C C C 2"
_symmetry_group_IT_number 37
_symmetry_cell_setting 'orthorhombic'
loop_
_space_group_symop_operation_xyz
x,y,z
-x,-y,z
-x,y,1/2+z
x,-y,1/2+z
1/2+x,1/2+y,z
1/2-x,1/2-y,z
1/2-x,1/2+y,1/2+z
1/2+x,1/2-y,1/2+z
loop_
_atom_site_type_symbol
_atom_site_label
_atom_site_fract_x
_atom_site_fract_y
_atom_site_fract_z
Si Si1 0.216734 0.612796 0.978970
Si Si2 0.142004 0.346441 0.026462
Si Si3 0.968672 0.163657 0.822643
Si Si4 0.846802 0.829259 0.283551
Si Si5 0.708662 0.633328 0.845422
Si Si6 0.521477 0.833242 0.056108
O O1 0.250000 0.750000 0.057312
O O2 0.191429 0.712097 0.862377
O O3 0.257357 0.469814 0.945762
O O4 0.168196 0.523515 0.050313
O O5 0.150575 0.241770 0.147428
O O6 0.079913 0.364723 0.000425
O O7 0.166114 0.251399 0.908994
O O8 0.905165 0.147157 0.844262
O O9 0.980807 0.219080 0.679116
O O10 0.000000 0.000000 0.844616
O O11 0.986935 0.278224 0.936187
O O12 0.821915 0.006049 0.258782
O O13 0.750000 0.750000 0.770051
O O14 0.500000 0.000000 0.108777
#
# Coordination Sequence:
#
# PCOD8176729 Si02
#       6
#     8   8   8   8   8   8
#     4   9  19  36  58  85 115 150 194 242 294 358
#     4  10  21  39  60  85 120 157 197 249 304 362
#     4  11  23  40  64  92 125 165 208 257 312 370
#     4  10  21  39  60  85 120 157 197 249 304 362
#     4   9  19  36  58  85 115 150 194 242 294 358
#     4  11  23  40  64  92 125 165 208 257 312 370
#
# _framework density 21.703741999999998
#
# number of rings (size 3 to 8) (size 9 to 14) (size 15 to 20)
#    0.000    2.000    0.000    3.000    0.000    8.667 
#    0.000   11.667    0.000    0.000    0.000    0.000 
#    0.000    0.000    0.000    0.000    0.000    0.000 
#
# Total GULP energy -297321.641081 kJ/mol
# GULP energy per Si atom -12388.401712 kJ/mol
# Density = 2.165434 g / cm^3
# Si number density = 21.703742 Si / 1000 Ang^3
#
#
#
# Elastic Constant Matrix: (Units=GPa)
#
#
# Indices 1 2 3 4 5 6 
#
# 1 115.3037 51.3669 25.1907 0.0000 0.0000 0.0000
# 2 51.3669 121.7706 4.6945 0.0000 0.0000 0.0000
# 3 25.1907 4.6945 46.5422 0.0000 0.0000 0.0000
# 4 0.0000 0.0000 0.0000 18.6018 0.0000 0.0000
# 5 0.0000 0.0000 0.0000 0.0000 14.1182 0.0000
# 6 0.0000 0.0000 0.0000 0.0000 0.0000 41.5128
#
#
#
# Elastic Compliance Matrix: (Units=1/GPa)
#
#
# Indices 1 2 3 4 5 6 
#
# 1 0.012193 -0.004908 -0.006104 0.000000 0.000000 0.000000
# 2 -0.004908 0.010220 0.001626 0.000000 0.000000 0.000000
# 3 -0.006104 0.001626 0.024626 0.000000 0.000000 0.000000
# 4 0.000000 0.000000 0.000000 0.053758 0.000000 0.000000
# 5 0.000000 0.000000 0.000000 0.000000 0.070830 0.000000
# 6 0.000000 0.000000 0.000000 0.000000 0.000000 0.024089
#
#
# Mechanical properties :
#
#
# Convention : Reuss Voigt Hill
#
# Bulk Modulus (GPa) = 35.37925 49.56897 42.47411
# Shear Modulus (GPa) = 22.33027 28.33751 25.33389
#
# Velocity S-wave (km/s) = 3.21108 3.61730 3.42022
# Velocity P-wave (km/s) = 5.48492 6.35098 5.93377
#
# Compressibility (1/GPa) = 0.02826516
#
# Stress axis : x y z
#
# Youngs Moduli (GPa) = 82.01538 97.84873 40.60782
#
# Poissons Ratio (x) = 0.48024 0.24788
# Poissons Ratio (y) = 0.40253 -0.06601
# Poissons Ratio (z) = 0.50064 -0.15906
#
# Static dielectric constant tensor:
#      x y z
#    x 4.981490 0.000000 0.000000 
#    y 0.000000 4.426440 0.000000 
#    z 0.000000 0.000000 3.455370 
# 
# 
# High freq. dielectric constant tensor:
#      x y z
#    x 1.874700 0.000000 0.000000 
#    y 0.000000 1.873030 0.000000 
#    z 0.000000 0.000000 1.826000 
# 
# From -- ./inp_files/8843.got.cif
#   From: 2010.03.12/outbox.cif.g09.slc.cpg/sg37_5_cif.got.tgz:8843.got - 2010.04.14 02:25:27.
