data_PCOD8176471
_publ_section_title
;
Structure prediction by ZEFSAII (Michael W. Deem and Ramdas Pophale) SiO2 
 PCOD8176471
Probable space group: C C C 2
;
_chemical_formula_sum "Si O2"
_cell_formula_units_Z 64
_cell_length_a 15.615655
_cell_length_b 8.631924
_cell_length_c 23.278382
_cell_angle_alpha 90.000000
_cell_angle_beta 90.000000
_cell_angle_gamma 90.000000
_cell_volume 3137.766371
_symmetry_space_group_name_H-M "C C C 2"
_symmetry_group_IT_number 37
_symmetry_cell_setting 'orthorhombic'
loop_
_space_group_symop_operation_xyz
x,y,z
-x,-y,z
-x,y,1/2+z
x,-y,1/2+z
1/2+x,1/2+y,z
1/2-x,1/2-y,z
1/2-x,1/2+y,1/2+z
1/2+x,1/2-y,1/2+z
loop_
_atom_site_type_symbol
_atom_site_label
_atom_site_fract_x
_atom_site_fract_y
_atom_site_fract_z
Si Si1 0.341985 0.804630 0.883640
Si Si2 0.415983 0.104963 0.858683
Si Si3 0.157797 0.817211 0.130737
Si Si4 0.091847 0.808612 0.255010
Si Si5 0.994726 0.683241 0.070088
Si Si6 0.161116 0.181247 0.139720
Si Si7 0.892879 0.843544 0.263925
Si Si8 0.499512 0.317033 0.447185
O O1 0.250000 0.750000 0.903320
O O2 0.365055 0.751629 0.819317
O O3 0.404770 0.739970 0.932006
O O4 0.343344 0.992096 0.884240
O O5 0.380812 0.176011 0.799553
O O6 0.433937 0.246886 0.901405
O O7 0.500000 0.000000 0.848326
O O8 0.250000 0.750000 0.112821
O O9 0.137249 0.765820 0.195565
O O10 0.086493 0.746151 0.089505
O O11 0.154434 0.001542 0.123262
O O12 0.990214 0.808274 0.247246
O O13 0.121894 0.975782 0.277830
O O14 0.919429 0.727872 0.113708
O O15 0.000000 0.500000 0.063531
O O16 0.972047 0.759630 0.009335
O O17 0.250000 0.250000 0.115288
O O18 0.161806 0.205422 0.208465
O O19 0.500000 0.500000 0.442533
#
# Coordination Sequence:
#
# PCOD8176471 Si02
#       8
#     8   8   8   8   8   8   8   8
#     4  11  23  38  61  95 127 157 202 261 310 367
#     4  10  20  36  60  89 121 158 204 250 302 375
#     4  11  24  41  62  95 132 169 214 261 311 375
#     4  10  19  35  61  90 125 169 207 250 309 375
#     4  12  25  43  68  93 122 167 213 263 323 375
#     4  11  23  42  64  95 130 167 213 263 314 379
#     4  10  19  36  61  91 128 166 204 252 313 376
#     4  11  23  44  67  87 116 164 209 252 313 383
#
# _framework density 20.396674000000001
#
# number of rings (size 3 to 8) (size 9 to 14) (size 15 to 20)
#    0.000    1.250    3.750    4.125    0.000    5.000 
#    0.000    5.625    0.000    0.000    0.000    0.000 
#    0.000    0.000    0.000    0.000    0.000    0.000 
#
# Total GULP energy -396892.544181 kJ/mol
# GULP energy per Si atom -12402.892006 kJ/mol
# Density = 2.035025 g / cm^3
# Si number density = 20.396674 Si / 1000 Ang^3
#
#
#
# Elastic Constant Matrix: (Units=GPa)
#
#
# Indices 1 2 3 4 5 6 
#
# 1 84.9826 18.9229 8.4312 0.0000 0.0000 0.0000
# 2 18.9229 141.4072 40.2087 0.0000 0.0000 0.0000
# 3 8.4312 40.2087 72.5684 0.0000 0.0000 0.0000
# 4 0.0000 0.0000 0.0000 20.6083 0.0000 0.0000
# 5 0.0000 0.0000 0.0000 0.0000 12.4349 0.0000
# 6 0.0000 0.0000 0.0000 0.0000 0.0000 28.5140
#
#
#
# Elastic Compliance Matrix: (Units=1/GPa)
#
#
# Indices 1 2 3 4 5 6 
#
# 1 0.012151 -0.001454 -0.000606 0.000000 0.000000 0.000000
# 2 -0.001454 0.008568 -0.004579 0.000000 0.000000 0.000000
# 3 -0.000606 -0.004579 0.016387 0.000000 0.000000 0.000000
# 4 0.000000 0.000000 0.000000 0.048524 0.000000 0.000000
# 5 0.000000 0.000000 0.000000 0.000000 0.080419 0.000000
# 6 0.000000 0.000000 0.000000 0.000000 0.000000 0.035070
#
#
# Mechanical properties :
#
#
# Convention : Reuss Voigt Hill
#
# Bulk Modulus (GPa) = 41.96467 48.23153 45.09810
# Shear Modulus (GPa) = 22.48807 27.73780 25.11293
#
# Velocity S-wave (km/s) = 3.32405 3.69171 3.51269
# Velocity P-wave (km/s) = 5.94570 6.47068 6.21374
#
# Compressibility (1/GPa) = 0.02382957
#
# Stress axis : x y z
#
# Youngs Moduli (GPa) = 82.29817 116.71054 61.02228
#
# Poissons Ratio (x) = 0.16965 0.03700
# Poissons Ratio (y) = 0.11963 0.27940
# Poissons Ratio (z) = 0.04990 0.53437
#
# Static dielectric constant tensor:
#      x y z
#    x 3.757470 0.000000 0.000000 
#    y 0.000000 3.985930 0.000000 
#    z 0.000000 0.000000 3.630850 
# 
# 
# High freq. dielectric constant tensor:
#      x y z
#    x 1.787760 0.000000 0.000000 
#    y 0.000000 1.812530 0.000000 
#    z 0.000000 0.000000 1.792260 
# 
# From -- ./inp_files/18925.got.cif
#   From: 2010.03.12/outbox.cif.g09.slc.cpg/sg37_10_cif.got.tgz:18925.got - 2010.04.14 02:25:27.
