data_PCOD8176013
_publ_section_title
;
Structure prediction by ZEFSAII (Michael W. Deem and Ramdas Pophale) SiO2 
 PCOD8176013
Probable space group: C M C 21
;
_chemical_formula_sum "Si O2"
_cell_formula_units_Z 56
_cell_length_a 10.784556
_cell_length_b 23.094648
_cell_length_c 10.763962
_cell_angle_alpha 90.000000
_cell_angle_beta 90.000000
_cell_angle_gamma 90.000000
_cell_volume 2680.931843
_symmetry_space_group_name_H-M "C M C 21"
_symmetry_group_IT_number 36
_symmetry_cell_setting 'orthorhombic'
loop_
_space_group_symop_operation_xyz
x,y,z
-x,-y,1/2+z
x,-y,1/2+z
-x,y,z
1/2+x,1/2+y,z
1/2-x,1/2-y,1/2+z
1/2+x,1/2-y,1/2+z
1/2-x,1/2+y,z
loop_
_atom_site_type_symbol
_atom_site_label
_atom_site_fract_x
_atom_site_fract_y
_atom_site_fract_z
Si Si1 0.500000 0.055251 0.858580
Si Si2 0.138093 0.876599 0.887848
Si Si3 0.240499 0.912720 0.637123
Si Si4 0.642447 0.680062 0.956762
Si Si5 0.639885 0.464816 0.101329
Si Si6 0.714494 0.126400 0.752425
Si Si7 0.639059 0.188281 0.505565
Si Si8 0.000000 0.544727 0.148241
O O1 0.617948 0.097222 0.846803
O O2 0.500000 0.009993 0.742714
O O3 0.500000 0.027023 0.998755
O O4 0.147947 0.897797 0.747964
O O5 0.000000 0.848390 0.907471
O O6 0.150803 0.933513 0.969956
O O7 0.249842 0.832607 0.916712
O O8 0.223039 0.864322 0.535056
O O9 0.383232 0.914688 0.680425
O O10 0.212581 0.975853 0.582291
O O11 0.500000 0.660557 0.951617
O O12 0.656452 0.743070 0.016645
O O13 0.701560 0.675441 0.819235
O O14 0.500000 0.477988 0.140690
O O15 0.697936 0.425322 0.207649
O O16 0.646685 0.158652 0.639607
O O17 0.500000 0.174839 0.452072
#
# Coordination Sequence:
#
# PCOD8176013 Si02
#       8
#     4   8   8   8   8   8   8   4
#     4  12  24  46  68 102 140 184 228 281 352 427
#     4  10  24  44  67  99 133 174 225 280 342 415
#     4  12  25  42  64 100 134 171 220 278 343 409
#     4  11  25  44  67  98 132 172 228 279 335 404
#     4  10  22  40  65  97 131 172 212 267 344 412
#     4  11  22  43  70  95 130 177 224 275 345 412
#     4  10  24  45  71  98 131 180 228 287 348 411
#     4  12  28  42  68 104 144 182 232 289 350 427
#
# _framework density 20.888259000000001
#
# number of rings (size 3 to 8) (size 9 to 14) (size 15 to 20)
#    0.000    1.143    3.571    1.714    7.000    0.571 
#    2.571    0.000    0.000    0.000    0.000    0.000 
#    0.000    0.000    0.000    0.000    0.000    0.000 
#
# Total GULP energy -347174.458134 kJ/mol
# GULP energy per Si atom -12399.087790 kJ/mol
# Density = 2.084072 g / cm^3
# Si number density = 20.888259 Si / 1000 Ang^3
#
#
#
# Elastic Constant Matrix: (Units=GPa)
#
#
# Indices 1 2 3 4 5 6 
#
# 1 150.9142 53.5855 21.8050 0.0000 0.0000 0.0000
# 2 53.5855 103.2878 21.6417 0.0000 0.0000 0.0000
# 3 21.8050 21.6417 79.4946 0.0000 0.0000 0.0000
# 4 0.0000 0.0000 0.0000 23.5659 0.0000 0.0000
# 5 0.0000 0.0000 0.0000 0.0000 32.1398 0.0000
# 6 0.0000 0.0000 0.0000 0.0000 0.0000 18.3282
#
#
#
# Elastic Compliance Matrix: (Units=1/GPa)
#
#
# Indices 1 2 3 4 5 6 
#
# 1 0.008222 -0.004023 -0.001160 0.000000 0.000000 0.000000
# 2 -0.004023 0.012235 -0.002228 0.000000 0.000000 0.000000
# 3 -0.001160 -0.002228 0.013504 0.000000 0.000000 0.000000
# 4 0.000000 0.000000 0.000000 0.042434 0.000000 0.000000
# 5 0.000000 0.000000 0.000000 0.000000 0.031114 0.000000
# 6 0.000000 0.000000 0.000000 0.000000 0.000000 0.054561
#
#
# Mechanical properties :
#
#
# Convention : Reuss Voigt Hill
#
# Bulk Modulus (GPa) = 52.24397 58.64011 55.44204
# Shear Modulus (GPa) = 27.28189 30.58441 28.93315
#
# Velocity S-wave (km/s) = 3.61790 3.83063 3.72578
# Velocity P-wave (km/s) = 6.52057 6.90645 6.71628
#
# Compressibility (1/GPa) = 0.01914096
#
# Stress axis : x y z
#
# Youngs Moduli (GPa) = 121.62163 81.73057 74.05135
#
# Poissons Ratio (x) = 0.32877 0.08592
# Poissons Ratio (y) = 0.48923 0.16496
# Poissons Ratio (z) = 0.14111 0.18206
#
# Static dielectric constant tensor:
#      x y z
#    x 4.189850 0.000000 0.000000 
#    y 0.000000 3.592510 0.000000 
#    z 0.000000 0.000000 3.746140 
# 
# 
# High freq. dielectric constant tensor:
#      x y z
#    x 1.843410 0.000000 0.000000 
#    y 0.000000 1.805000 0.000000 
#    z 0.000000 0.000000 1.816820 
# 
# From -- ./inp_files/7866.got.cif
#   From: 2010.03.12/outbox.cif.g09.slc.cpg/sg36_4_cif.got.tgz:7866.got - 2010.04.14 02:13:53.
