data_PCOD8176219
_publ_section_title
;
Structure prediction by ZEFSAII (Michael W. Deem and Ramdas Pophale) SiO2 
 PCOD8176219
Probable space group: C M C 21
;
_chemical_formula_sum "Si O2"
_cell_formula_units_Z 48
_cell_length_a 14.150106
_cell_length_b 9.443050
_cell_length_c 17.094372
_cell_angle_alpha 90.000000
_cell_angle_beta 90.000000
_cell_angle_gamma 90.000000
_cell_volume 2284.152695
_symmetry_space_group_name_H-M "C M C 21"
_symmetry_group_IT_number 36
_symmetry_cell_setting 'orthorhombic'
loop_
_space_group_symop_operation_xyz
x,y,z
-x,-y,1/2+z
x,-y,1/2+z
-x,y,z
1/2+x,1/2+y,z
1/2-x,1/2-y,1/2+z
1/2+x,1/2-y,1/2+z
1/2-x,1/2+y,z
loop_
_atom_site_type_symbol
_atom_site_label
_atom_site_fract_x
_atom_site_fract_y
_atom_site_fract_z
Si Si1 0.201653 0.283442 0.227850
Si Si2 0.197914 0.766004 0.390850
Si Si3 0.000000 0.219463 0.188278
Si Si4 0.000000 0.314004 0.944972
Si Si5 0.500000 0.998926 0.586969
Si Si6 0.500000 0.468661 0.546277
Si Si7 0.806773 0.044739 0.485429
Si Si8 0.697412 0.942299 0.632926
O O1 0.264712 0.257581 0.303213
O O2 0.094215 0.227774 0.241883
O O3 0.203949 0.447904 0.204962
O O4 0.246048 0.198563 0.154734
O O5 0.095116 0.689608 0.392295
O O6 0.190753 0.928018 0.417105
O O7 0.272528 0.691351 0.448409
O O8 0.000000 0.350437 0.129764
O O9 0.000000 0.072638 0.138501
O O10 0.000000 0.460228 0.994725
O O11 0.000000 0.177980 0.000019
O O12 0.588914 0.905303 0.613630
O O13 0.409847 0.563322 0.523824
O O14 0.735282 0.006999 0.553424
#
# Coordination Sequence:
#
# PCOD8176219 Si02
#       8
#     8   8   4   4   4   4   8   8
#     4  11  23  39  60  89 122 157 196 248 304 353
#     4  11  23  39  60  89 122 157 196 248 304 353
#     4   9  18  37  60  81 119 162 193 225 302 379
#     4   9  18  37  60  81 119 162 193 225 302 379
#     4   9  18  35  61  88 111 157 203 235 292 357
#     4   9  18  35  61  88 111 157 203 235 292 357
#     4  11  21  39  63  88 116 158 205 247 288 356
#     4  11  21  39  63  88 116 158 205 247 288 356
#
# _framework density 21.014357
#
# number of rings (size 3 to 8) (size 9 to 14) (size 15 to 20)
#    0.000    1.667    3.333    2.000    0.000    1.333 
#    0.000   11.667    0.000    0.000    0.000    0.000 
#    0.000    0.000    0.000    0.000    0.000    0.000 
#
# Total GULP energy -297633.926073 kJ/mol
# GULP energy per Si atom -12401.413586 kJ/mol
# Density = 2.096653 g / cm^3
# Si number density = 21.014357 Si / 1000 Ang^3
#
#
#
# Elastic Constant Matrix: (Units=GPa)
#
#
# Indices 1 2 3 4 5 6 
#
# 1 150.3196 20.0568 18.0768 0.0000 0.0000 0.0000
# 2 20.0568 29.8947 -3.8803 0.0000 0.0000 0.0000
# 3 18.0768 -3.8803 72.9331 0.0000 0.0000 0.0000
# 4 0.0000 0.0000 0.0000 27.7241 0.0000 0.0000
# 5 0.0000 0.0000 0.0000 0.0000 38.3575 0.0000
# 6 0.0000 0.0000 0.0000 0.0000 0.0000 24.6756
#
#
#
# Elastic Compliance Matrix: (Units=1/GPa)
#
#
# Indices 1 2 3 4 5 6 
#
# 1 0.007636 -0.005406 -0.002180 0.000000 0.000000 0.000000
# 2 -0.005406 0.037511 0.003336 0.000000 0.000000 0.000000
# 3 -0.002180 0.003336 0.014429 0.000000 0.000000 0.000000
# 4 0.000000 0.000000 0.000000 0.036070 0.000000 0.000000
# 5 0.000000 0.000000 0.000000 0.000000 0.026071 0.000000
# 6 0.000000 0.000000 0.000000 0.000000 0.000000 0.040526
#
#
# Mechanical properties :
#
#
# Convention : Reuss Voigt Hill
#
# Bulk Modulus (GPa) = 19.57933 35.73933 27.65933
# Shear Modulus (GPa) = 26.62862 32.74440 29.68651
#
# Velocity S-wave (km/s) = 3.56359 3.95168 3.76264
# Velocity P-wave (km/s) = 5.12538 6.15346 5.66280
#
# Compressibility (1/GPa) = 0.05107428
#
# Stress axis : x y z
#
# Youngs Moduli (GPa) = 130.95866 26.65909 69.30465
#
# Poissons Ratio (x) = 0.14412 0.15110
# Poissons Ratio (y) = 0.70797 -0.23117
# Poissons Ratio (z) = 0.28552 -0.08892
#
# Static dielectric constant tensor:
#      x y z
#    x 4.225700 0.000000 0.000000 
#    y 0.000000 3.582400 0.000000 
#    z 0.000000 0.000000 3.566700 
# 
# 
# High freq. dielectric constant tensor:
#      x y z
#    x 1.842140 0.000000 0.000000 
#    y 0.000000 1.802270 0.000000 
#    z 0.000000 0.000000 1.808190 
# 
# From -- ./inp_files/14260.got.cif
#   From: 2010.03.12/outbox.cif.g09.slc.cpg/sg36_8_cif.got.tgz:14260.got - 2010.04.14 02:13:53.
