data_PCOD8176666
_publ_section_title
;
Structure prediction by ZEFSAII (Michael W. Deem and Ramdas Pophale) SiO2 
 PCOD8176666
Probable space group: C C C 2
;
_chemical_formula_sum "Si O2"
_cell_formula_units_Z 52
_cell_length_a 25.476691
_cell_length_b 8.381215
_cell_length_c 10.507471
_cell_angle_alpha 90.000000
_cell_angle_beta 90.000000
_cell_angle_gamma 90.000000
_cell_volume 2243.614310
_symmetry_space_group_name_H-M "C C C 2"
_symmetry_group_IT_number 37
_symmetry_cell_setting 'orthorhombic'
loop_
_space_group_symop_operation_xyz
x,y,z
-x,-y,z
-x,y,1/2+z
x,-y,1/2+z
1/2+x,1/2+y,z
1/2-x,1/2-y,z
1/2-x,1/2+y,1/2+z
1/2+x,1/2-y,1/2+z
loop_
_atom_site_type_symbol
_atom_site_label
_atom_site_fract_x
_atom_site_fract_y
_atom_site_fract_z
Si Si1 0.085753 0.801221 0.522570
Si Si2 0.092620 0.812947 0.803701
Si Si3 0.250000 0.250000 0.598085
Si Si4 0.822981 0.977937 0.446013
Si Si5 0.121051 0.522239 0.933065
Si Si6 0.000000 0.000000 0.909586
Si Si7 0.750000 0.750000 0.017007
Si Si8 0.683475 0.982286 0.176142
O O1 0.090919 0.731200 0.664979
O O2 0.127140 0.946549 0.518866
O O3 0.096355 0.655315 0.424201
O O4 0.027163 0.865967 0.497767
O O5 0.082063 0.669858 0.905747
O O6 0.149133 0.904828 0.819688
O O7 0.044648 0.933741 0.816476
O O8 0.296634 0.325953 0.513533
O O9 0.270890 0.112428 0.690439
O O10 0.778644 0.116572 0.427714
O O11 0.163673 0.544321 0.819150
O O12 0.142278 0.552744 0.074512
O O13 0.794184 0.677621 0.109942
#
# Coordination Sequence:
#
# PCOD8176666 Si02
#       8
#     8   8   4   8   8   4   4   8
#     4  11  24  48  70 103 137 179 227 296 351 427
#     4  11  23  46  72 101 136 181 226 297 353 420
#     4  10  22  40  62 100 136 192 238 274 332 412
#     4  10  21  40  64  95 144 182 232 285 341 402
#     4  12  23  45  69  97 141 181 231 287 351 400
#     4  10  26  48  74 104 130 172 232 288 372 430
#     4  10  20  44  62 102 144 190 242 284 332 410
#     4  11  24  42  64 101 139 192 236 287 333 404
#
# _framework density 23.176888999999999
#
# number of rings (size 3 to 8) (size 9 to 14) (size 15 to 20)
#    0.000    1.231    4.615    0.462    0.000    4.308 
#   13.846    1.538    0.000    0.000    0.000    0.000 
#    0.000    0.000    0.000    0.000    0.000    0.000 
#
# Total GULP energy -322148.597105 kJ/mol
# GULP energy per Si atom -12390.330658 kJ/mol
# Density = 2.312414 g / cm^3
# Si number density = 23.176889 Si / 1000 Ang^3
#
#
#
# Elastic Constant Matrix: (Units=GPa)
#
#
# Indices 1 2 3 4 5 6 
#
# 1 97.2923 39.2002 23.7714 0.0000 0.0000 0.0000
# 2 39.2002 131.6862 24.5236 0.0000 0.0000 0.0000
# 3 23.7714 24.5236 87.9774 0.0000 0.0000 0.0000
# 4 0.0000 0.0000 0.0000 27.4325 0.0000 0.0000
# 5 0.0000 0.0000 0.0000 0.0000 18.3990 0.0000
# 6 0.0000 0.0000 0.0000 0.0000 0.0000 33.8974
#
#
#
# Elastic Compliance Matrix: (Units=1/GPa)
#
#
# Indices 1 2 3 4 5 6 
#
# 1 0.012140 -0.003167 -0.002397 0.000000 0.000000 0.000000
# 2 -0.003167 0.008836 -0.001607 0.000000 0.000000 0.000000
# 3 -0.002397 -0.001607 0.012462 0.000000 0.000000 0.000000
# 4 0.000000 0.000000 0.000000 0.036453 0.000000 0.000000
# 5 0.000000 0.000000 0.000000 0.000000 0.054351 0.000000
# 6 0.000000 0.000000 0.000000 0.000000 0.000000 0.029501
#
#
# Mechanical properties :
#
#
# Convention : Reuss Voigt Hill
#
# Bulk Modulus (GPa) = 52.37084 54.66070 53.51577
# Shear Modulus (GPa) = 28.66117 31.24316 29.95217
#
# Velocity S-wave (km/s) = 3.52039 3.67554 3.59880
# Velocity P-wave (km/s) = 6.25854 6.45353 6.35679
#
# Compressibility (1/GPa) = 0.01909459
#
# Stress axis : x y z
#
# Youngs Moduli (GPa) = 82.37060 113.17346 80.24186
#
# Poissons Ratio (x) = 0.35847 0.19237
# Poissons Ratio (y) = 0.26090 0.12896
# Poissons Ratio (z) = 0.19747 0.18189
#
# Static dielectric constant tensor:
#      x y z
#    x 4.194140 0.000000 0.000000 
#    y 0.000000 4.596040 0.000000 
#    z 0.000000 0.000000 3.842710 
# 
# 
# High freq. dielectric constant tensor:
#      x y z
#    x 1.905120 0.000000 0.000000 
#    y 0.000000 1.938560 0.000000 
#    z 0.000000 0.000000 1.895360 
# 
# From -- ./inp_files/9061.got.cif
#   From: 2010.03.12/outbox.cif.g09.slc.cpg/sg37_5_cif.got.tgz:9061.got - 2010.04.14 02:25:27.
