data_PCOD8176147
_publ_section_title
;
Structure prediction by ZEFSAII (Michael W. Deem and Ramdas Pophale) SiO2 
 PCOD8176147
Probable space group: C M C 21
;
_chemical_formula_sum "Si O2"
_cell_formula_units_Z 64
_cell_length_a 31.432229
_cell_length_b 8.825051
_cell_length_c 10.675619
_cell_angle_alpha 90.000000
_cell_angle_beta 90.000000
_cell_angle_gamma 90.000000
_cell_volume 2961.320886
_symmetry_space_group_name_H-M "C M C 21"
_symmetry_group_IT_number 36
_symmetry_cell_setting 'orthorhombic'
loop_
_space_group_symop_operation_xyz
x,y,z
-x,-y,1/2+z
x,-y,1/2+z
-x,y,z
1/2+x,1/2+y,z
1/2-x,1/2-y,1/2+z
1/2+x,1/2-y,1/2+z
1/2-x,1/2+y,z
loop_
_atom_site_type_symbol
_atom_site_label
_atom_site_fract_x
_atom_site_fract_y
_atom_site_fract_z
Si Si1 0.453337 0.790634 0.169080
Si Si2 0.694122 0.748208 0.599439
Si Si3 0.097832 0.188067 0.942312
Si Si4 0.906471 0.552887 0.266565
Si Si5 0.885255 0.640739 0.997119
Si Si6 0.450894 0.376243 0.915665
Si Si7 0.745269 0.989371 0.991363
Si Si8 0.192139 0.780188 0.381583
O O1 0.500000 0.787840 0.107399
O O2 0.448428 0.652865 0.266933
O O3 0.448143 0.949521 0.244049
O O4 0.417852 0.780425 0.063146
O O5 0.655674 0.748380 0.498036
O O6 0.722358 0.602218 0.576521
O O7 0.676401 0.738140 0.739752
O O8 0.721127 0.901090 0.586391
O O9 0.082774 0.279115 0.817494
O O10 0.149001 0.175607 0.955993
O O11 0.075094 0.026986 0.944116
O O12 0.882558 0.557271 0.132536
O O13 0.879256 0.473825 0.379603
O O14 0.928792 0.736933 0.988914
O O15 0.500000 0.389854 0.960775
O O16 0.711611 0.879953 0.924395
O O17 0.772260 0.089115 0.892159
#
# Coordination Sequence:
#
# PCOD8176147 Si02
#       8
#     8   8   8   8   8   8   8   8
#     4  10  24  44  63  94 135 173 225 277 329 397
#     4  11  22  41  65  93 132 169 218 271 333 395
#     4  12  23  40  69  98 129 176 224 275 337 402
#     4  11  23  42  67  97 128 175 225 270 327 389
#     4  11  23  44  70  97 131 176 220 274 331 402
#     4  10  25  45  65  96 134 173 220 276 336 398
#     4  10  24  41  62  95 127 171 215 273 329 395
#     4  11  23  41  65  92 132 167 221 268 336 400
#
# _framework density 21.611975999999999
#
# number of rings (size 3 to 8) (size 9 to 14) (size 15 to 20)
#    0.000    1.250    2.500    2.625    1.750    2.500 
#    0.000    2.500    0.000    0.000    0.000    0.000 
#    0.000    0.000    0.000    0.000    0.000    0.000 
#
# Total GULP energy -396700.994374 kJ/mol
# GULP energy per Si atom -12396.906074 kJ/mol
# Density = 2.156279 g / cm^3
# Si number density = 21.611976 Si / 1000 Ang^3
#
#
#
# Elastic Constant Matrix: (Units=GPa)
#
#
# Indices 1 2 3 4 5 6 
#
# 1 148.1583 41.1678 44.9603 0.0000 0.0000 0.0000
# 2 41.1678 99.3660 26.0487 0.0000 0.0000 0.0000
# 3 44.9603 26.0487 114.6396 0.0000 0.0000 0.0000
# 4 0.0000 0.0000 0.0000 24.2013 0.0000 0.0000
# 5 0.0000 0.0000 0.0000 0.0000 33.6643 0.0000
# 6 0.0000 0.0000 0.0000 0.0000 0.0000 8.0276
#
#
#
# Elastic Compliance Matrix: (Units=1/GPa)
#
#
# Indices 1 2 3 4 5 6 
#
# 1 0.008314 -0.002754 -0.002635 0.000000 0.000000 0.000000
# 2 -0.002754 0.011613 -0.001559 0.000000 0.000000 0.000000
# 3 -0.002635 -0.001559 0.010111 0.000000 0.000000 0.000000
# 4 0.000000 0.000000 0.000000 0.041320 0.000000 0.000000
# 5 0.000000 0.000000 0.000000 0.000000 0.029705 0.000000
# 6 0.000000 0.000000 0.000000 0.000000 0.000000 0.124570
#
#
# Mechanical properties :
#
#
# Convention : Reuss Voigt Hill
#
# Bulk Modulus (GPa) = 61.94667 65.16861 63.55764
# Shear Modulus (GPa) = 20.41566 29.84445 25.13006
#
# Velocity S-wave (km/s) = 3.07684 3.72011 3.41366
# Velocity P-wave (km/s) = 6.43024 6.97651 6.70894
#
# Compressibility (1/GPa) = 0.01614292
#
# Stress axis : x y z
#
# Youngs Moduli (GPa) = 120.27345 86.10750 98.90600
#
# Poissons Ratio (x) = 0.23713 0.26062
# Poissons Ratio (y) = 0.33122 0.15417
# Poissons Ratio (z) = 0.31693 0.13422
#
# Static dielectric constant tensor:
#      x y z
#    x 3.921840 0.000000 0.000000 
#    y 0.000000 4.059230 0.000000 
#    z 0.000000 0.000000 3.764310 
# 
# 
# High freq. dielectric constant tensor:
#      x y z
#    x 1.852660 0.000000 0.000000 
#    y 0.000000 1.857590 0.000000 
#    z 0.000000 0.000000 1.842270 
# 
# From -- ./inp_files/9733.got.cif
#   From: 2010.03.12/outbox.cif.g09.slc.cpg/sg36_5_cif.got.tgz:9733.got - 2010.04.14 02:13:53.
