data_PCOD8176397
_publ_section_title
;
Structure prediction by ZEFSAII (Michael W. Deem and Ramdas Pophale) SiO2 
 PCOD8176397
Probable space group: C C C 2
;
_chemical_formula_sum "Si O2"
_cell_formula_units_Z 48
_cell_length_a 15.291523
_cell_length_b 12.012478
_cell_length_c 14.970809
_cell_angle_alpha 90.000000
_cell_angle_beta 90.000000
_cell_angle_gamma 90.000000
_cell_volume 2749.974186
_symmetry_space_group_name_H-M "C C C 2"
_symmetry_group_IT_number 37
_symmetry_cell_setting 'orthorhombic'
loop_
_space_group_symop_operation_xyz
x,y,z
-x,-y,z
-x,y,1/2+z
x,-y,1/2+z
1/2+x,1/2+y,z
1/2-x,1/2-y,z
1/2-x,1/2+y,1/2+z
1/2+x,1/2-y,1/2+z
loop_
_atom_site_type_symbol
_atom_site_label
_atom_site_fract_x
_atom_site_fract_y
_atom_site_fract_z
Si Si1 0.723834 0.076300 0.462490
Si Si2 0.524625 0.375416 0.809171
Si Si3 0.895533 0.224486 0.444220
Si Si4 0.452516 0.610599 0.613207
Si Si5 0.258624 0.620853 0.647970
Si Si6 0.271388 0.371484 0.345726
O O1 0.815966 0.136941 0.443474
O O2 0.641869 0.151025 0.430888
O O3 0.708331 0.054489 0.569188
O O4 0.728126 0.959341 0.412439
O O5 0.500000 0.500000 0.832606
O O6 0.463249 0.292222 0.864168
O O7 0.503739 0.345385 0.705213
O O8 0.624868 0.367840 0.837619
O O9 0.949081 0.206088 0.537301
O O10 0.500000 0.500000 0.575259
O O11 0.356487 0.574760 0.644590
O O12 0.250000 0.750000 0.618991
O O13 0.224524 0.605144 0.749086
O O14 0.250000 0.250000 0.383056
#
# Coordination Sequence:
#
# PCOD8176397 Si02
#       6
#     8   8   8   8   8   8
#     4  10  18  33  55  78 108 139 180 213 266 322
#     4  10  18  31  52  83 109 131 177 227 263 301
#     4  10  18  31  53  81 104 138 175 220 262 314
#     4   9  17  26  46  79 109 131 168 219 262 307
#     4   9  16  32  52  77 103 140 177 212 264 323
#     4  10  21  34  55  80 109 138 175 223 269 316
#
# _framework density 17.454708
#
# number of rings (size 3 to 8) (size 9 to 14) (size 15 to 20)
#    0.000    2.333    5.000    0.500    2.333    0.000 
#    0.000    0.833    7.333    0.000    0.000    0.000 
#    0.000    0.000    0.000    0.000    0.000    0.000 
#
# Total GULP energy -297330.469233 kJ/mol
# GULP energy per Si atom -12388.769551 kJ/mol
# Density = 1.741498 g / cm^3
# Si number density = 17.454708 Si / 1000 Ang^3
#
#
#
# Elastic Constant Matrix: (Units=GPa)
#
#
# Indices 1 2 3 4 5 6 
#
# 1 64.9289 44.7584 33.1099 0.0000 0.0000 0.0000
# 2 44.7584 114.7938 68.1750 0.0000 0.0000 0.0000
# 3 33.1099 68.1750 136.6305 0.0000 0.0000 0.0000
# 4 0.0000 0.0000 0.0000 23.8100 0.0000 0.0000
# 5 0.0000 0.0000 0.0000 0.0000 18.1682 0.0000
# 6 0.0000 0.0000 0.0000 0.0000 0.0000 29.1282
#
#
#
# Elastic Compliance Matrix: (Units=1/GPa)
#
#
# Indices 1 2 3 4 5 6 
#
# 1 0.021261 -0.007432 -0.001444 0.000000 0.000000 0.000000
# 2 -0.007432 0.014978 -0.005673 0.000000 0.000000 0.000000
# 3 -0.001444 -0.005673 0.010499 0.000000 0.000000 0.000000
# 4 0.000000 0.000000 0.000000 0.041999 0.000000 0.000000
# 5 0.000000 0.000000 0.000000 0.000000 0.055041 0.000000
# 6 0.000000 0.000000 0.000000 0.000000 0.000000 0.034331
#
#
# Mechanical properties :
#
#
# Convention : Reuss Voigt Hill
#
# Bulk Modulus (GPa) = 56.68529 67.60444 62.14487
# Shear Modulus (GPa) = 23.46452 25.57525 24.51989
#
# Velocity S-wave (km/s) = 3.67046 3.83199 3.75209
# Velocity P-wave (km/s) = 7.10698 7.64162 7.37914
#
# Compressibility (1/GPa) = 0.01764126
#
# Stress axis : x y z
#
# Youngs Moduli (GPa) = 47.03416 66.76428 95.24432
#
# Poissons Ratio (x) = 0.49622 0.13750
# Poissons Ratio (y) = 0.34958 0.54028
# Poissons Ratio (z) = 0.06790 0.37872
#
# Static dielectric constant tensor:
#      x y z
#    x 3.088470 0.000000 0.000000 
#    y 0.000000 2.952130 0.000000 
#    z 0.000000 0.000000 3.569700 
# 
# 
# High freq. dielectric constant tensor:
#      x y z
#    x 1.654250 0.000000 0.000000 
#    y 0.000000 1.638900 0.000000 
#    z 0.000000 0.000000 1.690220 
# 
# From -- ./inp_files/11498.got.cif
#   From: 2010.03.12/outbox.cif.g09.slc.cpg/sg37_6_cif.got.tgz:11498.got - 2010.04.14 02:25:27.
