data_PCOD8176735
_publ_section_title
;
Structure prediction by ZEFSAII (Michael W. Deem and Ramdas Pophale) SiO2 
 PCOD8176735
Probable space group: C C C 2
;
_chemical_formula_sum "Si O2"
_cell_formula_units_Z 48
_cell_length_a 16.552477
_cell_length_b 14.911224
_cell_length_c 9.179590
_cell_angle_alpha 90.000000
_cell_angle_beta 90.000000
_cell_angle_gamma 90.000000
_cell_volume 2265.685220
_symmetry_space_group_name_H-M "C C C 2"
_symmetry_group_IT_number 37
_symmetry_cell_setting 'orthorhombic'
loop_
_space_group_symop_operation_xyz
x,y,z
-x,-y,z
-x,y,1/2+z
x,-y,1/2+z
1/2+x,1/2+y,z
1/2-x,1/2-y,z
1/2-x,1/2+y,1/2+z
1/2+x,1/2-y,1/2+z
loop_
_atom_site_type_symbol
_atom_site_label
_atom_site_fract_x
_atom_site_fract_y
_atom_site_fract_z
Si Si1 0.696582 0.000713 0.337610
Si Si2 0.564821 0.661286 0.464505
Si Si3 0.553946 0.582768 0.160067
Si Si4 0.051590 0.584811 0.498226
Si Si5 0.075943 0.657977 0.793197
Si Si6 0.307456 0.462992 0.584460
O O1 0.650668 0.909410 0.300541
O O2 0.776940 0.975251 0.421880
O O3 0.640683 0.062473 0.439162
O O4 0.730445 0.051302 0.192881
O O5 0.544822 0.595032 0.332080
O O6 0.482597 0.666849 0.564370
O O7 0.595211 0.751616 0.382375
O O8 0.634817 0.624878 0.574518
O O9 0.500000 0.500000 0.108233
O O10 0.646120 0.555875 0.123960
O O11 0.057905 0.663548 0.619810
O O12 0.000000 0.500000 0.563020
O O13 0.005664 0.619217 0.357948
#
# Coordination Sequence:
#
# PCOD8176735 Si02
#       6
#     8   8   8   8   8   8
#     4  11  22  40  66  93 125 171 216 257 318 395
#     4  11  23  39  64  93 128 164 212 270 316 372
#     4  10  21  39  62  89 119 169 217 255 306 384
#     4  10  21  39  64  94 124 171 214 262 311 398
#     4  11  23  39  64  94 130 160 213 265 326 368
#     4  11  22  40  64  93 123 170 218 258 316 386
#
# _framework density 21.185645000000001
#
# number of rings (size 3 to 8) (size 9 to 14) (size 15 to 20)
#    0.000    1.333    3.333    4.000    4.667    0.667 
#    0.000    0.000    0.000    0.000    0.000    0.000 
#    0.000    0.000    0.000    0.000    0.000    0.000 
#
# Total GULP energy -297320.931185 kJ/mol
# GULP energy per Si atom -12388.372133 kJ/mol
# Density = 2.113743 g / cm^3
# Si number density = 21.185645 Si / 1000 Ang^3
#
#
#
# Elastic Constant Matrix: (Units=GPa)
#
#
# Indices 1 2 3 4 5 6 
#
# 1 95.1233 24.4417 41.7774 0.0000 0.0000 0.0000
# 2 24.4417 76.5574 28.9159 0.0000 0.0000 0.0000
# 3 41.7774 28.9159 115.8198 0.0000 0.0000 0.0000
# 4 0.0000 0.0000 0.0000 34.5657 0.0000 0.0000
# 5 0.0000 0.0000 0.0000 0.0000 31.9917 0.0000
# 6 0.0000 0.0000 0.0000 0.0000 0.0000 12.0650
#
#
#
# Elastic Compliance Matrix: (Units=1/GPa)
#
#
# Indices 1 2 3 4 5 6 
#
# 1 0.012950 -0.002617 -0.004018 0.000000 0.000000 0.000000
# 2 -0.002617 0.014951 -0.002789 0.000000 0.000000 0.000000
# 3 -0.004018 -0.002789 0.010780 0.000000 0.000000 0.000000
# 4 0.000000 0.000000 0.000000 0.028930 0.000000 0.000000
# 5 0.000000 0.000000 0.000000 0.000000 0.031258 0.000000
# 6 0.000000 0.000000 0.000000 0.000000 0.000000 0.082885
#
#
# Mechanical properties :
#
#
# Convention : Reuss Voigt Hill
#
# Bulk Modulus (GPa) = 50.41985 53.08562 51.75274
# Shear Modulus (GPa) = 24.13000 28.54884 26.33942
#
# Velocity S-wave (km/s) = 3.37854 3.67489 3.52983
# Velocity P-wave (km/s) = 6.25061 6.56644 6.41047
#
# Compressibility (1/GPa) = 0.01983346
#
# Stress axis : x y z
#
# Youngs Moduli (GPa) = 77.22242 66.88586 92.76789
#
# Poissons Ratio (x) = 0.17503 0.37272
# Poissons Ratio (y) = 0.20207 0.25871
# Poissons Ratio (z) = 0.31026 0.18653
#
# Static dielectric constant tensor:
#      x y z
#    x 3.868250 0.000000 0.000000 
#    y 0.000000 3.743210 0.000000 
#    z 0.000000 0.000000 3.891570 
# 
# 
# High freq. dielectric constant tensor:
#      x y z
#    x 1.833170 0.000000 0.000000 
#    y 0.000000 1.795080 0.000000 
#    z 0.000000 0.000000 1.851520 
# 
# From -- ./inp_files/3500.got.cif
#   From: 2010.03.12/outbox.cif.g09.slc.cpg/sg37_2_cif.got.tgz:3500.got - 2010.04.14 02:25:27.
