data_PCOD8176053
_publ_section_title
;
Structure prediction by ZEFSAII (Michael W. Deem and Ramdas Pophale) SiO2 
 PCOD8176053
Probable space group: C M C 21
;
_chemical_formula_sum "Si O2"
_cell_formula_units_Z 64
_cell_length_a 14.162070
_cell_length_b 18.528655
_cell_length_c 11.886485
_cell_angle_alpha 90.000000
_cell_angle_beta 90.000000
_cell_angle_gamma 90.000000
_cell_volume 3119.062507
_symmetry_space_group_name_H-M "C M C 21"
_symmetry_group_IT_number 36
_symmetry_cell_setting 'orthorhombic'
loop_
_space_group_symop_operation_xyz
x,y,z
-x,-y,1/2+z
x,-y,1/2+z
-x,y,z
1/2+x,1/2+y,z
1/2-x,1/2-y,1/2+z
1/2+x,1/2-y,1/2+z
1/2-x,1/2+y,z
loop_
_atom_site_type_symbol
_atom_site_label
_atom_site_fract_x
_atom_site_fract_y
_atom_site_fract_z
Si Si1 0.672258 0.394411 0.860760
Si Si2 0.106001 0.457791 0.235452
Si Si3 0.172258 0.394411 0.677705
Si Si4 0.280350 0.394419 0.119825
Si Si5 0.606001 0.457791 0.303012
Si Si6 0.397017 0.240533 0.887601
Si Si7 0.780350 0.605581 0.918640
Si Si8 0.897017 0.240533 0.650864
O O1 0.750000 0.411672 0.769232
O O2 0.598752 0.459991 0.847753
O O3 0.626877 0.317333 0.831291
O O4 0.714436 0.395661 0.986121
O O5 0.098752 0.540010 0.190712
O O6 0.171907 0.408755 0.153999
O O7 0.151340 0.454867 0.361656
O O8 0.000000 0.426165 0.235675
O O9 0.214436 0.395661 0.552343
O O10 0.126877 0.317333 0.707174
O O11 0.348660 0.454867 0.176809
O O12 0.316124 0.318552 0.174206
O O13 0.500000 0.426165 0.302790
O O14 0.671907 0.408755 0.384466
O O15 0.500000 0.215319 0.841106
O O16 0.316124 0.181448 0.864259
O O17 0.405931 0.250000 0.019232
O O18 0.000000 0.215319 0.697359
#
# Coordination Sequence:
#
# PCOD8176053 Si02
#       8
#     8   8   8   8   8   8   8   8
#     4  11  22  39  62  90 127 157 202 258 308 360
#     4  11  23  38  62  89 119 164 207 247 306 369
#     4  11  22  39  62  90 127 157 202 258 308 360
#     4  10  22  42  60  90 125 162 200 254 310 359
#     4  11  23  38  62  89 119 164 207 247 306 369
#     4   9  19  37  63  88 115 158 205 247 295 361
#     4  10  22  42  60  90 125 162 200 254 310 359
#     4   9  19  37  63  88 115 158 205 247 295 361
#
# _framework density 20.518985000000001
#
# number of rings (size 3 to 8) (size 9 to 14) (size 15 to 20)
#    0.000    1.750    2.500    2.250    3.500    3.000 
#    0.000    1.250    0.000    6.750    0.000    0.000 
#    0.000    0.000    0.000    0.000    0.000    0.000 
#
# Total GULP energy -396537.048330 kJ/mol
# GULP energy per Si atom -12391.782760 kJ/mol
# Density = 2.047228 g / cm^3
# Si number density = 20.518985 Si / 1000 Ang^3
#
#
#
# Elastic Constant Matrix: (Units=GPa)
#
#
# Indices 1 2 3 4 5 6 
#
# 1 157.0898 43.6583 38.2502 0.0000 0.0000 0.0000
# 2 43.6583 142.1399 22.6484 0.0000 0.0000 0.0000
# 3 38.2502 22.6484 99.0529 0.0000 0.0000 0.0000
# 4 0.0000 0.0000 0.0000 32.0958 0.0000 0.0000
# 5 0.0000 0.0000 0.0000 0.0000 8.8530 0.0000
# 6 0.0000 0.0000 0.0000 0.0000 0.0000 8.4560
#
#
#
# Elastic Compliance Matrix: (Units=1/GPa)
#
#
# Indices 1 2 3 4 5 6 
#
# 1 0.007495 -0.001911 -0.002457 0.000000 0.000000 0.000000
# 2 -0.001911 0.007788 -0.001043 0.000000 0.000000 0.000000
# 3 -0.002457 -0.001043 0.011283 0.000000 0.000000 0.000000
# 4 0.000000 0.000000 0.000000 0.031157 0.000000 0.000000
# 5 0.000000 0.000000 0.000000 0.000000 0.112956 0.000000
# 6 0.000000 0.000000 0.000000 0.000000 0.000000 0.118259
#
#
# Mechanical properties :
#
#
# Convention : Reuss Voigt Hill
#
# Bulk Modulus (GPa) = 63.51441 67.48850 65.50145
# Shear Modulus (GPa) = 16.39301 29.46267 22.92784
#
# Velocity S-wave (km/s) = 2.82958 3.79340 3.34637
# Velocity P-wave (km/s) = 6.45729 7.22141 6.85001
#
# Compressibility (1/GPa) = 0.01574446
#
# Stress axis : x y z
#
# Youngs Moduli (GPa) = 133.41968 128.39696 88.62828
#
# Poissons Ratio (x) = 0.24531 0.21780
# Poissons Ratio (y) = 0.25491 0.09244
# Poissons Ratio (z) = 0.32787 0.13392
#
# Static dielectric constant tensor:
#      x y z
#    x 3.776220 0.000000 0.000000 
#    y 0.000000 4.256380 0.000000 
#    z 0.000000 0.000000 3.594700 
# 
# 
# High freq. dielectric constant tensor:
#      x y z
#    x 1.796300 0.000000 0.000000 
#    y 0.000000 1.813930 0.000000 
#    z 0.000000 0.000000 1.785300 
# 
# From -- ./inp_files/8631.got.cif
#   From: 2010.03.12/outbox.cif.g09.slc.cpg/sg36_5_cif.got.tgz:8631.got - 2010.04.14 02:13:53.
