data_PCOD8176706
_publ_section_title
;
Structure prediction by ZEFSAII (Michael W. Deem and Ramdas Pophale) SiO2 
 PCOD8176706
Probable space group: C C C 2
;
_chemical_formula_sum "Si O2"
_cell_formula_units_Z 36
_cell_length_a 20.074347
_cell_length_b 10.728437
_cell_length_c 8.884449
_cell_angle_alpha 90.000000
_cell_angle_beta 90.000000
_cell_angle_gamma 90.000000
_cell_volume 1913.411505
_symmetry_space_group_name_H-M "C C C 2"
_symmetry_group_IT_number 37
_symmetry_cell_setting 'orthorhombic'
loop_
_space_group_symop_operation_xyz
x,y,z
-x,-y,z
-x,y,1/2+z
x,-y,1/2+z
1/2+x,1/2+y,z
1/2-x,1/2-y,z
1/2-x,1/2+y,1/2+z
1/2+x,1/2-y,1/2+z
loop_
_atom_site_type_symbol
_atom_site_label
_atom_site_fract_x
_atom_site_fract_y
_atom_site_fract_z
Si Si1 0.000000 0.500000 0.117260
Si Si2 0.683906 0.671034 0.873730
Si Si3 0.449942 0.829460 0.366592
Si Si4 0.949167 0.108016 0.871275
Si Si5 0.638118 0.495633 0.119400
O O1 0.048598 0.583488 0.219753
O O2 0.047554 0.413894 0.015456
O O3 0.750000 0.750000 0.872756
O O4 0.617933 0.753757 0.865617
O O5 0.685937 0.580145 0.730434
O O6 0.683626 0.590244 0.025442
O O7 0.514581 0.740228 0.362355
O O8 0.915234 0.078216 0.711491
O O9 0.000000 0.000000 0.911887
O O10 0.896919 0.105104 0.009125
#
# Coordination Sequence:
#
# PCOD8176706 Si02
#       5
#     4   8   8   8   8
#     4  10  24  36  54  84 116 162 176 238 292 378
#     4  11  24  39  58  81 119 162 193 241 280 360
#     4  11  21  37  57  83 120 145 198 229 306 344
#     4  11  19  33  67  97 111 135 188 278 314 327
#     4  10  21  37  60  95 114 139 200 252 314 333
#
# _framework density 18.814563
#
# number of rings (size 3 to 8) (size 9 to 14) (size 15 to 20)
#    0.000    1.333    4.444    3.333    0.000    1.778 
#    0.000    4.444    0.000    0.000    0.000    0.000 
#    0.000    0.000    0.000    0.000    0.000    0.000 
#
# Total GULP energy -223243.493685 kJ/mol
# GULP energy per Si atom -12402.416316 kJ/mol
# Density = 1.877174 g / cm^3
# Si number density = 18.814563 Si / 1000 Ang^3
#
#
#
# Elastic Constant Matrix: (Units=GPa)
#
#
# Indices 1 2 3 4 5 6 
#
# 1 103.9154 59.1936 54.2040 0.0000 0.0000 0.0000
# 2 59.1936 126.3500 68.5276 0.0000 0.0000 0.0000
# 3 54.2040 68.5276 147.1395 0.0000 0.0000 0.0000
# 4 0.0000 0.0000 0.0000 -984.3077 0.0000 0.0000
# 5 0.0000 0.0000 0.0000 0.0000 6.0168 0.0000
# 6 0.0000 0.0000 0.0000 0.0000 0.0000 34.3175
#
#
#
# Elastic Compliance Matrix: (Units=1/GPa)
#
#
# Indices 1 2 3 4 5 6 
#
# 1 0.013939 -0.005011 -0.002801 0.000000 0.000000 0.000000
# 2 -0.005011 0.012391 -0.003925 0.000000 0.000000 0.000000
# 3 -0.002801 -0.003925 0.009656 0.000000 0.000000 0.000000
# 4 0.000000 0.000000 0.000000 -0.001016 0.000000 0.000000
# 5 0.000000 0.000000 0.000000 0.000000 0.166202 0.000000
# 6 0.000000 0.000000 0.000000 0.000000 0.000000 0.029140
#
#
# Mechanical properties :
#
#
# Convention : Reuss Voigt Hill
#
# Bulk Modulus (GPa) = 79.92399 82.36169 81.14284
# Shear Modulus (GPa) = 19.38319 -175.76272 -78.18976
#
# Velocity S-wave (km/s) = 3.21319 -9.67581 -6.45355
# Velocity P-wave (km/s) = 7.50588 8.99765 3.50853
#
# Compressibility (1/GPa) = 0.01251189
#
# Stress axis : x y z
#
# Youngs Moduli (GPa) = 71.74279 80.70519 103.56197
#
# Poissons Ratio (x) = 0.40441 0.29008
# Poissons Ratio (y) = 0.35950 0.40646
# Poissons Ratio (z) = 0.20095 0.31675
#
# Static dielectric constant tensor:
#      x y z
#    x 3.148970 0.000000 0.000000 
#    y 0.000000 78.279410 0.000000 
#    z 0.000000 0.000000 3.764670 
# 
# 
# High freq. dielectric constant tensor:
#      x y z
#    x 1.695250 0.000000 0.000000 
#    y 0.000000 1.739450 0.000000 
#    z 0.000000 0.000000 1.757770 
# 
# From -- ./inp_files/2134.got.cif
#   From: 2010.03.12/outbox.cif.g09.slc.cpg/sg37_2_cif.got.tgz:2134.got - 2010.04.14 02:25:27.
