data_PCOD8176271
_publ_section_title
;
Structure prediction by ZEFSAII (Michael W. Deem and Ramdas Pophale) SiO2 
 PCOD8176271
Probable space group: C M C 21
;
_chemical_formula_sum "Si O2"
_cell_formula_units_Z 56
_cell_length_a 22.002593
_cell_length_b 7.740605
_cell_length_c 17.233600
_cell_angle_alpha 90.000000
_cell_angle_beta 90.000000
_cell_angle_gamma 90.000000
_cell_volume 2935.112690
_symmetry_space_group_name_H-M "C M C 21"
_symmetry_group_IT_number 36
_symmetry_cell_setting 'orthorhombic'
loop_
_space_group_symop_operation_xyz
x,y,z
-x,-y,1/2+z
x,-y,1/2+z
-x,y,z
1/2+x,1/2+y,z
1/2-x,1/2-y,1/2+z
1/2+x,1/2-y,1/2+z
1/2-x,1/2+y,z
loop_
_atom_site_type_symbol
_atom_site_label
_atom_site_fract_x
_atom_site_fract_y
_atom_site_fract_z
Si Si1 0.724375 0.243035 0.278990
Si Si2 0.569533 0.617179 0.915908
Si Si3 0.930504 0.808003 0.796487
Si Si4 0.873048 0.539446 0.354964
Si Si5 0.674398 0.433104 0.699403
Si Si6 0.827449 0.007368 0.021258
Si Si7 0.785210 0.326497 0.441877
O O1 0.674368 0.090769 0.286611
O O2 0.688561 0.417757 0.261678
O O3 0.770635 0.203993 0.208557
O O4 0.762047 0.257040 0.358954
O O5 0.500000 0.622084 0.943299
O O6 0.581824 0.455047 0.860088
O O7 0.584968 0.797115 0.873816
O O8 0.611111 0.597914 0.991766
O O9 0.914933 0.619849 0.830067
O O10 0.889482 0.845564 0.721333
O O11 0.000000 0.809361 0.768888
O O12 0.831926 0.485161 0.429269
O O13 0.670149 0.506113 0.613504
O O14 0.823446 0.817789 0.986017
O O15 0.770124 0.119787 0.995777
#
# Coordination Sequence:
#
# PCOD8176271 Si02
#       7
#     8   8   8   8   8   8   8
#     4  12  20  37  64  92 123 164 206 252 314 377
#     4  11  23  41  65  90 119 168 219 256 301 367
#     4  11  23  41  65  90 119 168 219 256 301 367
#     4  12  21  38  68  92 123 150 216 268 298 352
#     4  12  23  38  60  94 132 162 200 260 326 376
#     4  12  23  38  60  94 132 162 200 260 326 376
#     4  12  20  37  64  92 123 164 206 252 314 377
#
# _framework density 19.079333999999999
#
# number of rings (size 3 to 8) (size 9 to 14) (size 15 to 20)
#    0.000    0.286    8.571    1.286    0.000    0.571 
#    0.000    1.429    0.000    0.000    0.000    0.000 
#    0.000    0.000    0.000    0.000    0.000    0.000 
#
# Total GULP energy -347261.112722 kJ/mol
# GULP energy per Si atom -12402.182597 kJ/mol
# Density = 1.903591 g / cm^3
# Si number density = 19.079334 Si / 1000 Ang^3
#
#
#
# Elastic Constant Matrix: (Units=GPa)
#
#
# Indices 1 2 3 4 5 6 
#
# 1 126.3814 36.0686 29.9742 0.0000 0.0000 0.0000
# 2 36.0686 99.9047 8.1390 0.0000 0.0000 0.0000
# 3 29.9742 8.1390 64.4669 0.0000 0.0000 0.0000
# 4 0.0000 0.0000 0.0000 24.3748 0.0000 0.0000
# 5 0.0000 0.0000 0.0000 0.0000 17.7944 0.0000
# 6 0.0000 0.0000 0.0000 0.0000 0.0000 30.8505
#
#
#
# Elastic Compliance Matrix: (Units=1/GPa)
#
#
# Indices 1 2 3 4 5 6 
#
# 1 0.009813 -0.003204 -0.004158 0.000000 0.000000 0.000000
# 2 -0.003204 0.011160 0.000081 0.000000 0.000000 0.000000
# 3 -0.004158 0.000081 0.017435 0.000000 0.000000 0.000000
# 4 0.000000 0.000000 0.000000 0.041026 0.000000 0.000000
# 5 0.000000 0.000000 0.000000 0.000000 0.056198 0.000000
# 6 0.000000 0.000000 0.000000 0.000000 0.000000 0.032414
#
#
# Mechanical properties :
#
#
# Convention : Reuss Voigt Hill
#
# Bulk Modulus (GPa) = 41.93741 48.79072 45.36407
# Shear Modulus (GPa) = 26.23885 29.04200 27.64043
#
# Velocity S-wave (km/s) = 3.71246 3.90573 3.81032
# Velocity P-wave (km/s) = 6.35647 6.77995 6.57162
#
# Compressibility (1/GPa) = 0.02384506
#
# Stress axis : x y z
#
# Youngs Moduli (GPa) = 101.90356 89.60784 57.35593
#
# Poissons Ratio (x) = 0.28711 0.23850
# Poissons Ratio (y) = 0.32651 -0.00464
# Poissons Ratio (z) = 0.42373 -0.00724
#
# Static dielectric constant tensor:
#      x y z
#    x 3.673160 0.000000 0.000000 
#    y 0.000000 3.673470 0.000000 
#    z 0.000000 0.000000 3.166000 
# 
# 
# High freq. dielectric constant tensor:
#      x y z
#    x 1.749970 0.000000 0.000000 
#    y 0.000000 1.761420 0.000000 
#    z 0.000000 0.000000 1.709500 
# 
# From -- ./inp_files/14990.got.cif
#   From: 2010.03.12/outbox.cif.g09.slc.cpg/sg36_8_cif.got.tgz:14990.got - 2010.04.14 02:13:53.
