data_PCOD8176767
_publ_section_title
;
Structure prediction by ZEFSAII (Michael W. Deem and Ramdas Pophale) SiO2 
 PCOD8176767
Probable space group: C C C 2
;
_chemical_formula_sum "Si O2"
_cell_formula_units_Z 36
_cell_length_a 6.233968
_cell_length_b 21.139004
_cell_length_c 12.151189
_cell_angle_alpha 90.000000
_cell_angle_beta 90.000000
_cell_angle_gamma 90.000000
_cell_volume 1601.282161
_symmetry_space_group_name_H-M "C C C 2"
_symmetry_group_IT_number 37
_symmetry_cell_setting 'orthorhombic'
loop_
_space_group_symop_operation_xyz
x,y,z
-x,-y,z
-x,y,1/2+z
x,-y,1/2+z
1/2+x,1/2+y,z
1/2-x,1/2-y,z
1/2-x,1/2+y,1/2+z
1/2+x,1/2-y,1/2+z
loop_
_atom_site_type_symbol
_atom_site_label
_atom_site_fract_x
_atom_site_fract_y
_atom_site_fract_z
Si Si1 0.371363 0.935769 0.654330
Si Si2 0.569636 0.565520 0.359673
Si Si3 0.250000 0.750000 0.405861
Si Si4 0.767868 0.353141 0.240061
Si Si5 0.980218 0.147910 0.542698
O O1 0.252560 0.948044 0.769929
O O2 0.538529 0.880105 0.670773
O O3 0.205444 0.905261 0.566375
O O4 0.500000 0.000000 0.615671
O O5 0.500000 0.500000 0.414643
O O6 0.352215 0.593026 0.307897
O O7 0.644698 0.612086 0.458636
O O8 0.138584 0.699893 0.322769
O O9 0.088690 0.787353 0.483988
O O10 0.594644 0.326860 0.152156
#
# Coordination Sequence:
#
# PCOD8176767 Si02
#       5
#     8   8   4   8   8
#     4  11  23  42  69 100 133 175 221 270 343 407
#     4  10  21  41  62  96 141 168 207 274 334 394
#     4  10  24  48  64  98 132 178 234 264 338 392
#     4  10  23  44  66  95 134 176 218 281 324 395
#     4  10  25  42  68  98 135 178 220 283 332 392
#
# _framework density 22.481983
#
# number of rings (size 3 to 8) (size 9 to 14) (size 15 to 20)
#    0.000    1.778    2.222    0.000    6.222    3.556 
#    0.000    2.222    0.000    0.000    0.000    0.000 
#    0.000    0.000    0.000    0.000    0.000    0.000 
#
# Total GULP energy -222998.732034 kJ/mol
# GULP energy per Si atom -12388.818446 kJ/mol
# Density = 2.243081 g / cm^3
# Si number density = 22.481983 Si / 1000 Ang^3
#
#
#
# Elastic Constant Matrix: (Units=GPa)
#
#
# Indices 1 2 3 4 5 6 
#
# 1 60.1921 37.3887 19.9407 0.0000 0.0000 0.0000
# 2 37.3887 141.6854 60.1022 0.0000 0.0000 0.0000
# 3 19.9407 60.1022 108.9289 0.0000 0.0000 0.0000
# 4 0.0000 0.0000 0.0000 33.1463 0.0000 0.0000
# 5 0.0000 0.0000 0.0000 0.0000 18.1521 0.0000
# 6 0.0000 0.0000 0.0000 0.0000 0.0000 22.0745
#
#
#
# Elastic Compliance Matrix: (Units=1/GPa)
#
#
# Indices 1 2 3 4 5 6 
#
# 1 0.019950 -0.004851 -0.000976 0.000000 0.000000 0.000000
# 2 -0.004851 0.010394 -0.004847 0.000000 0.000000 0.000000
# 3 -0.000976 -0.004847 0.012033 0.000000 0.000000 0.000000
# 4 0.000000 0.000000 0.000000 0.030169 0.000000 0.000000
# 5 0.000000 0.000000 0.000000 0.000000 0.055090 0.000000
# 6 0.000000 0.000000 0.000000 0.000000 0.000000 0.045301
#
#
# Mechanical properties :
#
#
# Convention : Reuss Voigt Hill
#
# Bulk Modulus (GPa) = 47.55012 60.62993 54.09003
# Shear Modulus (GPa) = 24.83930 27.56623 26.20277
#
# Velocity S-wave (km/s) = 3.32754 3.50544 3.41765
# Velocity P-wave (km/s) = 5.99663 6.58870 6.29962
#
# Compressibility (1/GPa) = 0.02103044
#
# Stress axis : x y z
#
# Youngs Moduli (GPa) = 50.12619 96.20994 83.10297
#
# Poissons Ratio (x) = 0.46667 0.08108
# Poissons Ratio (y) = 0.24314 0.40280
# Poissons Ratio (z) = 0.04891 0.46633
#
# Static dielectric constant tensor:
#      x y z
#    x 3.918400 0.000000 0.000000 
#    y 0.000000 4.143040 0.000000 
#    z 0.000000 0.000000 4.246610 
# 
# 
# High freq. dielectric constant tensor:
#      x y z
#    x 1.856490 0.000000 0.000000 
#    y 0.000000 1.895390 0.000000 
#    z 0.000000 0.000000 1.900740 
# 
# From -- ./inp_files/5465.got.cif
#   From: 2010.03.12/outbox.cif.g09.slc.cpg/sg37_3_cif.got.tgz:5465.got - 2010.04.14 02:25:27.
