data_PCOD8176229
_publ_section_title
;
Structure prediction by ZEFSAII (Michael W. Deem and Ramdas Pophale) SiO2 
 PCOD8176229
Probable space group: C M C 21
;
_chemical_formula_sum "Si O2"
_cell_formula_units_Z 64
_cell_length_a 8.878088
_cell_length_b 22.737205
_cell_length_c 16.122746
_cell_angle_alpha 90.000000
_cell_angle_beta 90.000000
_cell_angle_gamma 90.000000
_cell_volume 3254.584374
_symmetry_space_group_name_H-M "C M C 21"
_symmetry_group_IT_number 36
_symmetry_cell_setting 'orthorhombic'
loop_
_space_group_symop_operation_xyz
x,y,z
-x,-y,1/2+z
x,-y,1/2+z
-x,y,z
1/2+x,1/2+y,z
1/2-x,1/2-y,1/2+z
1/2+x,1/2-y,1/2+z
1/2-x,1/2+y,z
loop_
_atom_site_type_symbol
_atom_site_label
_atom_site_fract_x
_atom_site_fract_y
_atom_site_fract_z
Si Si1 0.822284 0.904155 0.223420
Si Si2 0.664230 0.704848 0.271127
Si Si3 0.823030 0.039050 0.241468
Si Si4 0.322135 0.152042 0.560963
Si Si5 0.670797 0.389536 0.901277
Si Si6 0.677946 0.282900 0.510271
Si Si7 0.330443 0.823522 0.346878
Si Si8 0.674506 0.137283 0.140520
O O1 0.753643 0.872982 0.143361
O O2 0.755479 0.879034 0.309125
O O3 0.000000 0.894882 0.222575
O O4 0.776329 0.972220 0.226732
O O5 0.500000 0.684515 0.234434
O O6 0.682489 0.675439 0.361434
O O7 0.664101 0.774898 0.274431
O O8 0.800080 0.684678 0.213202
O O9 0.772533 0.062425 0.332962
O O10 0.741106 0.074803 0.168421
O O11 0.000000 0.049234 0.232449
O O12 0.500000 0.147722 0.571113
O O13 0.273493 0.110892 0.483322
O O14 0.269281 0.219725 0.546984
O O15 0.500000 0.403995 0.928691
O O16 0.500000 0.285576 0.509104
O O17 0.738338 0.292191 0.418681
O O18 0.741730 0.338379 0.560212
O O19 0.500000 0.841002 0.374803
O O20 0.500000 0.130281 0.120563
#
# Coordination Sequence:
#
# PCOD8176229 Si02
#       8
#     8   8   8   8   8   8   8   8
#     4  11  24  42  63  87 119 164 208 247 299 364
#     4   9  18  34  57  84 118 155 189 233 295 359
#     4   9  21  43  64  84 115 159 206 245 295 362
#     4  11  23  38  60  92 125 156 199 252 303 355
#     4   9  17  35  62  87 113 152 200 245 293 355
#     4  11  23  39  59  87 125 161 196 240 298 368
#     4  11  22  38  60  87 122 157 194 246 301 351
#     4  11  22  35  59  90 117 150 196 248 296 346
#
# _framework density 19.664570000000001
#
# number of rings (size 3 to 8) (size 9 to 14) (size 15 to 20)
#    0.000    1.750    1.250    4.125    0.000    8.500 
#    2.250    0.000    0.000    0.000    0.000    0.000 
#    0.000    0.000    0.000    0.000    0.000    0.000 
#
# Total GULP energy -396733.255585 kJ/mol
# GULP energy per Si atom -12397.914237 kJ/mol
# Density = 1.961981 g / cm^3
# Si number density = 19.664570 Si / 1000 Ang^3
#
#
#
# Elastic Constant Matrix: (Units=GPa)
#
#
# Indices 1 2 3 4 5 6 
#
# 1 90.9561 55.9998 42.8805 0.0000 0.0000 0.0000
# 2 55.9998 133.6132 55.0072 0.0000 0.0000 0.0000
# 3 42.8805 55.0072 79.8943 0.0000 0.0000 0.0000
# 4 0.0000 0.0000 0.0000 27.4285 0.0000 0.0000
# 5 0.0000 0.0000 0.0000 0.0000 36.1396 0.0000
# 6 0.0000 0.0000 0.0000 0.0000 0.0000 26.7260
#
#
#
# Elastic Compliance Matrix: (Units=1/GPa)
#
#
# Indices 1 2 3 4 5 6 
#
# 1 0.016496 -0.004562 -0.005713 0.000000 0.000000 0.000000
# 2 -0.004562 0.011706 -0.005611 0.000000 0.000000 0.000000
# 3 -0.005713 -0.005611 0.019446 0.000000 0.000000 0.000000
# 4 0.000000 0.000000 0.000000 0.036458 0.000000 0.000000
# 5 0.000000 0.000000 0.000000 0.000000 0.027671 0.000000
# 6 0.000000 0.000000 0.000000 0.000000 0.000000 0.037417
#
#
# Mechanical properties :
#
#
# Convention : Reuss Voigt Hill
#
# Bulk Modulus (GPa) = 62.98659 68.02649 65.50654
# Shear Modulus (GPa) = 26.84428 28.09722 27.47075
#
# Velocity S-wave (km/s) = 3.69875 3.78408 3.74166
# Velocity P-wave (km/s) = 7.09514 7.33218 7.21463
#
# Compressibility (1/GPa) = 0.01587640
#
# Stress axis : x y z
#
# Youngs Moduli (GPa) = 60.61950 85.42287 51.42391
#
# Poissons Ratio (x) = 0.38970 0.29378
# Poissons Ratio (y) = 0.27655 0.28856
# Poissons Ratio (z) = 0.34631 0.47934
#
# Static dielectric constant tensor:
#      x y z
#    x 3.578280 0.000000 0.000000 
#    y 0.000000 3.683520 0.000000 
#    z 0.000000 0.000000 3.526550 
# 
# 
# High freq. dielectric constant tensor:
#      x y z
#    x 1.767810 0.000000 0.000000 
#    y 0.000000 1.759730 0.000000 
#    z 0.000000 0.000000 1.763760 
# 
# From -- ./inp_files/11094.got.cif
#   From: 2010.03.12/outbox.cif.g09.slc.cpg/sg36_6_cif.got.tgz:11094.got - 2010.04.14 02:13:53.
