data_PCOD8176414
_publ_section_title
;
Structure prediction by ZEFSAII (Michael W. Deem and Ramdas Pophale) SiO2 
 PCOD8176414
Probable space group: C C C 2
;
_chemical_formula_sum "Si O2"
_cell_formula_units_Z 60
_cell_length_a 24.353692
_cell_length_b 10.972790
_cell_length_c 10.176992
_cell_angle_alpha 90.000000
_cell_angle_beta 90.000000
_cell_angle_gamma 90.000000
_cell_volume 2719.576689
_symmetry_space_group_name_H-M "C C C 2"
_symmetry_group_IT_number 37
_symmetry_cell_setting 'orthorhombic'
loop_
_space_group_symop_operation_xyz
x,y,z
-x,-y,z
-x,y,1/2+z
x,-y,1/2+z
1/2+x,1/2+y,z
1/2-x,1/2-y,z
1/2-x,1/2+y,1/2+z
1/2+x,1/2-y,1/2+z
loop_
_atom_site_type_symbol
_atom_site_label
_atom_site_fract_x
_atom_site_fract_y
_atom_site_fract_z
Si Si1 0.190195 0.223892 0.603910
Si Si2 0.513616 0.636967 0.269190
Si Si3 0.357304 0.130938 0.049177
Si Si4 0.384057 0.594238 0.922482
Si Si5 0.750000 0.250000 0.491445
Si Si6 0.664947 0.959591 0.771859
Si Si7 0.715368 0.540826 0.808256
Si Si8 0.059650 0.842386 0.499076
O O1 0.250000 0.250000 0.535702
O O2 0.136443 0.205652 0.514128
O O3 0.176245 0.327135 0.709949
O O4 0.196491 0.090471 0.667625
O O5 0.500000 0.500000 0.302565
O O6 0.575110 0.660798 0.321316
O O7 0.467577 0.704047 0.360714
O O8 0.511573 0.660730 0.112317
O O9 0.294699 0.175087 0.074640
O O10 0.396727 0.245440 0.047677
O O11 0.370970 0.042521 0.172684
O O12 0.364816 0.056479 0.912431
O O13 0.328628 0.558372 0.848638
O O14 0.412688 0.477087 0.993022
O O15 0.714840 0.343390 0.404729
O O16 0.724392 0.020397 0.800968
#
# Coordination Sequence:
#
# PCOD8176414 Si02
#       8
#     8   8   8   8   4   8   8   8
#     4  10  20  35  55  87 129 173 210 251 316 378
#     4  10  23  41  63  98 128 157 208 277 336 387
#     4  11  23  41  65  90 129 175 214 264 315 379
#     4  11  21  35  66  95 130 163 210 269 327 384
#     4  10  18  36  58  88 126 172 206 240 310 384
#     4  10  23  39  59  89 132 175 214 253 304 384
#     4  10  18  35  56  88 127 174 209 244 315 380
#     4  11  23  43  68  96 124 164 213 272 340 384
#
# _framework density 22.062256999999999
#
# number of rings (size 3 to 8) (size 9 to 14) (size 15 to 20)
#    0.000    1.600    4.667    2.000    7.467    5.333 
#    0.000    0.000    0.000    6.400    0.000    0.000 
#    0.000    0.000    0.000    0.000    0.000    0.000 
#
# Total GULP energy -371667.719943 kJ/mol
# GULP energy per Si atom -12388.923998 kJ/mol
# Density = 2.201204 g / cm^3
# Si number density = 22.062257 Si / 1000 Ang^3
#
#
#
# Elastic Constant Matrix: (Units=GPa)
#
#
# Indices 1 2 3 4 5 6 
#
# 1 65.4983 15.4591 24.2545 0.0000 0.0000 0.0000
# 2 15.4591 46.7434 24.1059 0.0000 0.0000 0.0000
# 3 24.2545 24.1059 98.2248 0.0000 0.0000 0.0000
# 4 0.0000 0.0000 0.0000 24.4938 0.0000 0.0000
# 5 0.0000 0.0000 0.0000 0.0000 30.8574 0.0000
# 6 0.0000 0.0000 0.0000 0.0000 0.0000 25.5667
#
#
#
# Elastic Compliance Matrix: (Units=1/GPa)
#
#
# Indices 1 2 3 4 5 6 
#
# 1 0.017453 -0.004064 -0.003312 0.000000 0.000000 0.000000
# 2 -0.004064 0.025440 -0.005240 0.000000 0.000000 0.000000
# 3 -0.003312 -0.005240 0.012285 0.000000 0.000000 0.000000
# 4 0.000000 0.000000 0.000000 0.040827 0.000000 0.000000
# 5 0.000000 0.000000 0.000000 0.000000 0.032407 0.000000
# 6 0.000000 0.000000 0.000000 0.000000 0.000000 0.039113
#
#
# Mechanical properties :
#
#
# Convention : Reuss Voigt Hill
#
# Bulk Modulus (GPa) = 33.39422 37.56726 35.48074
# Shear Modulus (GPa) = 24.66226 25.96004 25.31115
#
# Velocity S-wave (km/s) = 3.34705 3.43399 3.39080
# Velocity P-wave (km/s) = 5.48691 5.72607 5.60776
#
# Compressibility (1/GPa) = 0.02994530
#
# Stress axis : x y z
#
# Youngs Moduli (GPa) = 57.29555 39.30869 81.40293
#
# Poissons Ratio (x) = 0.15975 0.26964
# Poissons Ratio (y) = 0.23285 0.42653
# Poissons Ratio (z) = 0.18978 0.20597
#
# Static dielectric constant tensor:
#      x y z
#    x 4.119090 0.000000 0.000000 
#    y 0.000000 3.630400 0.000000 
#    z 0.000000 0.000000 4.066640 
# 
# 
# High freq. dielectric constant tensor:
#      x y z
#    x 1.853870 0.000000 0.000000 
#    y 0.000000 1.834230 0.000000 
#    z 0.000000 0.000000 1.867970 
# 
# From -- ./inp_files/3051.got.cif
#   From: 2010.03.12/outbox.cif.g09.slc.cpg/sg37_2_cif.got.tgz:3051.got - 2010.04.14 02:25:27.
