data_PCOD8176477
_publ_section_title
;
Structure prediction by ZEFSAII (Michael W. Deem and Ramdas Pophale) SiO2 
 PCOD8176477
Probable space group: C C C 2
;
_chemical_formula_sum "Si O2"
_cell_formula_units_Z 64
_cell_length_a 8.676655
_cell_length_b 21.935996
_cell_length_c 17.168232
_cell_angle_alpha 90.000000
_cell_angle_beta 90.000000
_cell_angle_gamma 90.000000
_cell_volume 3267.647956
_symmetry_space_group_name_H-M "C C C 2"
_symmetry_group_IT_number 37
_symmetry_cell_setting 'orthorhombic'
loop_
_space_group_symop_operation_xyz
x,y,z
-x,-y,z
-x,y,1/2+z
x,-y,1/2+z
1/2+x,1/2+y,z
1/2-x,1/2-y,z
1/2-x,1/2+y,1/2+z
1/2+x,1/2-y,1/2+z
loop_
_atom_site_type_symbol
_atom_site_label
_atom_site_fract_x
_atom_site_fract_y
_atom_site_fract_z
Si Si1 0.097503 0.217785 0.026150
Si Si2 0.915661 0.327912 0.970340
Si Si3 0.716396 0.893725 0.009995
Si Si4 0.714818 0.040118 0.360576
Si Si5 0.711158 0.561569 0.180098
Si Si6 0.145150 0.072685 0.711654
Si Si7 0.191001 0.813463 0.112235
Si Si8 0.120599 0.410841 0.329405
O O1 0.250000 0.250000 0.062659
O O2 0.165410 0.159083 0.981978
O O3 0.999819 0.261408 0.967291
O O4 0.991177 0.194923 0.097122
O O5 0.772126 0.325780 0.028980
O O6 0.037990 0.375609 0.003852
O O7 0.858680 0.350887 0.884779
O O8 0.741233 0.915643 0.096383
O O9 0.749905 0.947662 0.950344
O O10 0.841783 0.072365 0.305486
O O11 0.555848 0.068576 0.329038
O O12 0.723842 0.967147 0.359273
O O13 0.532646 0.574645 0.191655
O O14 0.735898 0.488331 0.183543
O O15 0.816707 0.599823 0.241491
O O16 0.224515 0.131602 0.671878
O O17 0.250000 0.750000 0.149860
#
# Coordination Sequence:
#
# PCOD8176477 Si02
#       8
#     8   8   8   8   8   8   8   8
#     4   9  18  36  59  78 112 149 194 244 286 347
#     4   9  20  34  59  84 112 152 193 242 296 349
#     4  10  19  36  59  85 113 155 195 235 300 358
#     4   9  20  36  57  81 123 152 189 241 299 352
#     4  10  21  36  58  84 121 153 196 244 298 361
#     4  10  21  38  53  85 118 154 193 243 301 352
#     4  10  20  36  57  83 116 147 197 246 288 352
#     4   9  19  38  54  85 117 151 193 243 297 358
#
# _framework density 19.585951999999999
#
# number of rings (size 3 to 8) (size 9 to 14) (size 15 to 20)
#    0.000    2.500    1.250    0.000    3.500    1.000 
#    0.000    4.375    0.000    3.750    0.000    0.000 
#    0.000    0.000    0.000    0.000    0.000    0.000 
#
# Total GULP energy -396527.874314 kJ/mol
# GULP energy per Si atom -12391.496072 kJ/mol
# Density = 1.954137 g / cm^3
# Si number density = 19.585952 Si / 1000 Ang^3
#
#
#
# Elastic Constant Matrix: (Units=GPa)
#
#
# Indices 1 2 3 4 5 6 
#
# 1 64.4881 22.8572 40.2439 0.0000 0.0000 0.0000
# 2 22.8572 101.5425 62.2025 0.0000 0.0000 0.0000
# 3 40.2439 62.2025 152.8692 0.0000 0.0000 0.0000
# 4 0.0000 0.0000 0.0000 34.6640 0.0000 0.0000
# 5 0.0000 0.0000 0.0000 0.0000 22.7701 0.0000
# 6 0.0000 0.0000 0.0000 0.0000 0.0000 19.6127
#
#
#
# Elastic Compliance Matrix: (Units=1/GPa)
#
#
# Indices 1 2 3 4 5 6 
#
# 1 0.018747 -0.001594 -0.004287 0.000000 0.000000 0.000000
# 2 -0.001594 0.013253 -0.004973 0.000000 0.000000 0.000000
# 3 -0.004287 -0.004973 0.009694 0.000000 0.000000 0.000000
# 4 0.000000 0.000000 0.000000 0.028848 0.000000 0.000000
# 5 0.000000 0.000000 0.000000 0.000000 0.043917 0.000000
# 6 0.000000 0.000000 0.000000 0.000000 0.000000 0.050987
#
#
# Mechanical properties :
#
#
# Convention : Reuss Voigt Hill
#
# Bulk Modulus (GPa) = 50.03461 63.27854 56.65658
# Shear Modulus (GPa) = 25.79760 28.31576 27.05668
#
# Velocity S-wave (km/s) = 3.63319 3.80638 3.72080
# Velocity P-wave (km/s) = 6.57280 7.19002 6.88833
#
# Compressibility (1/GPa) = 0.01998616
#
# Stress axis : x y z
#
# Youngs Moduli (GPa) = 53.34241 75.45264 103.16081
#
# Poissons Ratio (x) = 0.12027 0.44221
# Poissons Ratio (y) = 0.08503 0.51303
# Poissons Ratio (z) = 0.22866 0.37524
#
# Static dielectric constant tensor:
#      x y z
#    x 3.645130 0.000000 0.000000 
#    y 0.000000 3.832780 0.000000 
#    z 0.000000 0.000000 3.381630 
# 
# 
# High freq. dielectric constant tensor:
#      x y z
#    x 1.768090 0.000000 0.000000 
#    y 0.000000 1.763540 0.000000 
#    z 0.000000 0.000000 1.738590 
# 
# From -- ./inp_files/11004.got.cif
#   From: 2010.03.12/outbox.cif.g09.slc.cpg/sg37_6_cif.got.tgz:11004.got - 2010.04.14 02:25:27.
