data_PCOD8176665
_publ_section_title
;
Structure prediction by ZEFSAII (Michael W. Deem and Ramdas Pophale) SiO2 
 PCOD8176665
Probable space group: C C C 2
;
_chemical_formula_sum "Si O2"
_cell_formula_units_Z 52
_cell_length_a 9.037871
_cell_length_b 19.034816
_cell_length_c 13.907447
_cell_angle_alpha 90.000000
_cell_angle_beta 90.000000
_cell_angle_gamma 90.000000
_cell_volume 2392.556679
_symmetry_space_group_name_H-M "C C C 2"
_symmetry_group_IT_number 37
_symmetry_cell_setting 'orthorhombic'
loop_
_space_group_symop_operation_xyz
x,y,z
-x,-y,z
-x,y,1/2+z
x,-y,1/2+z
1/2+x,1/2+y,z
1/2-x,1/2-y,z
1/2-x,1/2+y,1/2+z
1/2+x,1/2-y,1/2+z
loop_
_atom_site_type_symbol
_atom_site_label
_atom_site_fract_x
_atom_site_fract_y
_atom_site_fract_z
Si Si1 0.542645 0.297073 0.880490
Si Si2 0.829468 0.983715 0.568885
Si Si3 0.661001 0.862430 0.675068
Si Si4 0.325886 0.098666 0.181296
Si Si5 0.250000 0.750000 0.037264
Si Si6 0.750000 0.250000 0.723195
Si Si7 0.750000 0.750000 0.827869
Si Si8 0.875690 0.947264 0.351707
O O1 0.606564 0.251965 0.791639
O O2 0.384327 0.263194 0.900477
O O3 0.527363 0.377463 0.853785
O O4 0.642158 0.297086 0.974454
O O5 0.778518 0.919492 0.636752
O O6 0.809033 0.968112 0.455627
O O7 0.727842 0.051964 0.591356
O O8 0.000000 0.000000 0.592989
O O9 0.503714 0.900503 0.691359
O O10 0.642907 0.800994 0.596600
O O11 0.725831 0.822088 0.767782
O O12 0.264793 0.178072 0.162685
O O13 0.261025 0.063013 0.278542
O O14 0.000000 0.000000 0.312245
#
# Coordination Sequence:
#
# PCOD8176665 Si02
#       8
#     8   8   8   8   4   4   4   8
#     4  10  20  43  69  96 134 176 231 287 342 427
#     4  11  25  44  69  99 139 185 232 286 359 426
#     4  11  24  43  64 105 136 181 229 294 352 414
#     4  11  23  43  73 101 141 181 237 291 351 425
#     4  10  22  44  70  91 147 180 220 298 360 402
#     4   9  20  39  69 100 129 178 224 281 358 402
#     4  11  24  37  71 103 130 176 244 283 350 418
#     4  10  23  45  73 100 135 192 231 285 359 423
#
# _framework density 21.734072000000001
#
# number of rings (size 3 to 8) (size 9 to 14) (size 15 to 20)
#    0.000    1.538    3.077    0.923    6.462    0.000 
#    5.538    3.077    0.000    0.000    0.000    0.000 
#    0.000    0.000    0.000    0.000    0.000    0.000 
#
# Total GULP energy -322295.773442 kJ/mol
# GULP energy per Si atom -12395.991286 kJ/mol
# Density = 2.168460 g / cm^3
# Si number density = 21.734072 Si / 1000 Ang^3
#
#
#
# Elastic Constant Matrix: (Units=GPa)
#
#
# Indices 1 2 3 4 5 6 
#
# 1 148.6644 46.7541 39.5714 0.0000 0.0000 0.0000
# 2 46.7541 120.8452 39.1862 0.0000 0.0000 0.0000
# 3 39.5714 39.1862 77.7468 0.0000 0.0000 0.0000
# 4 0.0000 0.0000 0.0000 26.6585 0.0000 0.0000
# 5 0.0000 0.0000 0.0000 0.0000 25.3709 0.0000
# 6 0.0000 0.0000 0.0000 0.0000 0.0000 43.5648
#
#
#
# Elastic Compliance Matrix: (Units=1/GPa)
#
#
# Indices 1 2 3 4 5 6 
#
# 1 0.008236 -0.002184 -0.003091 0.000000 0.000000 0.000000
# 2 -0.002184 0.010471 -0.004166 0.000000 0.000000 0.000000
# 3 -0.003091 -0.004166 0.016535 0.000000 0.000000 0.000000
# 4 0.000000 0.000000 0.000000 0.037512 0.000000 0.000000
# 5 0.000000 0.000000 0.000000 0.000000 0.039415 0.000000
# 6 0.000000 0.000000 0.000000 0.000000 0.000000 0.022954
#
#
# Mechanical properties :
#
#
# Convention : Reuss Voigt Hill
#
# Bulk Modulus (GPa) = 61.12473 66.47552 63.80013
# Shear Modulus (GPa) = 31.35591 33.90182 32.62887
#
# Velocity S-wave (km/s) = 3.80242 3.95377 3.87884
# Velocity P-wave (km/s) = 6.88933 7.17603 7.03414
#
# Compressibility (1/GPa) = 0.01635999
#
# Stress axis : x y z
#
# Youngs Moduli (GPa) = 121.41393 95.50219 60.47655
#
# Poissons Ratio (x) = 0.20859 0.18695
# Poissons Ratio (y) = 0.26519 0.25194
# Poissons Ratio (z) = 0.37532 0.39785
#
# Static dielectric constant tensor:
#      x y z
#    x 3.864530 0.000000 0.000000 
#    y 0.000000 4.181200 0.000000 
#    z 0.000000 0.000000 3.781190 
# 
# 
# High freq. dielectric constant tensor:
#      x y z
#    x 1.853400 0.000000 0.000000 
#    y 0.000000 1.873320 0.000000 
#    z 0.000000 0.000000 1.836130 
# 
# From -- ./inp_files/10798.got.cif
#   From: 2010.03.12/outbox.cif.g09.slc.cpg/sg37_6_cif.got.tgz:10798.got - 2010.04.14 02:25:27.
