data_PCOD8176985
_publ_section_title
;
Structure prediction by ZEFSAII (Michael W. Deem and Ramdas Pophale) SiO2 
 PCOD8176985
Probable space group: C C C 2
;
_chemical_formula_sum "Si O2"
_cell_formula_units_Z 64
_cell_length_a 12.802318
_cell_length_b 23.372839
_cell_length_c 9.245316
_cell_angle_alpha 90.000000
_cell_angle_beta 90.000000
_cell_angle_gamma 90.000000
_cell_volume 2766.443709
_symmetry_space_group_name_H-M "C C C 2"
_symmetry_group_IT_number 37
_symmetry_cell_setting 'orthorhombic'
loop_
_space_group_symop_operation_xyz
x,y,z
-x,-y,z
-x,y,1/2+z
x,-y,1/2+z
1/2+x,1/2+y,z
1/2-x,1/2-y,z
1/2-x,1/2+y,1/2+z
1/2+x,1/2-y,1/2+z
loop_
_atom_site_type_symbol
_atom_site_label
_atom_site_fract_x
_atom_site_fract_y
_atom_site_fract_z
Si Si1 0.562519 0.241718 0.003080
Si Si2 0.786030 0.373069 0.435798
Si Si3 0.235794 0.979342 0.253817
Si Si4 0.154281 0.791591 0.591521
Si Si5 0.526762 0.828857 0.772249
Si Si6 0.842568 0.849447 0.385075
Si Si7 0.343941 0.908436 0.748228
Si Si8 0.602184 0.467693 0.982946
O O1 0.444739 0.258813 0.035506
O O2 0.587693 0.196337 0.131568
O O3 0.560062 0.213999 0.841686
O O4 0.644725 0.294830 0.994767
O O5 0.768826 0.417087 0.306601
O O6 0.690558 0.328923 0.452348
O O7 0.890773 0.338930 0.399040
O O8 0.794064 0.402506 0.590794
O O9 0.332197 0.023706 0.279671
O O10 0.132633 0.000469 0.335879
O O11 0.201433 0.973998 0.088278
O O12 0.250000 0.750000 0.639488
O O13 0.118864 0.830926 0.726407
O O14 0.464189 0.888071 0.740954
O O15 0.722763 0.872027 0.368177
O O16 0.916186 0.900351 0.447551
O O17 0.500000 0.500000 0.044733
#
# Coordination Sequence:
#
# PCOD8176985 Si02
#       8
#     8   8   8   8   8   8   8   8
#     4  12  24  41  70 106 141 180 238 280 343 425
#     4  11  24  45  73 101 137 185 232 285 349 421
#     4  11  24  46  71 103 137 182 236 287 349 422
#     4  11  22  45  71  95 144 189 221 287 361 404
#     4  12  24  45  72 104 138 183 238 289 343 416
#     4  10  25  41  72 101 137 190 227 279 347 428
#     4  10  23  48  70  97 143 185 224 292 361 402
#     4  11  25  45  70 103 142 183 228 288 350 413
#
# _framework density 23.134395000000001
#
# number of rings (size 3 to 8) (size 9 to 14) (size 15 to 20)
#    0.000    1.000    5.000    1.125    1.750    4.500 
#    0.000    2.500    0.000    0.000    0.000    0.000 
#    0.000    0.000    0.000    0.000    0.000    0.000 
#
# Total GULP energy -396643.318687 kJ/mol
# GULP energy per Si atom -12395.103709 kJ/mol
# Density = 2.308174 g / cm^3
# Si number density = 23.134395 Si / 1000 Ang^3
#
#
#
# Elastic Constant Matrix: (Units=GPa)
#
#
# Indices 1 2 3 4 5 6 
#
# 1 57.5317 31.6414 18.1789 0.0000 0.0000 0.0000
# 2 31.6414 129.2291 41.1826 0.0000 0.0000 0.0000
# 3 18.1789 41.1826 86.7453 0.0000 0.0000 0.0000
# 4 0.0000 0.0000 0.0000 40.0555 0.0000 0.0000
# 5 0.0000 0.0000 0.0000 0.0000 31.3831 0.0000
# 6 0.0000 0.0000 0.0000 0.0000 0.0000 31.9854
#
#
#
# Elastic Compliance Matrix: (Units=1/GPa)
#
#
# Indices 1 2 3 4 5 6 
#
# 1 0.020452 -0.004291 -0.002249 0.000000 0.000000 0.000000
# 2 -0.004291 0.010018 -0.003857 0.000000 0.000000 0.000000
# 3 -0.002249 -0.003857 0.013830 0.000000 0.000000 0.000000
# 4 0.000000 0.000000 0.000000 0.024965 0.000000 0.000000
# 5 0.000000 0.000000 0.000000 0.000000 0.031864 0.000000
# 6 0.000000 0.000000 0.000000 0.000000 0.000000 0.031264
#
#
# Mechanical properties :
#
#
# Convention : Reuss Voigt Hill
#
# Bulk Modulus (GPa) = 42.54037 50.61243 46.57640
# Shear Modulus (GPa) = 31.05135 32.85169 31.95152
#
# Velocity S-wave (km/s) = 3.66760 3.77243 3.72038
# Velocity P-wave (km/s) = 6.03020 6.39531 6.21544
#
# Compressibility (1/GPa) = 0.02350708
#
# Stress axis : x y z
#
# Youngs Moduli (GPa) = 48.89427 99.82121 72.30489
#
# Poissons Ratio (x) = 0.42833 0.16261
# Poissons Ratio (y) = 0.20981 0.27886
# Poissons Ratio (z) = 0.10996 0.38499
#
# Static dielectric constant tensor:
#      x y z
#    x 3.743140 0.000000 0.000000 
#    y 0.000000 4.371020 0.000000 
#    z 0.000000 0.000000 4.099180 
# 
# 
# High freq. dielectric constant tensor:
#      x y z
#    x 1.887460 0.000000 0.000000 
#    y 0.000000 1.924660 0.000000 
#    z 0.000000 0.000000 1.914950 
# 
# From -- ./inp_files/3765.got.cif
#   From: 2010.03.12/outbox.cif.g09.slc.cpg/sg37_2_cif.got.tgz:3765.got - 2010.04.14 02:25:27.
