data_PCOD8176300
_publ_section_title
;
Structure prediction by ZEFSAII (Michael W. Deem and Ramdas Pophale) SiO2 
 PCOD8176300
Probable space group: C M C 21
;
_chemical_formula_sum "Si O2"
_cell_formula_units_Z 64
_cell_length_a 17.188060
_cell_length_b 11.311619
_cell_length_c 14.352411
_cell_angle_alpha 90.000000
_cell_angle_beta 90.000000
_cell_angle_gamma 90.000000
_cell_volume 2790.464438
_symmetry_space_group_name_H-M "C M C 21"
_symmetry_group_IT_number 36
_symmetry_cell_setting 'orthorhombic'
loop_
_space_group_symop_operation_xyz
x,y,z
-x,-y,1/2+z
x,-y,1/2+z
-x,y,z
1/2+x,1/2+y,z
1/2-x,1/2-y,1/2+z
1/2+x,1/2-y,1/2+z
1/2-x,1/2+y,z
loop_
_atom_site_type_symbol
_atom_site_label
_atom_site_fract_x
_atom_site_fract_y
_atom_site_fract_z
Si Si1 0.413821 0.058282 0.573080
Si Si2 0.682576 0.746589 0.142283
Si Si3 0.411177 0.490918 0.353866
Si Si4 0.088607 0.745990 0.817799
Si Si5 0.337931 0.642980 0.687121
Si Si6 0.812145 0.025120 0.019610
Si Si7 0.089275 0.618411 0.237132
Si Si8 0.341841 0.018345 0.900077
O O1 0.500000 0.108859 0.588326
O O2 0.349853 0.161605 0.566157
O O3 0.389343 0.972985 0.656651
O O4 0.410051 0.988124 0.476533
O O5 0.611031 0.722556 0.211657
O O6 0.752842 0.801663 0.202104
O O7 0.711494 0.630171 0.089181
O O8 0.500000 0.452324 0.333742
O O9 0.404034 0.631212 0.372857
O O10 0.356569 0.452632 0.267419
O O11 0.382661 0.434606 0.451636
O O12 0.148490 0.648728 0.856642
O O13 0.000000 0.697730 0.819471
O O14 0.339641 0.585272 0.583783
O O15 0.399126 0.749436 0.698296
O O16 0.740707 0.996706 0.950404
O O17 0.145505 0.584921 0.323402
O O18 0.000000 0.605733 0.268779
#
# Coordination Sequence:
#
# PCOD8176300 Si02
#       8
#     8   8   8   8   8   8   8   8
#     4  11  24  43  70 109 149 192 246 301 365 430
#     4  12  25  46  73 103 142 194 246 298 361 432
#     4  11  28  48  72 106 144 195 244 296 368 436
#     4  11  24  45  75 104 144 194 242 302 361 427
#     4  12  27  49  72 103 147 187 244 302 362 437
#     4  12  29  47  73 108 145 196 243 298 366 438
#     4  11  26  46  75 107 145 193 241 305 373 435
#     4  12  25  46  74 110 146 189 244 304 368 431
#
# _framework density 22.935248999999999
#
# number of rings (size 3 to 8) (size 9 to 14) (size 15 to 20)
#    0.000    0.500    3.750    3.375    7.000    2.000 
#    0.000    0.000    0.000    0.000    0.000    0.000 
#    0.000    0.000    0.000    0.000    0.000    0.000 
#
# Total GULP energy -396801.535283 kJ/mol
# GULP energy per Si atom -12400.047978 kJ/mol
# Density = 2.288305 g / cm^3
# Si number density = 22.935249 Si / 1000 Ang^3
#
#
#
# Elastic Constant Matrix: (Units=GPa)
#
#
# Indices 1 2 3 4 5 6 
#
# 1 81.1830 56.9315 66.0308 0.0000 0.0000 0.0000
# 2 56.9315 101.3702 41.1847 0.0000 0.0000 0.0000
# 3 66.0308 41.1847 141.6647 0.0000 0.0000 0.0000
# 4 0.0000 0.0000 0.0000 36.5837 0.0000 0.0000
# 5 0.0000 0.0000 0.0000 0.0000 40.8086 0.0000
# 6 0.0000 0.0000 0.0000 0.0000 0.0000 34.6999
#
#
#
# Elastic Compliance Matrix: (Units=1/GPa)
#
#
# Indices 1 2 3 4 5 6 
#
# 1 0.029005 -0.012243 -0.009960 0.000000 0.000000 0.000000
# 2 -0.012243 0.016354 0.000952 0.000000 0.000000 0.000000
# 3 -0.009960 0.000952 0.011424 0.000000 0.000000 0.000000
# 4 0.000000 0.000000 0.000000 0.027335 0.000000 0.000000
# 5 0.000000 0.000000 0.000000 0.000000 0.024505 0.000000
# 6 0.000000 0.000000 0.000000 0.000000 0.000000 0.028819
#
#
# Mechanical properties :
#
#
# Convention : Reuss Voigt Hill
#
# Bulk Modulus (GPa) = 70.02125 72.50131 71.26128
# Shear Modulus (GPa) = 27.07054 33.08984 30.08019
#
# Velocity S-wave (km/s) = 3.43928 3.80248 3.62543
# Velocity P-wave (km/s) = 6.80939 7.13851 6.97589
#
# Compressibility (1/GPa) = 0.01428138
#
# Stress axis : x y z
#
# Youngs Moduli (GPa) = 34.47740 61.14745 87.53123
#
# Poissons Ratio (x) = 0.74863 0.87180
# Poissons Ratio (y) = 0.42211 -0.08334
# Poissons Ratio (z) = 0.34339 -0.05822
#
# Static dielectric constant tensor:
#      x y z
#    x 4.064860 0.000000 0.000000 
#    y 0.000000 4.107020 0.000000 
#    z 0.000000 0.000000 4.205470 
# 
# 
# High freq. dielectric constant tensor:
#      x y z
#    x 1.909520 0.000000 0.000000 
#    y 0.000000 1.903900 0.000000 
#    z 0.000000 0.000000 1.912330 
# 
# From -- ./inp_files/12655.got.cif
#   From: 2010.03.12/outbox.cif.g09.slc.cpg/sg36_7_cif.got.tgz:12655.got - 2010.04.14 02:13:53.
