data_PCOD8176272
_publ_section_title
;
Structure prediction by ZEFSAII (Michael W. Deem and Ramdas Pophale) SiO2 
 PCOD8176272
Probable space group: C M C 21
;
_chemical_formula_sum "Si O2"
_cell_formula_units_Z 48
_cell_length_a 8.501570
_cell_length_b 27.026634
_cell_length_c 9.987085
_cell_angle_alpha 90.000000
_cell_angle_beta 90.000000
_cell_angle_gamma 90.000000
_cell_volume 2294.720744
_symmetry_space_group_name_H-M "C M C 21"
_symmetry_group_IT_number 36
_symmetry_cell_setting 'orthorhombic'
loop_
_space_group_symop_operation_xyz
x,y,z
-x,-y,1/2+z
x,-y,1/2+z
-x,y,z
1/2+x,1/2+y,z
1/2-x,1/2-y,1/2+z
1/2+x,1/2-y,1/2+z
1/2-x,1/2+y,z
loop_
_atom_site_type_symbol
_atom_site_label
_atom_site_fract_x
_atom_site_fract_y
_atom_site_fract_z
Si Si1 0.317256 0.291592 0.969350
Si Si2 0.681279 0.388778 0.340730
Si Si3 0.181671 0.458858 0.130261
Si Si4 0.318102 0.893386 0.880549
Si Si5 0.182184 0.712317 0.749750
Si Si6 0.681268 0.565160 0.120513
O O1 0.500000 0.304714 0.953930
O O2 0.214250 0.339837 0.941704
O O3 0.264795 0.248531 0.868555
O O4 0.282325 0.273103 0.119323
O O5 0.500000 0.373112 0.327349
O O6 0.789075 0.343819 0.293815
O O7 0.725852 0.402054 0.492369
O O8 0.713365 0.436236 0.248268
O O9 0.229444 0.434679 0.989072
O O10 0.000000 0.448525 0.163096
O O11 0.210113 0.517081 0.123162
O O12 0.500000 0.897872 0.840878
O O13 0.212410 0.901248 0.749868
O O14 0.000000 0.718900 0.714884
O O15 0.500000 0.548691 0.114973
#
# Coordination Sequence:
#
# PCOD8176272 Si02
#       6
#     8   8   8   8   8   8
#     4  11  25  44  68  97 129 168 211 262 318 377
#     4  11  24  42  66  94 128 170 213 264 320 378
#     4  11  23  41  65  94 127 168 215 266 320 378
#     4  11  24  42  66  95 129 170 213 264 319 378
#     4  11  25  44  67  97 129 166 212 262 317 380
#     4  11  25  41  62  95 130 170 216 264 316 379
#
# _framework density 20.917577999999999
#
# number of rings (size 3 to 8) (size 9 to 14) (size 15 to 20)
#    0.000    1.000    1.667    4.000    2.333   10.000 
#    0.000    0.000    0.000    0.000    0.000    0.000 
#    0.000    0.000    0.000    0.000    0.000    0.000 
#
# Total GULP energy -297831.696221 kJ/mol
# GULP energy per Si atom -12409.654009 kJ/mol
# Density = 2.086997 g / cm^3
# Si number density = 20.917578 Si / 1000 Ang^3
#
#
#
# Elastic Constant Matrix: (Units=GPa)
#
#
# Indices 1 2 3 4 5 6 
#
# 1 45.5916 15.5287 35.2951 0.0000 0.0000 0.0000
# 2 15.5287 84.2523 40.3816 0.0000 0.0000 0.0000
# 3 35.2951 40.3816 156.4370 0.0000 0.0000 0.0000
# 4 0.0000 0.0000 0.0000 39.8983 0.0000 0.0000
# 5 0.0000 0.0000 0.0000 0.0000 34.7272 0.0000
# 6 0.0000 0.0000 0.0000 0.0000 0.0000 30.4481
#
#
#
# Elastic Compliance Matrix: (Units=1/GPa)
#
#
# Indices 1 2 3 4 5 6 
#
# 1 0.026976 -0.002345 -0.005481 0.000000 0.000000 0.000000
# 2 -0.002345 0.013749 -0.003020 0.000000 0.000000 0.000000
# 3 -0.005481 -0.003020 0.008408 0.000000 0.000000 0.000000
# 4 0.000000 0.000000 0.000000 0.025064 0.000000 0.000000
# 5 0.000000 0.000000 0.000000 0.000000 0.028796 0.000000
# 6 0.000000 0.000000 0.000000 0.000000 0.000000 0.032843
#
#
# Mechanical properties :
#
#
# Convention : Reuss Voigt Hill
#
# Bulk Modulus (GPa) = 36.44147 52.07686 44.25916
# Shear Modulus (GPa) = 29.99867 34.01974 32.00921
#
# Velocity S-wave (km/s) = 3.79111 4.03720 3.91609
# Velocity P-wave (km/s) = 6.05166 6.83244 6.45387
#
# Compressibility (1/GPa) = 0.02744127
#
# Stress axis : x y z
#
# Youngs Moduli (GPa) = 37.07044 72.73389 118.92742
#
# Poissons Ratio (x) = 0.17056 0.65183
# Poissons Ratio (y) = 0.08693 0.35915
# Poissons Ratio (z) = 0.20318 0.21965
#
# Static dielectric constant tensor:
#      x y z
#    x 3.707620 0.000000 0.000000 
#    y 0.000000 3.670830 0.000000 
#    z 0.000000 0.000000 4.040200 
# 
# 
# High freq. dielectric constant tensor:
#      x y z
#    x 1.825270 0.000000 0.000000 
#    y 0.000000 1.820220 0.000000 
#    z 0.000000 0.000000 1.835780 
# 
# From -- ./inp_files/2686.got.cif
#   From: 2010.03.12/outbox.cif.g09.slc.cpg/sg36_2_cif.got.tgz:2686.got - 2010.04.14 02:13:53.
