data_PCOD8176579
_publ_section_title
;
Structure prediction by ZEFSAII (Michael W. Deem and Ramdas Pophale) SiO2 
 PCOD8176579
Probable space group: C C C 2
;
_chemical_formula_sum "Si O2"
_cell_formula_units_Z 60
_cell_length_a 25.633200
_cell_length_b 12.261071
_cell_length_c 9.322171
_cell_angle_alpha 90.000000
_cell_angle_beta 90.000000
_cell_angle_gamma 90.000000
_cell_volume 2929.869646
_symmetry_space_group_name_H-M "C C C 2"
_symmetry_group_IT_number 37
_symmetry_cell_setting 'orthorhombic'
loop_
_space_group_symop_operation_xyz
x,y,z
-x,-y,z
-x,y,1/2+z
x,-y,1/2+z
1/2+x,1/2+y,z
1/2-x,1/2-y,z
1/2-x,1/2+y,1/2+z
1/2+x,1/2-y,1/2+z
loop_
_atom_site_type_symbol
_atom_site_label
_atom_site_fract_x
_atom_site_fract_y
_atom_site_fract_z
Si Si1 0.091392 0.213996 0.612130
Si Si2 0.676865 0.171850 0.674546
Si Si3 0.340023 0.517746 0.021761
Si Si4 0.213272 0.901242 0.762135
Si Si5 0.523372 0.229176 0.621534
Si Si6 0.084428 0.366770 0.359895
Si Si7 0.500000 0.000000 0.985800
Si Si8 0.119353 0.786065 0.433751
O O1 0.113839 0.104811 0.540224
O O2 0.104512 0.316052 0.509164
O O3 0.116665 0.242652 0.765924
O O4 0.028904 0.198753 0.627255
O O5 0.729698 0.102909 0.689409
O O6 0.684230 0.286008 0.754993
O O7 0.632478 0.102498 0.756253
O O8 0.659367 0.199780 0.510781
O O9 0.291109 0.564009 0.928125
O O10 0.361591 0.409437 0.947537
O O11 0.318350 0.493128 0.178173
O O12 0.548981 0.225394 0.779985
O O13 0.510476 0.104524 0.582655
O O14 0.562584 0.280042 0.506156
O O15 0.050920 0.476394 0.387262
#
# Coordination Sequence:
#
# PCOD8176579 Si02
#       8
#     8   8   8   8   8   8   4   8
#     4  11  20  36  62  93 123 163 204 253 305 374
#     4   9  20  40  64  84 124 163 198 253 315 357
#     4  11  21  38  64  90 123 162 203 256 312 367
#     4  10  20  40  64  88 121 160 204 254 310 364
#     4  10  22  38  59  89 129 165 205 251 313 370
#     4  10  20  38  63  90 118 166 199 253 301 371
#     4  10  20  36  62  88 122 158 204 250 302 368
#     4  10  22  39  60  94 126 162 205 257 310 377
#
# _framework density 20.478728
#
# number of rings (size 3 to 8) (size 9 to 14) (size 15 to 20)
#    0.000    1.867    2.667    2.000    0.000    1.600 
#    4.800    2.667    2.933    0.000    0.000    0.000 
#    0.000    0.000    0.000    0.000    0.000    0.000 
#
# Total GULP energy -371899.821012 kJ/mol
# GULP energy per Si atom -12396.660700 kJ/mol
# Density = 2.043212 g / cm^3
# Si number density = 20.478728 Si / 1000 Ang^3
#
#
#
# Elastic Constant Matrix: (Units=GPa)
#
#
# Indices 1 2 3 4 5 6 
#
# 1 125.4490 43.6175 36.9714 0.0000 0.0000 0.0000
# 2 43.6175 68.5880 34.1934 0.0000 0.0000 0.0000
# 3 36.9714 34.1934 113.3480 0.0000 0.0000 0.0000
# 4 0.0000 0.0000 0.0000 21.6668 0.0000 0.0000
# 5 0.0000 0.0000 0.0000 0.0000 29.4586 0.0000
# 6 0.0000 0.0000 0.0000 0.0000 0.0000 38.6721
#
#
#
# Elastic Compliance Matrix: (Units=1/GPa)
#
#
# Indices 1 2 3 4 5 6 
#
# 1 0.010493 -0.005846 -0.001659 0.000000 0.000000 0.000000
# 2 -0.005846 0.020417 -0.004253 0.000000 0.000000 0.000000
# 3 -0.001659 -0.004253 0.010646 0.000000 0.000000 0.000000
# 4 0.000000 0.000000 0.000000 0.046153 0.000000 0.000000
# 5 0.000000 0.000000 0.000000 0.000000 0.033946 0.000000
# 6 0.000000 0.000000 0.000000 0.000000 0.000000 0.025858
#
#
# Mechanical properties :
#
#
# Convention : Reuss Voigt Hill
#
# Bulk Modulus (GPa) = 55.42621 59.66108 57.54364
# Shear Modulus (GPa) = 28.24176 30.79967 29.52071
#
# Velocity S-wave (km/s) = 3.71762 3.88233 3.80087
# Velocity P-wave (km/s) = 6.74920 7.02090 6.88639
#
# Compressibility (1/GPa) = 0.01804201
#
# Stress axis : x y z
#
# Youngs Moduli (GPa) = 95.30355 48.97815 93.92863
#
# Poissons Ratio (x) = 0.28631 0.15583
# Poissons Ratio (y) = 0.55711 0.39943
# Poissons Ratio (z) = 0.15811 0.20828
#
# Static dielectric constant tensor:
#      x y z
#    x 3.816640 0.000000 0.000000 
#    y 0.000000 3.436720 0.000000 
#    z 0.000000 0.000000 3.799950 
# 
# 
# High freq. dielectric constant tensor:
#      x y z
#    x 1.798640 0.000000 0.000000 
#    y 0.000000 1.776790 0.000000 
#    z 0.000000 0.000000 1.812320 
# 
# From -- ./inp_files/4800.got.cif
#   From: 2010.03.12/outbox.cif.g09.slc.cpg/sg37_3_cif.got.tgz:4800.got - 2010.04.14 02:25:27.
