data_PCOD8176370
_publ_section_title
;
Structure prediction by ZEFSAII (Michael W. Deem and Ramdas Pophale) SiO2 
 PCOD8176370
Probable space group: C C C 2
;
_chemical_formula_sum "Si O2"
_cell_formula_units_Z 48
_cell_length_a 24.105322
_cell_length_b 16.638261
_cell_length_c 5.321470
_cell_angle_alpha 90.000000
_cell_angle_beta 90.000000
_cell_angle_gamma 90.000000
_cell_volume 2134.285373
_symmetry_space_group_name_H-M "C C C 2"
_symmetry_group_IT_number 37
_symmetry_cell_setting 'orthorhombic'
loop_
_space_group_symop_operation_xyz
x,y,z
-x,-y,z
-x,y,1/2+z
x,-y,1/2+z
1/2+x,1/2+y,z
1/2-x,1/2-y,z
1/2-x,1/2+y,1/2+z
1/2+x,1/2-y,1/2+z
loop_
_atom_site_type_symbol
_atom_site_label
_atom_site_fract_x
_atom_site_fract_y
_atom_site_fract_z
Si Si1 0.187943 0.960273 0.463790
Si Si2 0.806852 0.289022 0.049631
Si Si3 0.438505 0.966471 0.699474
Si Si4 0.965553 0.285194 0.637793
Si Si5 0.146784 0.219162 0.036257
Si Si6 0.689672 0.026302 0.985917
O O1 0.173177 0.867616 0.496818
O O2 0.161718 0.007683 0.702313
O O3 0.254053 0.974074 0.444209
O O4 0.750000 0.250000 0.137033
O O5 0.849346 0.268606 0.274352
O O6 0.823312 0.260076 0.772938
O O7 0.796346 0.383035 0.043261
O O8 0.437980 0.873391 0.621353
O O9 0.500000 0.000000 0.761123
O O10 0.409955 0.020273 0.476034
O O11 0.918471 0.217440 0.601780
O O12 0.990616 0.273777 0.914677
O O13 0.657271 0.016794 0.718720
#
# Coordination Sequence:
#
# PCOD8176370 Si02
#       6
#     8   8   8   8   8   8
#     4  10  20  39  64  90 118 169 218 257 313 407
#     4  12  23  41  65  95 136 170 214 278 330 384
#     4  10  16  32  59  86 110 162 220 241 311 389
#     4  12  23  41  66  92 131 173 215 271 330 379
#     4  12  26  42  66 105 129 169 230 274 326 398
#     4  10  19  35  59  83 122 172 211 246 322 383
#
# _framework density 22.489962999999999
#
# number of rings (size 3 to 8) (size 9 to 14) (size 15 to 20)
#    0.000    1.000    3.333    7.500    0.000    0.000 
#    0.000    5.000    0.000    3.000    0.000    0.000 
#    0.000    0.000    0.000    0.000    0.000    0.000 
#
# Total GULP energy -297624.640563 kJ/mol
# GULP energy per Si atom -12401.026690 kJ/mol
# Density = 2.243877 g / cm^3
# Si number density = 22.489963 Si / 1000 Ang^3
#
#
#
# Elastic Constant Matrix: (Units=GPa)
#
#
# Indices 1 2 3 4 5 6 
#
# 1 68.2650 36.0908 25.3606 0.0000 0.0000 0.0000
# 2 36.0908 117.5205 57.7524 0.0000 0.0000 0.0000
# 3 25.3606 57.7524 198.0795 0.0000 0.0000 0.0000
# 4 0.0000 0.0000 0.0000 26.9879 0.0000 0.0000
# 5 0.0000 0.0000 0.0000 0.0000 34.7013 0.0000
# 6 0.0000 0.0000 0.0000 0.0000 0.0000 17.1285
#
#
#
# Elastic Compliance Matrix: (Units=1/GPa)
#
#
# Indices 1 2 3 4 5 6 
#
# 1 0.017594 -0.005015 -0.000790 0.000000 0.000000 0.000000
# 2 -0.005015 0.011362 -0.002671 0.000000 0.000000 0.000000
# 3 -0.000790 -0.002671 0.005928 0.000000 0.000000 0.000000
# 4 0.000000 0.000000 0.000000 0.037054 0.000000 0.000000
# 5 0.000000 0.000000 0.000000 0.000000 0.028817 0.000000
# 6 0.000000 0.000000 0.000000 0.000000 0.000000 0.058382
#
#
# Mechanical properties :
#
#
# Convention : Reuss Voigt Hill
#
# Bulk Modulus (GPa) = 55.76559 69.14140 62.45349
# Shear Modulus (GPa) = 27.46270 33.40764 30.43517
#
# Velocity S-wave (km/s) = 3.49823 3.85833 3.68268
# Velocity P-wave (km/s) = 6.41610 7.11751 6.77589
#
# Compressibility (1/GPa) = 0.01793221
#
# Stress axis : x y z
#
# Youngs Moduli (GPa) = 56.83885 88.01648 168.68183
#
# Poissons Ratio (x) = 0.44136 0.13334
# Poissons Ratio (y) = 0.28502 0.45047
# Poissons Ratio (z) = 0.04493 0.23505
#
# Static dielectric constant tensor:
#      x y z
#    x 4.055110 0.000000 0.000000 
#    y 0.000000 3.863790 0.000000 
#    z 0.000000 0.000000 5.284380 
# 
# 
# High freq. dielectric constant tensor:
#      x y z
#    x 1.889110 0.000000 0.000000 
#    y 0.000000 1.862430 0.000000 
#    z 0.000000 0.000000 1.944670 
# 
# From -- ./inp_files/1345.got.cif
#   From: 2010.03.12/outbox.cif.g09.slc.cpg/sg37_1_cif.got.tgz:1345.got - 2010.04.14 02:25:27.
