data_PCOD8176798
_publ_section_title
;
Structure prediction by ZEFSAII (Michael W. Deem and Ramdas Pophale) SiO2 
 PCOD8176798
Probable space group: C C C 2
;
_chemical_formula_sum "Si O2"
_cell_formula_units_Z 64
_cell_length_a 17.400183
_cell_length_b 11.218111
_cell_length_c 14.642317
_cell_angle_alpha 90.000000
_cell_angle_beta 90.000000
_cell_angle_gamma 90.000000
_cell_volume 2858.139050
_symmetry_space_group_name_H-M "C C C 2"
_symmetry_group_IT_number 37
_symmetry_cell_setting 'orthorhombic'
loop_
_space_group_symop_operation_xyz
x,y,z
-x,-y,z
-x,y,1/2+z
x,-y,1/2+z
1/2+x,1/2+y,z
1/2-x,1/2-y,z
1/2-x,1/2+y,1/2+z
1/2+x,1/2-y,1/2+z
loop_
_atom_site_type_symbol
_atom_site_label
_atom_site_fract_x
_atom_site_fract_y
_atom_site_fract_z
Si Si1 0.688433 0.431156 0.474660
Si Si2 0.431781 0.792024 0.172502
Si Si3 0.925671 0.698160 0.309558
Si Si4 0.664636 0.976105 0.191633
Si Si5 0.586504 0.463040 0.821275
Si Si6 0.503936 0.869429 0.490647
Si Si7 0.161437 0.662544 0.504778
Si Si8 0.832906 0.061227 0.159397
O O1 0.639724 0.453241 0.384377
O O2 0.779031 0.421276 0.446877
O O3 0.680665 0.301044 0.520286
O O4 0.667481 0.529184 0.551782
O O5 0.501839 0.773164 0.243146
O O6 0.397853 0.920379 0.194715
O O7 0.362141 0.696207 0.177181
O O8 0.464859 0.782117 0.069554
O O9 0.856173 0.620833 0.268688
O O10 0.895483 0.826214 0.343647
O O11 0.944788 0.626919 0.400993
O O12 0.748876 0.034847 0.202158
O O13 0.654715 0.900769 0.101126
O O14 0.500000 0.500000 0.843381
O O15 0.605899 0.481232 0.714547
O O16 0.420005 0.832618 0.454406
O O17 0.500000 0.000000 0.535241
#
# Coordination Sequence:
#
# PCOD8176798 Si02
#       8
#     8   8   8   8   8   8   8   8
#     4  10  24  44  70  99 141 184 231 291 354 434
#     4  12  23  45  67 103 144 182 238 303 353 429
#     4  12  25  42  71 102 140 187 239 298 359 427
#     4  11  23  47  69 101 140 182 240 296 359 433
#     4  12  25  46  65 105 140 180 247 292 357 440
#     4  12  23  40  71 105 137 182 236 292 358 424
#     4  10  21  43  70  99 134 184 231 285 359 424
#     4  11  26  44  70 100 139 191 229 292 367 425
#
# _framework density 22.392192000000001
#
# number of rings (size 3 to 8) (size 9 to 14) (size 15 to 20)
#    0.000    0.750    3.750    3.750    0.000    4.000 
#    2.250    0.000    0.000    0.000    0.000    0.000 
#    0.000    0.000    0.000    0.000    0.000    0.000 
#
# Total GULP energy -396615.157593 kJ/mol
# GULP energy per Si atom -12394.223675 kJ/mol
# Density = 2.234123 g / cm^3
# Si number density = 22.392192 Si / 1000 Ang^3
#
#
#
# Elastic Constant Matrix: (Units=GPa)
#
#
# Indices 1 2 3 4 5 6 
#
# 1 115.4195 34.5735 36.7141 0.0000 0.0000 0.0000
# 2 34.5735 118.1841 19.7020 0.0000 0.0000 0.0000
# 3 36.7141 19.7020 77.3843 0.0000 0.0000 0.0000
# 4 0.0000 0.0000 0.0000 20.9437 0.0000 0.0000
# 5 0.0000 0.0000 0.0000 0.0000 24.2661 0.0000
# 6 0.0000 0.0000 0.0000 0.0000 0.0000 39.1365
#
#
#
# Elastic Compliance Matrix: (Units=1/GPa)
#
#
# Indices 1 2 3 4 5 6 
#
# 1 0.010825 -0.002413 -0.004521 0.000000 0.000000 0.000000
# 2 -0.002413 0.009374 -0.001242 0.000000 0.000000 0.000000
# 3 -0.004521 -0.001242 0.015384 0.000000 0.000000 0.000000
# 4 0.000000 0.000000 0.000000 0.047747 0.000000 0.000000
# 5 0.000000 0.000000 0.000000 0.000000 0.041210 0.000000
# 6 0.000000 0.000000 0.000000 0.000000 0.000000 0.025552
#
#
# Mechanical properties :
#
#
# Convention : Reuss Voigt Hill
#
# Bulk Modulus (GPa) = 52.00063 54.77410 53.38737
# Shear Modulus (GPa) = 28.92601 31.53579 30.23090
#
# Velocity S-wave (km/s) = 3.59805 3.75686 3.67831
# Velocity P-wave (km/s) = 6.36666 6.58278 6.47562
#
# Compressibility (1/GPa) = 0.01923054
#
# Stress axis : x y z
#
# Youngs Moduli (GPa) = 92.37778 106.67461 65.00311
#
# Poissons Ratio (x) = 0.25741 0.29391
# Poissons Ratio (y) = 0.22291 0.08073
# Poissons Ratio (z) = 0.41769 0.13248
#
# Static dielectric constant tensor:
#      x y z
#    x 4.597390 0.000000 0.000000 
#    y 0.000000 4.137770 0.000000 
#    z 0.000000 0.000000 3.779910 
# 
# 
# High freq. dielectric constant tensor:
#      x y z
#    x 1.893750 0.000000 0.000000 
#    y 0.000000 1.890720 0.000000 
#    z 0.000000 0.000000 1.874430 
# 
# From -- ./inp_files/12707.got.cif
#   From: 2010.03.12/outbox.cif.g09.slc.cpg/sg37_7_cif.got.tgz:12707.got - 2010.04.14 02:25:27.
