data_PCOD8176603
_publ_section_title
;
Structure prediction by ZEFSAII (Michael W. Deem and Ramdas Pophale) SiO2 
 PCOD8176603
Probable space group: C C C 2
;
_chemical_formula_sum "Si O2"
_cell_formula_units_Z 64
_cell_length_a 24.076025
_cell_length_b 8.245118
_cell_length_c 15.602764
_cell_angle_alpha 90.000000
_cell_angle_beta 90.000000
_cell_angle_gamma 90.000000
_cell_volume 3097.299487
_symmetry_space_group_name_H-M "C C C 2"
_symmetry_group_IT_number 37
_symmetry_cell_setting 'orthorhombic'
loop_
_space_group_symop_operation_xyz
x,y,z
-x,-y,z
-x,y,1/2+z
x,-y,1/2+z
1/2+x,1/2+y,z
1/2-x,1/2-y,z
1/2-x,1/2+y,1/2+z
1/2+x,1/2-y,1/2+z
loop_
_atom_site_type_symbol
_atom_site_label
_atom_site_fract_x
_atom_site_fract_y
_atom_site_fract_z
Si Si1 0.115898 0.676521 0.778600
Si Si2 0.436962 0.493174 0.343032
Si Si3 0.620326 0.690188 0.099199
Si Si4 0.087649 0.666719 0.338172
Si Si5 0.096249 0.882146 0.017078
Si Si6 0.810330 0.676064 0.444403
Si Si7 0.983823 0.675291 0.007557
Si Si8 0.808683 0.316184 0.452667
O O1 0.140990 0.724035 0.686476
O O2 0.084940 0.499042 0.780851
O O3 0.164253 0.678993 0.848788
O O4 0.072813 0.824132 0.794278
O O5 0.500000 0.500000 0.370481
O O6 0.421903 0.659298 0.289386
O O7 0.402723 0.499341 0.432821
O O8 0.606371 0.496004 0.100700
O O9 0.562975 0.772017 0.073096
O O10 0.670351 0.711779 0.032644
O O11 0.040417 0.659723 0.411508
O O12 0.149610 0.682099 0.373472
O O13 0.037535 0.789877 0.015828
O O14 0.147907 0.760700 0.010920
O O15 0.750000 0.750000 0.439807
O O16 0.802490 0.499754 0.484151
O O17 0.000000 0.500000 0.040675
O O18 0.750000 0.250000 0.419195
#
# Coordination Sequence:
#
# PCOD8176603 Si02
#       8
#     8   8   8   8   8   8   8   8
#     4  10  25  40  56  91 129 162 201 252 316 371
#     4  11  19  36  61  88 114 161 208 247 298 364
#     4  11  22  40  56  89 128 162 199 250 317 371
#     4  10  21  38  62  89 119 159 207 255 301 366
#     4  11  19  36  65  90 119 161 213 254 309 374
#     4  10  22  40  64  90 116 155 211 263 306 364
#     4  11  20  36  63  88 122 162 208 256 304 365
#     4  10  20  37  66  89 113 152 207 256 304 368
#
# _framework density 20.663160999999999
#
# number of rings (size 3 to 8) (size 9 to 14) (size 15 to 20)
#    0.000    1.500    3.750    4.125    1.750    1.500 
#    6.750    0.000    0.000    0.750    0.000    0.000 
#    0.000    0.000    0.000    0.000    0.000    0.000 
#
# Total GULP energy -396462.975491 kJ/mol
# GULP energy per Si atom -12389.467984 kJ/mol
# Density = 2.061613 g / cm^3
# Si number density = 20.663161 Si / 1000 Ang^3
#
#
#
# Elastic Constant Matrix: (Units=GPa)
#
#
# Indices 1 2 3 4 5 6 
#
# 1 107.6602 44.9251 7.0835 0.0000 0.0000 0.0000
# 2 44.9251 170.0304 21.0291 0.0000 0.0000 0.0000
# 3 7.0835 21.0291 52.6831 0.0000 0.0000 0.0000
# 4 0.0000 0.0000 0.0000 28.4166 0.0000 0.0000
# 5 0.0000 0.0000 0.0000 0.0000 11.0641 0.0000
# 6 0.0000 0.0000 0.0000 0.0000 0.0000 33.5328
#
#
#
# Elastic Compliance Matrix: (Units=1/GPa)
#
#
# Indices 1 2 3 4 5 6 
#
# 1 0.010445 -0.002720 -0.000319 0.000000 0.000000 0.000000
# 2 -0.002720 0.006895 -0.002387 0.000000 0.000000 0.000000
# 3 -0.000319 -0.002387 0.019977 0.000000 0.000000 0.000000
# 4 0.000000 0.000000 0.000000 0.035191 0.000000 0.000000
# 5 0.000000 0.000000 0.000000 0.000000 0.090383 0.000000
# 6 0.000000 0.000000 0.000000 0.000000 0.000000 0.029822
#
#
# Mechanical properties :
#
#
# Convention : Reuss Voigt Hill
#
# Bulk Modulus (GPa) = 37.78431 52.93879 45.36155
# Shear Modulus (GPa) = 23.54224 31.75842 27.65033
#
# Velocity S-wave (km/s) = 3.37906 3.92466 3.66204
# Velocity P-wave (km/s) = 5.79220 6.79800 6.31516
#
# Compressibility (1/GPa) = 0.02646601
#
# Stress axis : x y z
#
# Youngs Moduli (GPa) = 95.74356 145.02831 50.05791
#
# Poissons Ratio (x) = 0.39451 0.01594
# Poissons Ratio (y) = 0.26045 0.11947
# Poissons Ratio (z) = 0.03050 0.34612
#
# Static dielectric constant tensor:
#      x y z
#    x 3.650570 0.000000 0.000000 
#    y 0.000000 4.412660 0.000000 
#    z 0.000000 0.000000 3.326840 
# 
# 
# High freq. dielectric constant tensor:
#      x y z
#    x 1.805770 0.000000 0.000000 
#    y 0.000000 1.842870 0.000000 
#    z 0.000000 0.000000 1.753650 
# 
# From -- ./inp_files/13167.got.cif
#   From: 2010.03.12/outbox.cif.g09.slc.cpg/sg37_7_cif.got.tgz:13167.got - 2010.04.14 02:25:27.
