data_PCOD8176671
_publ_section_title
;
Structure prediction by ZEFSAII (Michael W. Deem and Ramdas Pophale) SiO2 
 PCOD8176671
Probable space group: C C C 2
;
_chemical_formula_sum "Si O2"
_cell_formula_units_Z 48
_cell_length_a 26.692590
_cell_length_b 9.080621
_cell_length_c 9.724075
_cell_angle_alpha 90.000000
_cell_angle_beta 90.000000
_cell_angle_gamma 90.000000
_cell_volume 2356.972771
_symmetry_space_group_name_H-M "C C C 2"
_symmetry_group_IT_number 37
_symmetry_cell_setting 'orthorhombic'
loop_
_space_group_symop_operation_xyz
x,y,z
-x,-y,z
-x,y,1/2+z
x,-y,1/2+z
1/2+x,1/2+y,z
1/2-x,1/2-y,z
1/2-x,1/2+y,1/2+z
1/2+x,1/2-y,1/2+z
loop_
_atom_site_type_symbol
_atom_site_label
_atom_site_fract_x
_atom_site_fract_y
_atom_site_fract_z
Si Si1 0.000000 0.500000 0.603240
Si Si2 0.064681 0.573092 0.352512
Si Si3 0.750000 0.250000 0.094990
Si Si4 0.135791 0.678030 0.782710
Si Si5 0.718243 0.055684 0.315672
Si Si6 0.181955 0.049973 0.410417
Si Si7 0.648561 0.240571 0.476902
O O1 0.966577 0.405917 0.494841
O O2 0.967009 0.599342 0.711012
O O3 0.088504 0.407480 0.348594
O O4 0.109344 0.692202 0.356984
O O5 0.709466 0.154686 0.180882
O O6 0.783677 0.138167 0.013141
O O7 0.187726 0.595764 0.816955
O O8 0.141012 0.844048 0.839576
O O9 0.127331 0.682563 0.620409
O O10 0.701359 0.158018 0.445210
O O11 0.777767 0.022929 0.307309
O O12 0.152394 0.916929 0.483053
#
# Coordination Sequence:
#
# PCOD8176671 Si02
#       7
#     4   8   4   8   8   8   8
#     4  10  20  44  74  98 118 154 206 258 334 408
#     4  10  22  41  72 100 120 156 202 267 320 400
#     4  12  22  36  56  84 116 188 228 260 302 358
#     4  11  23  39  59  92 127 161 219 261 313 377
#     4  11  22  38  57  84 123 179 222 257 300 364
#     4  12  23  38  58  85 133 178 216 260 314 358
#     4  11  23  39  59  93 129 165 214 271 314 374
#
# _framework density 20.365106999999998
#
# number of rings (size 3 to 8) (size 9 to 14) (size 15 to 20)
#    0.000    1.000    5.000    2.000    2.333    1.333 
#    0.000    0.000    0.000    6.000    0.000    0.000 
#    0.000    0.000    0.000    0.000    0.000    0.000 
#
# Total GULP energy -297400.519152 kJ/mol
# GULP energy per Si atom -12391.688298 kJ/mol
# Density = 2.031875 g / cm^3
# Si number density = 20.365107 Si / 1000 Ang^3
#
#
#
# Elastic Constant Matrix: (Units=GPa)
#
#
# Indices 1 2 3 4 5 6 
#
# 1 83.1397 33.2188 27.8535 0.0000 0.0000 0.0000
# 2 33.2188 123.4838 33.3072 0.0000 0.0000 0.0000
# 3 27.8535 33.3072 106.7213 0.0000 0.0000 0.0000
# 4 0.0000 0.0000 0.0000 20.0297 0.0000 0.0000
# 5 0.0000 0.0000 0.0000 0.0000 34.8504 0.0000
# 6 0.0000 0.0000 0.0000 0.0000 0.0000 14.6170
#
#
#
# Elastic Compliance Matrix: (Units=1/GPa)
#
#
# Indices 1 2 3 4 5 6 
#
# 1 0.014174 -0.003074 -0.002740 0.000000 0.000000 0.000000
# 2 -0.003074 0.009509 -0.002166 0.000000 0.000000 0.000000
# 3 -0.002740 -0.002166 0.010761 0.000000 0.000000 0.000000
# 4 0.000000 0.000000 0.000000 0.049926 0.000000 0.000000
# 5 0.000000 0.000000 0.000000 0.000000 0.028694 0.000000
# 6 0.000000 0.000000 0.000000 0.000000 0.000000 0.068414
#
#
# Mechanical properties :
#
#
# Convention : Reuss Voigt Hill
#
# Bulk Modulus (GPa) = 54.09607 55.78930 54.94269
# Shear Modulus (GPa) = 24.55809 28.49710 26.52759
#
# Velocity S-wave (km/s) = 3.47636 3.74479 3.61307
# Velocity P-wave (km/s) = 6.53714 6.79353 6.66657
#
# Compressibility (1/GPa) = 0.01848563
#
# Stress axis : x y z
#
# Youngs Moduli (GPa) = 70.55119 105.16054 92.92679
#
# Poissons Ratio (x) = 0.32326 0.25462
# Poissons Ratio (y) = 0.21687 0.20123
# Poissons Ratio (z) = 0.19331 0.22773
#
# Static dielectric constant tensor:
#      x y z
#    x 3.939710 0.000000 0.000000 
#    y 0.000000 3.743380 0.000000 
#    z 0.000000 0.000000 3.779390 
# 
# 
# High freq. dielectric constant tensor:
#      x y z
#    x 1.778410 0.000000 0.000000 
#    y 0.000000 1.782460 0.000000 
#    z 0.000000 0.000000 1.803610 
# 
# From -- ./inp_files/2446.got.cif
#   From: 2010.03.12/outbox.cif.g09.slc.cpg/sg37_2_cif.got.tgz:2446.got - 2010.04.14 02:25:27.
