data_PCOD8176950
_publ_section_title
;
Structure prediction by ZEFSAII (Michael W. Deem and Ramdas Pophale) SiO2 
 PCOD8176950
Probable space group: C C C 2
;
_chemical_formula_sum "Si O2"
_cell_formula_units_Z 40
_cell_length_a 28.957027
_cell_length_b 4.922813
_cell_length_c 12.796695
_cell_angle_alpha 90.000000
_cell_angle_beta 90.000000
_cell_angle_gamma 90.000000
_cell_volume 1824.169243
_symmetry_space_group_name_H-M "C C C 2"
_symmetry_group_IT_number 37
_symmetry_cell_setting 'orthorhombic'
loop_
_space_group_symop_operation_xyz
x,y,z
-x,-y,z
-x,y,1/2+z
x,-y,1/2+z
1/2+x,1/2+y,z
1/2-x,1/2-y,z
1/2-x,1/2+y,1/2+z
1/2+x,1/2-y,1/2+z
loop_
_atom_site_type_symbol
_atom_site_label
_atom_site_fract_x
_atom_site_fract_y
_atom_site_fract_z
Si Si1 0.946508 0.509370 0.343560
Si Si2 0.446572 0.510824 0.211641
Si Si3 0.175604 0.793441 0.542550
Si Si4 0.750000 0.250000 0.717580
Si Si5 0.113580 0.708917 0.035119
Si Si6 0.750000 0.250000 0.368531
O O1 0.934699 0.201177 0.311531
O O2 0.917259 0.619620 0.438516
O O3 0.000000 0.500000 0.375917
O O4 0.934661 0.702309 0.244004
O O5 0.500000 0.500000 0.178989
O O6 0.417967 0.629828 0.116617
O O7 0.206178 0.819929 0.646023
O O8 0.137620 0.567587 0.573274
O O9 0.205138 0.721893 0.440900
O O10 0.153795 0.079948 0.508382
O O11 0.756320 0.499455 0.793166
#
# Coordination Sequence:
#
# PCOD8176950 Si02
#       6
#     8   8   8   4   8   4
#     4  10  23  41  61  89 125 167 211 252 306 371
#     4  10  23  41  61  89 125 167 211 252 306 371
#     4  11  26  41  62 101 124 157 220 257 310 395
#     4  11  24  45  68  88 128 171 200 257 326 380
#     4  12  24  40  66  95 130 163 208 272 314 362
#     4  11  24  45  68  88 128 171 200 257 326 380
#
# _framework density 21.927790000000002
#
# number of rings (size 3 to 8) (size 9 to 14) (size 15 to 20)
#    0.000    1.200    0.000    4.800    0.000   19.200 
#    0.000    0.000    0.000    0.000    0.000    0.000 
#    0.000    0.000    0.000    0.000    0.000    0.000 
#
# Total GULP energy -247884.904355 kJ/mol
# GULP energy per Si atom -12394.245218 kJ/mol
# Density = 2.187788 g / cm^3
# Si number density = 21.927790 Si / 1000 Ang^3
#
#
#
# Elastic Constant Matrix: (Units=GPa)
#
#
# Indices 1 2 3 4 5 6 
#
# 1 71.5365 3.8016 45.2778 0.0000 0.0000 0.0000
# 2 3.8016 80.5793 4.1745 0.0000 0.0000 0.0000
# 3 45.2778 4.1745 104.6357 0.0000 0.0000 0.0000
# 4 0.0000 0.0000 0.0000 44.1542 0.0000 0.0000
# 5 0.0000 0.0000 0.0000 0.0000 41.0021 0.0000
# 6 0.0000 0.0000 0.0000 0.0000 0.0000 45.9480
#
#
#
# Elastic Compliance Matrix: (Units=1/GPa)
#
#
# Indices 1 2 3 4 5 6 
#
# 1 0.019270 -0.000478 -0.008319 0.000000 0.000000 0.000000
# 2 -0.000478 0.012448 -0.000290 0.000000 0.000000 0.000000
# 3 -0.008319 -0.000290 0.013168 0.000000 0.000000 0.000000
# 4 0.000000 0.000000 0.000000 0.022648 0.000000 0.000000
# 5 0.000000 0.000000 0.000000 0.000000 0.024389 0.000000
# 6 0.000000 0.000000 0.000000 0.000000 0.000000 0.021764
#
#
# Mechanical properties :
#
#
# Convention : Reuss Voigt Hill
#
# Bulk Modulus (GPa) = 37.43683 40.36213 38.89948
# Shear Modulus (GPa) = 35.52022 39.78738 37.65380
#
# Velocity S-wave (km/s) = 4.02913 4.26428 4.14837
# Velocity P-wave (km/s) = 6.22535 6.53393 6.38151
#
# Compressibility (1/GPa) = 0.02671166
#
# Stress axis : x y z
#
# Youngs Moduli (GPa) = 51.89449 80.33614 75.93907
#
# Poissons Ratio (x) = 0.03841 0.63176
# Poissons Ratio (y) = 0.02481 0.02200
# Poissons Ratio (z) = 0.43173 0.02327
#
# Static dielectric constant tensor:
#      x y z
#    x 4.169880 0.000000 0.000000 
#    y 0.000000 4.356780 0.000000 
#    z 0.000000 0.000000 3.825890 
# 
# 
# High freq. dielectric constant tensor:
#      x y z
#    x 1.870910 0.000000 0.000000 
#    y 0.000000 1.887660 0.000000 
#    z 0.000000 0.000000 1.861530 
# 
# From -- ./inp_files/8999.got.cif
#   From: 2010.03.12/outbox.cif.g09.slc.cpg/sg37_5_cif.got.tgz:8999.got - 2010.04.14 02:25:27.
