data_PCOD8176311
_publ_section_title
;
Structure prediction by ZEFSAII (Michael W. Deem and Ramdas Pophale) SiO2 
 PCOD8176311
Probable space group: C M C 21
;
_chemical_formula_sum "Si O2"
_cell_formula_units_Z 40
_cell_length_a 13.152255
_cell_length_b 14.212748
_cell_length_c 9.228760
_cell_angle_alpha 90.000000
_cell_angle_beta 90.000000
_cell_angle_gamma 90.000000
_cell_volume 1725.129208
_symmetry_space_group_name_H-M "C M C 21"
_symmetry_group_IT_number 36
_symmetry_cell_setting 'orthorhombic'
loop_
_space_group_symop_operation_xyz
x,y,z
-x,-y,1/2+z
x,-y,1/2+z
-x,y,z
1/2+x,1/2+y,z
1/2-x,1/2-y,1/2+z
1/2+x,1/2-y,1/2+z
1/2-x,1/2+y,z
loop_
_atom_site_type_symbol
_atom_site_label
_atom_site_fract_x
_atom_site_fract_y
_atom_site_fract_z
Si Si1 0.000000 0.872301 0.092150
Si Si2 0.170126 0.243132 0.469764
Si Si3 0.000000 0.957563 0.399343
Si Si4 0.500000 0.869931 0.373666
Si Si5 0.000000 0.550817 0.198344
Si Si6 0.785108 0.574339 0.324295
Si Si7 0.210674 0.919840 0.529967
O O1 0.000000 0.943173 0.226963
O O2 0.100556 0.807765 0.091898
O O3 0.000000 0.931970 0.941392
O O4 0.098057 0.302004 0.360449
O O5 0.239833 0.168993 0.388762
O O6 0.244020 0.315876 0.548352
O O7 0.901612 0.909576 0.468388
O O8 0.500000 0.928403 0.526418
O O9 0.500000 0.938976 0.234724
O O10 0.899553 0.595798 0.270694
O O11 0.783689 0.488155 0.436793
O O12 0.712176 0.539122 0.192926
#
# Coordination Sequence:
#
# PCOD8176311 Si02
#       7
#     4   8   4   4   4   8   8
#     4  11  26  48  77 102 152 197 246 304 372 439
#     4  11  26  44  73 108 150 191 245 307 366 430
#     4  12  26  47  79 105 141 204 246 296 378 445
#     4  11  24  49  76 103 149 197 250 302 370 443
#     4  12  22  50  76 106 142 204 240 298 374 443
#     4  12  26  46  78 108 151 195 249 308 372 435
#     4  12  27  47  75 109 150 193 253 306 369 440
#
# _framework density 23.186668999999998
#
# number of rings (size 3 to 8) (size 9 to 14) (size 15 to 20)
#    0.000    0.400    6.000    1.200    2.800    1.600 
#    3.600    0.000    0.000    0.000    0.000    0.000 
#    0.000    0.000    0.000    0.000    0.000    0.000 
#
# Total GULP energy -247999.210051 kJ/mol
# GULP energy per Si atom -12399.960503 kJ/mol
# Density = 2.313390 g / cm^3
# Si number density = 23.186669 Si / 1000 Ang^3
#
#
#
# Elastic Constant Matrix: (Units=GPa)
#
#
# Indices 1 2 3 4 5 6 
#
# 1 131.5825 53.2083 6.4768 0.0000 0.0000 0.0000
# 2 53.2083 138.7547 63.0373 0.0000 0.0000 0.0000
# 3 6.4768 63.0373 91.8698 0.0000 0.0000 0.0000
# 4 0.0000 0.0000 0.0000 31.2053 0.0000 0.0000
# 5 0.0000 0.0000 0.0000 0.0000 22.2323 0.0000
# 6 0.0000 0.0000 0.0000 0.0000 0.0000 54.0088
#
#
#
# Elastic Compliance Matrix: (Units=1/GPa)
#
#
# Indices 1 2 3 4 5 6 
#
# 1 0.009414 -0.004807 0.002635 0.000000 0.000000 0.000000
# 2 -0.004807 0.012926 -0.008530 0.000000 0.000000 0.000000
# 3 0.002635 -0.008530 0.016552 0.000000 0.000000 0.000000
# 4 0.000000 0.000000 0.000000 0.032046 0.000000 0.000000
# 5 0.000000 0.000000 0.000000 0.000000 0.044980 0.000000
# 6 0.000000 0.000000 0.000000 0.000000 0.000000 0.018515
#
#
# Mechanical properties :
#
#
# Convention : Reuss Voigt Hill
#
# Bulk Modulus (GPa) = 57.18556 67.51688 62.35122
# Shear Modulus (GPa) = 30.92791 37.45493 34.19142
#
# Velocity S-wave (km/s) = 3.65618 4.02352 3.84424
# Velocity P-wave (km/s) = 6.52228 7.12510 6.83034
#
# Compressibility (1/GPa) = 0.01748693
#
# Stress axis : x y z
#
# Youngs Moduli (GPa) = 106.22618 77.36617 60.41474
#
# Poissons Ratio (x) = 0.37189 -0.15917
# Poissons Ratio (y) = 0.51061 0.51534
# Poissons Ratio (z) = -0.27986 0.65994
#
# Static dielectric constant tensor:
#      x y z
#    x 4.468330 0.000000 0.000000 
#    y 0.000000 4.217620 0.000000 
#    z 0.000000 0.000000 4.125170 
# 
# 
# High freq. dielectric constant tensor:
#      x y z
#    x 1.939750 0.000000 0.000000 
#    y 0.000000 1.920840 0.000000 
#    z 0.000000 0.000000 1.899910 
# 
# From -- ./inp_files/3855.got.cif
#   From: 2010.03.12/outbox.cif.g09.slc.cpg/sg36_2_cif.got.tgz:3855.got - 2010.04.14 02:13:53.
