data_PCOD8176779
_publ_section_title
;
Structure prediction by ZEFSAII (Michael W. Deem and Ramdas Pophale) SiO2 
 PCOD8176779
Probable space group: C C C 2
;
_chemical_formula_sum "Si O2"
_cell_formula_units_Z 64
_cell_length_a 14.765981
_cell_length_b 8.896792
_cell_length_c 21.941112
_cell_angle_alpha 90.000000
_cell_angle_beta 90.000000
_cell_angle_gamma 90.000000
_cell_volume 2882.400848
_symmetry_space_group_name_H-M "C C C 2"
_symmetry_group_IT_number 37
_symmetry_cell_setting 'orthorhombic'
loop_
_space_group_symop_operation_xyz
x,y,z
-x,-y,z
-x,y,1/2+z
x,-y,1/2+z
1/2+x,1/2+y,z
1/2-x,1/2-y,z
1/2-x,1/2+y,1/2+z
1/2+x,1/2-y,1/2+z
loop_
_atom_site_type_symbol
_atom_site_label
_atom_site_fract_x
_atom_site_fract_y
_atom_site_fract_z
Si Si1 0.662693 0.855112 0.742920
Si Si2 0.983291 0.674169 0.833233
Si Si3 0.546248 0.647289 0.165695
Si Si4 0.661734 0.652726 0.053326
Si Si5 0.848199 0.313591 0.771277
Si Si6 0.919829 0.381578 0.115360
Si Si7 0.780787 0.410036 0.003440
Si Si8 0.422267 0.116722 0.963050
O O1 0.750000 0.750000 0.742109
O O2 0.583561 0.764052 0.779633
O O3 0.637628 0.912250 0.675905
O O4 0.675100 0.010483 0.778325
O O5 0.944320 0.703635 0.900395
O O6 0.000000 0.500000 0.819960
O O7 0.084338 0.744172 0.825493
O O8 0.500000 0.500000 0.197182
O O9 0.620379 0.597152 0.116470
O O10 0.597283 0.762207 0.210666
O O11 0.465965 0.721595 0.126399
O O12 0.750000 0.750000 0.068036
O O13 0.689342 0.499437 0.019616
O O14 0.591864 0.755080 0.014014
O O15 0.750000 0.250000 0.778097
O O16 0.848697 0.384702 0.060204
O O17 0.000000 0.500000 0.104733
O O18 0.750000 0.250000 0.975958
O O19 0.832792 0.513232 0.953684
O O20 0.500000 0.000000 0.983428
#
# Coordination Sequence:
#
# PCOD8176779 Si02
#       8
#     8   8   8   8   8   8   8   8
#     4  11  23  39  64  92 129 174 222 269 327 403
#     4   9  20  45  65  93 125 174 227 272 325 413
#     4  12  24  37  62  93 138 176 218 272 341 402
#     4  10  22  39  60  98 133 173 219 273 329 405
#     4  11  24  40  66  96 131 170 219 288 340 395
#     4  12  21  39  61  90 135 182 217 264 332 404
#     4  11  23  38  62  99 135 166 225 279 337 398
#     4  10  21  41  71  88 126 178 220 264 337 403
#
# _framework density 22.203714000000002
#
# number of rings (size 3 to 8) (size 9 to 14) (size 15 to 20)
#    0.000    1.250    2.500    4.500    3.500    1.500 
#    0.000    5.625    0.000   11.250    0.000    0.000 
#    0.000    0.000    0.000    0.000    0.000    0.000 
#
# Total GULP energy -396444.546325 kJ/mol
# GULP energy per Si atom -12388.892073 kJ/mol
# Density = 2.215318 g / cm^3
# Si number density = 22.203714 Si / 1000 Ang^3
#
#
#
# Elastic Constant Matrix: (Units=GPa)
#
#
# Indices 1 2 3 4 5 6 
#
# 1 120.1202 33.1387 41.6368 0.0000 0.0000 0.0000
# 2 33.1387 96.4470 2.5190 0.0000 0.0000 0.0000
# 3 41.6368 2.5190 86.5504 0.0000 0.0000 0.0000
# 4 0.0000 0.0000 0.0000 7.6077 0.0000 0.0000
# 5 0.0000 0.0000 0.0000 0.0000 25.4402 0.0000
# 6 0.0000 0.0000 0.0000 0.0000 0.0000 41.3409
#
#
#
# Elastic Compliance Matrix: (Units=1/GPa)
#
#
# Indices 1 2 3 4 5 6 
#
# 1 0.011172 -0.003701 -0.005267 0.000000 0.000000 0.000000
# 2 -0.003701 0.011602 0.001443 0.000000 0.000000 0.000000
# 3 -0.005267 0.001443 0.014046 0.000000 0.000000 0.000000
# 4 0.000000 0.000000 0.000000 0.131446 0.000000 0.000000
# 5 0.000000 0.000000 0.000000 0.000000 0.039308 0.000000
# 6 0.000000 0.000000 0.000000 0.000000 0.000000 0.024189
#
#
# Mechanical properties :
#
#
# Convention : Reuss Voigt Hill
#
# Bulk Modulus (GPa) = 45.93506 50.85629 48.39567
# Shear Modulus (GPa) = 19.67976 29.93265 24.80620
#
# Velocity S-wave (km/s) = 2.98035 3.67562 3.34609
# Velocity P-wave (km/s) = 5.70756 6.40060 6.06399
#
# Compressibility (1/GPa) = 0.02176986
#
# Stress axis : x y z
#
# Youngs Moduli (GPa) = 89.51321 86.18958 71.19689
#
# Poissons Ratio (x) = 0.31898 0.37496
# Poissons Ratio (y) = 0.33128 -0.10272
# Poissons Ratio (z) = 0.47143 -0.12435
#
# Static dielectric constant tensor:
#      x y z
#    x 4.354170 0.000000 0.000000 
#    y 0.000000 4.057730 0.000000 
#    z 0.000000 0.000000 3.838160 
# 
# 
# High freq. dielectric constant tensor:
#      x y z
#    x 1.891190 0.000000 0.000000 
#    y 0.000000 1.859720 0.000000 
#    z 0.000000 0.000000 1.854340 
# 
# From -- ./inp_files/18924.got.cif
#   From: 2010.03.12/outbox.cif.g09.slc.cpg/sg37_10_cif.got.tgz:18924.got - 2010.04.14 02:25:27.
