data_PCOD8176046
_publ_section_title
;
Structure prediction by ZEFSAII (Michael W. Deem and Ramdas Pophale) SiO2 
 PCOD8176046
Probable space group: C M C 21
;
_chemical_formula_sum "Si O2"
_cell_formula_units_Z 40
_cell_length_a 11.492316
_cell_length_b 15.703260
_cell_length_c 9.230695
_cell_angle_alpha 90.000000
_cell_angle_beta 90.000000
_cell_angle_gamma 90.000000
_cell_volume 1665.834230
_symmetry_space_group_name_H-M "C M C 21"
_symmetry_group_IT_number 36
_symmetry_cell_setting 'orthorhombic'
loop_
_space_group_symop_operation_xyz
x,y,z
-x,-y,1/2+z
x,-y,1/2+z
-x,y,z
1/2+x,1/2+y,z
1/2-x,1/2-y,1/2+z
1/2+x,1/2-y,1/2+z
1/2-x,1/2+y,z
loop_
_atom_site_type_symbol
_atom_site_label
_atom_site_fract_x
_atom_site_fract_y
_atom_site_fract_z
Si Si1 0.634535 0.505272 0.839480
Si Si2 0.131595 0.816468 0.491578
Si Si3 0.743341 0.405829 0.083141
Si Si4 0.500000 0.941317 0.020830
Si Si5 0.500000 0.892751 0.695541
Si Si6 0.708080 0.231877 0.220600
O O1 0.500000 0.484496 0.804108
O O2 0.646242 0.587135 0.942497
O O3 0.705184 0.517681 0.690873
O O4 0.695530 0.426585 0.922403
O O5 0.170817 0.806315 0.658811
O O6 0.209150 0.750717 0.393329
O O7 0.000000 0.784749 0.473970
O O8 0.680985 0.321593 0.142259
O O9 0.883766 0.395228 0.081836
O O10 0.500000 0.941962 0.847588
O O11 0.500000 0.039784 0.065749
O O12 0.388803 0.834270 0.674650
#
# Coordination Sequence:
#
# PCOD8176046 Si02
#       6
#     8   8   8   4   4   8
#     4  10  22  41  67  98 145 182 240 296 361 433
#     4  10  22  44  66  98 140 188 228 300 360 431
#     4  11  24  41  70 106 138 196 238 298 368 439
#     4  12  26  46  76 104 154 192 244 298 378 444
#     4  12  26  48  74 106 142 192 242 312 358 448
#     4  11  24  43  74 100 147 183 241 303 367 423
#
# _framework density 24.011994999999999
#
# number of rings (size 3 to 8) (size 9 to 14) (size 15 to 20)
#    0.000    1.200    1.000    4.200    4.200    3.200 
#    1.800    0.000    0.000    0.000    0.000    0.000 
#    0.000    0.000    0.000    0.000    0.000    0.000 
#
# Total GULP energy -248071.565302 kJ/mol
# GULP energy per Si atom -12403.578265 kJ/mol
# Density = 2.395734 g / cm^3
# Si number density = 24.011995 Si / 1000 Ang^3
#
#
#
# Elastic Constant Matrix: (Units=GPa)
#
#
# Indices 1 2 3 4 5 6 
#
# 1 131.0008 25.2740 55.6529 0.0000 0.0000 0.0000
# 2 25.2740 67.6937 16.3669 0.0000 0.0000 0.0000
# 3 55.6529 16.3669 108.8625 0.0000 0.0000 0.0000
# 4 0.0000 0.0000 0.0000 38.1722 0.0000 0.0000
# 5 0.0000 0.0000 0.0000 0.0000 37.8424 0.0000
# 6 0.0000 0.0000 0.0000 0.0000 0.0000 26.3556
#
#
#
# Elastic Compliance Matrix: (Units=1/GPa)
#
#
# Indices 1 2 3 4 5 6 
#
# 1 0.010187 -0.002640 -0.004811 0.000000 0.000000 0.000000
# 2 -0.002640 0.016014 -0.001058 0.000000 0.000000 0.000000
# 3 -0.004811 -0.001058 0.011804 0.000000 0.000000 0.000000
# 4 0.000000 0.000000 0.000000 0.026197 0.000000 0.000000
# 5 0.000000 0.000000 0.000000 0.000000 0.026425 0.000000
# 6 0.000000 0.000000 0.000000 0.000000 0.000000 0.037943
#
#
# Mechanical properties :
#
#
# Convention : Reuss Voigt Hill
#
# Bulk Modulus (GPa) = 47.64775 55.79383 51.72079
# Shear Modulus (GPa) = 32.76901 34.49158 33.63030
#
# Velocity S-wave (km/s) = 3.69818 3.79414 3.74647
# Velocity P-wave (km/s) = 6.17429 6.51769 6.34831
#
# Compressibility (1/GPa) = 0.02098735
#
# Stress axis : x y z
#
# Youngs Moduli (GPa) = 98.16797 62.44564 84.71497
#
# Poissons Ratio (x) = 0.16486 0.40754
# Poissons Ratio (y) = 0.25918 0.08962
# Poissons Ratio (z) = 0.47226 0.06606
#
# Static dielectric constant tensor:
#      x y z
#    x 4.318820 0.000000 0.000000 
#    y 0.000000 4.366210 0.000000 
#    z 0.000000 0.000000 4.389420 
# 
# 
# High freq. dielectric constant tensor:
#      x y z
#    x 1.944880 0.000000 0.000000 
#    y 0.000000 1.969470 0.000000 
#    z 0.000000 0.000000 1.955070 
# 
# From -- ./inp_files/3083.got.cif
#   From: 2010.03.12/outbox.cif.g09.slc.cpg/sg36_2_cif.got.tgz:3083.got - 2010.04.14 02:13:53.
