data_PCOD8176856
_publ_section_title
;
Structure prediction by ZEFSAII (Michael W. Deem and Ramdas Pophale) SiO2 
 PCOD8176856
Probable space group: C C C 2
;
_chemical_formula_sum "Si O2"
_cell_formula_units_Z 56
_cell_length_a 13.784989
_cell_length_b 13.785024
_cell_length_c 14.118925
_cell_angle_alpha 90.000000
_cell_angle_beta 90.000000
_cell_angle_gamma 90.000000
_cell_volume 2682.968549
_symmetry_space_group_name_H-M "C C C 2"
_symmetry_group_IT_number 37
_symmetry_cell_setting 'orthorhombic'
loop_
_space_group_symop_operation_xyz
x,y,z
-x,-y,z
-x,y,1/2+z
x,-y,1/2+z
1/2+x,1/2+y,z
1/2-x,1/2-y,z
1/2-x,1/2+y,1/2+z
1/2+x,1/2-y,1/2+z
loop_
_atom_site_type_symbol
_atom_site_label
_atom_site_fract_x
_atom_site_fract_y
_atom_site_fract_z
Si Si1 0.857537 0.783274 0.447810
Si Si2 0.176085 0.973095 0.851460
Si Si3 0.891314 0.372795 0.610704
Si Si4 0.872795 0.391313 0.818542
Si Si5 0.526906 0.323915 0.577786
Si Si6 0.000000 0.500000 0.464623
Si Si7 0.500000 0.500000 0.214623
Si Si8 0.283274 0.357537 0.981436
O O1 0.750000 0.750000 0.482144
O O2 0.868248 0.898422 0.428110
O O3 0.888798 0.718880 0.356208
O O4 0.933510 0.770273 0.532912
O O5 0.259050 0.909138 0.801928
O O6 0.096061 0.005443 0.777109
O O7 0.229727 0.066490 0.896334
O O8 0.915548 0.415547 0.714623
O O9 0.909138 0.259050 0.627318
O O10 0.963179 0.414192 0.531519
O O11 0.781120 0.388799 0.573038
O O12 0.914192 0.463179 0.897727
O O13 0.494557 0.403939 0.652137
O O14 0.601578 0.368248 0.501136
O O15 0.250000 0.250000 0.947102
#
# Coordination Sequence:
#
# PCOD8176856 Si02
#       8
#     8   8   8   8   8   4   4   8
#     4  10  22  40  65  91 129 173 220 271 337 394
#     4  11  22  41  62  94 133 170 220 271 332 401
#     4  11  23  41  67  95 126 170 217 275 332 402
#     4  11  23  41  67  95 126 170 217 275 332 402
#     4  11  22  41  62  94 133 170 220 271 332 401
#     4  12  22  44  64  98 128 168 226 268 344 386
#     4  12  24  38  64 100 132 182 220 268 338 416
#     4  10  22  40  65  91 129 173 220 271 337 394
#
# _framework density 20.872402999999998
#
# number of rings (size 3 to 8) (size 9 to 14) (size 15 to 20)
#    0.000    1.143    2.857    3.857    0.000    4.000 
#    0.000    0.714    0.000    0.000    0.000    0.000 
#    0.000    0.000    0.000    0.000    0.000    0.000 
#
# Total GULP energy -347055.282751 kJ/mol
# GULP energy per Si atom -12394.831527 kJ/mol
# Density = 2.082490 g / cm^3
# Si number density = 20.872403 Si / 1000 Ang^3
#
#
#
# Elastic Constant Matrix: (Units=GPa)
#
#
# Indices 1 2 3 4 5 6 
#
# 1 112.8147 29.1020 52.8415 0.0000 0.0000 0.0000
# 2 29.1020 112.8154 52.8413 0.0000 0.0000 0.0000
# 3 52.8415 52.8413 131.1951 0.0000 0.0000 0.0000
# 4 0.0000 0.0000 0.0000 25.6190 0.0000 0.0000
# 5 0.0000 0.0000 0.0000 0.0000 25.6186 0.0000
# 6 0.0000 0.0000 0.0000 0.0000 0.0000 33.0357
#
#
#
# Elastic Compliance Matrix: (Units=1/GPa)
#
#
# Indices 1 2 3 4 5 6 
#
# 1 0.011005 -0.000940 -0.004054 0.000000 0.000000 0.000000
# 2 -0.000940 0.011005 -0.004054 0.000000 0.000000 0.000000
# 3 -0.004054 -0.004054 0.010888 0.000000 0.000000 0.000000
# 4 0.000000 0.000000 0.000000 0.039033 0.000000 0.000000
# 5 0.000000 0.000000 0.000000 0.000000 0.039034 0.000000
# 6 0.000000 0.000000 0.000000 0.000000 0.000000 0.030270
#
#
# Mechanical properties :
#
#
# Convention : Reuss Voigt Hill
#
# Bulk Modulus (GPa) = 67.55616 69.59944 68.57780
# Shear Modulus (GPa) = 30.43823 31.65736 31.04780
#
# Velocity S-wave (km/s) = 3.82291 3.89872 3.86100
# Velocity P-wave (km/s) = 7.20574 7.32696 7.26660
#
# Compressibility (1/GPa) = 0.01480250
#
# Stress axis : x y z
#
# Youngs Moduli (GPa) = 90.86380 90.86463 91.84514
#
# Poissons Ratio (x) = 0.08542 0.37234
# Poissons Ratio (y) = 0.08542 0.37234
# Poissons Ratio (z) = 0.36836 0.36836
#
# Static dielectric constant tensor:
#      x y z
#    x 3.803010 0.000000 0.000000 
#    y 0.000000 3.803050 0.000000 
#    z 0.000000 0.000000 3.548480 
# 
# 
# High freq. dielectric constant tensor:
#      x y z
#    x 1.826050 0.000000 0.000000 
#    y 0.000000 1.826050 0.000000 
#    z 0.000000 0.000000 1.798950 
# 
# From -- ./inp_files/7862.got.cif
#   From: 2010.03.12/outbox.cif.g09.slc.cpg/sg37_4_cif.got.tgz:7862.got - 2010.04.14 02:25:27.
