data_PCOD8176599
_publ_section_title
;
Structure prediction by ZEFSAII (Michael W. Deem and Ramdas Pophale) SiO2 
 PCOD8176599
Probable space group: C C C 2
;
_chemical_formula_sum "Si O2"
_cell_formula_units_Z 48
_cell_length_a 5.746764
_cell_length_b 26.801897
_cell_length_c 14.327135
_cell_angle_alpha 90.000000
_cell_angle_beta 90.000000
_cell_angle_gamma 90.000000
_cell_volume 2206.725174
_symmetry_space_group_name_H-M "C C C 2"
_symmetry_group_IT_number 37
_symmetry_cell_setting 'orthorhombic'
loop_
_space_group_symop_operation_xyz
x,y,z
-x,-y,z
-x,y,1/2+z
x,-y,1/2+z
1/2+x,1/2+y,z
1/2-x,1/2-y,z
1/2-x,1/2+y,1/2+z
1/2+x,1/2-y,1/2+z
loop_
_atom_site_type_symbol
_atom_site_label
_atom_site_fract_x
_atom_site_fract_y
_atom_site_fract_z
Si Si1 0.203083 0.807862 0.134870
Si Si2 0.841529 0.041433 0.207546
Si Si3 0.054055 0.625001 0.992584
Si Si4 0.818128 0.122836 0.642832
Si Si5 0.755014 0.478162 0.009967
Si Si6 0.063263 0.374495 0.786297
O O1 0.250000 0.750000 0.145105
O O2 0.337343 0.826938 0.043128
O O3 0.286917 0.834124 0.230266
O O4 0.930346 0.822199 0.123576
O O5 0.715308 0.013127 0.121990
O O6 0.671916 0.069285 0.279835
O O7 0.979478 0.082935 0.148990
O O8 0.000000 0.000000 0.261708
O O9 0.241675 0.580594 0.981037
O O10 0.846186 0.605302 0.058546
O O11 0.952937 0.642140 0.893239
O O12 0.692107 0.123761 0.742517
O O13 0.500000 0.500000 0.975748
O O14 0.000000 0.500000 0.965809
#
# Coordination Sequence:
#
# PCOD8176599 Si02
#       6
#     8   8   8   8   8   8
#     4  10  23  45  66  96 128 177 230 287 368 424
#     4  10  20  37  63  88 127 180 225 269 344 409
#     4  11  22  42  65  97 136 172 232 284 356 412
#     4  10  20  43  65  84 134 178 212 290 342 416
#     4  11  22  39  68  94 134 186 229 279 346 426
#     4  10  23  40  62  97 130 172 226 290 340 423
#
# _framework density 21.751688000000001
#
# number of rings (size 3 to 8) (size 9 to 14) (size 15 to 20)
#    0.000    1.667    5.000    2.000    0.000    5.333 
#    9.000    0.833    0.000    0.000    0.000    0.000 
#    0.000    0.000    0.000    0.000    0.000    0.000 
#
# Total GULP energy -297399.192777 kJ/mol
# GULP energy per Si atom -12391.633032 kJ/mol
# Density = 2.170218 g / cm^3
# Si number density = 21.751688 Si / 1000 Ang^3
#
#
#
# Elastic Constant Matrix: (Units=GPa)
#
#
# Indices 1 2 3 4 5 6 
#
# 1 121.2417 43.8017 21.7726 0.0000 0.0000 0.0000
# 2 43.8017 127.7060 22.7753 0.0000 0.0000 0.0000
# 3 21.7726 22.7753 116.9657 0.0000 0.0000 0.0000
# 4 0.0000 0.0000 0.0000 17.3338 0.0000 0.0000
# 5 0.0000 0.0000 0.0000 0.0000 8.9878 0.0000
# 6 0.0000 0.0000 0.0000 0.0000 0.0000 33.8266
#
#
#
# Elastic Compliance Matrix: (Units=1/GPa)
#
#
# Indices 1 2 3 4 5 6 
#
# 1 0.009570 -0.003071 -0.001183 0.000000 0.000000 0.000000
# 2 -0.003071 0.009098 -0.001200 0.000000 0.000000 0.000000
# 3 -0.001183 -0.001200 0.009003 0.000000 0.000000 0.000000
# 4 0.000000 0.000000 0.000000 0.057691 0.000000 0.000000
# 5 0.000000 0.000000 0.000000 0.000000 0.111261 0.000000
# 6 0.000000 0.000000 0.000000 0.000000 0.000000 0.029563
#
#
# Mechanical properties :
#
#
# Convention : Reuss Voigt Hill
#
# Bulk Modulus (GPa) = 59.65767 60.29029 59.97398
# Shear Modulus (GPa) = 20.60303 30.53390 25.56846
#
# Velocity S-wave (km/s) = 3.08099 3.75073 3.43223
# Velocity P-wave (km/s) = 6.33584 6.82165 6.58323
#
# Compressibility (1/GPa) = 0.01676230
#
# Stress axis : x y z
#
# Youngs Moduli (GPa) = 104.49190 109.91532 111.06897
#
# Poissons Ratio (x) = 0.33759 0.13144
# Poissons Ratio (y) = 0.32094 0.13326
# Poissons Ratio (z) = 0.12365 0.13188
#
# Static dielectric constant tensor:
#      x y z
#    x 4.253710 0.000000 0.000000 
#    y 0.000000 3.783480 0.000000 
#    z 0.000000 0.000000 3.550350 
# 
# 
# High freq. dielectric constant tensor:
#      x y z
#    x 1.867140 0.000000 0.000000 
#    y 0.000000 1.835430 0.000000 
#    z 0.000000 0.000000 1.829390 
# 
# From -- ./inp_files/9743.got.cif
#   From: 2010.03.12/outbox.cif.g09.slc.cpg/sg37_5_cif.got.tgz:9743.got - 2010.04.14 02:25:27.
