data_PCOD8176114
_publ_section_title
;
Structure prediction by ZEFSAII (Michael W. Deem and Ramdas Pophale) SiO2 
 PCOD8176114
Probable space group: C M C 21
;
_chemical_formula_sum "Si O2"
_cell_formula_units_Z 40
_cell_length_a 19.187998
_cell_length_b 10.433021
_cell_length_c 9.035950
_cell_angle_alpha 90.000000
_cell_angle_beta 90.000000
_cell_angle_gamma 90.000000
_cell_volume 1808.895862
_symmetry_space_group_name_H-M "C M C 21"
_symmetry_group_IT_number 36
_symmetry_cell_setting 'orthorhombic'
loop_
_space_group_symop_operation_xyz
x,y,z
-x,-y,1/2+z
x,-y,1/2+z
-x,y,z
1/2+x,1/2+y,z
1/2-x,1/2-y,1/2+z
1/2+x,1/2-y,1/2+z
1/2-x,1/2+y,z
loop_
_atom_site_type_symbol
_atom_site_label
_atom_site_fract_x
_atom_site_fract_y
_atom_site_fract_z
Si Si1 0.786672 0.177143 0.043740
Si Si2 0.418748 0.162715 0.584333
Si Si3 0.180937 0.005681 0.788709
Si Si4 0.653003 0.325958 0.036471
Si Si5 0.919952 0.410454 0.415379
O O1 0.868182 0.218380 0.048411
O O2 0.736619 0.300308 0.046274
O O3 0.771253 0.083655 0.183268
O O4 0.771828 0.096467 0.893578
O O5 0.500000 0.205940 0.576516
O O6 0.398879 0.108038 0.745499
O O7 0.401555 0.054018 0.463832
O O8 0.131833 0.095806 0.684680
O O9 0.134390 0.913443 0.893802
O O10 0.616846 0.189305 0.025846
O O11 0.000000 0.382213 0.441431
#
# Coordination Sequence:
#
# PCOD8176114 Si02
#       5
#     8   8   8   8   8
#     4  11  23  40  64  88 128 161 207 254 306 365
#     4  10  23  42  64  92 124 163 209 255 306 362
#     4  10  24  40  57  96 119 162 212 244 312 372
#     4  11  23  40  64  88 128 161 207 254 306 365
#     4  10  23  42  64  92 124 163 209 255 306 362
#
# _framework density 22.112936000000001
#
# number of rings (size 3 to 8) (size 9 to 14) (size 15 to 20)
#    0.000    1.600    2.000    1.200    8.400    0.000 
#    0.000    6.000    0.000    0.000    0.000    0.000 
#    0.000    0.000    0.000    0.000    0.000    0.000 
#
# Total GULP energy -247961.835594 kJ/mol
# GULP energy per Si atom -12398.091780 kJ/mol
# Density = 2.206261 g / cm^3
# Si number density = 22.112936 Si / 1000 Ang^3
#
#
#
# Elastic Constant Matrix: (Units=GPa)
#
#
# Indices 1 2 3 4 5 6 
#
# 1 70.8064 41.2242 26.0623 0.0000 0.0000 0.0000
# 2 41.2242 102.3464 49.0466 0.0000 0.0000 0.0000
# 3 26.0623 49.0466 141.8219 0.0000 0.0000 0.0000
# 4 0.0000 0.0000 0.0000 40.6201 0.0000 0.0000
# 5 0.0000 0.0000 0.0000 0.0000 18.0214 0.0000
# 6 0.0000 0.0000 0.0000 0.0000 0.0000 30.3543
#
#
#
# Elastic Compliance Matrix: (Units=1/GPa)
#
#
# Indices 1 2 3 4 5 6 
#
# 1 0.018565 -0.007004 -0.000990 0.000000 0.000000 0.000000
# 2 -0.007004 0.014354 -0.003677 0.000000 0.000000 0.000000
# 3 -0.000990 -0.003677 0.008505 0.000000 0.000000 0.000000
# 4 0.000000 0.000000 0.000000 0.024618 0.000000 0.000000
# 5 0.000000 0.000000 0.000000 0.000000 0.055490 0.000000
# 6 0.000000 0.000000 0.000000 0.000000 0.000000 0.032944
#
#
# Mechanical properties :
#
#
# Convention : Reuss Voigt Hill
#
# Bulk Modulus (GPa) = 55.30052 60.84898 58.07475
# Shear Modulus (GPa) = 27.19711 31.04194 29.11953
#
# Velocity S-wave (km/s) = 3.51082 3.75078 3.63279
# Velocity P-wave (km/s) = 6.44182 6.80698 6.62691
#
# Compressibility (1/GPa) = 0.01808301
#
# Stress axis : x y z
#
# Youngs Moduli (GPa) = 53.86546 69.66808 117.58388
#
# Poissons Ratio (x) = 0.48792 0.11636
# Poissons Ratio (y) = 0.37725 0.43235
# Poissons Ratio (z) = 0.05330 0.25617
#
# Static dielectric constant tensor:
#      x y z
#    x 3.546320 0.000000 0.000000 
#    y 0.000000 4.041430 0.000000 
#    z 0.000000 0.000000 4.334470 
# 
# 
# High freq. dielectric constant tensor:
#      x y z
#    x 1.824130 0.000000 0.000000 
#    y 0.000000 1.884340 0.000000 
#    z 0.000000 0.000000 1.889240 
# 
# From -- ./inp_files/4510.got.cif
#   From: 2010.03.12/outbox.cif.g09.slc.cpg/sg36_3_cif.got.tgz:4510.got - 2010.04.14 02:13:53.
