data_PCOD8176664
_publ_section_title
;
Structure prediction by ZEFSAII (Michael W. Deem and Ramdas Pophale) SiO2 
 PCOD8176664
Probable space group: C C C 2
;
_chemical_formula_sum "Si O2"
_cell_formula_units_Z 36
_cell_length_a 11.122944
_cell_length_b 9.217396
_cell_length_c 15.963957
_cell_angle_alpha 90.000000
_cell_angle_beta 90.000000
_cell_angle_gamma 90.000000
_cell_volume 1636.697979
_symmetry_space_group_name_H-M "C C C 2"
_symmetry_group_IT_number 37
_symmetry_cell_setting 'orthorhombic'
loop_
_space_group_symop_operation_xyz
x,y,z
-x,-y,z
-x,y,1/2+z
x,-y,1/2+z
1/2+x,1/2+y,z
1/2-x,1/2-y,z
1/2-x,1/2+y,1/2+z
1/2+x,1/2-y,1/2+z
loop_
_atom_site_type_symbol
_atom_site_label
_atom_site_fract_x
_atom_site_fract_y
_atom_site_fract_z
Si Si1 0.156157 0.135562 0.892170
Si Si2 0.104378 0.658927 0.532849
Si Si3 0.895622 0.158926 0.832995
Si Si4 0.156157 0.364438 0.473674
Si Si5 0.750000 0.250000 0.682922
O O1 0.250000 0.250000 0.850536
O O2 0.038393 0.136532 0.831516
O O3 0.180587 0.960263 0.889381
O O4 0.127488 0.186639 0.987143
O O5 0.961607 0.636535 0.534328
O O6 0.180587 0.539737 0.476464
O O7 0.160735 0.654467 0.625500
O O8 0.872514 0.313362 0.878701
O O9 0.839264 0.154467 0.740344
O O10 0.250000 0.250000 0.515307
#
# Coordination Sequence:
#
# PCOD8176664 Si02
#       5
#     8   8   8   8   4
#     4  10  20  43  67  94 117 177 222 254 308 419
#     4  10  23  40  67  93 131 164 220 263 332 374
#     4  10  23  40  67  93 131 164 220 263 332 374
#     4  10  20  43  67  94 117 177 222 254 308 419
#     4  12  24  44  56  96 136 158 194 298 328 368
#
# _framework density 21.995505000000001
#
# number of rings (size 3 to 8) (size 9 to 14) (size 15 to 20)
#    0.000    1.778    2.222    1.333    0.000    0.000 
#   16.000    0.000    0.000    0.000    0.000    0.000 
#    0.000    0.000    0.000    0.000    0.000    0.000 
#
# Total GULP energy -223022.929801 kJ/mol
# GULP energy per Si atom -12390.162767 kJ/mol
# Density = 2.194544 g / cm^3
# Si number density = 21.995505 Si / 1000 Ang^3
#
#
#
# Elastic Constant Matrix: (Units=GPa)
#
#
# Indices 1 2 3 4 5 6 
#
# 1 78.6270 12.6502 17.8672 0.0000 0.0000 0.0000
# 2 12.6502 129.1993 24.9474 0.0000 0.0000 0.0000
# 3 17.8672 24.9474 113.0773 0.0000 0.0000 0.0000
# 4 0.0000 0.0000 0.0000 21.7255 0.0000 0.0000
# 5 0.0000 0.0000 0.0000 0.0000 45.1261 0.0000
# 6 0.0000 0.0000 0.0000 0.0000 0.0000 31.2345
#
#
#
# Elastic Compliance Matrix: (Units=1/GPa)
#
#
# Indices 1 2 3 4 5 6 
#
# 1 0.013300 -0.000936 -0.001895 0.000000 0.000000 0.000000
# 2 -0.000936 0.008150 -0.001650 0.000000 0.000000 0.000000
# 3 -0.001895 -0.001650 0.009507 0.000000 0.000000 0.000000
# 4 0.000000 0.000000 0.000000 0.046029 0.000000 0.000000
# 5 0.000000 0.000000 0.000000 0.000000 0.022160 0.000000
# 6 0.000000 0.000000 0.000000 0.000000 0.000000 0.032016
#
#
# Mechanical properties :
#
#
# Convention : Reuss Voigt Hill
#
# Bulk Modulus (GPa) = 45.46682 47.98146 46.72414
# Shear Modulus (GPa) = 33.90848 37.31314 35.61081
#
# Velocity S-wave (km/s) = 3.93059 4.12320 4.02805
# Velocity P-wave (km/s) = 6.42769 6.67303 6.55151
#
# Compressibility (1/GPa) = 0.02199406
#
# Stress axis : x y z
#
# Youngs Moduli (GPa) = 75.19075 122.69495 105.18580
#
# Poissons Ratio (x) = 0.11488 0.19931
# Poissons Ratio (y) = 0.07040 0.17358
# Poissons Ratio (z) = 0.14248 0.20247
#
# Static dielectric constant tensor:
#      x y z
#    x 4.822350 0.000000 0.000000 
#    y 0.000000 4.282340 0.000000 
#    z 0.000000 0.000000 3.370490 
# 
# 
# High freq. dielectric constant tensor:
#      x y z
#    x 1.917030 0.000000 0.000000 
#    y 0.000000 1.880550 0.000000 
#    z 0.000000 0.000000 1.807760 
# 
# From -- ./inp_files/11962.got.cif
#   From: 2010.03.12/outbox.cif.g09.slc.cpg/sg37_6_cif.got.tgz:11962.got - 2010.04.14 02:25:27.
