data_PCOD8176635
_publ_section_title
;
Structure prediction by ZEFSAII (Michael W. Deem and Ramdas Pophale) SiO2 
 PCOD8176635
Probable space group: C C C 2
;
_chemical_formula_sum "Si O2"
_cell_formula_units_Z 60
_cell_length_a 13.157111
_cell_length_b 14.456627
_cell_length_c 15.002019
_cell_angle_alpha 90.000000
_cell_angle_beta 90.000000
_cell_angle_gamma 90.000000
_cell_volume 2853.495721
_symmetry_space_group_name_H-M "C C C 2"
_symmetry_group_IT_number 37
_symmetry_cell_setting 'orthorhombic'
loop_
_space_group_symop_operation_xyz
x,y,z
-x,-y,z
-x,y,1/2+z
x,-y,1/2+z
1/2+x,1/2+y,z
1/2-x,1/2-y,z
1/2-x,1/2+y,1/2+z
1/2+x,1/2-y,1/2+z
loop_
_atom_site_type_symbol
_atom_site_label
_atom_site_fract_x
_atom_site_fract_y
_atom_site_fract_z
Si Si1 0.932652 0.756175 0.442160
Si Si2 0.343765 0.317120 0.967394
Si Si3 0.247596 0.042563 0.844376
Si Si4 0.708071 0.072190 0.152608
Si Si5 0.250000 0.750000 0.059545
Si Si6 0.099907 0.956578 0.612351
Si Si7 0.572870 0.583533 0.305488
Si Si8 0.395567 0.956173 0.977864
O O1 0.841912 0.799389 0.502888
O O2 0.938352 0.815746 0.350984
O O3 0.896921 0.648687 0.438493
O O4 0.048779 0.762714 0.476989
O O5 0.250000 0.250000 0.984290
O O6 0.325618 0.370571 0.872664
O O7 0.340728 0.390451 0.046570
O O8 0.318355 0.065134 0.757747
O O9 0.186625 0.949841 0.823149
O O10 0.315025 0.019782 0.928617
O O11 0.700007 0.177954 0.125424
O O12 0.822984 0.036522 0.141675
O O13 0.627498 0.027588 0.083453
O O14 0.057758 0.902174 0.699579
O O15 0.000000 0.000000 0.564034
O O16 0.500000 0.500000 0.341649
O O17 0.500000 0.000000 0.953010
#
# Coordination Sequence:
#
# PCOD8176635 Si02
#       8
#     8   8   8   8   4   8   8   8
#     4  11  23  40  68  95 132 173 223 276 335 394
#     4  12  25  41  63  99 134 173 218 282 340 395
#     4  11  23  41  69  92 131 173 217 276 337 391
#     4  10  22  41  65  93 126 172 214 272 327 399
#     4  10  22  40  66  98 128 172 228 270 326 398
#     4  10  22  40  67  93 131 168 215 273 343 386
#     4  10  20  40  65 103 128 164 220 284 331 391
#     4  11  24  46  63  91 133 181 226 264 329 409
#
# _framework density 21.026841000000001
#
# number of rings (size 3 to 8) (size 9 to 14) (size 15 to 20)
#    0.000    1.333    2.667    3.200    2.800    0.533 
#    6.000    1.333    0.000    0.000    0.000    0.000 
#    0.000    0.000    0.000    0.000    0.000    0.000 
#
# Total GULP energy -371644.058695 kJ/mol
# GULP energy per Si atom -12388.135290 kJ/mol
# Density = 2.097898 g / cm^3
# Si number density = 21.026841 Si / 1000 Ang^3
#
#
#
# Elastic Constant Matrix: (Units=GPa)
#
#
# Indices 1 2 3 4 5 6 
#
# 1 96.3579 22.6418 26.0939 0.0000 0.0000 0.0000
# 2 22.6418 67.5063 45.9934 0.0000 0.0000 0.0000
# 3 26.0939 45.9934 118.5262 0.0000 0.0000 0.0000
# 4 0.0000 0.0000 0.0000 26.8477 0.0000 0.0000
# 5 0.0000 0.0000 0.0000 0.0000 -195.7618 0.0000
# 6 0.0000 0.0000 0.0000 0.0000 0.0000 36.5392
#
#
#
# Elastic Compliance Matrix: (Units=1/GPa)
#
#
# Indices 1 2 3 4 5 6 
#
# 1 0.011434 -0.002882 -0.001399 0.000000 0.000000 0.000000
# 2 -0.002882 0.020864 -0.007462 0.000000 0.000000 0.000000
# 3 -0.001399 -0.007462 0.011640 0.000000 0.000000 0.000000
# 4 0.000000 0.000000 0.000000 0.037247 0.000000 0.000000
# 5 0.000000 0.000000 0.000000 0.000000 -0.005108 0.000000
# 6 0.000000 0.000000 0.000000 0.000000 0.000000 0.027368
#
#
# Mechanical properties :
#
#
# Convention : Reuss Voigt Hill
#
# Bulk Modulus (GPa) = 48.89191 52.42763 50.65977
# Shear Modulus (GPa) = 37.38389 -13.96423 11.70983
#
# Velocity S-wave (km/s) = 4.22110 -2.57984 2.36243
# Velocity P-wave (km/s) = 6.86000 4.01419 5.62020
#
# Compressibility (1/GPa) = 0.02045328
#
# Stress axis : x y z
#
# Youngs Moduli (GPa) = 87.45859 47.93003 85.90795
#
# Poissons Ratio (x) = 0.13813 0.12018
# Poissons Ratio (y) = 0.25204 0.64101
# Poissons Ratio (z) = 0.12235 0.35763
#
# Static dielectric constant tensor:
#      x y z
#    x 21.261990 0.000000 0.000000 
#    y 0.000000 3.805170 0.000000 
#    z 0.000000 0.000000 3.907870 
# 
# 
# High freq. dielectric constant tensor:
#      x y z
#    x 1.829380 0.000000 0.000000 
#    y 0.000000 1.813880 0.000000 
#    z 0.000000 0.000000 1.816970 
# 
# From -- ./inp_files/12276.got.cif
#   From: 2010.03.12/outbox.cif.g09.slc.cpg/sg37_7_cif.got.tgz:12276.got - 2010.04.14 02:25:27.
