data_PCOD8176906
_publ_section_title
;
Structure prediction by ZEFSAII (Michael W. Deem and Ramdas Pophale) SiO2 
 PCOD8176906
Probable space group: C C C 2
;
_chemical_formula_sum "Si O2"
_cell_formula_units_Z 60
_cell_length_a 12.086085
_cell_length_b 26.032838
_cell_length_c 9.633997
_cell_angle_alpha 90.000000
_cell_angle_beta 90.000000
_cell_angle_gamma 90.000000
_cell_volume 3031.193541
_symmetry_space_group_name_H-M "C C C 2"
_symmetry_group_IT_number 37
_symmetry_cell_setting 'orthorhombic'
loop_
_space_group_symop_operation_xyz
x,y,z
-x,-y,z
-x,y,1/2+z
x,-y,1/2+z
1/2+x,1/2+y,z
1/2-x,1/2-y,z
1/2-x,1/2+y,1/2+z
1/2+x,1/2-y,1/2+z
loop_
_atom_site_type_symbol
_atom_site_label
_atom_site_fract_x
_atom_site_fract_y
_atom_site_fract_z
Si Si1 0.734986 0.810603 0.673510
Si Si2 0.719668 0.864467 0.101100
Si Si3 0.900644 0.060802 0.645722
Si Si4 0.028870 0.161148 0.742189
Si Si5 0.814974 0.302760 0.870983
Si Si6 0.500000 0.500000 0.889638
Si Si7 0.910484 0.205217 0.507575
Si Si8 0.927271 0.313559 0.405592
O O1 0.750000 0.750000 0.687967
O O2 0.839013 0.841510 0.732194
O O3 0.726518 0.826706 0.514226
O O4 0.625406 0.827818 0.756944
O O5 0.773395 0.921539 0.116928
O O6 0.710724 0.844667 0.256654
O O7 0.800811 0.828743 0.012543
O O8 0.602891 0.859990 0.015736
O O9 0.908663 0.022849 0.779828
O O10 0.975768 0.108643 0.690881
O O11 0.942863 0.040165 0.495704
O O12 0.977893 0.207676 0.651328
O O13 0.003764 0.177293 0.900293
O O14 0.750000 0.250000 0.834605
O O15 0.946266 0.298006 0.886699
O O16 0.871705 0.261976 0.467181
#
# Coordination Sequence:
#
# PCOD8176906 Si02
#       8
#     8   8   8   8   8   4   8   8
#     4  11  21  35  50  79 117 163 212 247 291 332
#     4  11  23  38  57  86 118 167 206 253 313 365
#     4  10  23  39  67  91 127 146 202 253 332 406
#     4  11  22  35  58  88 118 168 206 251 299 370
#     4  11  25  34  55  82 119 170 220 255 286 342
#     4  10  22  44  64  98 120 148 180 270 348 400
#     4  11  22  34  55  79 124 168 216 250 284 348
#     4  12  22  38  51  79 126 172 213 257 290 338
#
# _framework density 19.794184000000001
#
# number of rings (size 3 to 8) (size 9 to 14) (size 15 to 20)
#    0.000    1.067    2.667    5.200   11.200    0.000 
#    0.000    0.000    0.000    0.000    0.000    2.800 
#    0.000    0.000    0.000    0.000    0.000    0.000 
#
# Total GULP energy -371688.332026 kJ/mol
# GULP energy per Si atom -12389.611068 kJ/mol
# Density = 1.974913 g / cm^3
# Si number density = 19.794184 Si / 1000 Ang^3
#
#
#
# Elastic Constant Matrix: (Units=GPa)
#
#
# Indices 1 2 3 4 5 6 
#
# 1 88.4323 17.4561 18.8314 0.0000 0.0000 0.0000
# 2 17.4561 59.0612 24.5676 0.0000 0.0000 0.0000
# 3 18.8314 24.5676 116.3913 0.0000 0.0000 0.0000
# 4 0.0000 0.0000 0.0000 27.2724 0.0000 0.0000
# 5 0.0000 0.0000 0.0000 0.0000 32.2645 0.0000
# 6 0.0000 0.0000 0.0000 0.0000 0.0000 7.4586
#
#
#
# Elastic Compliance Matrix: (Units=1/GPa)
#
#
# Indices 1 2 3 4 5 6 
#
# 1 0.012193 -0.003051 -0.001329 0.000000 0.000000 0.000000
# 2 -0.003051 0.019325 -0.003585 0.000000 0.000000 0.000000
# 3 -0.001329 -0.003585 0.009563 0.000000 0.000000 0.000000
# 4 0.000000 0.000000 0.000000 0.036667 0.000000 0.000000
# 5 0.000000 0.000000 0.000000 0.000000 0.030994 0.000000
# 6 0.000000 0.000000 0.000000 0.000000 0.000000 0.134073
#
#
# Mechanical properties :
#
#
# Convention : Reuss Voigt Hill
#
# Bulk Modulus (GPa) = 39.75981 42.84390 41.30186
# Shear Modulus (GPa) = 18.71752 26.93442 22.82597
#
# Velocity S-wave (km/s) = 3.07841 3.69280 3.39951
# Velocity P-wave (km/s) = 5.72413 6.31459 6.02660
#
# Compressibility (1/GPa) = 0.02515103
#
# Stress axis : x y z
#
# Youngs Moduli (GPa) = 82.01211 51.74701 104.56435
#
# Poissons Ratio (x) = 0.15789 0.13894
# Poissons Ratio (y) = 0.25023 0.37490
# Poissons Ratio (z) = 0.10898 0.18553
#
# Static dielectric constant tensor:
#      x y z
#    x 3.873770 0.000000 0.000000 
#    y 0.000000 3.325910 0.000000 
#    z 0.000000 0.000000 4.221420 
# 
# 
# High freq. dielectric constant tensor:
#      x y z
#    x 1.764020 0.000000 0.000000 
#    y 0.000000 1.710980 0.000000 
#    z 0.000000 0.000000 1.810350 
# 
# From -- ./inp_files/3039.got.cif
#   From: 2010.03.12/outbox.cif.g09.slc.cpg/sg37_2_cif.got.tgz:3039.got - 2010.04.14 02:25:27.
