data_PCOD8176396
_publ_section_title
;
Structure prediction by ZEFSAII (Michael W. Deem and Ramdas Pophale) SiO2 
 PCOD8176396
Probable space group: C C C 2
;
_chemical_formula_sum "Si O2"
_cell_formula_units_Z 48
_cell_length_a 11.903870
_cell_length_b 24.338214
_cell_length_c 8.852002
_cell_angle_alpha 90.000000
_cell_angle_beta 90.000000
_cell_angle_gamma 90.000000
_cell_volume 2564.592596
_symmetry_space_group_name_H-M "C C C 2"
_symmetry_group_IT_number 37
_symmetry_cell_setting 'orthorhombic'
loop_
_space_group_symop_operation_xyz
x,y,z
-x,-y,z
-x,y,1/2+z
x,-y,1/2+z
1/2+x,1/2+y,z
1/2-x,1/2-y,z
1/2-x,1/2+y,1/2+z
1/2+x,1/2-y,1/2+z
loop_
_atom_site_type_symbol
_atom_site_label
_atom_site_fract_x
_atom_site_fract_y
_atom_site_fract_z
Si Si1 0.844494 0.421792 0.060220
Si Si2 0.587103 0.736565 0.274521
Si Si3 0.873678 0.267871 0.435291
Si Si4 0.404704 0.115937 0.060659
Si Si5 0.773979 0.661324 0.345328
Si Si6 0.375672 0.982798 0.347809
O O1 0.806282 0.456600 0.207165
O O2 0.965104 0.394768 0.099195
O O3 0.768731 0.370474 0.006359
O O4 0.829463 0.460726 0.914187
O O5 0.456551 0.738676 0.316747
O O6 0.645333 0.677942 0.309927
O O7 0.650827 0.784333 0.366265
O O8 0.599231 0.744104 0.097842
O O9 0.750000 0.250000 0.383394
O O10 0.889273 0.333866 0.441722
O O11 0.331596 0.125627 0.211278
O O12 0.365043 0.060289 0.983096
O O13 0.500000 0.000000 0.290584
#
# Coordination Sequence:
#
# PCOD8176396 Si02
#       6
#     8   8   8   8   8   8
#     4  11  19  31  52  79 117 153 188 232 298 352
#     4  10  21  38  55  82 114 155 201 235 288 349
#     4  11  21  39  57  80 119 158 194 245 292 342
#     4  10  18  31  51  74 112 157 185 229 290 342
#     4  10  19  35  53  76 118 154 184 236 285 339
#     4  10  20  30  47  80 115 150 192 232 284 366
#
# _framework density 18.716422000000001
#
# number of rings (size 3 to 8) (size 9 to 14) (size 15 to 20)
#    0.000    1.667    5.000    4.500    2.333    0.000 
#    6.000    0.000    0.000    0.000    0.000    1.167 
#    0.000    0.000    0.000    0.000    0.000    0.000 
#
# Total GULP energy -297326.583646 kJ/mol
# GULP energy per Si atom -12388.607652 kJ/mol
# Density = 1.867382 g / cm^3
# Si number density = 18.716422 Si / 1000 Ang^3
#
#
#
# Elastic Constant Matrix: (Units=GPa)
#
#
# Indices 1 2 3 4 5 6 
#
# 1 93.5370 31.1579 23.9528 0.0000 0.0000 0.0000
# 2 31.1579 78.8085 26.6040 0.0000 0.0000 0.0000
# 3 23.9528 26.6040 46.8801 0.0000 0.0000 0.0000
# 4 0.0000 0.0000 0.0000 33.9729 0.0000 0.0000
# 5 0.0000 0.0000 0.0000 0.0000 16.3674 0.0000
# 6 0.0000 0.0000 0.0000 0.0000 0.0000 23.5745
#
#
#
# Elastic Compliance Matrix: (Units=1/GPa)
#
#
# Indices 1 2 3 4 5 6 
#
# 1 0.013079 -0.003606 -0.004636 0.000000 0.000000 0.000000
# 2 -0.003606 0.016690 -0.007629 0.000000 0.000000 0.000000
# 3 -0.004636 -0.007629 0.028029 0.000000 0.000000 0.000000
# 4 0.000000 0.000000 0.000000 0.029435 0.000000 0.000000
# 5 0.000000 0.000000 0.000000 0.000000 0.061097 0.000000
# 6 0.000000 0.000000 0.000000 0.000000 0.000000 0.042419
#
#
# Mechanical properties :
#
#
# Convention : Reuss Voigt Hill
#
# Bulk Modulus (GPa) = 38.37890 42.51723 40.44807
# Shear Modulus (GPa) = 21.62838 23.95036 22.78937
#
# Velocity S-wave (km/s) = 3.40307 3.58109 3.49322
# Velocity P-wave (km/s) = 5.99927 6.31386 6.15857
#
# Compressibility (1/GPa) = 0.02605598
#
# Stress axis : x y z
#
# Youngs Moduli (GPa) = 76.45603 59.91599 35.67695
#
# Poissons Ratio (x) = 0.21605 0.16541
# Poissons Ratio (y) = 0.27570 0.27218
# Poissons Ratio (z) = 0.35448 0.45710
#
# Static dielectric constant tensor:
#      x y z
#    x 2.891220 0.000000 0.000000 
#    y 0.000000 3.782440 0.000000 
#    z 0.000000 0.000000 3.357990 
# 
# 
# High freq. dielectric constant tensor:
#      x y z
#    x 1.661780 0.000000 0.000000 
#    y 0.000000 1.739480 0.000000 
#    z 0.000000 0.000000 1.731080 
# 
# From -- ./inp_files/2919.got.cif
#   From: 2010.03.12/outbox.cif.g09.slc.cpg/sg37_2_cif.got.tgz:2919.got - 2010.04.14 02:25:27.
