data_PCOD8176367
_publ_section_title
;
Structure prediction by ZEFSAII (Michael W. Deem and Ramdas Pophale) SiO2 
 PCOD8176367
Probable space group: C C C 2
;
_chemical_formula_sum "Si O2"
_cell_formula_units_Z 48
_cell_length_a 14.110959
_cell_length_b 35.033793
_cell_length_c 5.294150
_cell_angle_alpha 90.000000
_cell_angle_beta 90.000000
_cell_angle_gamma 90.000000
_cell_volume 2617.218200
_symmetry_space_group_name_H-M "C C C 2"
_symmetry_group_IT_number 37
_symmetry_cell_setting 'orthorhombic'
loop_
_space_group_symop_operation_xyz
x,y,z
-x,-y,z
-x,y,1/2+z
x,-y,1/2+z
1/2+x,1/2+y,z
1/2-x,1/2-y,z
1/2-x,1/2+y,1/2+z
1/2+x,1/2-y,1/2+z
loop_
_atom_site_type_symbol
_atom_site_label
_atom_site_fract_x
_atom_site_fract_y
_atom_site_fract_z
Si Si1 0.438309 0.896377 0.854970
Si Si2 0.737041 0.839944 0.350662
Si Si3 0.394606 0.983725 0.871767
Si Si4 0.022211 0.775193 0.350326
Si Si5 0.230990 0.205277 0.850621
Si Si6 0.053018 0.144559 0.350620
O O1 0.502656 0.889324 0.609608
O O2 0.395086 0.938520 0.848662
O O3 0.349985 0.868426 0.848953
O O4 0.726711 0.813794 0.101243
O O5 0.834530 0.864994 0.350707
O O6 0.726452 0.813986 0.600901
O O7 0.500000 0.000000 0.901623
O O8 0.341914 0.002601 0.629383
O O9 0.118440 0.798894 0.350195
O O10 0.000056 0.749727 0.600362
O O11 0.944904 0.809124 0.350573
O O12 0.250000 0.250000 0.849950
O O13 0.999979 0.128159 0.600587
#
# Coordination Sequence:
#
# PCOD8176367 Si02
#       6
#     8   8   8   8   8   8
#     4  12  23  38  57  82 126 162 183 233 288 338
#     4  12  23  38  57  82 110 143 184 241 295 332
#     4  10  16  32  59  83 104 155 201 222 259 329
#     4  10  16  32  56  74  93 123 170 229 283 309
#     4  12  23  38  55  79 104 143 189 238 281 356
#     4  10  16  32  59  76  95 126 169 227 282 318
#
# _framework density 18.340084999999998
#
# number of rings (size 3 to 8) (size 9 to 14) (size 15 to 20)
#    0.000    1.000   10.000    1.500    0.000    0.000 
#    0.000    5.000    0.000    0.000    0.000    0.000 
#    0.000    4.000    0.000    0.000    0.000    0.000 
#
# Total GULP energy -297348.608198 kJ/mol
# GULP energy per Si atom -12389.525342 kJ/mol
# Density = 1.829834 g / cm^3
# Si number density = 18.340085 Si / 1000 Ang^3
#
#
#
# Elastic Constant Matrix: (Units=GPa)
#
#
# Indices 1 2 3 4 5 6 
#
# 1 85.9954 47.8213 51.7646 0.0000 0.0000 0.0000
# 2 47.8213 83.0208 44.4954 0.0000 0.0000 0.0000
# 3 51.7646 44.4954 207.6589 0.0000 0.0000 0.0000
# 4 0.0000 0.0000 0.0000 17.5901 0.0000 0.0000
# 5 0.0000 0.0000 0.0000 0.0000 14.8694 0.0000
# 6 0.0000 0.0000 0.0000 0.0000 0.0000 10.8882
#
#
#
# Elastic Compliance Matrix: (Units=1/GPa)
#
#
# Indices 1 2 3 4 5 6 
#
# 1 0.018270 -0.009132 -0.002598 0.000000 0.000000 0.000000
# 2 -0.009132 0.018172 -0.001617 0.000000 0.000000 0.000000
# 3 -0.002598 -0.001617 0.005810 0.000000 0.000000 0.000000
# 4 0.000000 0.000000 0.000000 0.056850 0.000000 0.000000
# 5 0.000000 0.000000 0.000000 0.000000 0.067252 0.000000
# 6 0.000000 0.000000 0.000000 0.000000 0.000000 0.091843
#
#
# Mechanical properties :
#
#
# Convention : Reuss Voigt Hill
#
# Bulk Modulus (GPa) = 64.27415 73.87084 69.07250
# Shear Modulus (GPa) = 17.23681 24.17578 20.70630
#
# Velocity S-wave (km/s) = 3.06901 3.63463 3.36373
# Velocity P-wave (km/s) = 6.90509 7.61445 7.26843
#
# Compressibility (1/GPa) = 0.01555835
#
# Stress axis : x y z
#
# Youngs Moduli (GPa) = 54.73367 55.02947 172.12582
#
# Poissons Ratio (x) = 0.50251 0.44713
# Poissons Ratio (y) = 0.49981 0.27840
# Poissons Ratio (z) = 0.14218 0.08901
#
# Static dielectric constant tensor:
#      x y z
#    x -10.093320 0.000000 0.000000 
#    y 0.000000 2.465230 0.000000 
#    z 0.000000 0.000000 5.018830 
# 
# 
# High freq. dielectric constant tensor:
#      x y z
#    x 1.688950 0.000000 0.000000 
#    y 0.000000 1.650020 0.000000 
#    z 0.000000 0.000000 1.758990 
# 
# From -- ./inp_files/614.got.cif
#   From: 2010.03.12/outbox.cif.g09.slc.cpg/sg37_1_cif.got.tgz:614.got - 2010.04.14 02:25:27.
