data_PCOD8176221
_publ_section_title
;
Structure prediction by ZEFSAII (Michael W. Deem and Ramdas Pophale) SiO2 
 PCOD8176221
Probable space group: C M C 21
;
_chemical_formula_sum "Si O2"
_cell_formula_units_Z 52
_cell_length_a 15.674365
_cell_length_b 7.693843
_cell_length_c 19.585680
_cell_angle_alpha 90.000000
_cell_angle_beta 90.000000
_cell_angle_gamma 90.000000
_cell_volume 2361.956691
_symmetry_space_group_name_H-M "C M C 21"
_symmetry_group_IT_number 36
_symmetry_cell_setting 'orthorhombic'
loop_
_space_group_symop_operation_xyz
x,y,z
-x,-y,1/2+z
x,-y,1/2+z
-x,y,z
1/2+x,1/2+y,z
1/2-x,1/2-y,1/2+z
1/2+x,1/2-y,1/2+z
1/2-x,1/2+y,z
loop_
_atom_site_type_symbol
_atom_site_label
_atom_site_fract_x
_atom_site_fract_y
_atom_site_fract_z
Si Si1 0.000000 0.775954 0.682570
Si Si2 0.836192 0.402698 0.361153
Si Si3 0.408075 0.481442 0.985204
Si Si4 0.000000 0.114499 0.762290
Si Si5 0.863285 0.279180 0.071917
Si Si6 0.342692 0.519442 0.342494
Si Si7 0.500000 0.987355 0.794841
Si Si8 0.681688 0.847808 0.522182
O O1 0.910046 0.734927 0.644982
O O2 0.000000 0.661679 0.750654
O O3 0.000000 0.983341 0.698539
O O4 0.753510 0.472396 0.320363
O O5 0.860522 0.219807 0.327325
O O6 0.813637 0.384566 0.441147
O O7 0.917605 0.523844 0.345303
O O8 0.500000 0.419800 0.956668
O O9 0.344084 0.515098 0.923517
O O10 0.422903 0.663794 0.023242
O O11 0.373227 0.326960 0.034282
O O12 0.000000 0.319840 0.743889
O O13 0.086082 0.091858 0.805439
O O14 0.770882 0.186515 0.061657
O O15 0.861927 0.482973 0.054753
#
# Coordination Sequence:
#
# PCOD8176221 Si02
#       8
#     4   8   8   4   8   8   4   8
#     4  12  30  52  64  98 148 198 252 290 322 448
#     4  11  22  41  72 110 153 169 235 303 369 432
#     4  11  23  39  68 110 142 179 221 289 368 420
#     4  12  26  49  69  95 145 196 246 283 360 416
#     4  12  24  46  71  99 152 179 241 288 350 434
#     4  11  21  40  70 106 145 178 227 296 357 436
#     4  12  28  49  69 107 139 198 242 297 358 428
#     4  11  24  41  70 113 138 179 226 300 372 423
#
# _framework density 22.015643000000001
#
# number of rings (size 3 to 8) (size 9 to 14) (size 15 to 20)
#    0.000    0.615    6.154    1.846    6.462    1.231 
#    2.769    0.000    0.000    0.000    0.000    0.000 
#    0.000    0.000    0.000    0.000    0.000    0.000 
#
# Total GULP energy -322146.093236 kJ/mol
# GULP energy per Si atom -12390.234355 kJ/mol
# Density = 2.196553 g / cm^3
# Si number density = 22.015643 Si / 1000 Ang^3
#
#
#
# Elastic Constant Matrix: (Units=GPa)
#
#
# Indices 1 2 3 4 5 6 
#
# 1 168.8617 25.8350 37.1281 0.0000 0.0000 0.0000
# 2 25.8350 82.9075 25.6186 0.0000 0.0000 0.0000
# 3 37.1281 25.6186 56.5226 0.0000 0.0000 0.0000
# 4 0.0000 0.0000 0.0000 31.1246 0.0000 0.0000
# 5 0.0000 0.0000 0.0000 0.0000 19.7101 0.0000
# 6 0.0000 0.0000 0.0000 0.0000 0.0000 26.2146
#
#
#
# Elastic Compliance Matrix: (Units=1/GPa)
#
#
# Indices 1 2 3 4 5 6 
#
# 1 0.006977 -0.000881 -0.004183 0.000000 0.000000 0.000000
# 2 -0.000881 0.014137 -0.005829 0.000000 0.000000 0.000000
# 3 -0.004183 -0.005829 0.023082 0.000000 0.000000 0.000000
# 4 0.000000 0.000000 0.000000 0.032129 0.000000 0.000000
# 5 0.000000 0.000000 0.000000 0.000000 0.050735 0.000000
# 6 0.000000 0.000000 0.000000 0.000000 0.000000 0.038147
#
#
# Mechanical properties :
#
#
# Convention : Reuss Voigt Hill
#
# Bulk Modulus (GPa) = 44.62495 53.93947 49.28221
# Shear Modulus (GPa) = 25.71182 30.05722 27.88452
#
# Velocity S-wave (km/s) = 3.42115 3.69896 3.56276
# Velocity P-wave (km/s) = 5.99327 6.54192 6.27360
#
# Compressibility (1/GPa) = 0.02240899
#
# Stress axis : x y z
#
# Youngs Moduli (GPa) = 143.33548 70.73446 43.32426
#
# Poissons Ratio (x) = 0.06234 0.18124
# Poissons Ratio (y) = 0.12633 0.25253
# Poissons Ratio (z) = 0.59961 0.41229
#
# Static dielectric constant tensor:
#      x y z
#    x 4.211050 0.000000 0.000000 
#    y 0.000000 4.221890 0.000000 
#    z 0.000000 0.000000 3.492940 
# 
# 
# High freq. dielectric constant tensor:
#      x y z
#    x 1.889710 0.000000 0.000000 
#    y 0.000000 1.883590 0.000000 
#    z 0.000000 0.000000 1.817780 
# 
# From -- ./inp_files/16127.got.cif
#   From: 2010.03.12/outbox.cif.g09.slc.cpg/sg36_9_cif.got.tgz:16127.got - 2010.04.14 02:13:53.
