data_PCOD8176379
_publ_section_title
;
Structure prediction by ZEFSAII (Michael W. Deem and Ramdas Pophale) SiO2 
 PCOD8176379
Probable space group: C C C 2
;
_chemical_formula_sum "Si O2"
_cell_formula_units_Z 56
_cell_length_a 13.442464
_cell_length_b 13.027425
_cell_length_c 16.563779
_cell_angle_alpha 90.000000
_cell_angle_beta 90.000000
_cell_angle_gamma 90.000000
_cell_volume 2900.660434
_symmetry_space_group_name_H-M "C C C 2"
_symmetry_group_IT_number 37
_symmetry_cell_setting 'orthorhombic'
loop_
_space_group_symop_operation_xyz
x,y,z
-x,-y,z
-x,y,1/2+z
x,-y,1/2+z
1/2+x,1/2+y,z
1/2-x,1/2-y,z
1/2-x,1/2+y,1/2+z
1/2+x,1/2-y,1/2+z
loop_
_atom_site_type_symbol
_atom_site_label
_atom_site_fract_x
_atom_site_fract_y
_atom_site_fract_z
Si Si1 0.697513 0.141006 0.725990
Si Si2 0.196802 0.548020 0.895971
Si Si3 0.549354 0.776331 0.100881
Si Si4 0.903372 0.936189 0.469113
Si Si5 0.188154 0.339056 0.966689
Si Si6 0.661827 0.578677 0.099573
Si Si7 0.639646 0.780424 0.519911
O O1 0.750000 0.250000 0.742263
O O2 0.664714 0.089205 0.809048
O O3 0.599109 0.156407 0.671624
O O4 0.775895 0.064049 0.682185
O O5 0.316222 0.542222 0.904922
O O6 0.157651 0.432118 0.907658
O O7 0.147331 0.620892 0.962918
O O8 0.568766 0.654945 0.115765
O O9 0.431018 0.802624 0.097488
O O10 0.588125 0.803128 0.010767
O O11 0.915823 0.813392 0.472514
O O12 0.875086 0.972545 0.560555
O O13 0.000000 0.000000 0.439210
O O14 0.250000 0.250000 0.918392
O O15 0.263762 0.367944 0.037732
O O16 0.750000 0.750000 0.549458
#
# Coordination Sequence:
#
# PCOD8176379 Si02
#       7
#     8   8   8   8   8   8   8
#     4   9  17  32  55  81 113 144 184 233 283 327
#     4  10  20  33  53  85 120 141 175 244 297 336
#     4   9  16  31  55  78 104 145 196 226 265 339
#     4  10  17  30  53  78 112 151 185 225 275 332
#     4   8  16  31  55  80 103 140 192 232 268 335
#     4   8  15  29  53  80 101 142 188 226 256 328
#     4  10  20  31  52  84 116 144 183 236 281 331
#
# _framework density 19.305947
#
# number of rings (size 3 to 8) (size 9 to 14) (size 15 to 20)
#    0.000    2.857    1.429    3.000    0.000    0.571 
#    0.000    0.714    3.143   19.714    0.000    3.000 
#    0.000    0.000    0.000    0.000    0.000    0.000 
#
# Total GULP energy -346920.745638 kJ/mol
# GULP energy per Si atom -12390.026630 kJ/mol
# Density = 1.926201 g / cm^3
# Si number density = 19.305947 Si / 1000 Ang^3
#
#
#
# Elastic Constant Matrix: (Units=GPa)
#
#
# Indices 1 2 3 4 5 6 
#
# 1 101.2717 25.7374 35.6752 0.0000 0.0000 0.0000
# 2 25.7374 102.8197 31.1739 0.0000 0.0000 0.0000
# 3 35.6752 31.1739 84.4889 0.0000 0.0000 0.0000
# 4 0.0000 0.0000 0.0000 27.7567 0.0000 0.0000
# 5 0.0000 0.0000 0.0000 0.0000 18.4264 0.0000
# 6 0.0000 0.0000 0.0000 0.0000 0.0000 24.2379
#
#
#
# Elastic Compliance Matrix: (Units=1/GPa)
#
#
# Indices 1 2 3 4 5 6 
#
# 1 0.011838 -0.001630 -0.004397 0.000000 0.000000 0.000000
# 2 -0.001630 0.011175 -0.003435 0.000000 0.000000 0.000000
# 3 -0.004397 -0.003435 0.014960 0.000000 0.000000 0.000000
# 4 0.000000 0.000000 0.000000 0.036027 0.000000 0.000000
# 5 0.000000 0.000000 0.000000 0.000000 0.054270 0.000000
# 6 0.000000 0.000000 0.000000 0.000000 0.000000 0.041258
#
#
# Mechanical properties :
#
#
# Convention : Reuss Voigt Hill
#
# Bulk Modulus (GPa) = 52.49708 52.63924 52.56816
# Shear Modulus (GPa) = 25.66719 27.15047 26.40883
#
# Velocity S-wave (km/s) = 3.65018 3.75417 3.70254
# Velocity P-wave (km/s) = 6.70942 6.79093 6.75030
#
# Compressibility (1/GPa) = 0.01904868
#
# Stress axis : x y z
#
# Youngs Moduli (GPa) = 84.47650 89.48333 66.84530
#
# Poissons Ratio (x) = 0.14586 0.29392
# Poissons Ratio (y) = 0.13770 0.22962
# Poissons Ratio (z) = 0.37144 0.30738
#
# Static dielectric constant tensor:
#      x y z
#    x 3.634600 0.000000 0.000000 
#    y 0.000000 3.730870 0.000000 
#    z 0.000000 0.000000 3.120460 
# 
# 
# High freq. dielectric constant tensor:
#      x y z
#    x 1.749160 0.000000 0.000000 
#    y 0.000000 1.751720 0.000000 
#    z 0.000000 0.000000 1.697120 
# 
# From -- ./inp_files/12213.got.cif
#   From: 2010.03.12/outbox.cif.g09.slc.cpg/sg37_7_cif.got.tgz:12213.got - 2010.04.14 02:25:27.
