data_PCOD8176465
_publ_section_title
;
Structure prediction by ZEFSAII (Michael W. Deem and Ramdas Pophale) SiO2 
 PCOD8176465
Probable space group: C C C 2
;
_chemical_formula_sum "Si O2"
_cell_formula_units_Z 60
_cell_length_a 20.133094
_cell_length_b 12.246979
_cell_length_c 12.031532
_cell_angle_alpha 90.000000
_cell_angle_beta 90.000000
_cell_angle_gamma 90.000000
_cell_volume 2966.609785
_symmetry_space_group_name_H-M "C C C 2"
_symmetry_group_IT_number 37
_symmetry_cell_setting 'orthorhombic'
loop_
_space_group_symop_operation_xyz
x,y,z
-x,-y,z
-x,y,1/2+z
x,-y,1/2+z
1/2+x,1/2+y,z
1/2-x,1/2-y,z
1/2-x,1/2+y,1/2+z
1/2+x,1/2-y,1/2+z
loop_
_atom_site_type_symbol
_atom_site_label
_atom_site_fract_x
_atom_site_fract_y
_atom_site_fract_z
Si Si1 0.000000 0.000000 0.139320
Si Si2 0.875300 0.038819 0.489756
Si Si3 0.060351 0.366440 0.681702
Si Si4 0.310689 0.332808 0.410500
Si Si5 0.590228 0.095048 0.732037
Si Si6 0.933011 0.708314 0.443202
Si Si7 0.544736 0.667188 0.811699
Si Si8 0.822424 0.216703 0.655870
O O1 0.998690 0.894345 0.220388
O O2 0.935394 0.012297 0.061733
O O3 0.905394 0.085375 0.373999
O O4 0.846955 0.135441 0.562912
O O5 0.812989 0.957423 0.458863
O O6 0.108854 0.469144 0.706809
O O7 0.048391 0.358647 0.551139
O O8 0.087766 0.258628 0.744333
O O9 0.987773 0.387600 0.727648
O O10 0.250000 0.250000 0.442479
O O11 0.376354 0.293885 0.474081
O O12 0.320352 0.338549 0.277684
O O13 0.604862 0.124961 0.859723
O O14 0.631129 0.175816 0.652639
O O15 0.996905 0.773713 0.399803
O O16 0.750000 0.250000 0.617777
#
# Coordination Sequence:
#
# PCOD8176465 Si02
#       8
#     4   8   8   8   8   8   8   8
#     4  12  22  36  60  90 122 154 190 252 326 372
#     4  12  22  36  62  90 118 154 199 255 309 367
#     4  10  20  33  55  85 116 148 187 244 305 363
#     4  10  22  39  57  81 114 156 202 244 295 364
#     4   9  20  35  53  81 114 152 196 238 293 369
#     4  10  19  35  55  79 114 152 190 240 304 362
#     4  11  21  34  56  91 121 146 193 250 309 373
#     4  10  22  41  60  81 115 160 204 242 293 357
#
# _framework density 20.225107999999999
#
# number of rings (size 3 to 8) (size 9 to 14) (size 15 to 20)
#    0.000    1.600    0.000    7.600    0.000    6.400 
#    0.000    2.667    0.000    4.000    0.000    0.000 
#    0.000    0.000    0.000    0.000    0.000    0.000 
#
# Total GULP energy -371710.418982 kJ/mol
# GULP energy per Si atom -12390.347299 kJ/mol
# Density = 2.017907 g / cm^3
# Si number density = 20.225108 Si / 1000 Ang^3
#
#
#
# Elastic Constant Matrix: (Units=GPa)
#
#
# Indices 1 2 3 4 5 6 
#
# 1 69.9428 39.3000 21.4213 0.0000 0.0000 0.0000
# 2 39.3000 144.5656 58.2673 0.0000 0.0000 0.0000
# 3 21.4213 58.2673 86.4084 0.0000 0.0000 0.0000
# 4 0.0000 0.0000 0.0000 26.8593 0.0000 0.0000
# 5 0.0000 0.0000 0.0000 0.0000 21.5751 0.0000
# 6 0.0000 0.0000 0.0000 0.0000 0.0000 33.3740
#
#
#
# Elastic Compliance Matrix: (Units=1/GPa)
#
#
# Indices 1 2 3 4 5 6 
#
# 1 0.017017 -0.004018 -0.001509 0.000000 0.000000 0.000000
# 2 -0.004018 0.010448 -0.006049 0.000000 0.000000 0.000000
# 3 -0.001509 -0.006049 0.016026 0.000000 0.000000 0.000000
# 4 0.000000 0.000000 0.000000 0.037231 0.000000 0.000000
# 5 0.000000 0.000000 0.000000 0.000000 0.046350 0.000000
# 6 0.000000 0.000000 0.000000 0.000000 0.000000 0.029963
#
#
# Mechanical properties :
#
#
# Convention : Reuss Voigt Hill
#
# Bulk Modulus (GPa) = 49.16777 59.87713 54.52245
# Shear Modulus (GPa) = 26.74270 28.49024 27.61647
#
# Velocity S-wave (km/s) = 3.64022 3.75728 3.69921
# Velocity P-wave (km/s) = 6.48316 6.96365 6.72770
#
# Compressibility (1/GPa) = 0.02033853
#
# Stress axis : x y z
#
# Youngs Moduli (GPa) = 58.76402 95.71627 62.39808
#
# Poissons Ratio (x) = 0.38456 0.09419
# Poissons Ratio (y) = 0.23610 0.37745
# Poissons Ratio (z) = 0.08870 0.57899
#
# Static dielectric constant tensor:
#      x y z
#    x 3.099160 0.000000 0.000000 
#    y 0.000000 4.275180 0.000000 
#    z 0.000000 0.000000 3.707640 
# 
# 
# High freq. dielectric constant tensor:
#      x y z
#    x 1.755580 0.000000 0.000000 
#    y 0.000000 1.802780 0.000000 
#    z 0.000000 0.000000 1.793120 
# 
# From -- ./inp_files/8641.got.cif
#   From: 2010.03.12/outbox.cif.g09.slc.cpg/sg37_5_cif.got.tgz:8641.got - 2010.04.14 02:25:27.
