data_PCOD8176018
_publ_section_title
;
Structure prediction by ZEFSAII (Michael W. Deem and Ramdas Pophale) SiO2 
 PCOD8176018
Probable space group: C M C 21
;
_chemical_formula_sum "Si O2"
_cell_formula_units_Z 36
_cell_length_a 7.496208
_cell_length_b 15.468597
_cell_length_c 16.970336
_cell_angle_alpha 90.000000
_cell_angle_beta 90.000000
_cell_angle_gamma 90.000000
_cell_volume 1967.809236
_symmetry_space_group_name_H-M "C M C 21"
_symmetry_group_IT_number 36
_symmetry_cell_setting 'orthorhombic'
loop_
_space_group_symop_operation_xyz
x,y,z
-x,-y,1/2+z
x,-y,1/2+z
-x,y,z
1/2+x,1/2+y,z
1/2-x,1/2-y,1/2+z
1/2+x,1/2-y,1/2+z
1/2-x,1/2+y,z
loop_
_atom_site_type_symbol
_atom_site_label
_atom_site_fract_x
_atom_site_fract_y
_atom_site_fract_z
Si Si1 0.294948 0.404392 0.763830
Si Si2 0.000000 0.345357 0.872087
Si Si3 0.795508 0.246898 0.654166
Si Si4 0.000000 0.845587 0.375681
Si Si5 0.000000 0.253257 0.025143
Si Si6 0.704212 0.091985 0.769672
O O1 0.500000 0.389786 0.786674
O O2 0.236010 0.337359 0.697522
O O3 0.258719 0.500540 0.730292
O O4 0.178016 0.393702 0.843091
O O5 0.000000 0.248959 0.833087
O O6 0.000000 0.337416 0.967228
O O7 0.678457 0.245650 0.575711
O O8 0.738153 0.166339 0.706860
O O9 0.000000 0.238246 0.628475
O O10 0.000000 0.833525 0.470393
O O11 0.823119 0.895661 0.348025
O O12 0.500000 0.092891 0.796925
#
# Coordination Sequence:
#
# PCOD8176018 Si02
#       6
#     8   4   8   4   4   8
#     4  12  21  37  68  91 115 156 207 249 289 349
#     4  10  22  41  57  91 120 152 204 244 287 363
#     4  12  21  39  63  93 120 157 196 250 299 352
#     4  10  22  41  57  91 120 152 204 244 287 363
#     4  10  24  38  62  84 130 158 194 238 310 354
#     4  12  21  37  68  91 115 156 207 249 289 349
#
# _framework density 18.294456
#
# number of rings (size 3 to 8) (size 9 to 14) (size 15 to 20)
#    0.667    0.000    8.889    0.000    0.000    1.778 
#    0.000    2.222    0.000    0.000    0.000    0.000 
#    0.000    0.000    0.000    0.000    0.000    0.000 
#
# Total GULP energy -223180.980579 kJ/mol
# GULP energy per Si atom -12398.943365 kJ/mol
# Density = 1.825282 g / cm^3
# Si number density = 18.294456 Si / 1000 Ang^3
#
#
#
# Elastic Constant Matrix: (Units=GPa)
#
#
# Indices 1 2 3 4 5 6 
#
# 1 157.9896 -10.0719 33.5553 0.0000 0.0000 0.0000
# 2 -10.0719 75.7854 9.3933 0.0000 0.0000 0.0000
# 3 33.5553 9.3933 95.7248 0.0000 0.0000 0.0000
# 4 0.0000 0.0000 0.0000 7.5605 0.0000 0.0000
# 5 0.0000 0.0000 0.0000 0.0000 32.0289 0.0000
# 6 0.0000 0.0000 0.0000 0.0000 0.0000 30.1454
#
#
#
# Elastic Compliance Matrix: (Units=1/GPa)
#
#
# Indices 1 2 3 4 5 6 
#
# 1 0.006952 0.001241 -0.002559 0.000000 0.000000 0.000000
# 2 0.001241 0.013579 -0.001768 0.000000 0.000000 0.000000
# 3 -0.002559 -0.001768 0.011517 0.000000 0.000000 0.000000
# 4 0.000000 0.000000 0.000000 0.132266 0.000000 0.000000
# 5 0.000000 0.000000 0.000000 0.000000 0.031222 0.000000
# 6 0.000000 0.000000 0.000000 0.000000 0.000000 0.033173
#
#
# Mechanical properties :
#
#
# Convention : Reuss Voigt Hill
#
# Bulk Modulus (GPa) = 38.64315 43.91703 41.28009
# Shear Modulus (GPa) = 20.53343 33.72184 27.12763
#
# Velocity S-wave (km/s) = 3.35384 4.29800 3.85494
# Velocity P-wave (km/s) = 6.01385 6.97769 6.51362
#
# Compressibility (1/GPa) = 0.02587781
#
# Stress axis : x y z
#
# Youngs Moduli (GPa) = 143.84137 73.64223 86.82810
#
# Poissons Ratio (x) = -0.09140 0.22217
# Poissons Ratio (y) = -0.17852 0.15347
# Poissons Ratio (z) = 0.36806 0.13017
#
# Static dielectric constant tensor:
#      x y z
#    x 3.668950 0.000000 0.000000 
#    y 0.000000 3.572570 0.000000 
#    z 0.000000 0.000000 3.073050 
# 
# 
# High freq. dielectric constant tensor:
#      x y z
#    x 1.733250 0.000000 0.000000 
#    y 0.000000 1.717730 0.000000 
#    z 0.000000 0.000000 1.675490 
# 
# From -- ./inp_files/13367.got.cif
#   From: 2010.03.12/outbox.cif.g09.slc.cpg/sg36_7_cif.got.tgz:13367.got - 2010.04.14 02:13:53.
