data_PCOD8176345
_publ_section_title
;
Structure prediction by ZEFSAII (Michael W. Deem and Ramdas Pophale) SiO2 
 PCOD8176345
Probable space group: C M C 21
;
_chemical_formula_sum "Si O2"
_cell_formula_units_Z 64
_cell_length_a 9.396158
_cell_length_b 28.461780
_cell_length_c 14.253827
_cell_angle_alpha 90.000000
_cell_angle_beta 90.000000
_cell_angle_gamma 90.000000
_cell_volume 3811.920651
_symmetry_space_group_name_H-M "C M C 21"
_symmetry_group_IT_number 36
_symmetry_cell_setting 'orthorhombic'
loop_
_space_group_symop_operation_xyz
x,y,z
-x,-y,1/2+z
x,-y,1/2+z
-x,y,z
1/2+x,1/2+y,z
1/2-x,1/2-y,1/2+z
1/2+x,1/2-y,1/2+z
1/2-x,1/2+y,z
loop_
_atom_site_type_symbol
_atom_site_label
_atom_site_fract_x
_atom_site_fract_y
_atom_site_fract_z
Si Si1 0.168055 0.577805 0.215080
Si Si2 0.830848 0.498786 0.569012
Si Si3 0.330848 0.998785 0.861151
Si Si4 0.830452 0.573337 0.715082
Si Si5 0.669330 0.177915 0.715083
Si Si6 0.833495 0.749813 0.561591
Si Si7 0.335833 0.326196 0.715080
Si Si8 0.166505 0.250185 0.368571
O O1 0.216434 0.548461 0.123153
O O2 0.216435 0.548462 0.307007
O O3 0.241370 0.627765 0.215079
O O4 0.000000 0.585869 0.215080
O O5 0.763578 0.500001 0.465081
O O6 0.776681 0.545184 0.623452
O O7 0.000000 0.499916 0.564630
O O8 0.500000 0.999914 0.865532
O O9 0.276681 0.045183 0.806712
O O10 0.764708 0.625588 0.715083
O O11 0.000000 0.576121 0.715082
O O12 0.500000 0.177403 0.715083
O O13 0.720019 0.204939 0.621595
O O14 0.720019 0.204940 0.808570
O O15 0.800442 0.796447 0.621781
O O16 0.750000 0.749999 0.465081
O O17 0.000000 0.746043 0.539283
O O18 0.500000 0.341031 0.715079
O O19 0.300443 0.296448 0.808380
O O20 0.000000 0.253956 0.390879
#
# Coordination Sequence:
#
# PCOD8176345 Si02
#       8
#     8   8   8   8   8   8   8   8
#     4   9  17  28  45  69  89 112 154 192 216 262
#     4   8  14  24  38  62  94 115 133 178 233 262
#     4   8  14  24  38  62  94 115 133 178 233 262
#     4   8  13  22  37  57  83 114 141 167 211 265
#     4   8  15  28  44  63  89 120 149 177 219 275
#     4   9  18  32  48  67  91 118 150 186 224 268
#     4   9  19  34  47  63  95 130 150 178 232 280
#     4   9  18  32  48  67  91 118 150 186 224 268
#
# _framework density 16.789437
#
# number of rings (size 3 to 8) (size 9 to 14) (size 15 to 20)
#    0.000    3.500    0.000    3.000    0.000    3.000 
#    0.000    6.875    0.000    0.750    0.000    7.000 
#    0.000    0.000    0.000    0.000    0.000    0.000 
#
# Total GULP energy -396583.179146 kJ/mol
# GULP energy per Si atom -12393.224348 kJ/mol
# Density = 1.675122 g / cm^3
# Si number density = 16.789437 Si / 1000 Ang^3
#
#
#
# Elastic Constant Matrix: (Units=GPa)
#
#
# Indices 1 2 3 4 5 6 
#
# 1 30.4755 39.4063 39.4129 0.0000 0.0000 0.0000
# 2 39.4063 167.4680 85.8786 0.0000 0.0000 0.0000
# 3 39.4129 85.8786 179.1353 0.0000 0.0000 0.0000
# 4 0.0000 0.0000 0.0000 13.9747 0.0000 0.0000
# 5 0.0000 0.0000 0.0000 0.0000 22.4994 0.0000
# 6 0.0000 0.0000 0.0000 0.0000 0.0000 22.8017
#
#
#
# Elastic Compliance Matrix: (Units=1/GPa)
#
#
# Indices 1 2 3 4 5 6 
#
# 1 0.054134 -0.008792 -0.007696 0.000000 0.000000 0.000000
# 2 -0.008792 0.009346 -0.002546 0.000000 0.000000 0.000000
# 3 -0.007696 -0.002546 0.008496 0.000000 0.000000 0.000000
# 4 0.000000 0.000000 0.000000 0.071558 0.000000 0.000000
# 5 0.000000 0.000000 0.000000 0.000000 0.044446 0.000000
# 6 0.000000 0.000000 0.000000 0.000000 0.000000 0.043856
#
#
# Mechanical properties :
#
#
# Convention : Reuss Voigt Hill
#
# Bulk Modulus (GPa) = 29.49077 78.49716 53.99397
# Shear Modulus (GPa) = 17.78061 26.01389 21.89725
#
# Velocity S-wave (km/s) = 3.25781 3.94054 3.61533
# Velocity P-wave (km/s) = 5.63510 8.21944 7.04676
#
# Compressibility (1/GPa) = 0.03390891
#
# Stress axis : x y z
#
# Youngs Moduli (GPa) = 18.47275 107.00153 117.70067
#
# Poissons Ratio (x) = 0.94072 0.90578
# Poissons Ratio (y) = 0.16241 0.29967
# Poissons Ratio (z) = 0.14216 0.27243
#
# Static dielectric constant tensor:
#      x y z
#    x 2.595720 0.000000 0.000000 
#    y 0.000000 3.372270 0.000000 
#    z 0.000000 0.000000 3.522390 
# 
# 
# High freq. dielectric constant tensor:
#      x y z
#    x 1.589280 0.000000 0.000000 
#    y 0.000000 1.654690 0.000000 
#    z 0.000000 0.000000 1.655840 
# 
# From -- ./inp_files/11218.got.cif
#   From: 2010.03.12/outbox.cif.g09.slc.cpg/sg36_6_cif.got.tgz:11218.got - 2010.04.14 02:13:53.
