data_PCOD8176716
_publ_section_title
;
Structure prediction by ZEFSAII (Michael W. Deem and Ramdas Pophale) SiO2 
 PCOD8176716
Probable space group: C C C 2
;
_chemical_formula_sum "Si O2"
_cell_formula_units_Z 48
_cell_length_a 17.589840
_cell_length_b 9.549441
_cell_length_c 14.920806
_cell_angle_alpha 90.000000
_cell_angle_beta 90.000000
_cell_angle_gamma 90.000000
_cell_volume 2506.294624
_symmetry_space_group_name_H-M "C C C 2"
_symmetry_group_IT_number 37
_symmetry_cell_setting 'orthorhombic'
loop_
_space_group_symop_operation_xyz
x,y,z
-x,-y,z
-x,y,1/2+z
x,-y,1/2+z
1/2+x,1/2+y,z
1/2-x,1/2-y,z
1/2-x,1/2+y,1/2+z
1/2+x,1/2-y,1/2+z
loop_
_atom_site_type_symbol
_atom_site_label
_atom_site_fract_x
_atom_site_fract_y
_atom_site_fract_z
Si Si1 0.451449 0.137234 0.321340
Si Si2 0.297021 0.391819 0.699700
Si Si3 0.451819 0.137358 0.530082
Si Si4 0.779976 0.406030 0.832502
Si Si5 0.528175 0.343491 0.184070
Si Si6 0.219615 0.402216 0.527703
O O1 0.455326 0.182077 0.425840
O O2 0.365573 0.096881 0.294454
O O3 0.481783 0.267019 0.263188
O O4 0.500000 0.000000 0.300381
O O5 0.250000 0.250000 0.708964
O O6 0.276458 0.500166 0.775900
O O7 0.383921 0.350438 0.709814
O O8 0.274626 0.466748 0.604460
O O9 0.484907 0.262941 0.590258
O O10 0.366607 0.104295 0.562971
O O11 0.500000 0.000000 0.549368
O O12 0.750000 0.250000 0.831215
O O13 0.777955 0.479261 0.931498
O O14 0.500000 0.500000 0.170662
O O15 0.250000 0.250000 0.505445
#
# Coordination Sequence:
#
# PCOD8176716 Si02
#       6
#     8   8   8   8   8   8
#     4  10  22  40  63  89 115 155 205 249 289 348
#     4  11  21  39  62  85 116 157 195 235 297 356
#     4  10  21  39  63  87 115 159 206 243 288 354
#     4  10  21  38  62  86 115 152 197 241 290 349
#     4  12  24  38  58  93 125 154 192 246 308 354
#     4   9  18  38  62  82 112 158 196 228 295 356
#
# _framework density 19.151778
#
# number of rings (size 3 to 8) (size 9 to 14) (size 15 to 20)
#    0.000    1.667    3.333    2.500    2.333    0.667 
#    3.000    0.833    0.000    0.000    0.000    0.000 
#    0.000    0.000    0.000    0.000    0.000    0.000 
#
# Total GULP energy -297520.050621 kJ/mol
# GULP energy per Si atom -12396.668776 kJ/mol
# Density = 1.910819 g / cm^3
# Si number density = 19.151778 Si / 1000 Ang^3
#
#
#
# Elastic Constant Matrix: (Units=GPa)
#
#
# Indices 1 2 3 4 5 6 
#
# 1 81.7212 15.7179 8.2743 0.0000 0.0000 0.0000
# 2 15.7179 85.6770 36.5155 0.0000 0.0000 0.0000
# 3 8.2743 36.5155 99.4201 0.0000 0.0000 0.0000
# 4 0.0000 0.0000 0.0000 42.9808 0.0000 0.0000
# 5 0.0000 0.0000 0.0000 0.0000 117.5163 0.0000
# 6 0.0000 0.0000 0.0000 0.0000 0.0000 29.0898
#
#
#
# Elastic Compliance Matrix: (Units=1/GPa)
#
#
# Indices 1 2 3 4 5 6 
#
# 1 0.012689 -0.002226 -0.000238 0.000000 0.000000 0.000000
# 2 -0.002226 0.014228 -0.005041 0.000000 0.000000 0.000000
# 3 -0.000238 -0.005041 0.011930 0.000000 0.000000 0.000000
# 4 0.000000 0.000000 0.000000 0.023266 0.000000 0.000000
# 5 0.000000 0.000000 0.000000 0.000000 0.008509 0.000000
# 6 0.000000 0.000000 0.000000 0.000000 0.000000 0.034376
#
#
# Mechanical properties :
#
#
# Convention : Reuss Voigt Hill
#
# Bulk Modulus (GPa) = 41.95247 43.09263 42.52255
# Shear Modulus (GPa) = 39.07622 51.67142 45.37382
#
# Velocity S-wave (km/s) = 4.52192 5.19986 4.87269
# Velocity P-wave (km/s) = 7.01544 7.65512 7.34225
#
# Compressibility (1/GPa) = 0.02383650
#
# Stress axis : x y z
#
# Youngs Moduli (GPa) = 78.80806 70.28154 83.82569
#
# Poissons Ratio (x) = 0.15647 0.01998
# Poissons Ratio (y) = 0.17545 0.42253
# Poissons Ratio (z) = 0.01879 0.35426
#
# Static dielectric constant tensor:
#      x y z
#    x 3.257400 0.000000 0.000000 
#    y 0.000000 3.191710 0.000000 
#    z 0.000000 0.000000 3.966490 
# 
# 
# High freq. dielectric constant tensor:
#      x y z
#    x 1.759150 0.000000 0.000000 
#    y 0.000000 1.720690 0.000000 
#    z 0.000000 0.000000 1.758580 
# 
# From -- ./inp_files/10583.got.cif
#   From: 2010.03.12/outbox.cif.g09.slc.cpg/sg37_6_cif.got.tgz:10583.got - 2010.04.14 02:25:27.
