data_PCOD8176608
_publ_section_title
;
Structure prediction by ZEFSAII (Michael W. Deem and Ramdas Pophale) SiO2 
 PCOD8176608
Probable space group: C C C 2
;
_chemical_formula_sum "Si O2"
_cell_formula_units_Z 64
_cell_length_a 8.758779
_cell_length_b 14.718642
_cell_length_c 24.399320
_cell_angle_alpha 90.000000
_cell_angle_beta 90.000000
_cell_angle_gamma 90.000000
_cell_volume 3145.495248
_symmetry_space_group_name_H-M "C C C 2"
_symmetry_group_IT_number 37
_symmetry_cell_setting 'orthorhombic'
loop_
_space_group_symop_operation_xyz
x,y,z
-x,-y,z
-x,y,1/2+z
x,-y,1/2+z
1/2+x,1/2+y,z
1/2-x,1/2-y,z
1/2-x,1/2+y,1/2+z
1/2+x,1/2-y,1/2+z
loop_
_atom_site_type_symbol
_atom_site_label
_atom_site_fract_x
_atom_site_fract_y
_atom_site_fract_z
Si Si1 0.824401 0.651593 0.539690
Si Si2 0.383971 0.912825 0.667048
Si Si3 0.818933 0.006563 0.472655
Si Si4 0.684927 0.153310 0.158713
Si Si5 0.689927 0.649038 0.266966
Si Si6 0.172212 0.848802 0.265326
Si Si7 0.821549 0.651041 0.050870
Si Si8 0.319392 0.502429 0.349045
O O1 0.750000 0.750000 0.532124
O O2 0.754997 0.584682 0.495453
O O3 0.794485 0.604526 0.599664
O O4 0.004950 0.661033 0.531028
O O5 0.505593 0.830637 0.673048
O O6 0.256773 0.902488 0.713655
O O7 0.304469 0.905127 0.607708
O O8 0.500000 0.000000 0.671813
O O9 0.768904 0.096639 0.504331
O O10 0.756744 0.012142 0.410357
O O11 0.000000 0.000000 0.475138
O O12 0.750000 0.250000 0.148086
O O13 0.772838 0.102838 0.208278
O O14 0.750000 0.750000 0.274777
O O15 0.508650 0.655107 0.262805
O O16 0.740666 0.589541 0.319726
O O17 0.250000 0.750000 0.269388
O O18 0.235065 0.909093 0.315126
O O19 0.750000 0.750000 0.058420
O O20 0.500000 0.500000 0.349126
#
# Coordination Sequence:
#
# PCOD8176608 Si02
#       8
#     8   8   8   8   8   8   8   8
#     4  10  21  39  61  88 121 155 194 244 301 358
#     4  11  22  38  60  89 125 157 194 244 296 354
#     4  11  23  41  62  85 116 157 205 252 300 356
#     4   9  18  34  56  83 115 146 180 227 284 346
#     4  11  22  37  60  90 121 155 197 244 297 355
#     4  10  20  38  61  86 119 154 193 241 296 356
#     4  11  23  40  61  90 124 158 198 248 303 361
#     4   9  22  41  58  81 116 156 200 248 295 350
#
# _framework density 20.346558000000002
#
# number of rings (size 3 to 8) (size 9 to 14) (size 15 to 20)
#    0.000    1.750    0.000    5.250    0.000    5.000 
#    0.000   10.000    0.000    0.000    0.000    0.000 
#    0.000    0.000    0.000    0.000    0.000    0.000 
#
# Total GULP energy -396532.309812 kJ/mol
# GULP energy per Si atom -12391.634682 kJ/mol
# Density = 2.030025 g / cm^3
# Si number density = 20.346558 Si / 1000 Ang^3
#
#
#
# Elastic Constant Matrix: (Units=GPa)
#
#
# Indices 1 2 3 4 5 6 
#
# 1 103.8334 44.6080 60.2764 0.0000 0.0000 0.0000
# 2 44.6080 128.7597 73.9359 0.0000 0.0000 0.0000
# 3 60.2764 73.9359 178.6158 0.0000 0.0000 0.0000
# 4 0.0000 0.0000 0.0000 34.5720 0.0000 0.0000
# 5 0.0000 0.0000 0.0000 0.0000 28.9291 0.0000
# 6 0.0000 0.0000 0.0000 0.0000 0.0000 36.3794
#
#
#
# Elastic Compliance Matrix: (Units=1/GPa)
#
#
# Indices 1 2 3 4 5 6 
#
# 1 0.012570 -0.002517 -0.003200 0.000000 0.000000 0.000000
# 2 -0.002517 0.010692 -0.003576 0.000000 0.000000 0.000000
# 3 -0.003200 -0.003576 0.008159 0.000000 0.000000 0.000000
# 4 0.000000 0.000000 0.000000 0.028925 0.000000 0.000000
# 5 0.000000 0.000000 0.000000 0.000000 0.034567 0.000000
# 6 0.000000 0.000000 0.000000 0.000000 0.000000 0.027488
#
#
# Mechanical properties :
#
#
# Convention : Reuss Voigt Hill
#
# Bulk Modulus (GPa) = 77.91987 85.42772 81.67379
# Shear Modulus (GPa) = 34.41955 35.46868 34.94411
#
# Velocity S-wave (km/s) = 4.11745 4.17973 4.14870
# Velocity P-wave (km/s) = 7.80922 8.08523 7.94843
#
# Compressibility (1/GPa) = 0.01283370
#
# Stress axis : x y z
#
# Youngs Moduli (GPa) = 79.55551 93.52681 122.56645
#
# Poissons Ratio (x) = 0.23544 0.39219
# Poissons Ratio (y) = 0.20027 0.43834
# Poissons Ratio (z) = 0.25457 0.33449
#
# Static dielectric constant tensor:
#      x y z
#    x 3.742360 0.000000 0.000000 
#    y 0.000000 3.830370 0.000000 
#    z 0.000000 0.000000 4.246090 
# 
# 
# High freq. dielectric constant tensor:
#      x y z
#    x 1.795730 0.000000 0.000000 
#    y 0.000000 1.803760 0.000000 
#    z 0.000000 0.000000 1.799010 
# 
# From -- ./inp_files/18482.got.cif
#   From: 2010.03.12/outbox.cif.g09.slc.cpg/sg37_10_cif.got.tgz:18482.got - 2010.04.14 02:25:27.
