data_PCOD8176451
_publ_section_title
;
Structure prediction by ZEFSAII (Michael W. Deem and Ramdas Pophale) SiO2 
 PCOD8176451
Probable space group: C C C 2
;
_chemical_formula_sum "Si O2"
_cell_formula_units_Z 64
_cell_length_a 8.573148
_cell_length_b 16.583150
_cell_length_c 23.595815
_cell_angle_alpha 90.000000
_cell_angle_beta 90.000000
_cell_angle_gamma 90.000000
_cell_volume 3354.612282
_symmetry_space_group_name_H-M "C C C 2"
_symmetry_group_IT_number 37
_symmetry_cell_setting 'orthorhombic'
loop_
_space_group_symop_operation_xyz
x,y,z
-x,-y,z
-x,y,1/2+z
x,-y,1/2+z
1/2+x,1/2+y,z
1/2-x,1/2-y,z
1/2-x,1/2+y,1/2+z
1/2+x,1/2-y,1/2+z
loop_
_atom_site_type_symbol
_atom_site_label
_atom_site_fract_x
_atom_site_fract_y
_atom_site_fract_z
Si Si1 0.324392 0.988306 0.902570
Si Si2 0.175608 0.511688 0.269488
Si Si3 0.154492 0.392608 0.586033
Si Si4 0.400481 0.577826 0.690086
Si Si5 0.705795 0.339208 0.967470
Si Si6 0.599523 0.577824 0.981970
Si Si7 0.804292 0.583180 0.086030
Si Si8 0.205798 0.160793 0.704596
O O1 0.311838 0.999991 0.836028
O O2 0.279511 0.898625 0.921223
O O3 0.500000 0.000000 0.924922
O O4 0.208505 0.054061 0.929282
O O5 0.291489 0.445935 0.242770
O O6 0.220495 0.601371 0.250842
O O7 0.000000 0.500000 0.247135
O O8 0.232603 0.354884 0.530714
O O9 0.178321 0.487519 0.586040
O O10 0.232587 0.354871 0.641352
O O11 0.970711 0.372391 0.586030
O O12 0.500000 0.500000 0.669394
O O13 0.291163 0.611258 0.640660
O O14 0.518474 0.649496 0.706657
O O15 0.750000 0.250000 0.947810
O O16 0.518470 0.350504 0.965403
O O17 0.500000 0.500000 0.002663
O O18 0.708859 0.611247 0.031393
O O19 0.250000 0.250000 0.724262
#
# Coordination Sequence:
#
# PCOD8176451 Si02
#       8
#     8   8   8   8   8   8   8   8
#     4  10  21  40  62  84 110 150 201 245 283 348
#     4  10  21  40  62  84 110 150 201 245 283 348
#     4  11  20  33  58  85 124 152 192 238 295 346
#     4  10  19  33  58  83 113 151 197 236 280 351
#     4  11  23  38  57  88 124 153 186 244 300 344
#     4  10  19  33  58  83 113 151 197 236 280 351
#     4  11  18  32  58  88 110 157 204 238 271 352
#     4  11  23  38  57  88 124 153 186 244 300 344
#
# _framework density 19.078211
#
# number of rings (size 3 to 8) (size 9 to 14) (size 15 to 20)
#    0.000    1.500    5.000    3.000    0.000    4.500 
#    0.000   11.250    0.000    0.000    0.000    0.000 
#    0.000    0.000    0.000    0.000    0.000    0.000 
#
# Total GULP energy -396858.953796 kJ/mol
# GULP energy per Si atom -12401.842306 kJ/mol
# Density = 1.903479 g / cm^3
# Si number density = 19.078211 Si / 1000 Ang^3
#
#
#
# Elastic Constant Matrix: (Units=GPa)
#
#
# Indices 1 2 3 4 5 6 
#
# 1 179.0916 57.5742 56.5846 0.0000 0.0000 0.0000
# 2 57.5742 104.3065 44.6329 0.0000 0.0000 0.0000
# 3 56.5846 44.6329 99.1836 0.0000 0.0000 0.0000
# 4 0.0000 0.0000 0.0000 -137.9954 0.0000 0.0000
# 5 0.0000 0.0000 0.0000 0.0000 36.5405 0.0000
# 6 0.0000 0.0000 0.0000 0.0000 0.0000 27.1606
#
#
#
# Elastic Compliance Matrix: (Units=1/GPa)
#
#
# Indices 1 2 3 4 5 6 
#
# 1 0.007431 -0.002833 -0.002965 0.000000 0.000000 0.000000
# 2 -0.002833 0.012954 -0.004213 0.000000 0.000000 0.000000
# 3 -0.002965 -0.004213 0.013669 0.000000 0.000000 0.000000
# 4 0.000000 0.000000 0.000000 -0.007247 0.000000 0.000000
# 5 0.000000 0.000000 0.000000 0.000000 0.027367 0.000000
# 6 0.000000 0.000000 0.000000 0.000000 0.000000 0.036818
#
#
# Mechanical properties :
#
#
# Convention : Reuss Voigt Hill
#
# Bulk Modulus (GPa) = 71.26055 77.79611 74.52833
# Shear Modulus (GPa) = 43.21835 0.06048 21.63941
#
# Velocity S-wave (km/s) = 4.76471 0.17823 3.37151
# Velocity P-wave (km/s) = 8.22817 6.39596 7.36923
#
# Compressibility (1/GPa) = 0.01403301
#
# Stress axis : x y z
#
# Youngs Moduli (GPa) = 134.56704 77.19805 73.15628
#
# Poissons Ratio (x) = 0.21872 0.21688
# Poissons Ratio (y) = 0.38127 0.30819
# Poissons Ratio (z) = 0.39893 0.32522
#
# Static dielectric constant tensor:
#      x y z
#    x 4.050420 0.000000 0.000000 
#    y 0.000000 3.233160 0.000000 
#    z 0.000000 0.000000 3.384360 
# 
# 
# High freq. dielectric constant tensor:
#      x y z
#    x 1.768790 0.000000 0.000000 
#    y 0.000000 1.705650 0.000000 
#    z 0.000000 0.000000 1.737340 
# 
# From -- ./inp_files/18532.got.cif
#   From: 2010.03.12/outbox.cif.g09.slc.cpg/sg37_10_cif.got.tgz:18532.got - 2010.04.14 02:25:27.
