data_PCOD8176733
_publ_section_title
;
Structure prediction by ZEFSAII (Michael W. Deem and Ramdas Pophale) SiO2 
 PCOD8176733
Probable space group: C C C 2
;
_chemical_formula_sum "Si O2"
_cell_formula_units_Z 64
_cell_length_a 13.351998
_cell_length_b 13.062944
_cell_length_c 16.582715
_cell_angle_alpha 90.000000
_cell_angle_beta 90.000000
_cell_angle_gamma 90.000000
_cell_volume 2892.297488
_symmetry_space_group_name_H-M "C C C 2"
_symmetry_group_IT_number 37
_symmetry_cell_setting 'orthorhombic'
loop_
_space_group_symop_operation_xyz
x,y,z
-x,-y,z
-x,y,1/2+z
x,-y,1/2+z
1/2+x,1/2+y,z
1/2-x,1/2-y,z
1/2-x,1/2+y,1/2+z
1/2+x,1/2-y,1/2+z
loop_
_atom_site_type_symbol
_atom_site_label
_atom_site_fract_x
_atom_site_fract_y
_atom_site_fract_z
Si Si1 0.956307 0.183906 0.848340
Si Si2 0.456307 0.683906 0.664375
Si Si3 0.175039 0.834139 0.164090
Si Si4 0.675039 0.665861 0.848625
Si Si5 0.083849 0.418805 0.347939
Si Si6 0.712878 0.458344 0.917958
Si Si7 0.416151 0.081195 0.164776
Si Si8 0.212878 0.958344 0.594757
O O1 0.945977 0.144160 0.756358
O O2 0.958137 0.305457 0.851480
O O3 0.868632 0.128665 0.898048
O O4 0.064215 0.157892 0.887924
O O5 0.564215 0.657892 0.624791
O O6 0.458137 0.805457 0.661235
O O7 0.368632 0.628665 0.614667
O O8 0.250000 0.750000 0.122802
O O9 0.161162 0.800249 0.256358
O O10 0.218312 0.947499 0.157152
O O11 0.750000 0.750000 0.889913
O O12 0.718313 0.552501 0.855563
O O13 0.176224 0.413190 0.409999
O O14 0.117383 0.446046 0.256358
O O15 0.000000 0.500000 0.377438
O O16 0.690128 0.500000 0.006358
O O17 0.323776 0.086809 0.102716
O O18 0.500000 0.000000 0.135277
#
# Coordination Sequence:
#
# PCOD8176733 Si02
#       8
#     8   8   8   8   8   8   8   8
#     4  10  21  39  65  92 119 157 206 261 313 368
#     4  10  21  39  65  92 119 157 206 261 313 368
#     4  10  21  39  62  87 116 155 207 260 306 358
#     4  10  21  39  62  87 116 155 207 260 306 358
#     4  10  21  41  68  93 118 154 206 264 317 373
#     4  12  25  38  56  88 127 166 203 246 310 380
#     4  10  21  41  68  93 118 154 206 264 317 373
#     4  12  25  38  56  88 127 166 203 246 310 380
#
# _framework density 22.127738000000001
#
# number of rings (size 3 to 8) (size 9 to 14) (size 15 to 20)
#    0.000    1.500    0.000    5.250    0.000   12.500 
#    0.000    2.500    0.000    0.000    0.000    0.000 
#    0.000    0.000    0.000    0.000    0.000    0.000 
#
# Total GULP energy -396662.172495 kJ/mol
# GULP energy per Si atom -12395.692890 kJ/mol
# Density = 2.207737 g / cm^3
# Si number density = 22.127738 Si / 1000 Ang^3
#
#
#
# Elastic Constant Matrix: (Units=GPa)
#
#
# Indices 1 2 3 4 5 6 
#
# 1 126.0259 19.6733 33.7315 0.0000 0.0000 0.0000
# 2 19.6733 97.3092 15.8773 0.0000 0.0000 0.0000
# 3 33.7315 15.8773 62.5497 0.0000 0.0000 0.0000
# 4 0.0000 0.0000 0.0000 22.2141 0.0000 0.0000
# 5 0.0000 0.0000 0.0000 0.0000 11.1236 0.0000
# 6 0.0000 0.0000 0.0000 0.0000 0.0000 50.6891
#
#
#
# Elastic Compliance Matrix: (Units=1/GPa)
#
#
# Indices 1 2 3 4 5 6 
#
# 1 0.009389 -0.001118 -0.004779 0.000000 0.000000 0.000000
# 2 -0.001118 0.010854 -0.002152 0.000000 0.000000 0.000000
# 3 -0.004779 -0.002152 0.019111 0.000000 0.000000 0.000000
# 4 0.000000 0.000000 0.000000 0.045016 0.000000 0.000000
# 5 0.000000 0.000000 0.000000 0.000000 0.089899 0.000000
# 6 0.000000 0.000000 0.000000 0.000000 0.000000 0.019728
#
#
# Mechanical properties :
#
#
# Convention : Reuss Voigt Hill
#
# Bulk Modulus (GPa) = 43.00296 47.16101 45.08198
# Shear Modulus (GPa) = 22.95193 31.24556 27.09874
#
# Velocity S-wave (km/s) = 3.22413 3.76181 3.50330
# Velocity P-wave (km/s) = 5.77375 6.34252 6.06481
#
# Compressibility (1/GPa) = 0.02325421
#
# Stress axis : x y z
#
# Youngs Moduli (GPa) = 106.51182 92.13416 52.32642
#
# Poissons Ratio (x) = 0.10304 0.25008
# Poissons Ratio (y) = 0.11912 0.11260
# Poissons Ratio (z) = 0.50904 0.19827
#
# Static dielectric constant tensor:
#      x y z
#    x 4.119840 0.000000 0.000000 
#    y 0.000000 3.963500 0.000000 
#    z 0.000000 0.000000 3.632330 
# 
# 
# High freq. dielectric constant tensor:
#      x y z
#    x 1.888660 0.000000 0.000000 
#    y 0.000000 1.885560 0.000000 
#    z 0.000000 0.000000 1.832340 
# 
# From -- ./inp_files/15077.got.cif
#   From: 2010.03.12/outbox.cif.g09.slc.cpg/sg37_8_cif.got.tgz:15077.got - 2010.04.14 02:25:27.
