data_PCOD8176030
_publ_section_title
;
Structure prediction by ZEFSAII (Michael W. Deem and Ramdas Pophale) SiO2 
 PCOD8176030
Probable space group: C M C 21
;
_chemical_formula_sum "Si O2"
_cell_formula_units_Z 64
_cell_length_a 8.580231
_cell_length_b 15.269117
_cell_length_c 23.713339
_cell_angle_alpha 90.000000
_cell_angle_beta 90.000000
_cell_angle_gamma 90.000000
_cell_volume 3106.745036
_symmetry_space_group_name_H-M "C M C 21"
_symmetry_group_IT_number 36
_symmetry_cell_setting 'orthorhombic'
loop_
_space_group_symop_operation_xyz
x,y,z
-x,-y,1/2+z
x,-y,1/2+z
-x,y,z
1/2+x,1/2+y,z
1/2-x,1/2-y,1/2+z
1/2+x,1/2-y,1/2+z
1/2-x,1/2+y,z
loop_
_atom_site_type_symbol
_atom_site_label
_atom_site_fract_x
_atom_site_fract_y
_atom_site_fract_z
Si Si1 0.320601 0.650890 0.693610
Si Si2 0.678820 0.901120 0.078837
Si Si3 0.178488 0.597951 0.073034
Si Si4 0.679639 0.095828 0.807346
Si Si5 0.321025 0.663064 0.185124
Si Si6 0.320907 0.584446 0.303335
Si Si7 0.681486 0.756005 0.869594
Si Si8 0.682917 0.744320 0.998511
O O1 0.500000 0.633907 0.708794
O O2 0.283364 0.606644 0.634164
O O3 0.215352 0.606878 0.741369
O O4 0.290515 0.754020 0.690804
O O5 0.500000 0.883200 0.095830
O O6 0.700322 0.997776 0.052698
O O7 0.734521 0.830559 0.032829
O O8 0.284995 0.613060 0.127529
O O9 0.000000 0.617099 0.089377
O O10 0.228370 0.659708 0.021830
O O11 0.500000 0.116079 0.819419
O O12 0.783950 0.160960 0.844170
O O13 0.717913 0.996406 0.825364
O O14 0.500000 0.695131 0.184600
O O15 0.289259 0.598020 0.236896
O O16 0.500000 0.561512 0.314350
O O17 0.279339 0.671991 0.336544
O O18 0.500000 0.777312 0.862818
O O19 0.734354 0.758196 0.934372
O O20 0.500000 0.726821 0.003651
#
# Coordination Sequence:
#
# PCOD8176030 Si02
#       8
#     8   8   8   8   8   8   8   8
#     4  12  23  37  63  96 127 161 207 257 311 379
#     4  10  22  41  63  90 128 165 202 250 313 378
#     4  11  23  38  62  95 126 163 208 253 304 370
#     4  12  25  42  65  93 128 170 209 258 318 376
#     4  11  22  38  62  91 128 166 201 249 316 378
#     4  11  24  42  66  96 128 166 209 259 316 378
#     4  11  24  43  66  93 125 166 215 265 315 374
#     4  10  23  43  65  88 122 167 209 259 315 367
#
# _framework density 20.600338000000001
#
# number of rings (size 3 to 8) (size 9 to 14) (size 15 to 20)
#    0.000    1.000    2.500    4.500    0.000    6.500 
#    0.000    1.250    0.000    0.000    0.000    0.000 
#    0.000    0.000    0.000    0.000    0.000    0.000 
#
# Total GULP energy -397033.793589 kJ/mol
# GULP energy per Si atom -12407.306050 kJ/mol
# Density = 2.055345 g / cm^3
# Si number density = 20.600338 Si / 1000 Ang^3
#
#
#
# Elastic Constant Matrix: (Units=GPa)
#
#
# Indices 1 2 3 4 5 6 
#
# 1 57.5624 20.5345 27.1821 0.0000 0.0000 0.0000
# 2 20.5345 108.2720 24.1842 0.0000 0.0000 0.0000
# 3 27.1821 24.1842 108.0545 0.0000 0.0000 0.0000
# 4 0.0000 0.0000 0.0000 9.4639 0.0000 0.0000
# 5 0.0000 0.0000 0.0000 0.0000 29.2580 0.0000
# 6 0.0000 0.0000 0.0000 0.0000 0.0000 26.2572
#
#
#
# Elastic Compliance Matrix: (Units=1/GPa)
#
#
# Indices 1 2 3 4 5 6 
#
# 1 0.020536 -0.002885 -0.004520 0.000000 0.000000 0.000000
# 2 -0.002885 0.010127 -0.001541 0.000000 0.000000 0.000000
# 3 -0.004520 -0.001541 0.010737 0.000000 0.000000 0.000000
# 4 0.000000 0.000000 0.000000 0.105664 0.000000 0.000000
# 5 0.000000 0.000000 0.000000 0.000000 0.034179 0.000000
# 6 0.000000 0.000000 0.000000 0.000000 0.000000 0.038085
#
#
# Mechanical properties :
#
#
# Convention : Reuss Voigt Hill
#
# Bulk Modulus (GPa) = 42.53964 46.41007 44.47485
# Shear Modulus (GPa) = 20.40345 26.46170 23.43258
#
# Velocity S-wave (km/s) = 3.15054 3.58792 3.37632
# Velocity P-wave (km/s) = 5.82489 6.30412 6.06924
#
# Compressibility (1/GPa) = 0.02350749
#
# Stress axis : x y z
#
# Youngs Moduli (GPa) = 48.69433 98.74234 93.13936
#
# Poissons Ratio (x) = 0.28489 0.42102
# Poissons Ratio (y) = 0.14049 0.14352
# Poissons Ratio (z) = 0.22012 0.15215
#
# Static dielectric constant tensor:
#      x y z
#    x 3.695190 0.000000 0.000000 
#    y 0.000000 3.802320 0.000000 
#    z 0.000000 0.000000 3.705250 
# 
# 
# High freq. dielectric constant tensor:
#      x y z
#    x 1.809280 0.000000 0.000000 
#    y 0.000000 1.818500 0.000000 
#    z 0.000000 0.000000 1.798600 
# 
# From -- ./inp_files/16579.got.cif
#   From: 2010.03.12/outbox.cif.g09.slc.cpg/sg36_9_cif.got.tgz:16579.got - 2010.04.14 02:13:53.
