data_PCOD8176098
_publ_section_title
;
Structure prediction by ZEFSAII (Michael W. Deem and Ramdas Pophale) SiO2 
 PCOD8176098
Probable space group: C M C 21
;
_chemical_formula_sum "Si O2"
_cell_formula_units_Z 64
_cell_length_a 23.512908
_cell_length_b 15.014371
_cell_length_c 8.770334
_cell_angle_alpha 90.000000
_cell_angle_beta 90.000000
_cell_angle_gamma 90.000000
_cell_volume 3096.204378
_symmetry_space_group_name_H-M "C M C 21"
_symmetry_group_IT_number 36
_symmetry_cell_setting 'orthorhombic'
loop_
_space_group_symop_operation_xyz
x,y,z
-x,-y,1/2+z
x,-y,1/2+z
-x,y,z
1/2+x,1/2+y,z
1/2-x,1/2-y,1/2+z
1/2+x,1/2-y,1/2+z
1/2-x,1/2+y,z
loop_
_atom_site_type_symbol
_atom_site_label
_atom_site_fract_x
_atom_site_fract_y
_atom_site_fract_z
Si Si1 0.936302 0.747428 0.801570
Si Si2 0.719596 0.441093 0.764153
Si Si3 0.834225 0.581279 0.096622
Si Si4 0.153452 0.603180 0.740440
Si Si5 0.269860 0.381787 0.105577
Si Si6 0.565868 0.409319 0.319232
Si Si7 0.600343 0.584429 0.149373
Si Si8 0.878217 0.766542 0.116998
O O1 0.900276 0.667775 0.726552
O O2 0.939622 0.832346 0.690315
O O3 0.000000 0.711455 0.828254
O O4 0.909774 0.782265 0.958331
O O5 0.771329 0.404737 0.663061
O O6 0.708817 0.545420 0.728425
O O7 0.662058 0.390637 0.717470
O O8 0.733977 0.428212 0.940900
O O9 0.861378 0.489069 0.155159
O O10 0.874651 0.661543 0.154928
O O11 0.830484 0.581668 0.914214
O O12 0.207157 0.650667 0.657005
O O13 0.313263 0.300324 0.103937
O O14 0.500000 0.400235 0.363027
O O15 0.574612 0.491990 0.207652
O O16 0.603711 0.426488 0.468119
O O17 0.586247 0.317048 0.244924
#
# Coordination Sequence:
#
# PCOD8176098 Si02
#       8
#     8   8   8   8   8   8   8   8
#     4  11  24  46  66  91 129 171 222 269 319 389
#     4  11  21  38  60  94 130 169 203 256 317 390
#     4  10  23  40  65  91 131 160 208 273 332 383
#     4  10  23  42  66  94 125 169 214 267 333 378
#     4  11  21  37  62  93 132 169 210 257 322 389
#     4  12  25  41  61  90 130 174 217 264 312 380
#     4  12  24  40  62  93 126 172 216 254 322 386
#     4  11  24  40  64  96 125 170 215 266 329 379
#
# _framework density 20.670470999999999
#
# number of rings (size 3 to 8) (size 9 to 14) (size 15 to 20)
#    0.000    1.000    2.500    6.000    3.500    2.000 
#    0.000    3.125    0.000    0.000    0.000    0.000 
#    0.000    0.000    0.000    0.000    0.000    0.000 
#
# Total GULP energy -396909.447584 kJ/mol
# GULP energy per Si atom -12403.420237 kJ/mol
# Density = 2.062342 g / cm^3
# Si number density = 20.670471 Si / 1000 Ang^3
#
#
#
# Elastic Constant Matrix: (Units=GPa)
#
#
# Indices 1 2 3 4 5 6 
#
# 1 113.8392 53.3876 41.5083 0.0000 0.0000 0.0000
# 2 53.3876 87.9282 39.3159 0.0000 0.0000 0.0000
# 3 41.5083 39.3159 113.5795 0.0000 0.0000 0.0000
# 4 0.0000 0.0000 0.0000 33.3550 0.0000 0.0000
# 5 0.0000 0.0000 0.0000 0.0000 25.3017 0.0000
# 6 0.0000 0.0000 0.0000 0.0000 0.0000 33.6281
#
#
#
# Elastic Compliance Matrix: (Units=1/GPa)
#
#
# Indices 1 2 3 4 5 6 
#
# 1 0.012790 -0.006715 -0.002350 0.000000 0.000000 0.000000
# 2 -0.006715 0.016981 -0.003424 0.000000 0.000000 0.000000
# 3 -0.002350 -0.003424 0.010848 0.000000 0.000000 0.000000
# 4 0.000000 0.000000 0.000000 0.029981 0.000000 0.000000
# 5 0.000000 0.000000 0.000000 0.000000 0.039523 0.000000
# 6 0.000000 0.000000 0.000000 0.000000 0.000000 0.029737
#
#
# Mechanical properties :
#
#
# Convention : Reuss Voigt Hill
#
# Bulk Modulus (GPa) = 63.93094 64.86338 64.39716
# Shear Modulus (GPa) = 29.40265 30.53264 29.96765
#
# Velocity S-wave (km/s) = 3.77563 3.84749 3.81173
# Velocity P-wave (km/s) = 7.07127 7.15440 7.11296
#
# Compressibility (1/GPa) = 0.01564188
#
# Stress axis : x y z
#
# Youngs Moduli (GPa) = 78.18356 58.88849 92.17973
#
# Poissons Ratio (x) = 0.39545 0.21660
# Poissons Ratio (y) = 0.52503 0.31562
# Poissons Ratio (z) = 0.18372 0.20163
#
# Static dielectric constant tensor:
#      x y z
#    x 3.754220 0.000000 0.000000 
#    y 0.000000 3.679050 0.000000 
#    z 0.000000 0.000000 3.742150 
# 
# 
# High freq. dielectric constant tensor:
#      x y z
#    x 1.806090 0.000000 0.000000 
#    y 0.000000 1.804740 0.000000 
#    z 0.000000 0.000000 1.816700 
# 
# From -- ./inp_files/5663.got.cif
#   From: 2010.03.12/outbox.cif.g09.slc.cpg/sg36_3_cif.got.tgz:5663.got - 2010.04.14 02:13:53.
