data_PCOD8176585
_publ_section_title
;
Structure prediction by ZEFSAII (Michael W. Deem and Ramdas Pophale) SiO2 
 PCOD8176585
Probable space group: C C C 2
;
_chemical_formula_sum "Si O2"
_cell_formula_units_Z 64
_cell_length_a 8.615880
_cell_length_b 22.870800
_cell_length_c 14.750233
_cell_angle_alpha 90.000000
_cell_angle_beta 90.000000
_cell_angle_gamma 90.000000
_cell_volume 2906.563921
_symmetry_space_group_name_H-M "C C C 2"
_symmetry_group_IT_number 37
_symmetry_cell_setting 'orthorhombic'
loop_
_space_group_symop_operation_xyz
x,y,z
-x,-y,z
-x,y,1/2+z
x,-y,1/2+z
1/2+x,1/2+y,z
1/2-x,1/2-y,z
1/2-x,1/2+y,1/2+z
1/2+x,1/2-y,1/2+z
loop_
_atom_site_type_symbol
_atom_site_label
_atom_site_fract_x
_atom_site_fract_y
_atom_site_fract_z
Si Si1 0.369418 0.332858 0.470590
Si Si2 0.718955 0.411058 0.700155
Si Si3 0.863202 0.045225 0.882238
Si Si4 0.148380 0.696968 0.273184
Si Si5 0.382327 0.202896 0.140736
Si Si6 0.023774 0.294337 0.448645
Si Si7 0.683465 0.491878 0.067087
Si Si8 0.625683 0.378399 0.162058
O O1 0.428035 0.391513 0.419144
O O2 0.185189 0.327058 0.461850
O O3 0.454609 0.275429 0.431635
O O4 0.409361 0.335048 0.577788
O O5 0.747563 0.444621 0.795272
O O6 0.830236 0.356357 0.690084
O O7 0.760267 0.452418 0.614879
O O8 0.538373 0.393638 0.706562
O O9 0.758653 0.016802 0.963304
O O10 0.000000 0.000000 0.854742
O O11 0.250000 0.750000 0.308966
O O12 0.261020 0.646418 0.238231
O O13 0.039516 0.721324 0.191923
O O14 0.052015 0.675769 0.360482
O O15 0.250000 0.250000 0.157947
O O16 0.413065 0.194047 0.034542
O O17 0.500000 0.500000 0.059842
O O18 0.718877 0.434717 0.125977
#
# Coordination Sequence:
#
# PCOD8176585 Si02
#       8
#     8   8   8   8   8   8   8   8
#     4  10  21  41  68  92 135 180 218 284 337 401
#     4  11  22  41  67 104 133 172 225 281 331 400
#     4  10  20  36  66 102 128 167 226 279 328 388
#     4  12  25  40  63  95 129 177 223 270 331 404
#     4  12  26  43  65  98 139 178 221 279 339 409
#     4  11  24  42  62 100 136 174 225 276 346 406
#     4   8  18  38  62  96 127 169 216 270 322 390
#     4  10  20  40  66  90 131 171 221 268 336 386
#
# _framework density 22.019127000000001
#
# number of rings (size 3 to 8) (size 9 to 14) (size 15 to 20)
#    0.000    1.500    1.250    5.250    5.250    0.000 
#    9.000    0.625    0.000    0.000    0.000    0.000 
#    0.000    0.000    0.000    0.000    0.000    0.000 
#
# Total GULP energy -396798.539913 kJ/mol
# GULP energy per Si atom -12399.954372 kJ/mol
# Density = 2.196901 g / cm^3
# Si number density = 22.019127 Si / 1000 Ang^3
#
#
#
# Elastic Constant Matrix: (Units=GPa)
#
#
# Indices 1 2 3 4 5 6 
#
# 1 52.4860 23.0465 19.4021 0.0000 0.0000 0.0000
# 2 23.0465 100.9166 36.4022 0.0000 0.0000 0.0000
# 3 19.4021 36.4022 140.9820 0.0000 0.0000 0.0000
# 4 0.0000 0.0000 0.0000 36.3664 0.0000 0.0000
# 5 0.0000 0.0000 0.0000 0.0000 30.1700 0.0000
# 6 0.0000 0.0000 0.0000 0.0000 0.0000 31.1592
#
#
#
# Elastic Compliance Matrix: (Units=1/GPa)
#
#
# Indices 1 2 3 4 5 6 
#
# 1 0.021616 -0.004260 -0.001875 0.000000 0.000000 0.000000
# 2 -0.004260 0.011767 -0.002452 0.000000 0.000000 0.000000
# 3 -0.001875 -0.002452 0.007984 0.000000 0.000000 0.000000
# 4 0.000000 0.000000 0.000000 0.027498 0.000000 0.000000
# 5 0.000000 0.000000 0.000000 0.000000 0.033146 0.000000
# 6 0.000000 0.000000 0.000000 0.000000 0.000000 0.032093
#
#
# Mechanical properties :
#
#
# Convention : Reuss Voigt Hill
#
# Bulk Modulus (GPa) = 41.33402 50.23182 45.78292
# Shear Modulus (GPa) = 31.37899 33.90804 32.64351
#
# Velocity S-wave (km/s) = 3.77912 3.92846 3.85451
# Velocity P-wave (km/s) = 6.15264 6.59086 6.37551
#
# Compressibility (1/GPa) = 0.02419315
#
# Stress axis : x y z
#
# Youngs Moduli (GPa) = 46.26106 84.98682 125.24730
#
# Poissons Ratio (x) = 0.36207 0.23482
# Poissons Ratio (y) = 0.19709 0.30709
# Poissons Ratio (z) = 0.08673 0.20838
#
# Static dielectric constant tensor:
#      x y z
#    x 3.595900 0.000000 0.000000 
#    y 0.000000 4.131850 0.000000 
#    z 0.000000 0.000000 4.156130 
# 
# 
# High freq. dielectric constant tensor:
#      x y z
#    x 1.828640 0.000000 0.000000 
#    y 0.000000 1.869160 0.000000 
#    z 0.000000 0.000000 1.883840 
# 
# From -- ./inp_files/11025.got.cif
#   From: 2010.03.12/outbox.cif.g09.slc.cpg/sg37_6_cif.got.tgz:11025.got - 2010.04.14 02:25:27.
