data_PCOD8176382
_publ_section_title
;
Structure prediction by ZEFSAII (Michael W. Deem and Ramdas Pophale) SiO2 
 PCOD8176382
Probable space group: C C C 2
;
_chemical_formula_sum "Si O2"
_cell_formula_units_Z 64
_cell_length_a 17.616821
_cell_length_b 17.249914
_cell_length_c 9.457239
_cell_angle_alpha 90.000000
_cell_angle_beta 90.000000
_cell_angle_gamma 90.000000
_cell_volume 2873.947566
_symmetry_space_group_name_H-M "C C C 2"
_symmetry_group_IT_number 37
_symmetry_cell_setting 'orthorhombic'
loop_
_space_group_symop_operation_xyz
x,y,z
-x,-y,z
-x,y,1/2+z
x,-y,1/2+z
1/2+x,1/2+y,z
1/2-x,1/2-y,z
1/2-x,1/2+y,1/2+z
1/2+x,1/2-y,1/2+z
loop_
_atom_site_type_symbol
_atom_site_label
_atom_site_fract_x
_atom_site_fract_y
_atom_site_fract_z
Si Si1 0.863535 0.452683 0.482090
Si Si2 0.154999 0.358691 0.243034
Si Si3 0.224587 0.945805 0.871928
Si Si4 0.553218 0.771893 0.064482
Si Si5 0.423679 0.708155 0.260569
Si Si6 0.444730 0.094641 0.491407
Si Si7 0.663956 0.853634 0.729773
Si Si8 0.323880 0.423712 0.675190
O O1 0.845176 0.435271 0.644849
O O2 0.797166 0.505950 0.420214
O O3 0.943552 0.500476 0.465443
O O4 0.867045 0.375110 0.386435
O O5 0.239546 0.363141 0.314043
O O6 0.134954 0.283883 0.143992
O O7 0.086365 0.359754 0.355260
O O8 0.178931 0.992025 0.750253
O O9 0.169488 0.931831 0.005181
O O10 0.497653 0.726868 0.169262
O O11 0.559657 0.719403 0.926456
O O12 0.522925 0.861877 0.035947
O O13 0.354149 0.762848 0.210388
O O14 0.398816 0.619853 0.231956
O O15 0.382527 0.098026 0.615520
O O16 0.752384 0.870385 0.714982
#
# Coordination Sequence:
#
# PCOD8176382 Si02
#       8
#     8   8   8   8   8   8   8   8
#     4  10  17  31  56  85 126 165 201 259 312 354
#     4  11  18  34  58  87 131 166 203 265 304 372
#     4  10  20  37  64  97 121 155 206 276 328 372
#     4  11  23  40  56  88 129 177 220 245 304 395
#     4  11  24  41  63  86 129 176 211 259 316 392
#     4  10  19  32  53  82 125 174 211 257 296 365
#     4  10  19  35  58  90 123 165 212 250 322 381
#     4  11  21  40  68  93 125 157 211 276 332 386
#
# _framework density 22.269020000000001
#
# number of rings (size 3 to 8) (size 9 to 14) (size 15 to 20)
#    0.000    1.500    6.250    1.875    0.000    0.500 
#    0.000    3.750    0.000    8.250    0.000    0.000 
#    0.000    0.000    0.000    0.000    0.000    0.000 
#
# Total GULP energy -396593.669764 kJ/mol
# GULP energy per Si atom -12393.552180 kJ/mol
# Density = 2.221834 g / cm^3
# Si number density = 22.269020 Si / 1000 Ang^3
#
#
#
# Elastic Constant Matrix: (Units=GPa)
#
#
# Indices 1 2 3 4 5 6 
#
# 1 45.0509 33.2384 28.7269 0.0000 0.0000 0.0000
# 2 33.2384 55.1973 26.8484 0.0000 0.0000 0.0000
# 3 28.7269 26.8484 146.9538 0.0000 0.0000 0.0000
# 4 0.0000 0.0000 0.0000 23.8981 0.0000 0.0000
# 5 0.0000 0.0000 0.0000 0.0000 18.5211 0.0000
# 6 0.0000 0.0000 0.0000 0.0000 0.0000 27.9420
#
#
#
# Elastic Compliance Matrix: (Units=1/GPa)
#
#
# Indices 1 2 3 4 5 6 
#
# 1 0.041915 -0.023328 -0.003932 0.000000 0.000000 0.000000
# 2 -0.023328 0.032867 -0.001445 0.000000 0.000000 0.000000
# 3 -0.003932 -0.001445 0.007837 0.000000 0.000000 0.000000
# 4 0.000000 0.000000 0.000000 0.041844 0.000000 0.000000
# 5 0.000000 0.000000 0.000000 0.000000 0.053992 0.000000
# 6 0.000000 0.000000 0.000000 0.000000 0.000000 0.035788
#
#
# Mechanical properties :
#
#
# Convention : Reuss Voigt Hill
#
# Bulk Modulus (GPa) = 39.66481 47.20324 43.43402
# Shear Modulus (GPa) = 17.85350 24.63148 21.24249
#
# Velocity S-wave (km/s) = 2.83454 3.32940 3.09188
# Velocity P-wave (km/s) = 5.34445 6.00189 5.68268
#
# Compressibility (1/GPa) = 0.02521127
#
# Stress axis : x y z
#
# Youngs Moduli (GPa) = 23.85757 30.42566 127.59388
#
# Poissons Ratio (x) = 0.70977 0.50166
# Poissons Ratio (y) = 0.55655 0.18432
# Poissons Ratio (z) = 0.09380 0.04395
#
# Static dielectric constant tensor:
#      x y z
#    x 3.536370 0.000000 0.000000 
#    y 0.000000 3.692930 0.000000 
#    z 0.000000 0.000000 4.514840 
# 
# 
# High freq. dielectric constant tensor:
#      x y z
#    x 1.842390 0.000000 0.000000 
#    y 0.000000 1.838490 0.000000 
#    z 0.000000 0.000000 1.902340 
# 
# From -- ./inp_files/4447.got.cif
#   From: 2010.03.12/outbox.cif.g09.slc.cpg/sg37_3_cif.got.tgz:4447.got - 2010.04.14 02:25:27.
