data_PCOD8176228
_publ_section_title
;
Structure prediction by ZEFSAII (Michael W. Deem and Ramdas Pophale) SiO2 
 PCOD8176228
Probable space group: C M C 21
;
_chemical_formula_sum "Si O2"
_cell_formula_units_Z 64
_cell_length_a 9.164726
_cell_length_b 28.510922
_cell_length_c 13.816791
_cell_angle_alpha 90.000000
_cell_angle_beta 90.000000
_cell_angle_gamma 90.000000
_cell_volume 3610.255477
_symmetry_space_group_name_H-M "C M C 21"
_symmetry_group_IT_number 36
_symmetry_cell_setting 'orthorhombic'
loop_
_space_group_symop_operation_xyz
x,y,z
-x,-y,1/2+z
x,-y,1/2+z
-x,y,z
1/2+x,1/2+y,z
1/2-x,1/2-y,1/2+z
1/2+x,1/2-y,1/2+z
1/2-x,1/2+y,z
loop_
_atom_site_type_symbol
_atom_site_label
_atom_site_fract_x
_atom_site_fract_y
_atom_site_fract_z
Si Si1 0.671045 0.174077 0.997450
Si Si2 0.164797 0.416544 0.105622
Si Si3 0.165281 0.534981 0.794180
Si Si4 0.669177 0.422581 0.470462
Si Si5 0.833715 0.236960 0.372870
Si Si6 0.168459 0.823440 0.058783
Si Si7 0.669265 0.496001 0.630305
Si Si8 0.171744 0.734647 0.176986
O O1 0.500000 0.161715 0.993919
O O2 0.764507 0.128764 0.974095
O O3 0.711157 0.212976 0.917456
O O4 0.716639 0.193455 0.102856
O O5 0.164879 0.419025 0.223712
O O6 0.233084 0.368763 0.068939
O O7 0.259394 0.461165 0.067560
O O8 0.000000 0.420405 0.065384
O O9 0.250142 0.545955 0.891553
O O10 0.248210 0.493217 0.734676
O O11 0.000000 0.519204 0.818327
O O12 0.500000 0.419084 0.442153
O O13 0.691123 0.447270 0.574217
O O14 0.810453 0.196258 0.451124
O O15 0.738258 0.224074 0.280697
O O16 0.000000 0.238813 0.338750
O O17 0.224425 0.784808 0.135668
O O18 0.000000 0.836264 0.078011
O O19 0.500000 0.507255 0.647413
O O20 0.000000 0.735876 0.186623
#
# Coordination Sequence:
#
# PCOD8176228 Si02
#       8
#     8   8   8   8   8   8   8   8
#     4   9  20  37  54  77 111 145 179 220 269 321
#     4   9  19  33  52  79 103 131 171 213 261 313
#     4   9  20  35  54  80 107 136 173 215 263 316
#     4  11  22  35  57  84 109 141 180 223 270 320
#     4   9  19  34  52  75 104 141 180 218 265 317
#     4   9  18  33  52  74 104 140 173 215 268 316
#     4   9  19  36  54  76 107 138 173 220 266 313
#     4   9  19  35  53  75 105 142 179 218 266 316
#
# _framework density 17.727277000000001
#
# number of rings (size 3 to 8) (size 9 to 14) (size 15 to 20)
#    0.750    2.000    0.000    2.625    1.750    4.000 
#    0.000    3.750    0.000    1.500    0.000    0.000 
#    0.000    0.000    0.000    0.000    0.000    0.000 
#
# Total GULP energy -396618.575710 kJ/mol
# GULP energy per Si atom -12394.330491 kJ/mol
# Density = 1.768693 g / cm^3
# Si number density = 17.727277 Si / 1000 Ang^3
#
#
#
# Elastic Constant Matrix: (Units=GPa)
#
#
# Indices 1 2 3 4 5 6 
#
# 1 85.0552 26.4622 23.3499 0.0000 0.0000 0.0000
# 2 26.4622 33.3978 10.1978 0.0000 0.0000 0.0000
# 3 23.3499 10.1978 71.0806 0.0000 0.0000 0.0000
# 4 0.0000 0.0000 0.0000 17.4989 0.0000 0.0000
# 5 0.0000 0.0000 0.0000 0.0000 33.4067 0.0000
# 6 0.0000 0.0000 0.0000 0.0000 0.0000 29.8662
#
#
#
# Elastic Compliance Matrix: (Units=1/GPa)
#
#
# Indices 1 2 3 4 5 6 
#
# 1 0.016486 -0.011931 -0.003704 0.000000 0.000000 0.000000
# 2 -0.011931 0.039949 -0.001812 0.000000 0.000000 0.000000
# 3 -0.003704 -0.001812 0.015545 0.000000 0.000000 0.000000
# 4 0.000000 0.000000 0.000000 0.057146 0.000000 0.000000
# 5 0.000000 0.000000 0.000000 0.000000 0.029934 0.000000
# 6 0.000000 0.000000 0.000000 0.000000 0.000000 0.033483
#
#
# Mechanical properties :
#
#
# Convention : Reuss Voigt Hill
#
# Bulk Modulus (GPa) = 26.96454 34.39482 30.67968
# Shear Modulus (GPa) = 20.85074 24.78929 22.82001
#
# Velocity S-wave (km/s) = 3.43329 3.74354 3.59176
# Velocity P-wave (km/s) = 5.56421 6.17493 5.87751
#
# Compressibility (1/GPa) = 0.03708575
#
# Stress axis : x y z
#
# Youngs Moduli (GPa) = 60.65772 25.03191 64.32849
#
# Poissons Ratio (x) = 0.29867 0.23826
# Poissons Ratio (y) = 0.72373 0.11656
# Poissons Ratio (z) = 0.22467 0.04536
#
# Static dielectric constant tensor:
#      x y z
#    x 3.290040 0.000000 0.000000 
#    y 0.000000 3.061760 0.000000 
#    z 0.000000 0.000000 3.261920 
# 
# 
# High freq. dielectric constant tensor:
#      x y z
#    x 1.693340 0.000000 0.000000 
#    y 0.000000 1.669510 0.000000 
#    z 0.000000 0.000000 1.675780 
# 
# From -- ./inp_files/11201.got.cif
#   From: 2010.03.12/outbox.cif.g09.slc.cpg/sg36_6_cif.got.tgz:11201.got - 2010.04.14 02:13:53.
