data_PCOD8176646
_publ_section_title
;
Structure prediction by ZEFSAII (Michael W. Deem and Ramdas Pophale) SiO2 
 PCOD8176646
Probable space group: C C C 2
;
_chemical_formula_sum "Si O2"
_cell_formula_units_Z 44
_cell_length_a 24.824236
_cell_length_b 6.354364
_cell_length_c 14.093004
_cell_angle_alpha 90.000000
_cell_angle_beta 90.000000
_cell_angle_gamma 90.000000
_cell_volume 2223.061900
_symmetry_space_group_name_H-M "C C C 2"
_symmetry_group_IT_number 37
_symmetry_cell_setting 'orthorhombic'
loop_
_space_group_symop_operation_xyz
x,y,z
-x,-y,z
-x,y,1/2+z
x,-y,1/2+z
1/2+x,1/2+y,z
1/2-x,1/2-y,z
1/2-x,1/2+y,1/2+z
1/2+x,1/2-y,1/2+z
loop_
_atom_site_type_symbol
_atom_site_label
_atom_site_fract_x
_atom_site_fract_y
_atom_site_fract_z
Si Si1 0.688138 0.766920 0.776190
Si Si2 0.122401 0.645067 0.783699
Si Si3 0.463464 0.829496 0.344417
Si Si4 0.500000 0.500000 0.706667
Si Si5 0.376692 0.526667 0.420910
Si Si6 0.117058 0.003393 0.138145
O O1 0.750000 0.750000 0.747456
O O2 0.674625 0.637581 0.872100
O O3 0.650057 0.676496 0.692650
O O4 0.677966 0.014852 0.793807
O O5 0.077401 0.463133 0.779652
O O6 0.127271 0.769990 0.685163
O O7 0.113006 0.801107 0.872485
O O8 0.504510 0.703703 0.275200
O O9 0.430645 0.669787 0.411124
O O10 0.500000 0.000000 0.402960
O O11 0.447271 0.467042 0.642765
O O12 0.363139 0.498869 0.530569
#
# Coordination Sequence:
#
# PCOD8176646 Si02
#       6
#     8   8   8   4   8   8
#     4  10  23  46  66  92 129 172 212 267 338 385
#     4  10  20  41  65  83 131 164 204 268 317 377
#     4  11  19  37  62  87 124 180 206 253 325 382
#     4  12  20  38  62  90 134 168 212 266 318 396
#     4  10  23  41  61  98 127 161 228 264 311 394
#     4  11  23  40  63 100 128 164 222 264 319 397
#
# _framework density 19.792521000000001
#
# number of rings (size 3 to 8) (size 9 to 14) (size 15 to 20)
#    0.000    1.455    7.273    0.000    0.000    8.000 
#    9.818    0.000    0.000    0.000    0.000    0.000 
#    0.000    0.000    0.000    0.000    0.000    0.000 
#
# Total GULP energy -272653.208960 kJ/mol
# GULP energy per Si atom -12393.327680 kJ/mol
# Density = 1.974747 g / cm^3
# Si number density = 19.792521 Si / 1000 Ang^3
#
#
#
# Elastic Constant Matrix: (Units=GPa)
#
#
# Indices 1 2 3 4 5 6 
#
# 1 117.6653 43.3942 31.8594 0.0000 0.0000 0.0000
# 2 43.3942 130.8142 49.1229 0.0000 0.0000 0.0000
# 3 31.8594 49.1229 142.7992 0.0000 0.0000 0.0000
# 4 0.0000 0.0000 0.0000 12.0468 0.0000 0.0000
# 5 0.0000 0.0000 0.0000 0.0000 12.1811 0.0000
# 6 0.0000 0.0000 0.0000 0.0000 0.0000 28.0128
#
#
#
# Elastic Compliance Matrix: (Units=1/GPa)
#
#
# Indices 1 2 3 4 5 6 
#
# 1 0.009869 -0.002810 -0.001235 0.000000 0.000000 0.000000
# 2 -0.002810 0.009578 -0.002668 0.000000 0.000000 0.000000
# 3 -0.001235 -0.002668 0.008196 0.000000 0.000000 0.000000
# 4 0.000000 0.000000 0.000000 0.083010 0.000000 0.000000
# 5 0.000000 0.000000 0.000000 0.000000 0.082094 0.000000
# 6 0.000000 0.000000 0.000000 0.000000 0.000000 0.035698
#
#
# Mechanical properties :
#
#
# Convention : Reuss Voigt Hill
#
# Bulk Modulus (GPa) = 70.33626 71.11461 70.72544
# Shear Modulus (GPa) = 20.27473 28.24161 24.25817
#
# Velocity S-wave (km/s) = 3.20404 3.78151 3.50469
# Velocity P-wave (km/s) = 7.02152 7.42122 7.22413
#
# Compressibility (1/GPa) = 0.01421742
#
# Stress axis : x y z
#
# Youngs Moduli (GPa) = 101.32241 104.40051 122.00699
#
# Poissons Ratio (x) = 0.29337 0.15071
# Poissons Ratio (y) = 0.28472 0.32552
# Poissons Ratio (z) = 0.12516 0.27855
#
# Static dielectric constant tensor:
#      x y z
#    x 3.601480 0.000000 0.000000 
#    y 0.000000 4.042690 0.000000 
#    z 0.000000 0.000000 3.182750 
# 
# 
# High freq. dielectric constant tensor:
#      x y z
#    x 1.766480 0.000000 0.000000 
#    y 0.000000 1.795910 0.000000 
#    z 0.000000 0.000000 1.732300 
# 
# From -- ./inp_files/9709.got.cif
#   From: 2010.03.12/outbox.cif.g09.slc.cpg/sg37_5_cif.got.tgz:9709.got - 2010.04.14 02:25:27.
