data_PCOD8176461
_publ_section_title
;
Structure prediction by ZEFSAII (Michael W. Deem and Ramdas Pophale) SiO2 
 PCOD8176461
Probable space group: C C C 2
;
_chemical_formula_sum "Si O2"
_cell_formula_units_Z 64
_cell_length_a 8.620435
_cell_length_b 16.204503
_cell_length_c 23.589114
_cell_angle_alpha 90.000000
_cell_angle_beta 90.000000
_cell_angle_gamma 90.000000
_cell_volume 3295.160146
_symmetry_space_group_name_H-M "C C C 2"
_symmetry_group_IT_number 37
_symmetry_cell_setting 'orthorhombic'
loop_
_space_group_symop_operation_xyz
x,y,z
-x,-y,z
-x,y,1/2+z
x,-y,1/2+z
1/2+x,1/2+y,z
1/2-x,1/2-y,z
1/2-x,1/2+y,1/2+z
1/2+x,1/2-y,1/2+z
loop_
_atom_site_type_symbol
_atom_site_label
_atom_site_fract_x
_atom_site_fract_y
_atom_site_fract_z
Si Si1 0.321098 0.982406 0.909680
Si Si2 0.318321 0.502404 0.292593
Si Si3 0.153687 0.391437 0.602559
Si Si4 0.406266 0.583777 0.688062
Si Si5 0.699376 0.339379 0.987289
Si Si6 0.605247 0.577534 0.984843
Si Si7 0.809604 0.584949 0.090338
Si Si8 0.208183 0.159313 0.721048
O O1 0.289480 0.903176 0.947820
O O2 0.500000 0.000000 0.920285
O O3 0.288150 0.969358 0.843386
O O4 0.204184 0.056120 0.928544
O O5 0.500000 0.500000 0.310273
O O6 0.294812 0.438385 0.240906
O O7 0.260663 0.592722 0.271182
O O8 0.261066 0.351949 0.553730
O O9 0.174694 0.488704 0.602501
O O10 0.193632 0.356800 0.664201
O O11 0.974439 0.369115 0.590251
O O12 0.500000 0.500000 0.670117
O O13 0.302585 0.621539 0.638405
O O14 0.526861 0.655082 0.704772
O O15 0.750000 0.250000 0.966657
O O16 0.514151 0.347150 0.975986
O O17 0.500000 0.500000 0.005262
O O18 0.732092 0.602630 0.030523
O O19 0.250000 0.250000 0.744667
#
# Coordination Sequence:
#
# PCOD8176461 Si02
#       8
#     8   8   8   8   8   8   8   8
#     4  11  22  39  61  85 110 146 198 246 284 346
#     4   9  19  36  58  81 105 148 198 237 276 345
#     4  11  20  31  55  88 122 148 191 239 290 343
#     4   9  17  33  55  79 109 148 198 231 274 345
#     4  11  23  39  59  87 119 153 189 239 295 348
#     4  10  19  34  59  79 111 153 195 233 279 351
#     4  11  18  31  55  86 115 152 198 240 273 343
#     4  10  20  36  56  84 118 152 188 239 292 344
#
# _framework density 19.422425
#
# number of rings (size 3 to 8) (size 9 to 14) (size 15 to 20)
#    0.000    2.000    5.000    3.375    0.000    1.000 
#    0.000    8.125    0.000    0.000    0.000    0.000 
#    0.000    0.000    0.000    0.000    0.000    0.000 
#
# Total GULP energy -396696.917017 kJ/mol
# GULP energy per Si atom -12396.778657 kJ/mol
# Density = 1.937822 g / cm^3
# Si number density = 19.422425 Si / 1000 Ang^3
#
#
#
# Elastic Constant Matrix: (Units=GPa)
#
#
# Indices 1 2 3 4 5 6 
#
# 1 105.5994 27.6339 32.4586 0.0000 0.0000 0.0000
# 2 27.6339 72.0806 14.4748 0.0000 0.0000 0.0000
# 3 32.4586 14.4748 91.3714 0.0000 0.0000 0.0000
# 4 0.0000 0.0000 0.0000 -3.3233 0.0000 0.0000
# 5 0.0000 0.0000 0.0000 0.0000 32.3594 0.0000
# 6 0.0000 0.0000 0.0000 0.0000 0.0000 25.9507
#
#
#
# Elastic Compliance Matrix: (Units=1/GPa)
#
#
# Indices 1 2 3 4 5 6 
#
# 1 0.011518 -0.003712 -0.003504 0.000000 0.000000 0.000000
# 2 -0.003712 0.015526 -0.001141 0.000000 0.000000 0.000000
# 3 -0.003504 -0.001141 0.012370 0.000000 0.000000 0.000000
# 4 0.000000 0.000000 0.000000 -0.300902 0.000000 0.000000
# 5 0.000000 0.000000 0.000000 0.000000 0.030903 0.000000
# 6 0.000000 0.000000 0.000000 0.000000 0.000000 0.038535
#
#
# Mechanical properties :
#
#
# Convention : Reuss Voigt Hill
#
# Bulk Modulus (GPa) = 44.05247 46.46511 45.25879
# Shear Modulus (GPa) = -29.80254 23.96296 -2.91979
#
# Velocity S-wave (km/s) = -3.92144 3.51633 -1.22743
# Velocity P-wave (km/s) = 1.49227 6.36093 4.61997
#
# Compressibility (1/GPa) = 0.02270020
#
# Stress axis : x y z
#
# Youngs Moduli (GPa) = 86.81996 64.40975 80.84288
#
# Poissons Ratio (x) = 0.23910 0.28324
# Poissons Ratio (y) = 0.32229 0.09223
# Poissons Ratio (z) = 0.30418 0.07348
#
# Static dielectric constant tensor:
#      x y z
#    x 3.777050 0.000000 0.000000 
#    y 0.000000 3.269770 0.000000 
#    z 0.000000 0.000000 3.486300 
# 
# 
# High freq. dielectric constant tensor:
#      x y z
#    x 1.764370 0.000000 0.000000 
#    y 0.000000 1.715610 0.000000 
#    z 0.000000 0.000000 1.753170 
# 
# From -- ./inp_files/18533.got.cif
#   From: 2010.03.12/outbox.cif.g09.slc.cpg/sg37_10_cif.got.tgz:18533.got - 2010.04.14 02:25:27.
