data_PCOD8176214
_publ_section_title
;
Structure prediction by ZEFSAII (Michael W. Deem and Ramdas Pophale) SiO2 
 PCOD8176214
Probable space group: C M C 21
;
_chemical_formula_sum "Si O2"
_cell_formula_units_Z 48
_cell_length_a 13.629179
_cell_length_b 18.868543
_cell_length_c 8.294800
_cell_angle_alpha 90.000000
_cell_angle_beta 90.000000
_cell_angle_gamma 90.000000
_cell_volume 2133.113579
_symmetry_space_group_name_H-M "C M C 21"
_symmetry_group_IT_number 36
_symmetry_cell_setting 'orthorhombic'
loop_
_space_group_symop_operation_xyz
x,y,z
-x,-y,1/2+z
x,-y,1/2+z
-x,y,z
1/2+x,1/2+y,z
1/2-x,1/2-y,1/2+z
1/2+x,1/2-y,1/2+z
1/2-x,1/2+y,z
loop_
_atom_site_type_symbol
_atom_site_label
_atom_site_fract_x
_atom_site_fract_y
_atom_site_fract_z
Si Si1 0.891686 0.605371 0.729970
Si Si2 0.240173 0.799364 0.389242
Si Si3 0.614135 0.709948 0.602967
Si Si4 0.892461 0.524635 0.051848
Si Si5 0.300060 0.421033 0.623133
Si Si6 0.388659 0.558855 0.465216
O O1 0.807396 0.662196 0.754686
O O2 0.873001 0.560423 0.566737
O O3 0.000000 0.641436 0.731110
O O4 0.883850 0.544495 0.865616
O O5 0.313478 0.743814 0.470860
O O6 0.185295 0.850240 0.517000
O O7 0.152717 0.765886 0.280755
O O8 0.500000 0.734609 0.580540
O O9 0.621538 0.624715 0.587513
O O10 0.000000 0.543234 0.121180
O O11 0.816270 0.571995 0.154949
O O12 0.327021 0.491532 0.522076
O O13 0.359057 0.414668 0.787422
O O14 0.500000 0.532572 0.456115
#
# Coordination Sequence:
#
# PCOD8176214 Si02
#       6
#     8   8   8   8   8   8
#     4   9  17  31  53  81 115 154 196 247 306 369
#     4  11  23  41  64  88 123 168 217 268 326 386
#     4  11  25  45  66  92 129 171 217 269 324 388
#     4   9  17  29  49  80 115 150 189 238 298 359
#     4  11  21  37  62  92 127 166 213 266 322 382
#     4  11  23  39  62  93 129 167 212 266 320 378
#
# _framework density 22.502317000000001
#
# number of rings (size 3 to 8) (size 9 to 14) (size 15 to 20)
#    0.000    1.667    0.000    6.000    0.000    3.333 
#    0.000    1.667    0.000    4.000    0.000    0.000 
#    0.000    0.000    0.000    0.000    0.000    0.000 
#
# Total GULP energy -297447.447738 kJ/mol
# GULP energy per Si atom -12393.643656 kJ/mol
# Density = 2.245110 g / cm^3
# Si number density = 22.502317 Si / 1000 Ang^3
#
#
#
# Elastic Constant Matrix: (Units=GPa)
#
#
# Indices 1 2 3 4 5 6 
#
# 1 96.4169 28.0543 40.2911 0.0000 0.0000 0.0000
# 2 28.0543 62.3660 15.4179 0.0000 0.0000 0.0000
# 3 40.2911 15.4179 67.5876 0.0000 0.0000 0.0000
# 4 0.0000 0.0000 0.0000 36.0175 0.0000 0.0000
# 5 0.0000 0.0000 0.0000 0.0000 37.3539 0.0000
# 6 0.0000 0.0000 0.0000 0.0000 0.0000 29.0111
#
#
#
# Elastic Compliance Matrix: (Units=1/GPa)
#
#
# Indices 1 2 3 4 5 6 
#
# 1 0.015071 -0.004831 -0.007882 0.000000 0.000000 0.000000
# 2 -0.004831 0.018541 -0.001350 0.000000 0.000000 0.000000
# 3 -0.007882 -0.001350 0.019802 0.000000 0.000000 0.000000
# 4 0.000000 0.000000 0.000000 0.027764 0.000000 0.000000
# 5 0.000000 0.000000 0.000000 0.000000 0.026771 0.000000
# 6 0.000000 0.000000 0.000000 0.000000 0.000000 0.034470
#
#
# Mechanical properties :
#
#
# Convention : Reuss Voigt Hill
#
# Bulk Modulus (GPa) = 39.54319 43.76634 41.65476
# Shear Modulus (GPa) = 27.93682 29.98364 28.96023
#
# Velocity S-wave (km/s) = 3.52733 3.65426 3.59135
# Velocity P-wave (km/s) = 5.84812 6.10711 5.97901
#
# Compressibility (1/GPa) = 0.02528881
#
# Stress axis : x y z
#
# Youngs Moduli (GPa) = 66.35176 53.93411 50.49875
#
# Poissons Ratio (x) = 0.26055 0.39805
# Poissons Ratio (y) = 0.32054 0.06816
# Poissons Ratio (z) = 0.52301 0.07280
#
# Static dielectric constant tensor:
#      x y z
#    x 4.420980 0.000000 0.000000 
#    y 0.000000 3.845320 0.000000 
#    z 0.000000 0.000000 3.914550 
# 
# 
# High freq. dielectric constant tensor:
#      x y z
#    x 1.907020 0.000000 0.000000 
#    y 0.000000 1.863250 0.000000 
#    z 0.000000 0.000000 1.877170 
# 
# From -- ./inp_files/3983.got.cif
#   From: 2010.03.12/outbox.cif.g09.slc.cpg/sg36_2_cif.got.tgz:3983.got - 2010.04.14 02:13:53.
