data_PCOD8176715
_publ_section_title
;
Structure prediction by ZEFSAII (Michael W. Deem and Ramdas Pophale) SiO2 
 PCOD8176715
Probable space group: C C C 2
;
_chemical_formula_sum "Si O2"
_cell_formula_units_Z 32
_cell_length_a 7.327167
_cell_length_b 39.258088
_cell_length_c 5.184209
_cell_angle_alpha 90.000000
_cell_angle_beta 90.000000
_cell_angle_gamma 90.000000
_cell_volume 1491.240658
_symmetry_space_group_name_H-M "C C C 2"
_symmetry_group_IT_number 37
_symmetry_cell_setting 'orthorhombic'
loop_
_space_group_symop_operation_xyz
x,y,z
-x,-y,z
-x,y,1/2+z
x,-y,1/2+z
1/2+x,1/2+y,z
1/2-x,1/2-y,z
1/2-x,1/2+y,1/2+z
1/2+x,1/2-y,1/2+z
loop_
_atom_site_type_symbol
_atom_site_label
_atom_site_fract_x
_atom_site_fract_y
_atom_site_fract_z
Si Si1 0.704682 0.485205 0.468490
Si Si2 0.118923 0.855381 0.542280
Si Si3 0.880218 0.583446 0.037763
Si Si4 0.610759 0.720743 0.985868
O O1 0.500000 0.500000 0.434236
O O2 0.806429 0.504298 0.704063
O O3 0.718471 0.444555 0.506455
O O4 0.291891 0.879569 0.508384
O O5 0.196275 0.816844 0.525346
O O6 0.971542 0.862343 0.319189
O O7 0.967902 0.578944 0.318664
O O8 0.445487 0.724870 0.187994
O O9 0.750000 0.750000 0.060905
#
# Coordination Sequence:
#
# PCOD8176715 Si02
#       4
#     8   8   8   8
#     4  10  23  40  63  88 115 160 205 235 312 371
#     4  10  23  41  65  88 125 170 209 239 303 381
#     4  12  26  41  64  96 124 153 203 265 312 350
#     4  10  21  38  61  94 124 166 208 252 300 359
#
# _framework density 21.458642000000001
#
# number of rings (size 3 to 8) (size 9 to 14) (size 15 to 20)
#    0.000    1.500    0.000    3.750    7.000    5.000 
#    0.000    0.000    0.000    0.000    0.000    0.000 
#    0.000    0.000    0.000    0.000    0.000    0.000 
#
# Total GULP energy -198368.200822 kJ/mol
# GULP energy per Si atom -12398.012551 kJ/mol
# Density = 2.140980 g / cm^3
# Si number density = 21.458642 Si / 1000 Ang^3
#
#
#
# Elastic Constant Matrix: (Units=GPa)
#
#
# Indices 1 2 3 4 5 6 
#
# 1 52.3736 50.7374 -6.0481 0.0000 0.0000 0.0000
# 2 50.7374 144.8418 17.6631 0.0000 0.0000 0.0000
# 3 -6.0481 17.6631 127.7270 0.0000 0.0000 0.0000
# 4 0.0000 0.0000 0.0000 31.1183 0.0000 0.0000
# 5 0.0000 0.0000 0.0000 0.0000 11.8678 0.0000
# 6 0.0000 0.0000 0.0000 0.0000 0.0000 41.3423
#
#
#
# Elastic Compliance Matrix: (Units=1/GPa)
#
#
# Indices 1 2 3 4 5 6 
#
# 1 0.029933 -0.010841 0.002917 0.000000 0.000000 0.000000
# 2 -0.010841 0.010949 -0.002027 0.000000 0.000000 0.000000
# 3 0.002917 -0.002027 0.008248 0.000000 0.000000 0.000000
# 4 0.000000 0.000000 0.000000 0.032135 0.000000 0.000000
# 5 0.000000 0.000000 0.000000 0.000000 0.084262 0.000000
# 6 0.000000 0.000000 0.000000 0.000000 0.000000 0.024188
#
#
# Mechanical properties :
#
#
# Convention : Reuss Voigt Hill
#
# Bulk Modulus (GPa) = 34.21671 49.96082 42.08876
# Shear Modulus (GPa) = 22.79358 34.37168 28.58263
#
# Velocity S-wave (km/s) = 3.26269 4.00655 3.65360
# Velocity P-wave (km/s) = 5.49305 6.68851 6.12004
#
# Compressibility (1/GPa) = 0.02922549
#
# Stress axis : x y z
#
# Youngs Moduli (GPa) = 33.40838 91.33388 121.24640
#
# Poissons Ratio (x) = 0.99014 -0.35362
# Poissons Ratio (y) = 0.36218 0.24582
# Poissons Ratio (z) = -0.09744 0.18517
#
# Static dielectric constant tensor:
#      x y z
#    x 3.439550 0.000000 0.000000 
#    y 0.000000 4.086770 0.000000 
#    z 0.000000 0.000000 4.853980 
# 
# 
# High freq. dielectric constant tensor:
#      x y z
#    x 1.805920 0.000000 0.000000 
#    y 0.000000 1.856140 0.000000 
#    z 0.000000 0.000000 1.877870 
# 
# From -- ./inp_files/151.got.cif
#   From: 2010.03.12/outbox.cif.g09.slc.cpg/sg37_1_cif.got.tgz:151.got - 2010.04.14 02:25:27.
