data_PCOD8176850
_publ_section_title
;
Structure prediction by ZEFSAII (Michael W. Deem and Ramdas Pophale) SiO2 
 PCOD8176850
Probable space group: C C C 2
;
_chemical_formula_sum "Si O2"
_cell_formula_units_Z 60
_cell_length_a 8.050003
_cell_length_b 23.932420
_cell_length_c 13.950674
_cell_angle_alpha 90.000000
_cell_angle_beta 90.000000
_cell_angle_gamma 90.000000
_cell_volume 2687.681787
_symmetry_space_group_name_H-M "C C C 2"
_symmetry_group_IT_number 37
_symmetry_cell_setting 'orthorhombic'
loop_
_space_group_symop_operation_xyz
x,y,z
-x,-y,z
-x,y,1/2+z
x,-y,1/2+z
1/2+x,1/2+y,z
1/2-x,1/2-y,z
1/2-x,1/2+y,1/2+z
1/2+x,1/2-y,1/2+z
loop_
_atom_site_type_symbol
_atom_site_label
_atom_site_fract_x
_atom_site_fract_y
_atom_site_fract_z
Si Si1 0.084372 0.391208 0.419570
Si Si2 0.500000 0.500000 0.328365
Si Si3 0.443649 0.625142 0.890290
Si Si4 0.333165 0.028710 0.250244
Si Si5 0.909913 0.678803 0.769052
Si Si6 0.414809 0.886810 0.611157
Si Si7 0.342187 0.694712 0.533471
Si Si8 0.971521 0.799071 0.726460
O O1 0.265246 0.363790 0.439798
O O2 0.119632 0.443253 0.350939
O O3 0.954012 0.347384 0.372916
O O4 0.008136 0.412897 0.519148
O O5 0.515132 0.558277 0.387806
O O6 0.667503 0.491570 0.264777
O O7 0.427187 0.652582 0.783707
O O8 0.586122 0.658436 0.946360
O O9 0.290133 0.069628 0.162059
O O10 0.500000 0.000000 0.212805
O O11 0.014473 0.736482 0.762828
O O12 0.718627 0.689392 0.750146
O O13 0.953529 0.632816 0.689764
O O14 0.310249 0.833908 0.583945
O O15 0.250000 0.750000 0.492211
O O16 0.486651 0.701857 0.613189
#
# Coordination Sequence:
#
# PCOD8176850 Si02
#       8
#     8   4   8   8   8   8   8   8
#     4  10  23  44  67  97 137 178 233 280 348 413
#     4  10  24  50  70 102 136 184 242 294 346 424
#     4  11  26  44  72  99 138 186 230 295 347 415
#     4  10  24  45  75 100 134 185 234 293 354 411
#     4  10  22  39  66  97 135 182 217 280 339 420
#     4  11  23  43  65 100 137 175 227 281 346 418
#     4  12  25  43  66 105 140 179 229 285 347 429
#     4  11  23  40  67  98 137 178 226 275 349 406
#
# _framework density 22.324072000000001
#
# number of rings (size 3 to 8) (size 9 to 14) (size 15 to 20)
#    0.000    1.333    1.333    4.000    9.333    0.533 
#    4.800    0.667    0.000    0.000    0.000    0.000 
#    0.000    0.000    0.000    0.000    0.000    0.000 
#
# Total GULP energy -371755.385641 kJ/mol
# GULP energy per Si atom -12391.846188 kJ/mol
# Density = 2.227326 g / cm^3
# Si number density = 22.324072 Si / 1000 Ang^3
#
#
#
# Elastic Constant Matrix: (Units=GPa)
#
#
# Indices 1 2 3 4 5 6 
#
# 1 117.0950 32.8811 29.2275 0.0000 0.0000 0.0000
# 2 32.8811 92.2893 42.0688 0.0000 0.0000 0.0000
# 3 29.2275 42.0688 108.9419 0.0000 0.0000 0.0000
# 4 0.0000 0.0000 0.0000 11.0862 0.0000 0.0000
# 5 0.0000 0.0000 0.0000 0.0000 14.4106 0.0000
# 6 0.0000 0.0000 0.0000 0.0000 0.0000 36.4409
#
#
#
# Elastic Compliance Matrix: (Units=1/GPa)
#
#
# Indices 1 2 3 4 5 6 
#
# 1 0.009697 -0.002754 -0.001538 0.000000 0.000000 0.000000
# 2 -0.002754 0.013932 -0.004641 0.000000 0.000000 0.000000
# 3 -0.001538 -0.004641 0.011384 0.000000 0.000000 0.000000
# 4 0.000000 0.000000 0.000000 0.090203 0.000000 0.000000
# 5 0.000000 0.000000 0.000000 0.000000 0.069393 0.000000
# 6 0.000000 0.000000 0.000000 0.000000 0.000000 0.027442
#
#
# Mechanical properties :
#
#
# Convention : Reuss Voigt Hill
#
# Bulk Modulus (GPa) = 58.31877 58.52012 58.41945
# Shear Modulus (GPa) = 20.35551 26.66412 23.50982
#
# Velocity S-wave (km/s) = 3.02291 3.45977 3.24869
# Velocity P-wave (km/s) = 6.19390 6.49853 6.34804
#
# Compressibility (1/GPa) = 0.01714714
#
# Stress axis : x y z
#
# Youngs Moduli (GPa) = 103.12136 71.77582 87.84142
#
# Poissons Ratio (x) = 0.19766 0.13512
# Poissons Ratio (y) = 0.28398 0.40769
# Poissons Ratio (z) = 0.15863 0.33313
#
# Static dielectric constant tensor:
#      x y z
#    x 4.246200 0.000000 0.000000 
#    y 0.000000 4.210830 0.000000 
#    z 0.000000 0.000000 4.030810 
# 
# 
# High freq. dielectric constant tensor:
#      x y z
#    x 1.890840 0.000000 0.000000 
#    y 0.000000 1.879160 0.000000 
#    z 0.000000 0.000000 1.873230 
# 
# From -- ./inp_files/10953.got.cif
#   From: 2010.03.12/outbox.cif.g09.slc.cpg/sg37_6_cif.got.tgz:10953.got - 2010.04.14 02:25:27.
