data_PCOD8176366
_publ_section_title
;
Structure prediction by ZEFSAII (Michael W. Deem and Ramdas Pophale) SiO2 
 PCOD8176366
Probable space group: C C C 2
;
_chemical_formula_sum "Si O2"
_cell_formula_units_Z 52
_cell_length_a 5.406296
_cell_length_b 16.978348
_cell_length_c 27.452315
_cell_angle_alpha 90.000000
_cell_angle_beta 90.000000
_cell_angle_gamma 90.000000
_cell_volume 2519.847304
_symmetry_space_group_name_H-M "C C C 2"
_symmetry_group_IT_number 37
_symmetry_cell_setting 'orthorhombic'
loop_
_space_group_symop_operation_xyz
x,y,z
-x,-y,z
-x,y,1/2+z
x,-y,1/2+z
1/2+x,1/2+y,z
1/2-x,1/2-y,z
1/2-x,1/2+y,1/2+z
1/2+x,1/2-y,1/2+z
loop_
_atom_site_type_symbol
_atom_site_label
_atom_site_fract_x
_atom_site_fract_y
_atom_site_fract_z
Si Si1 0.482946 0.160988 0.103900
Si Si2 0.501049 0.700806 0.750153
Si Si3 0.096266 0.324228 0.497933
Si Si4 0.250016 0.549835 0.928729
Si Si5 0.985239 0.839485 0.643154
Si Si6 0.392911 0.667896 0.852955
Si Si7 0.250000 0.750000 0.419656
O O1 0.241066 0.118171 0.126752
O O2 0.497738 0.249575 0.124621
O O3 0.742162 0.119374 0.119360
O O4 0.442593 0.151821 0.045745
O O5 0.250000 0.750000 0.742019
O O6 0.543438 0.651275 0.701231
O O7 0.466868 0.644537 0.797575
O O8 0.750000 0.750000 0.760198
O O9 0.250000 0.250000 0.516768
O O10 0.266371 0.394225 0.476669
O O11 0.933594 0.299224 0.452535
O O12 0.500000 0.500000 0.929251
O O13 0.234766 0.598808 0.877971
O O14 0.000000 0.500000 0.932130
O O15 0.250000 0.750000 0.850771
O O16 0.630638 0.682087 0.886692
#
# Coordination Sequence:
#
# PCOD8176366 Si02
#       7
#     8   8   8   8   8   8   4
#     4  10  19  29  51  80 123 148 183 235 308 354
#     4  11  19  30  54  84 124 145 188 241 316 355
#     4  12  23  36  62  91 117 165 207 255 303 365
#     4  12  27  44  60  85 128 170 210 254 307 368
#     4  10  16  31  46  85 125 145 171 246 315 355
#     4  11  23  38  62  91 118 162 203 259 309 362
#     4  12  18  36  60  86 128 142 212 252 316 348
#
# _framework density 20.636171000000001
#
# number of rings (size 3 to 8) (size 9 to 14) (size 15 to 20)
#    0.000    0.923    8.462    1.846    0.000    0.000 
#    0.000    0.000    0.000    0.000    0.000    6.462 
#    0.000    0.000    0.000    0.000    0.000    0.000 
#
# Total GULP energy -322196.848933 kJ/mol
# GULP energy per Si atom -12392.186497 kJ/mol
# Density = 2.058920 g / cm^3
# Si number density = 20.636171 Si / 1000 Ang^3
#
#
#
# Elastic Constant Matrix: (Units=GPa)
#
#
# Indices 1 2 3 4 5 6 
#
# 1 147.4755 20.3282 30.0061 0.0000 0.0000 0.0000
# 2 20.3282 53.4236 25.7636 0.0000 0.0000 0.0000
# 3 30.0061 25.7636 174.6882 0.0000 0.0000 0.0000
# 4 0.0000 0.0000 0.0000 1.6147 0.0000 0.0000
# 5 0.0000 0.0000 0.0000 0.0000 55.5628 0.0000
# 6 0.0000 0.0000 0.0000 0.0000 0.0000 20.4818
#
#
#
# Elastic Compliance Matrix: (Units=1/GPa)
#
#
# Indices 1 2 3 4 5 6 
#
# 1 0.007287 -0.002335 -0.000907 0.000000 0.000000 0.000000
# 2 -0.002335 0.020900 -0.002681 0.000000 0.000000 0.000000
# 3 -0.000907 -0.002681 0.006276 0.000000 0.000000 0.000000
# 4 0.000000 0.000000 0.000000 0.619323 0.000000 0.000000
# 5 0.000000 0.000000 0.000000 0.000000 0.017998 0.000000
# 6 0.000000 0.000000 0.000000 0.000000 0.000000 0.048824
#
#
# Mechanical properties :
#
#
# Convention : Reuss Voigt Hill
#
# Bulk Modulus (GPa) = 44.21796 58.64257 51.43027
# Shear Modulus (GPa) = 6.75681 35.49781 21.12731
#
# Velocity S-wave (km/s) = 1.81145 4.15200 3.20316
# Velocity P-wave (km/s) = 5.08420 7.17388 6.21746
#
# Compressibility (1/GPa) = 0.02261524
#
# Stress axis : x y z
#
# Youngs Moduli (GPa) = 137.22509 47.84691 159.34284
#
# Poissons Ratio (x) = 0.11174 0.14457
# Poissons Ratio (y) = 0.32047 0.42724
# Poissons Ratio (z) = 0.12451 0.12829
#
# Static dielectric constant tensor:
#      x y z
#    x 5.287980 0.000000 0.000000 
#    y 0.000000 3.253480 0.000000 
#    z 0.000000 0.000000 4.095690 
# 
# 
# High freq. dielectric constant tensor:
#      x y z
#    x 1.833330 0.000000 0.000000 
#    y 0.000000 1.726470 0.000000 
#    z 0.000000 0.000000 1.828180 
# 
# From -- ./inp_files/19481.got.cif
#   From: 2010.03.12/outbox.cif.g09.slc.cpg/sg37_10_cif.got.tgz:19481.got - 2010.04.14 02:25:27.
