data_PCOD8176960
_publ_section_title
;
Structure prediction by ZEFSAII (Michael W. Deem and Ramdas Pophale) SiO2 
 PCOD8176960
Probable space group: C C C 2
;
_chemical_formula_sum "Si O2"
_cell_formula_units_Z 40
_cell_length_a 10.668712
_cell_length_b 15.823774
_cell_length_c 9.366099
_cell_angle_alpha 90.000000
_cell_angle_beta 90.000000
_cell_angle_gamma 90.000000
_cell_volume 1581.178160
_symmetry_space_group_name_H-M "C C C 2"
_symmetry_group_IT_number 37
_symmetry_cell_setting 'orthorhombic'
loop_
_space_group_symop_operation_xyz
x,y,z
-x,-y,z
-x,y,1/2+z
x,-y,1/2+z
1/2+x,1/2+y,z
1/2-x,1/2-y,z
1/2-x,1/2+y,1/2+z
1/2+x,1/2-y,1/2+z
loop_
_atom_site_type_symbol
_atom_site_label
_atom_site_fract_x
_atom_site_fract_y
_atom_site_fract_z
Si Si1 0.657473 0.170568 0.909890
Si Si2 0.746815 0.343422 0.475563
Si Si3 0.078273 0.119860 0.753614
Si Si4 0.302243 0.552870 0.726607
Si Si5 0.577609 0.194035 0.216302
O O1 0.750000 0.250000 0.920439
O O2 0.731540 0.083431 0.870260
O O3 0.561153 0.190493 0.781302
O O4 0.587505 0.150269 0.060567
O O5 0.750000 0.250000 0.544574
O O6 0.603864 0.364475 0.423403
O O7 0.781038 0.412202 0.594644
O O8 0.832732 0.349238 0.333927
O O9 0.115450 0.208457 0.679567
O O10 0.936947 0.096994 0.725865
O O11 0.177392 0.046771 0.708295
#
# Coordination Sequence:
#
# PCOD8176960 Si02
#       5
#     8   8   8   8   8
#     4  12  24  44  75 110 151 201 261 307 378 450
#     4  10  23  43  66 101 149 194 250 311 368 450
#     4  10  24  41  68 110 152 188 245 316 385 436
#     4  11  24  43  72 109 149 196 245 320 385 439
#     4  11  25  45  74 110 150 203 259 307 368 466
#
# _framework density 25.297592999999999
#
# number of rings (size 3 to 8) (size 9 to 14) (size 15 to 20)
#    0.000    1.200    2.000    3.600    5.600    8.000 
#    0.000    1.000    0.000   12.000    0.000    0.000 
#    0.000    0.000    0.000    0.000    0.000    0.000 
#
# Total GULP energy -247798.717398 kJ/mol
# GULP energy per Si atom -12389.935870 kJ/mol
# Density = 2.524001 g / cm^3
# Si number density = 25.297593 Si / 1000 Ang^3
#
#
#
# Elastic Constant Matrix: (Units=GPa)
#
#
# Indices 1 2 3 4 5 6 
#
# 1 92.3944 41.6070 62.1561 0.0000 0.0000 0.0000
# 2 41.6070 125.0826 63.8444 0.0000 0.0000 0.0000
# 3 62.1561 63.8444 154.0877 0.0000 0.0000 0.0000
# 4 0.0000 0.0000 0.0000 24.6691 0.0000 0.0000
# 5 0.0000 0.0000 0.0000 0.0000 34.9288 0.0000
# 6 0.0000 0.0000 0.0000 0.0000 0.0000 40.0597
#
#
#
# Elastic Compliance Matrix: (Units=1/GPa)
#
#
# Indices 1 2 3 4 5 6 
#
# 1 0.015438 -0.002482 -0.005199 0.000000 0.000000 0.000000
# 2 -0.002482 0.010538 -0.003365 0.000000 0.000000 0.000000
# 3 -0.005199 -0.003365 0.009981 0.000000 0.000000 0.000000
# 4 0.000000 0.000000 0.000000 0.040537 0.000000 0.000000
# 5 0.000000 0.000000 0.000000 0.000000 0.028630 0.000000
# 6 0.000000 0.000000 0.000000 0.000000 0.000000 0.024963
#
#
# Mechanical properties :
#
#
# Convention : Reuss Voigt Hill
#
# Bulk Modulus (GPa) = 72.12159 78.53107 75.32633
# Shear Modulus (GPa) = 31.88763 33.52869 32.70816
#
# Velocity S-wave (km/s) = 3.55420 3.64451 3.59964
# Velocity P-wave (km/s) = 6.73901 6.98715 6.86420
#
# Compressibility (1/GPa) = 0.01386547
#
# Stress axis : x y z
#
# Youngs Moduli (GPa) = 64.77362 94.89622 100.18557
#
# Poissons Ratio (x) = 0.23549 0.52090
# Poissons Ratio (y) = 0.16074 0.33715
# Poissons Ratio (z) = 0.33678 0.31935
#
# Static dielectric constant tensor:
#      x y z
#    x 4.650790 0.000000 0.000000 
#    y 0.000000 4.548920 0.000000 
#    z 0.000000 0.000000 4.660070 
# 
# 
# High freq. dielectric constant tensor:
#      x y z
#    x 2.009320 0.000000 0.000000 
#    y 0.000000 1.995630 0.000000 
#    z 0.000000 0.000000 2.012550 
# 
# From -- ./inp_files/2704.got.cif
#   From: 2010.03.12/outbox.cif.g09.slc.cpg/sg37_2_cif.got.tgz:2704.got - 2010.04.14 02:25:27.
