data_PCOD8176567
_publ_section_title
;
Structure prediction by ZEFSAII (Michael W. Deem and Ramdas Pophale) SiO2 
 PCOD8176567
Probable space group: C C C 2
;
_chemical_formula_sum "Si O2"
_cell_formula_units_Z 52
_cell_length_a 8.167676
_cell_length_b 11.651008
_cell_length_c 26.209281
_cell_angle_alpha 90.000000
_cell_angle_beta 90.000000
_cell_angle_gamma 90.000000
_cell_volume 2494.118646
_symmetry_space_group_name_H-M "C C C 2"
_symmetry_group_IT_number 37
_symmetry_cell_setting 'orthorhombic'
loop_
_space_group_symop_operation_xyz
x,y,z
-x,-y,z
-x,y,1/2+z
x,-y,1/2+z
1/2+x,1/2+y,z
1/2-x,1/2-y,z
1/2-x,1/2+y,1/2+z
1/2+x,1/2-y,1/2+z
loop_
_atom_site_type_symbol
_atom_site_label
_atom_site_fract_x
_atom_site_fract_y
_atom_site_fract_z
Si Si1 0.250000 0.250000 0.028330
Si Si2 0.340489 0.437614 0.108796
Si Si3 0.535336 0.632350 0.310418
Si Si4 0.539239 0.867344 0.945939
Si Si5 0.750000 0.750000 0.869005
Si Si6 0.857043 0.419855 0.177875
Si Si7 0.750000 0.250000 0.887136
Si Si8 0.981941 0.825046 0.699620
O O1 0.296042 0.355413 0.063380
O O2 0.403225 0.204133 0.995402
O O3 0.500000 0.500000 0.087349
O O4 0.190836 0.525236 0.122417
O O5 0.382676 0.375943 0.162108
O O6 0.500000 0.500000 0.304778
O O7 0.383454 0.700398 0.332036
O O8 0.684670 0.650289 0.349496
O O9 0.568048 0.687204 0.254584
O O10 0.682345 0.855094 0.903657
O O11 0.380509 0.804862 0.924613
O O12 0.500000 0.000000 0.958487
O O13 0.933976 0.294362 0.172920
O O14 0.681350 0.406073 0.207356
O O15 0.000000 0.500000 0.203824
#
# Coordination Sequence:
#
# PCOD8176567 Si02
#       8
#     4   8   8   8   4   8   4   8
#     4  11  24  39  64  90 112 155 208 251 308 372
#     4  10  22  40  58  85 123 159 196 245 296 350
#     4  11  21  37  61  89 121 159 196 238 291 352
#     4  10  22  42  62  86 117 149 192 253 310 358
#     4   9  20  38  60  86 116 148 192 237 292 362
#     4  10  20  36  57  79 118 162 195 239 285 331
#     4  10  24  41  64  92 118 155 202 248 304 370
#     4  10  22  37  56  88 124 159 199 235 284 356
#
# _framework density 20.849048
#
# number of rings (size 3 to 8) (size 9 to 14) (size 15 to 20)
#    0.000    1.846    0.000    4.154    0.000    6.154 
#    0.000    8.462    0.000    0.000    0.000    0.000 
#    0.000    0.000    0.000    0.000    0.000    0.000 
#
# Total GULP energy -322194.706104 kJ/mol
# GULP energy per Si atom -12392.104081 kJ/mol
# Density = 2.080159 g / cm^3
# Si number density = 20.849048 Si / 1000 Ang^3
#
#
#
# Elastic Constant Matrix: (Units=GPa)
#
#
# Indices 1 2 3 4 5 6 
#
# 1 89.1809 37.0664 58.6435 0.0000 0.0000 0.0000
# 2 37.0664 133.4036 71.2392 0.0000 0.0000 0.0000
# 3 58.6435 71.2392 145.9338 0.0000 0.0000 0.0000
# 4 0.0000 0.0000 0.0000 57.2522 0.0000 0.0000
# 5 0.0000 0.0000 0.0000 0.0000 -12.5598 0.0000
# 6 0.0000 0.0000 0.0000 0.0000 0.0000 21.3697
#
#
#
# Elastic Compliance Matrix: (Units=1/GPa)
#
#
# Indices 1 2 3 4 5 6 
#
# 1 0.015410 -0.001319 -0.005549 0.000000 0.000000 0.000000
# 2 -0.001319 0.010252 -0.004475 0.000000 0.000000 0.000000
# 3 -0.005549 -0.004475 0.011267 0.000000 0.000000 0.000000
# 4 0.000000 0.000000 0.000000 0.017467 0.000000 0.000000
# 5 0.000000 0.000000 0.000000 0.000000 -0.079619 0.000000
# 6 0.000000 0.000000 0.000000 0.000000 0.000000 0.046795
#
#
# Mechanical properties :
#
#
# Convention : Reuss Voigt Hill
#
# Bulk Modulus (GPa) = 70.20347 78.04628 74.12488
# Shear Modulus (GPa) = 102.03278 26.65035 64.34157
#
# Velocity S-wave (km/s) = 7.00322 3.57914 5.56127
# Velocity P-wave (km/s) = 9.95685 7.38888 8.76739
#
# Compressibility (1/GPa) = 0.01424431
#
# Stress axis : x y z
#
# Youngs Moduli (GPa) = 64.89291 97.54202 88.75763
#
# Poissons Ratio (x) = 0.12861 0.49250
# Poissons Ratio (y) = 0.08556 0.39717
# Poissons Ratio (z) = 0.36008 0.43648
#
# Static dielectric constant tensor:
#      x y z
#    x 4.174630 0.000000 0.000000 
#    y 0.000000 3.338690 0.000000 
#    z 0.000000 0.000000 3.729100 
# 
# 
# High freq. dielectric constant tensor:
#      x y z
#    x 1.825940 0.000000 0.000000 
#    y 0.000000 1.825020 0.000000 
#    z 0.000000 0.000000 1.803160 
# 
# From -- ./inp_files/20395.got.cif
#   From: 2010.03.12/outbox.cif.g09.slc.cpg/sg37_11_cif.got.tgz:20395.got - 2010.04.14 02:25:27.
