data_PCOD8176721
_publ_section_title
;
Structure prediction by ZEFSAII (Michael W. Deem and Ramdas Pophale) SiO2 
 PCOD8176721
Probable space group: C C C 2
;
_chemical_formula_sum "Si O2"
_cell_formula_units_Z 64
_cell_length_a 21.599882
_cell_length_b 19.253770
_cell_length_c 7.599224
_cell_angle_alpha 90.000000
_cell_angle_beta 90.000000
_cell_angle_gamma 90.000000
_cell_volume 3160.358894
_symmetry_space_group_name_H-M "C C C 2"
_symmetry_group_IT_number 37
_symmetry_cell_setting 'orthorhombic'
loop_
_space_group_symop_operation_xyz
x,y,z
-x,-y,z
-x,y,1/2+z
x,-y,1/2+z
1/2+x,1/2+y,z
1/2-x,1/2-y,z
1/2-x,1/2+y,1/2+z
1/2+x,1/2-y,1/2+z
loop_
_atom_site_type_symbol
_atom_site_label
_atom_site_fract_x
_atom_site_fract_y
_atom_site_fract_z
Si Si1 0.421196 0.367155 0.662240
Si Si2 0.930017 0.577388 0.275437
Si Si3 0.718989 0.582256 0.028019
Si Si4 0.863794 0.795853 0.988617
Si Si5 0.150999 0.636881 0.475527
Si Si6 0.940589 0.132807 0.774743
Si Si7 0.145294 0.999878 0.252399
Si Si8 0.934372 0.417359 0.182411
O O1 0.384673 0.313942 0.789356
O O2 0.487225 0.383634 0.750150
O O3 0.429407 0.333575 0.468323
O O4 0.383262 0.438871 0.629954
O O5 0.878339 0.612769 0.158195
O O6 0.928660 0.495766 0.245466
O O7 0.916335 0.592848 0.479444
O O8 0.995822 0.608595 0.215356
O O9 0.787610 0.589181 0.950020
O O10 0.712691 0.535352 0.203271
O O11 0.695565 0.660518 0.051483
O O12 0.663598 0.541628 0.926584
O O13 0.838092 0.718156 0.995158
O O14 0.918739 0.811298 0.128263
O O15 0.110174 0.628151 0.302230
O O16 0.905808 0.059559 0.764119
#
# Coordination Sequence:
#
# PCOD8176721 Si02
#       8
#     8   8   8   8   8   8   8   8
#     4  11  21  38  64  96 131 166 210 258 313 379
#     4  11  21  40  64  93 123 151 193 259 322 366
#     4  10  23  41  63  88 123 165 213 255 310 366
#     4  10  25  43  57  88 129 175 202 254 306 372
#     4  12  25  41  66  88 127 165 210 253 310 380
#     4  11  21  38  64  96 131 166 210 258 313 379
#     4  10  21  38  64  94 125 162 212 270 316 356
#     4  11  21  40  64  93 123 151 193 259 322 366
#
# _framework density 20.250864
#
# number of rings (size 3 to 8) (size 9 to 14) (size 15 to 20)
#    0.000    1.250    5.000    1.500    1.750    3.000 
#    0.000    0.000    0.000    4.500    0.000    0.000 
#    0.000    0.000    0.000    0.000    0.000    0.000 
#
# Total GULP energy -396552.106329 kJ/mol
# GULP energy per Si atom -12392.253323 kJ/mol
# Density = 2.020477 g / cm^3
# Si number density = 20.250864 Si / 1000 Ang^3
#
#
#
# Elastic Constant Matrix: (Units=GPa)
#
#
# Indices 1 2 3 4 5 6 
#
# 1 84.0623 27.1861 11.2188 0.0000 0.0000 0.0000
# 2 27.1861 65.3846 16.7672 0.0000 0.0000 0.0000
# 3 11.2188 16.7672 123.4335 0.0000 0.0000 0.0000
# 4 0.0000 0.0000 0.0000 20.0045 0.0000 0.0000
# 5 0.0000 0.0000 0.0000 0.0000 26.6879 0.0000
# 6 0.0000 0.0000 0.0000 0.0000 0.0000 23.4588
#
#
#
# Elastic Compliance Matrix: (Units=1/GPa)
#
#
# Indices 1 2 3 4 5 6 
#
# 1 0.013773 -0.005601 -0.000491 0.000000 0.000000 0.000000
# 2 -0.005601 0.018124 -0.001953 0.000000 0.000000 0.000000
# 3 -0.000491 -0.001953 0.008411 0.000000 0.000000 0.000000
# 4 0.000000 0.000000 0.000000 0.049989 0.000000 0.000000
# 5 0.000000 0.000000 0.000000 0.000000 0.037470 0.000000
# 6 0.000000 0.000000 0.000000 0.000000 0.000000 0.042628
#
#
# Mechanical properties :
#
#
# Convention : Reuss Voigt Hill
#
# Bulk Modulus (GPa) = 41.29032 42.58052 41.93542
# Shear Modulus (GPa) = 25.69950 28.54414 27.12182
#
# Velocity S-wave (km/s) = 3.56625 3.75844 3.66360
# Velocity P-wave (km/s) = 6.11483 6.31717 6.21683
#
# Compressibility (1/GPa) = 0.02421875
#
# Stress axis : x y z
#
# Youngs Moduli (GPa) = 72.60725 55.17677 118.88575
#
# Poissons Ratio (x) = 0.30902 0.05837
# Poissons Ratio (y) = 0.40664 0.23217
# Poissons Ratio (z) = 0.03565 0.10775
#
# Static dielectric constant tensor:
#      x y z
#    x 3.588150 0.000000 0.000000 
#    y 0.000000 3.554310 0.000000 
#    z 0.000000 0.000000 3.866730 
# 
# 
# High freq. dielectric constant tensor:
#      x y z
#    x 1.784500 0.000000 0.000000 
#    y 0.000000 1.778380 0.000000 
#    z 0.000000 0.000000 1.801010 
# 
# From -- ./inp_files/4450.got.cif
#   From: 2010.03.12/outbox.cif.g09.slc.cpg/sg37_3_cif.got.tgz:4450.got - 2010.04.14 02:25:27.
