data_PCOD8176946
_publ_section_title
;
Structure prediction by ZEFSAII (Michael W. Deem and Ramdas Pophale) SiO2 
 PCOD8176946
Probable space group: C C C 2
;
_chemical_formula_sum "Si O2"
_cell_formula_units_Z 64
_cell_length_a 10.207089
_cell_length_b 10.207088
_cell_length_c 30.698274
_cell_angle_alpha 90.000000
_cell_angle_beta 90.000000
_cell_angle_gamma 90.000000
_cell_volume 3198.289106
_symmetry_space_group_name_H-M "C C C 2"
_symmetry_group_IT_number 37
_symmetry_cell_setting 'orthorhombic'
loop_
_space_group_symop_operation_xyz
x,y,z
-x,-y,z
-x,y,1/2+z
x,-y,1/2+z
1/2+x,1/2+y,z
1/2-x,1/2-y,z
1/2-x,1/2+y,1/2+z
1/2+x,1/2-y,1/2+z
loop_
_atom_site_type_symbol
_atom_site_label
_atom_site_fract_x
_atom_site_fract_y
_atom_site_fract_z
Si Si1 0.446206 0.195860 0.293600
Si Si2 0.622714 0.412699 0.727184
Si Si3 0.110161 0.109621 0.950949
Si Si4 0.893329 0.393427 0.590363
Si Si5 0.893427 0.393329 0.487151
Si Si6 0.587301 0.377286 0.350330
Si Si7 0.390379 0.389839 0.126565
Si Si8 0.804140 0.553794 0.783914
O O1 0.372950 0.289457 0.259577
O O2 0.490359 0.257538 0.339545
O O3 0.577488 0.146397 0.269206
O O4 0.353603 0.077488 0.308308
O O5 0.500000 0.500000 0.738731
O O6 0.627649 0.365819 0.677799
O O7 0.742463 0.509641 0.737969
O O8 0.065249 0.249225 0.970321
O O9 0.249219 0.064818 0.970636
O O10 0.134181 0.127649 0.899715
O O11 0.000000 0.000000 0.961254
O O12 0.888588 0.388588 0.538757
O O13 0.749225 0.434751 0.607193
O O14 0.935182 0.249219 0.606878
O O15 0.000000 0.500000 0.606641
O O16 0.000000 0.500000 0.470872
O O17 0.500000 0.500000 0.338783
O O18 0.710543 0.372950 0.317937
O O19 0.500000 0.500000 0.116260
#
# Coordination Sequence:
#
# PCOD8176946 Si02
#       8
#     8   8   8   8   8   8   8   8
#     4  11  23  36  56  82 111 157 204 250 304 355
#     4  11  22  40  59  82 122 161 203 258 302 354
#     4  10  23  40  64  93 126 171 209 256 317 382
#     4  10  23  43  66  97 131 162 207 267 324 387
#     4  10  23  43  66  97 131 162 207 267 324 387
#     4  11  22  40  59  82 122 161 203 258 302 354
#     4  10  23  40  64  93 126 171 209 256 317 382
#     4  11  23  36  56  82 111 157 204 250 304 355
#
# _framework density 20.010698000000001
#
# number of rings (size 3 to 8) (size 9 to 14) (size 15 to 20)
#    0.000    1.500    2.500    2.250    7.000    5.000 
#    0.000    7.500    0.000    0.000    0.000    0.000 
#    0.000    0.000    0.000    0.000    0.000    0.000 
#
# Total GULP energy -396692.246839 kJ/mol
# GULP energy per Si atom -12396.632714 kJ/mol
# Density = 1.996515 g / cm^3
# Si number density = 20.010698 Si / 1000 Ang^3
#
#
#
# Elastic Constant Matrix: (Units=GPa)
#
#
# Indices 1 2 3 4 5 6 
#
# 1 116.9502 68.4972 34.1188 0.0000 0.0000 0.0000
# 2 68.4972 116.9502 34.1188 0.0000 0.0000 0.0000
# 3 34.1188 34.1188 90.0590 0.0000 0.0000 0.0000
# 4 0.0000 0.0000 0.0000 -397.5760 0.0000 0.0000
# 5 0.0000 0.0000 0.0000 0.0000 -396.9262 0.0000
# 6 0.0000 0.0000 0.0000 0.0000 0.0000 46.0059
#
#
#
# Elastic Compliance Matrix: (Units=1/GPa)
#
#
# Indices 1 2 3 4 5 6 
#
# 1 0.013452 -0.007186 -0.002374 0.000000 0.000000 0.000000
# 2 -0.007186 0.013452 -0.002374 0.000000 0.000000 0.000000
# 3 -0.002374 -0.002374 0.012902 0.000000 0.000000 0.000000
# 4 0.000000 0.000000 0.000000 -0.002515 0.000000 0.000000
# 5 0.000000 0.000000 0.000000 0.000000 -0.002519 0.000000
# 6 0.000000 0.000000 0.000000 0.000000 0.000000 0.021736
#
#
# Mechanical properties :
#
#
# Convention : Reuss Voigt Hill
#
# Bulk Modulus (GPa) = 62.73958 66.38100 64.56029
# Shear Modulus (GPa) = 58.35019 -137.21762 -39.43371
#
# Velocity S-wave (km/s) = 5.40581 -8.28981 -4.44400
# Velocity P-wave (km/s) = 8.38957 7.64089 2.44965
#
# Compressibility (1/GPa) = 0.01593890
#
# Stress axis : x y z
#
# Youngs Moduli (GPa) = 74.33734 74.33733 77.50457
#
# Poissons Ratio (x) = 0.53421 0.18398
# Poissons Ratio (y) = 0.53421 0.18398
# Poissons Ratio (z) = 0.17646 0.17646
#
# Static dielectric constant tensor:
#      x y z
#    x 3.919790 0.000000 0.000000 
#    y 0.000000 3.919840 0.000000 
#    z 0.000000 0.000000 3.637060 
# 
# 
# High freq. dielectric constant tensor:
#      x y z
#    x 1.794880 0.000000 0.000000 
#    y 0.000000 1.794880 0.000000 
#    z 0.000000 0.000000 1.771330 
# 
# From -- ./inp_files/20421.got.cif
#   From: 2010.03.12/outbox.cif.g09.slc.cpg/sg37_11_cif.got.tgz:20421.got - 2010.04.14 02:25:27.
