data_PCOD8176719
_publ_section_title
;
Structure prediction by ZEFSAII (Michael W. Deem and Ramdas Pophale) SiO2 
 PCOD8176719
Probable space group: C C C 2
;
_chemical_formula_sum "Si O2"
_cell_formula_units_Z 48
_cell_length_a 15.487017
_cell_length_b 9.523867
_cell_length_c 14.793331
_cell_angle_alpha 90.000000
_cell_angle_beta 90.000000
_cell_angle_gamma 90.000000
_cell_volume 2181.961441
_symmetry_space_group_name_H-M "C C C 2"
_symmetry_group_IT_number 37
_symmetry_cell_setting 'orthorhombic'
loop_
_space_group_symop_operation_xyz
x,y,z
-x,-y,z
-x,y,1/2+z
x,-y,1/2+z
1/2+x,1/2+y,z
1/2-x,1/2-y,z
1/2-x,1/2+y,1/2+z
1/2+x,1/2-y,1/2+z
loop_
_atom_site_type_symbol
_atom_site_label
_atom_site_fract_x
_atom_site_fract_y
_atom_site_fract_z
Si Si1 0.234923 0.971305 0.372920
Si Si2 0.891077 0.714394 0.903116
Si Si3 0.675984 0.347212 0.033844
Si Si4 0.502625 0.272385 0.238537
Si Si5 0.510304 0.840749 0.551238
Si Si6 0.360498 0.488076 0.203411
O O1 0.167918 0.847516 0.388942
O O2 0.333374 0.925961 0.391051
O O3 0.224563 0.012897 0.267033
O O4 0.208525 0.100586 0.436429
O O5 0.974752 0.703975 0.835605
O O6 0.927785 0.732621 0.004409
O O7 0.750000 0.250000 0.078516
O O8 0.593024 0.248492 0.018873
O O9 0.663745 0.484990 0.098216
O O10 0.506556 0.156883 0.159642
O O11 0.408885 0.343084 0.227147
O O12 0.577315 0.384330 0.225471
O O13 0.500000 0.000000 0.515819
#
# Coordination Sequence:
#
# PCOD8176719 Si02
#       6
#     8   8   8   8   8   8
#     4  10  21  38  64  93 125 164 209 262 317 389
#     4  10  21  38  63  91 127 162 205 259 324 379
#     4  11  23  38  64  91 128 168 218 266 322 383
#     4   9  19  36  59  91 119 162 210 257 313 379
#     4  11  23  38  59  86 126 167 210 262 321 376
#     4   9  19  35  63  90 120 161 212 260 311 378
#
# _framework density 21.998556000000001
#
# number of rings (size 3 to 8) (size 9 to 14) (size 15 to 20)
#    0.000    2.000    0.000    3.000    7.000    4.000 
#    0.000    1.667    3.667    0.000    0.000    0.000 
#    0.000    0.000    0.000    0.000    0.000    0.000 
#
# Total GULP energy -297373.783060 kJ/mol
# GULP energy per Si atom -12390.574294 kJ/mol
# Density = 2.194849 g / cm^3
# Si number density = 21.998556 Si / 1000 Ang^3
#
#
#
# Elastic Constant Matrix: (Units=GPa)
#
#
# Indices 1 2 3 4 5 6 
#
# 1 109.0521 39.7594 39.0274 0.0000 0.0000 0.0000
# 2 39.7594 78.9652 32.6315 0.0000 0.0000 0.0000
# 3 39.0274 32.6315 101.7038 0.0000 0.0000 0.0000
# 4 0.0000 0.0000 0.0000 25.1174 0.0000 0.0000
# 5 0.0000 0.0000 0.0000 0.0000 28.5279 0.0000
# 6 0.0000 0.0000 0.0000 0.0000 0.0000 35.7650
#
#
#
# Elastic Compliance Matrix: (Units=1/GPa)
#
#
# Indices 1 2 3 4 5 6 
#
# 1 0.012013 -0.004777 -0.003077 0.000000 0.000000 0.000000
# 2 -0.004777 0.016499 -0.003461 0.000000 0.000000 0.000000
# 3 -0.003077 -0.003461 0.012124 0.000000 0.000000 0.000000
# 4 0.000000 0.000000 0.000000 0.039813 0.000000 0.000000
# 5 0.000000 0.000000 0.000000 0.000000 0.035053 0.000000
# 6 0.000000 0.000000 0.000000 0.000000 0.000000 0.027960
#
#
# Mechanical properties :
#
#
# Convention : Reuss Voigt Hill
#
# Bulk Modulus (GPa) = 55.53640 56.95085 56.24363
# Shear Modulus (GPa) = 29.05398 29.76891 29.41145
#
# Velocity S-wave (km/s) = 3.63812 3.68261 3.66043
# Velocity P-wave (km/s) = 6.55348 6.63527 6.59450
#
# Compressibility (1/GPa) = 0.01800621
#
# Stress axis : x y z
#
# Youngs Moduli (GPa) = 83.24483 60.60952 82.48386
#
# Poissons Ratio (x) = 0.28953 0.25381
# Poissons Ratio (y) = 0.39765 0.28545
# Poissons Ratio (z) = 0.25615 0.20975
#
# Static dielectric constant tensor:
#      x y z
#    x 3.974910 0.000000 0.000000 
#    y 0.000000 3.763460 0.000000 
#    z 0.000000 0.000000 4.163600 
# 
# 
# High freq. dielectric constant tensor:
#      x y z
#    x 1.856420 0.000000 0.000000 
#    y 0.000000 1.848990 0.000000 
#    z 0.000000 0.000000 1.869610 
# 
# From -- ./inp_files/15229.got.cif
#   From: 2010.03.12/outbox.cif.g09.slc.cpg/sg37_8_cif.got.tgz:15229.got - 2010.04.14 02:25:27.
