data_PCOD8176476
_publ_section_title
;
Structure prediction by ZEFSAII (Michael W. Deem and Ramdas Pophale) SiO2 
 PCOD8176476
Probable space group: C C C 2
;
_chemical_formula_sum "Si O2"
_cell_formula_units_Z 48
_cell_length_a 30.770274
_cell_length_b 8.850387
_cell_length_c 8.822700
_cell_angle_alpha 90.000000
_cell_angle_beta 90.000000
_cell_angle_gamma 90.000000
_cell_volume 2402.675595
_symmetry_space_group_name_H-M "C C C 2"
_symmetry_group_IT_number 37
_symmetry_cell_setting 'orthorhombic'
loop_
_space_group_symop_operation_xyz
x,y,z
-x,-y,z
-x,y,1/2+z
x,-y,1/2+z
1/2+x,1/2+y,z
1/2-x,1/2-y,z
1/2-x,1/2+y,1/2+z
1/2+x,1/2-y,1/2+z
loop_
_atom_site_type_symbol
_atom_site_label
_atom_site_fract_x
_atom_site_fract_y
_atom_site_fract_z
Si Si1 0.619002 0.386397 0.060480
Si Si2 0.333284 0.050055 0.864890
Si Si3 0.797107 0.688705 0.582763
Si Si4 0.045611 0.417813 0.054204
Si Si5 0.589466 0.859317 0.354836
Si Si6 0.898507 0.191936 0.402735
O O1 0.668130 0.323095 0.056284
O O2 0.598406 0.357733 0.226856
O O3 0.592904 0.308723 0.921510
O O4 0.615299 0.561728 0.020511
O O5 0.299105 0.127907 0.752977
O O6 0.361612 0.184972 0.935360
O O7 0.365787 0.927367 0.784617
O O8 0.305196 0.960858 0.986015
O O9 0.750000 0.750000 0.542321
O O10 0.051500 0.372467 0.230304
O O11 0.000000 0.500000 0.026372
O O12 0.080548 0.542743 0.005738
O O13 0.054725 0.266642 0.951859
#
# Coordination Sequence:
#
# PCOD8176476 Si02
#       6
#     8   8   8   8   8   8
#     4  10  21  37  60  87 118 158 200 240 294 357
#     4   9  19  37  57  79 113 156 195 232 286 353
#     4  10  21  36  56  86 119 154 199 249 293 342
#     4  11  21  35  58  87 114 147 189 239 292 346
#     4  10  19  36  59  82 113 152 193 232 284 359
#     4  10  20  37  60  85 116 155 198 242 290 359
#
# _framework density 19.977727000000002
#
# number of rings (size 3 to 8) (size 9 to 14) (size 15 to 20)
#    0.000    2.000    0.000    6.500    0.000    4.000 
#    0.000    2.500    0.000    6.000    0.000    0.000 
#    0.000    0.000    0.000    0.000    0.000    0.000 
#
# Total GULP energy -297345.060916 kJ/mol
# GULP energy per Si atom -12389.377538 kJ/mol
# Density = 1.993226 g / cm^3
# Si number density = 19.977727 Si / 1000 Ang^3
#
#
#
# Elastic Constant Matrix: (Units=GPa)
#
#
# Indices 1 2 3 4 5 6 
#
# 1 92.7219 57.1613 56.8300 0.0000 0.0000 0.0000
# 2 57.1613 140.8725 61.3577 0.0000 0.0000 0.0000
# 3 56.8300 61.3577 114.5869 0.0000 0.0000 0.0000
# 4 0.0000 0.0000 0.0000 37.8203 0.0000 0.0000
# 5 0.0000 0.0000 0.0000 0.0000 25.0111 0.0000
# 6 0.0000 0.0000 0.0000 0.0000 0.0000 29.0964
#
#
#
# Elastic Compliance Matrix: (Units=1/GPa)
#
#
# Indices 1 2 3 4 5 6 
#
# 1 0.017265 -0.004272 -0.006275 0.000000 0.000000 0.000000
# 2 -0.004272 0.010315 -0.003404 0.000000 0.000000 0.000000
# 3 -0.006275 -0.003404 0.013662 0.000000 0.000000 0.000000
# 4 0.000000 0.000000 0.000000 0.026441 0.000000 0.000000
# 5 0.000000 0.000000 0.000000 0.000000 0.039982 0.000000
# 6 0.000000 0.000000 0.000000 0.000000 0.000000 0.034369
#
#
# Mechanical properties :
#
#
# Convention : Reuss Voigt Hill
#
# Bulk Modulus (GPa) = 74.97135 77.65325 76.31230
# Shear Modulus (GPa) = 28.67258 29.90772 29.29015
#
# Velocity S-wave (km/s) = 3.79255 3.87337 3.83317
# Velocity P-wave (km/s) = 7.53570 7.67843 7.60740
#
# Compressibility (1/GPa) = 0.01333843
#
# Stress axis : x y z
#
# Youngs Moduli (GPa) = 57.92192 96.94584 73.19593
#
# Poissons Ratio (x) = 0.41419 0.45929
# Poissons Ratio (y) = 0.24747 0.24919
# Poissons Ratio (z) = 0.36344 0.33005
#
# Static dielectric constant tensor:
#      x y z
#    x 3.394690 0.000000 0.000000 
#    y 0.000000 3.726300 0.000000 
#    z 0.000000 0.000000 3.630040 
# 
# 
# High freq. dielectric constant tensor:
#      x y z
#    x 1.748230 0.000000 0.000000 
#    y 0.000000 1.785180 0.000000 
#    z 0.000000 0.000000 1.787840 
# 
# From -- ./inp_files/2383.got.cif
#   From: 2010.03.12/outbox.cif.g09.slc.cpg/sg37_2_cif.got.tgz:2383.got - 2010.04.14 02:25:27.
