data_PCOD8176116
_publ_section_title
;
Structure prediction by ZEFSAII (Michael W. Deem and Ramdas Pophale) SiO2 
 PCOD8176116
Probable space group: C M C 21
;
_chemical_formula_sum "Si O2"
_cell_formula_units_Z 40
_cell_length_a 9.706861
_cell_length_b 19.381826
_cell_length_c 8.682343
_cell_angle_alpha 90.000000
_cell_angle_beta 90.000000
_cell_angle_gamma 90.000000
_cell_volume 1633.467281
_symmetry_space_group_name_H-M "C M C 21"
_symmetry_group_IT_number 36
_symmetry_cell_setting 'orthorhombic'
loop_
_space_group_symop_operation_xyz
x,y,z
-x,-y,1/2+z
x,-y,1/2+z
-x,y,z
1/2+x,1/2+y,z
1/2-x,1/2-y,1/2+z
1/2+x,1/2-y,1/2+z
1/2-x,1/2+y,z
loop_
_atom_site_type_symbol
_atom_site_label
_atom_site_fract_x
_atom_site_fract_y
_atom_site_fract_z
Si Si1 0.345305 0.585203 0.458460
Si Si2 0.349612 0.957389 0.452567
Si Si3 0.154742 0.358832 0.715252
Si Si4 0.151049 0.770850 0.520714
Si Si5 0.248237 0.660974 0.731656
O O1 0.500000 0.578074 0.393433
O O2 0.273042 0.511414 0.439607
O O3 0.257995 0.640141 0.359314
O O4 0.354329 0.613770 0.633147
O O5 0.500000 0.991391 0.417582
O O6 0.350700 0.932931 0.630596
O O7 0.333467 0.892075 0.339615
O O8 0.217544 0.308009 0.590354
O O9 0.000000 0.335542 0.766601
O O10 0.149407 0.695488 0.601542
O O11 0.177594 0.778097 0.334642
O O12 0.000000 0.804312 0.552492
#
# Coordination Sequence:
#
# PCOD8176116 Si02
#       5
#     8   8   8   8   8
#     4  12  25  40  64  98 135 177 227 281 338 403
#     4  10  23  43  66  94 130 174 226 281 339 406
#     4  10  23  42  65  94 131 176 224 276 337 405
#     4  11  24  44  70  98 133 176 223 278 337 400
#     4  11  25  43  69 102 137 177 226 280 341 408
#
# _framework density 24.487786
#
# number of rings (size 3 to 8) (size 9 to 14) (size 15 to 20)
#    0.000    1.200    0.000    4.800    0.000   15.200 
#    0.000    0.000    0.000    0.000    0.000    0.000 
#    0.000    0.000    0.000    0.000    0.000    0.000 
#
# Total GULP energy -247773.043497 kJ/mol
# GULP energy per Si atom -12388.652175 kJ/mol
# Density = 2.443205 g / cm^3
# Si number density = 24.487786 Si / 1000 Ang^3
#
#
#
# Elastic Constant Matrix: (Units=GPa)
#
#
# Indices 1 2 3 4 5 6 
#
# 1 212.0852 35.7037 64.1474 0.0000 0.0000 0.0000
# 2 35.7037 76.8757 51.2837 0.0000 0.0000 0.0000
# 3 64.1474 51.2837 138.3712 0.0000 0.0000 0.0000
# 4 0.0000 0.0000 0.0000 44.9049 0.0000 0.0000
# 5 0.0000 0.0000 0.0000 0.0000 27.2805 0.0000
# 6 0.0000 0.0000 0.0000 0.0000 0.0000 22.7551
#
#
#
# Elastic Compliance Matrix: (Units=1/GPa)
#
#
# Indices 1 2 3 4 5 6 
#
# 1 0.005559 -0.001146 -0.002152 0.000000 0.000000 0.000000
# 2 -0.001146 0.017517 -0.005961 0.000000 0.000000 0.000000
# 3 -0.002152 -0.005961 0.010434 0.000000 0.000000 0.000000
# 4 0.000000 0.000000 0.000000 0.022269 0.000000 0.000000
# 5 0.000000 0.000000 0.000000 0.000000 0.036656 0.000000
# 6 0.000000 0.000000 0.000000 0.000000 0.000000 0.043946
#
#
# Mechanical properties :
#
#
# Convention : Reuss Voigt Hill
#
# Bulk Modulus (GPa) = 66.70519 81.06685 73.88602
# Shear Modulus (GPa) = 31.27016 37.40127 34.33572
#
# Velocity S-wave (km/s) = 3.57735 3.91236 3.74860
# Velocity P-wave (km/s) = 6.66052 7.32022 6.99815
#
# Compressibility (1/GPa) = 0.01499134
#
# Stress axis : x y z
#
# Youngs Moduli (GPa) = 179.88803 57.08836 95.84051
#
# Poissons Ratio (x) = 0.06542 0.20629
# Poissons Ratio (y) = 0.20614 0.57129
# Poissons Ratio (z) = 0.38719 0.34030
#
# Static dielectric constant tensor:
#      x y z
#    x 4.194180 0.000000 0.000000 
#    y 0.000000 4.221400 0.000000 
#    z 0.000000 0.000000 4.867500 
# 
# 
# High freq. dielectric constant tensor:
#      x y z
#    x 1.965890 0.000000 0.000000 
#    y 0.000000 1.968700 0.000000 
#    z 0.000000 0.000000 1.994450 
# 
# From -- ./inp_files/2412.got.cif
#   From: 2010.03.12/outbox.cif.g09.slc.cpg/sg36_2_cif.got.tgz:2412.got - 2010.04.14 02:13:53.
