data_PCOD8176020
_publ_section_title
;
Structure prediction by ZEFSAII (Michael W. Deem and Ramdas Pophale) SiO2 
 PCOD8176020
Probable space group: C M C 21
;
_chemical_formula_sum "Si O2"
_cell_formula_units_Z 64
_cell_length_a 9.361436
_cell_length_b 24.219230
_cell_length_c 14.226918
_cell_angle_alpha 90.000000
_cell_angle_beta 90.000000
_cell_angle_gamma 90.000000
_cell_volume 3225.623188
_symmetry_space_group_name_H-M "C M C 21"
_symmetry_group_IT_number 36
_symmetry_cell_setting 'orthorhombic'
loop_
_space_group_symop_operation_xyz
x,y,z
-x,-y,1/2+z
x,-y,1/2+z
-x,y,z
1/2+x,1/2+y,z
1/2-x,1/2-y,1/2+z
1/2+x,1/2-y,1/2+z
1/2-x,1/2+y,z
loop_
_atom_site_type_symbol
_atom_site_label
_atom_site_fract_x
_atom_site_fract_y
_atom_site_fract_z
Si Si1 0.832689 0.288761 0.017390
Si Si2 0.655771 0.471612 0.057056
Si Si3 0.660447 0.548907 0.337073
Si Si4 0.833239 0.308393 0.616491
Si Si5 0.665270 0.886699 0.158047
Si Si6 0.832341 0.926035 0.321843
Si Si7 0.661851 0.404504 0.532794
Si Si8 0.833803 0.659009 0.321258
O O1 0.747520 0.235830 0.052482
O O2 0.796491 0.335668 0.092287
O O3 0.000000 0.274431 0.014301
O O4 0.778613 0.308230 0.913958
O O5 0.500000 0.450138 0.093766
O O6 0.787095 0.442035 0.106001
O O7 0.667046 0.535964 0.081605
O O8 0.664779 0.460370 0.947534
O O9 0.500000 0.563286 0.303711
O O10 0.709255 0.489550 0.293909
O O11 0.759013 0.599834 0.307281
O O12 0.774026 0.367739 0.588115
O O13 0.806200 0.302697 0.729217
O O14 0.000000 0.304256 0.593485
O O15 0.500000 0.890099 0.181666
O O16 0.751495 0.882517 0.255214
O O17 0.784848 0.910139 0.426115
O O18 0.000000 0.917945 0.310811
O O19 0.500000 0.380515 0.537774
O O20 0.000000 0.645631 0.334140
#
# Coordination Sequence:
#
# PCOD8176020 Si02
#       8
#     8   8   8   8   8   8   8   8
#     4  10  23  44  63  82 117 161 203 244 297 360
#     4   9  18  34  57  85 118 155 197 241 289 352
#     4   9  18  34  58  87 117 155 201 242 286 347
#     4  11  25  41  62  91 118 151 201 253 302 355
#     4  11  22  35  57  89 121 158 200 245 297 350
#     4   9  20  37  57  86 124 164 202 241 292 356
#     4   9  20  40  61  83 119 162 198 240 297 355
#     4  10  22  41  61  85 118 154 192 244 304 357
#
# _framework density 19.841125999999999
#
# number of rings (size 3 to 8) (size 9 to 14) (size 15 to 20)
#    0.000    2.250    1.250    2.250    1.750    5.000 
#    0.000    6.250    0.000    0.000    0.000    0.000 
#    0.000    0.000    0.000    0.000    0.000    0.000 
#
# Total GULP energy -396708.497387 kJ/mol
# GULP energy per Si atom -12397.140543 kJ/mol
# Density = 1.979597 g / cm^3
# Si number density = 19.841126 Si / 1000 Ang^3
#
#
#
# Elastic Constant Matrix: (Units=GPa)
#
#
# Indices 1 2 3 4 5 6 
#
# 1 50.0521 36.7623 25.8277 0.0000 0.0000 0.0000
# 2 36.7623 70.7662 33.1363 0.0000 0.0000 0.0000
# 3 25.8277 33.1363 40.0396 0.0000 0.0000 0.0000
# 4 0.0000 0.0000 0.0000 26.2885 0.0000 0.0000
# 5 0.0000 0.0000 0.0000 0.0000 31.7937 0.0000
# 6 0.0000 0.0000 0.0000 0.0000 0.0000 32.9503
#
#
#
# Elastic Compliance Matrix: (Units=1/GPa)
#
#
# Indices 1 2 3 4 5 6 
#
# 1 0.035805 -0.012712 -0.012576 0.000000 0.000000 0.000000
# 2 -0.012712 0.027585 -0.014629 0.000000 0.000000 0.000000
# 3 -0.012576 -0.014629 0.045194 0.000000 0.000000 0.000000
# 4 0.000000 0.000000 0.000000 0.038039 0.000000 0.000000
# 5 0.000000 0.000000 0.000000 0.000000 0.031453 0.000000
# 6 0.000000 0.000000 0.000000 0.000000 0.000000 0.030349
#
#
# Mechanical properties :
#
#
# Convention : Reuss Voigt Hill
#
# Bulk Modulus (GPa) = 34.78209 39.14560 36.96384
# Shear Modulus (GPa) = 16.78740 22.54862 19.66801
#
# Velocity S-wave (km/s) = 2.91192 3.37480 3.15187
# Velocity P-wave (km/s) = 5.37346 5.91253 5.64943
#
# Compressibility (1/GPa) = 0.02875043
#
# Stress axis : x y z
#
# Youngs Moduli (GPa) = 27.92891 36.25212 22.12663
#
# Poissons Ratio (x) = 0.46082 0.27827
# Poissons Ratio (y) = 0.35502 0.32369
# Poissons Ratio (z) = 0.35124 0.53033
#
# Static dielectric constant tensor:
#      x y z
#    x 3.534680 0.000000 0.000000 
#    y 0.000000 3.530660 0.000000 
#    z 0.000000 0.000000 3.837280 
# 
# 
# High freq. dielectric constant tensor:
#      x y z
#    x 1.763890 0.000000 0.000000 
#    y 0.000000 1.761180 0.000000 
#    z 0.000000 0.000000 1.789930 
# 
# From -- ./inp_files/10973.got.cif
#   From: 2010.03.12/outbox.cif.g09.slc.cpg/sg36_6_cif.got.tgz:10973.got - 2010.04.14 02:13:53.
