data_PCOD8176936
_publ_section_title
;
Structure prediction by ZEFSAII (Michael W. Deem and Ramdas Pophale) SiO2 
 PCOD8176936
Probable space group: C C C 2
;
_chemical_formula_sum "Si O2"
_cell_formula_units_Z 40
_cell_length_a 5.812568
_cell_length_b 22.462891
_cell_length_c 12.312224
_cell_angle_alpha 90.000000
_cell_angle_beta 90.000000
_cell_angle_gamma 90.000000
_cell_volume 1607.571153
_symmetry_space_group_name_H-M "C C C 2"
_symmetry_group_IT_number 37
_symmetry_cell_setting 'orthorhombic'
loop_
_space_group_symop_operation_xyz
x,y,z
-x,-y,z
-x,y,1/2+z
x,-y,1/2+z
1/2+x,1/2+y,z
1/2-x,1/2-y,z
1/2-x,1/2+y,1/2+z
1/2+x,1/2-y,1/2+z
loop_
_atom_site_type_symbol
_atom_site_label
_atom_site_fract_x
_atom_site_fract_y
_atom_site_fract_z
Si Si1 0.380626 0.190811 0.607090
Si Si2 0.572391 0.648476 0.418826
Si Si3 0.054052 0.401378 0.259551
Si Si4 0.703294 0.462895 0.411614
Si Si5 0.500000 0.000000 0.589488
Si Si6 0.250000 0.250000 0.971093
O O1 0.250000 0.250000 0.641452
O O2 0.241631 0.152759 0.519809
O O3 0.406022 0.155268 0.720366
O O4 0.624426 0.203683 0.550837
O O5 0.711710 0.625286 0.312037
O O6 0.384930 0.600365 0.453514
O O7 0.438147 0.712183 0.399922
O O8 0.919809 0.446754 0.336996
O O9 0.084725 0.441684 0.152930
O O10 0.500000 0.500000 0.348924
O O11 0.780924 0.507794 0.508372
#
# Coordination Sequence:
#
# PCOD8176936 Si02
#       6
#     8   8   8   8   4   4
#     4  10  24  48  70 102 145 193 243 300 368 435
#     4  11  24  45  73 104 146 189 249 306 374 442
#     4  12  25  45  72 112 142 189 255 302 378 449
#     4  12  26  46  71 104 144 192 239 308 374 439
#     4  12  26  46  74 100 150 192 242 308 376 450
#     4  10  22  48  70  98 146 198 238 302 372 426
#
# _framework density 24.882258
#
# number of rings (size 3 to 8) (size 9 to 14) (size 15 to 20)
#    0.000    0.800    0.000    7.800    0.000    8.800 
#   23.400    0.000    0.000    0.000    0.000    0.000 
#    0.000    0.000    0.000    0.000    0.000    0.000 
#
# Total GULP energy -247788.382802 kJ/mol
# GULP energy per Si atom -12389.419140 kJ/mol
# Density = 2.482562 g / cm^3
# Si number density = 24.882258 Si / 1000 Ang^3
#
#
#
# Elastic Constant Matrix: (Units=GPa)
#
#
# Indices 1 2 3 4 5 6 
#
# 1 118.3130 45.9084 53.6698 0.0000 0.0000 0.0000
# 2 45.9084 132.3860 62.7966 0.0000 0.0000 0.0000
# 3 53.6698 62.7966 110.4394 0.0000 0.0000 0.0000
# 4 0.0000 0.0000 0.0000 47.2194 0.0000 0.0000
# 5 0.0000 0.0000 0.0000 0.0000 14.2227 0.0000
# 6 0.0000 0.0000 0.0000 0.0000 0.0000 63.8300
#
#
#
# Elastic Compliance Matrix: (Units=1/GPa)
#
#
# Indices 1 2 3 4 5 6 
#
# 1 0.011138 -0.001773 -0.004405 0.000000 0.000000 0.000000
# 2 -0.001773 0.010626 -0.005180 0.000000 0.000000 0.000000
# 3 -0.004405 -0.005180 0.014141 0.000000 0.000000 0.000000
# 4 0.000000 0.000000 0.000000 0.021178 0.000000 0.000000
# 5 0.000000 0.000000 0.000000 0.000000 0.070310 0.000000
# 6 0.000000 0.000000 0.000000 0.000000 0.000000 0.015667
#
#
# Mechanical properties :
#
#
# Convention : Reuss Voigt Hill
#
# Bulk Modulus (GPa) = 75.82171 76.20978 76.01575
# Shear Modulus (GPa) = 29.38214 38.30533 33.84373
#
# Velocity S-wave (km/s) = 3.44007 3.92786 3.69203
# Velocity P-wave (km/s) = 6.80567 7.15999 6.98508
#
# Compressibility (1/GPa) = 0.01318883
#
# Stress axis : x y z
#
# Youngs Moduli (GPa) = 89.78101 94.11091 70.71798
#
# Poissons Ratio (x) = 0.16688 0.31148
# Poissons Ratio (y) = 0.15920 0.36633
# Poissons Ratio (z) = 0.39544 0.48751
#
# Static dielectric constant tensor:
#      x y z
#    x 4.727210 0.000000 0.000000 
#    y 0.000000 4.769210 0.000000 
#    z 0.000000 0.000000 4.236830 
# 
# 
# High freq. dielectric constant tensor:
#      x y z
#    x 1.999060 0.000000 0.000000 
#    y 0.000000 2.017850 0.000000 
#    z 0.000000 0.000000 1.967660 
# 
# From -- ./inp_files/5574.got.cif
#   From: 2010.03.12/outbox.cif.g09.slc.cpg/sg37_3_cif.got.tgz:5574.got - 2010.04.14 02:25:27.
