data_PCOD8176479
_publ_section_title
;
Structure prediction by ZEFSAII (Michael W. Deem and Ramdas Pophale) SiO2 
 PCOD8176479
Probable space group: C C C 2
;
_chemical_formula_sum "Si O2"
_cell_formula_units_Z 44
_cell_length_a 11.589299
_cell_length_b 11.038545
_cell_length_c 13.724639
_cell_angle_alpha 90.000000
_cell_angle_beta 90.000000
_cell_angle_gamma 90.000000
_cell_volume 1755.779322
_symmetry_space_group_name_H-M "C C C 2"
_symmetry_group_IT_number 37
_symmetry_cell_setting 'orthorhombic'
loop_
_space_group_symop_operation_xyz
x,y,z
-x,-y,z
-x,y,1/2+z
x,-y,1/2+z
1/2+x,1/2+y,z
1/2-x,1/2-y,z
1/2-x,1/2+y,1/2+z
1/2+x,1/2-y,1/2+z
loop_
_atom_site_type_symbol
_atom_site_label
_atom_site_fract_x
_atom_site_fract_y
_atom_site_fract_z
Si Si1 0.810701 0.130885 0.244440
Si Si2 0.380703 0.062661 0.288083
Si Si3 0.902684 0.591621 0.066970
Si Si4 0.377267 0.306765 0.946511
Si Si5 0.336341 0.460890 0.542233
Si Si6 0.750000 0.750000 0.417447
O O1 0.750000 0.250000 0.199928
O O2 0.898321 0.173967 0.330279
O O3 0.873959 0.066033 0.153944
O O4 0.716822 0.041427 0.292165
O O5 0.396426 0.122014 0.181593
O O6 0.341334 0.173787 0.354592
O O7 0.500000 0.000000 0.323963
O O8 0.786805 0.526503 0.033165
O O9 0.000000 0.500000 0.042643
O O10 0.949230 0.705902 0.003909
O O11 0.250000 0.250000 0.963913
O O12 0.416776 0.433556 0.997276
O O13 0.332617 0.337779 0.480456
#
# Coordination Sequence:
#
# PCOD8176479 Si02
#       6
#     8   8   8   8   8   4
#     4  10  19  36  59  88 127 172 225 274 334 409
#     4  10  23  40  65  99 129 172 229 288 345 412
#     4   9  20  38  63  96 127 165 225 289 341 405
#     4   9  18  33  56  92 120 169 222 263 339 406
#     4  10  20  34  58  91 125 174 221 266 338 413
#     4  12  22  38  62  96 138 174 224 280 344 424
#
# _framework density 25.060096000000001
#
# number of rings (size 3 to 8) (size 9 to 14) (size 15 to 20)
#    0.000    2.182    2.727    0.000    6.364    0.727 
#    0.000    0.000    0.000    5.455    0.000    0.000 
#    0.000    0.000    0.000    0.000    0.000    0.000 
#
# Total GULP energy -272606.375859 kJ/mol
# GULP energy per Si atom -12391.198903 kJ/mol
# Density = 2.500306 g / cm^3
# Si number density = 25.060096 Si / 1000 Ang^3
#
#
#
# Elastic Constant Matrix: (Units=GPa)
#
#
# Indices 1 2 3 4 5 6 
#
# 1 18.0661 19.7339 22.6293 0.0000 0.0000 0.0000
# 2 19.7339 180.3467 112.4046 0.0000 0.0000 0.0000
# 3 22.6293 112.4046 181.0941 0.0000 0.0000 0.0000
# 4 0.0000 0.0000 0.0000 62.2290 0.0000 0.0000
# 5 0.0000 0.0000 0.0000 0.0000 23.1223 0.0000
# 6 0.0000 0.0000 0.0000 0.0000 0.0000 -63.7115
#
#
#
# Elastic Compliance Matrix: (Units=1/GPa)
#
#
# Indices 1 2 3 4 5 6 
#
# 1 0.066908 -0.003442 -0.006225 0.000000 0.000000 0.000000
# 2 -0.003442 0.009220 -0.005293 0.000000 0.000000 0.000000
# 3 -0.006225 -0.005293 0.009585 0.000000 0.000000 0.000000
# 4 0.000000 0.000000 0.000000 0.016070 0.000000 0.000000
# 5 0.000000 0.000000 0.000000 0.000000 0.043248 0.000000
# 6 0.000000 0.000000 0.000000 0.000000 0.000000 -0.015696
#
#
# Mechanical properties :
#
#
# Convention : Reuss Voigt Hill
#
# Bulk Modulus (GPa) = 17.92263 76.56029 47.24146
# Shear Modulus (GPa) = 28.11309 19.31057 23.71183
#
# Velocity S-wave (km/s) = 3.35300 2.77893 3.07937
# Velocity P-wave (km/s) = 4.70718 6.39637 5.61565
#
# Compressibility (1/GPa) = 0.05579539
#
# Stress axis : x y z
#
# Youngs Moduli (GPa) = 14.94584 108.45431 104.32768
#
# Poissons Ratio (x) = 0.37327 0.64939
# Poissons Ratio (y) = 0.05144 0.55221
# Poissons Ratio (z) = 0.09303 0.57405
#
# Static dielectric constant tensor:
#      x y z
#    x 3.634160 0.000000 0.000000 
#    y 0.000000 4.799110 0.000000 
#    z 0.000000 0.000000 4.785870 
# 
# 
# High freq. dielectric constant tensor:
#      x y z
#    x 1.963150 0.000000 0.000000 
#    y 0.000000 2.021590 0.000000 
#    z 0.000000 0.000000 2.010400 
# 
# From -- ./inp_files/12057.got.cif
#   From: 2010.03.12/outbox.cif.g09.slc.cpg/sg37_7_cif.got.tgz:12057.got - 2010.04.14 02:25:27.
