data_PCOD8176722
_publ_section_title
;
Structure prediction by ZEFSAII (Michael W. Deem and Ramdas Pophale) SiO2 
 PCOD8176722
Probable space group: C C C 2
;
_chemical_formula_sum "Si O2"
_cell_formula_units_Z 64
_cell_length_a 17.983367
_cell_length_b 6.553351
_cell_length_c 27.119624
_cell_angle_alpha 90.000000
_cell_angle_beta 90.000000
_cell_angle_gamma 90.000000
_cell_volume 3196.083381
_symmetry_space_group_name_H-M "C C C 2"
_symmetry_group_IT_number 37
_symmetry_cell_setting 'orthorhombic'
loop_
_space_group_symop_operation_xyz
x,y,z
-x,-y,z
-x,y,1/2+z
x,-y,1/2+z
1/2+x,1/2+y,z
1/2-x,1/2-y,z
1/2-x,1/2+y,1/2+z
1/2+x,1/2-y,1/2+z
loop_
_atom_site_type_symbol
_atom_site_label
_atom_site_fract_x
_atom_site_fract_y
_atom_site_fract_z
Si Si1 0.420320 0.920467 0.238100
Si Si2 0.837660 0.274669 0.671883
Si Si3 0.911235 0.472140 0.085841
Si Si4 0.824879 0.663179 0.407465
Si Si5 0.423285 0.877719 0.345835
Si Si6 0.080742 0.944276 0.429885
Si Si7 0.075621 0.889600 0.151146
Si Si8 0.175099 0.639712 0.493942
O O1 0.394995 0.822500 0.290281
O O2 0.438566 0.761820 0.195795
O O3 0.500000 0.000000 0.253207
O O4 0.362642 0.095890 0.220021
O O5 0.750000 0.250000 0.668464
O O6 0.875734 0.371692 0.624273
O O7 0.863940 0.042249 0.672780
O O8 0.895061 0.239679 0.103945
O O9 0.000000 0.500000 0.081709
O O10 0.869825 0.514792 0.035062
O O11 0.750000 0.750000 0.383595
O O12 0.860311 0.525199 0.365998
O O13 0.800740 0.526127 0.453977
O O14 0.878056 0.843710 0.423861
O O15 0.426814 0.670069 0.377296
O O16 0.500000 0.000000 0.350110
O O17 0.120075 0.805638 0.470687
O O18 0.000000 0.000000 0.450973
O O19 0.000000 0.000000 0.135450
O O20 0.250000 0.750000 0.514351
#
# Coordination Sequence:
#
# PCOD8176722 Si02
#       8
#     8   8   8   8   8   8   8   8
#     4  10  21  38  64  97 126 168 216 261 307 378
#     4  11  23  42  64  92 131 165 207 265 316 372
#     4  11  24  41  64  95 123 159 214 264 313 378
#     4  11  23  43  63  90 127 169 204 261 329 380
#     4  10  22  38  63  97 130 162 218 268 309 376
#     4  11  23  41  65  91 125 168 213 261 319 381
#     4  11  20  42  67  89 125 172 206 253 320 374
#     4  11  25  44  63  91 126 162 211 267 320 386
#
# _framework density 20.024507
#
# number of rings (size 3 to 8) (size 9 to 14) (size 15 to 20)
#    0.000    1.250    5.000    1.125    1.750    5.000 
#    2.250    1.250    0.000    0.000    0.000    0.000 
#    0.000    0.000    0.000    0.000    0.000    0.000 
#
# Total GULP energy -396692.721412 kJ/mol
# GULP energy per Si atom -12396.647544 kJ/mol
# Density = 1.997893 g / cm^3
# Si number density = 20.024507 Si / 1000 Ang^3
#
#
#
# Elastic Constant Matrix: (Units=GPa)
#
#
# Indices 1 2 3 4 5 6 
#
# 1 133.9469 24.0013 26.6952 0.0000 0.0000 0.0000
# 2 24.0013 88.0238 19.2735 0.0000 0.0000 0.0000
# 3 26.6952 19.2735 103.2424 0.0000 0.0000 0.0000
# 4 0.0000 0.0000 0.0000 -149.3063 0.0000 0.0000
# 5 0.0000 0.0000 0.0000 0.0000 26.7733 0.0000
# 6 0.0000 0.0000 0.0000 0.0000 0.0000 34.2724
#
#
#
# Elastic Compliance Matrix: (Units=1/GPa)
#
#
# Indices 1 2 3 4 5 6 
#
# 1 0.008146 -0.001835 -0.001764 0.000000 0.000000 0.000000
# 2 -0.001835 0.012258 -0.001814 0.000000 0.000000 0.000000
# 3 -0.001764 -0.001814 0.010481 0.000000 0.000000 0.000000
# 4 0.000000 0.000000 0.000000 -0.006698 0.000000 0.000000
# 5 0.000000 0.000000 0.000000 0.000000 0.037351 0.000000
# 6 0.000000 0.000000 0.000000 0.000000 0.000000 0.029178
#
#
# Mechanical properties :
#
#
# Convention : Reuss Voigt Hill
#
# Bulk Modulus (GPa) = 49.85180 51.68367 50.76773
# Shear Modulus (GPa) = 46.19906 -0.63592 22.78157
#
# Velocity S-wave (km/s) = 4.80847 -0.56415 3.37662
# Velocity P-wave (km/s) = 7.46846 5.04400 6.37259
#
# Compressibility (1/GPa) = 0.02005946
#
# Stress axis : x y z
#
# Youngs Moduli (GPa) = 122.76043 81.57891 95.41424
#
# Poissons Ratio (x) = 0.14969 0.16829
# Poissons Ratio (y) = 0.22526 0.17307
# Poissons Ratio (z) = 0.21652 0.14798
#
# Static dielectric constant tensor:
#      x y z
#    x 3.637400 0.000000 0.000000 
#    y 0.000000 4.012980 0.000000 
#    z 0.000000 0.000000 3.647370 
# 
# 
# High freq. dielectric constant tensor:
#      x y z
#    x 1.787790 0.000000 0.000000 
#    y 0.000000 1.794030 0.000000 
#    z 0.000000 0.000000 1.776150 
# 
# From -- ./inp_files/20275.got.cif
#   From: 2010.03.12/outbox.cif.g09.slc.cpg/sg37_11_cif.got.tgz:20275.got - 2010.04.14 02:25:27.
