data_PCOD8176753
_publ_section_title
;
Structure prediction by ZEFSAII (Michael W. Deem and Ramdas Pophale) SiO2 
 PCOD8176753
Probable space group: C C C 2
;
_chemical_formula_sum "Si O2"
_cell_formula_units_Z 44
_cell_length_a 6.495457
_cell_length_b 13.981136
_cell_length_c 23.246616
_cell_angle_alpha 90.000000
_cell_angle_beta 90.000000
_cell_angle_gamma 90.000000
_cell_volume 2111.115110
_symmetry_space_group_name_H-M "C C C 2"
_symmetry_group_IT_number 37
_symmetry_cell_setting 'orthorhombic'
loop_
_space_group_symop_operation_xyz
x,y,z
-x,-y,z
-x,y,1/2+z
x,-y,1/2+z
1/2+x,1/2+y,z
1/2-x,1/2-y,z
1/2-x,1/2+y,1/2+z
1/2+x,1/2-y,1/2+z
loop_
_atom_site_type_symbol
_atom_site_label
_atom_site_fract_x
_atom_site_fract_y
_atom_site_fract_z
Si Si1 0.567946 0.897823 0.094120
Si Si2 0.250000 0.750000 0.917332
Si Si3 0.620018 0.160520 0.472968
Si Si4 0.131503 0.840619 0.690874
Si Si5 0.500000 0.500000 0.270462
Si Si6 0.250000 0.750000 0.139089
Si Si7 0.075354 0.902052 0.379753
O O1 0.765418 0.863961 0.129707
O O2 0.385695 0.820002 0.099529
O O3 0.500000 0.000000 0.118855
O O4 0.626421 0.911678 0.026821
O O5 0.384432 0.816633 0.958786
O O6 0.402439 0.682012 0.880116
O O7 0.750000 0.250000 0.495733
O O8 0.718855 0.124710 0.413381
O O9 0.250000 0.750000 0.719480
O O10 0.147926 0.933675 0.731709
O O11 0.893470 0.814516 0.680300
O O12 0.629046 0.427972 0.312810
O O13 0.000000 0.000000 0.410510
#
# Coordination Sequence:
#
# PCOD8176753 Si02
#       7
#     8   4   8   8   4   4   8
#     4  11  23  37  66  95 128 163 201 253 316 381
#     4  10  21  40  64  86 126 166 199 256 320 370
#     4  10  21  41  61  93 125 159 204 249 308 379
#     4  10  22  42  63  91 121 161 210 254 316 370
#     4  10  22  42  60  88 120 160 212 266 304 368
#     4  10  21  42  60  92 124 162 203 256 312 378
#     4   9  23  40  60  89 122 160 210 254 306 371
#
# _framework density 20.842065000000002
#
# number of rings (size 3 to 8) (size 9 to 14) (size 15 to 20)
#    0.545    1.455    0.000    3.273    3.818    1.455 
#    6.545    5.455    0.000    0.000    0.000    0.000 
#    0.000    0.000    0.000    0.000    0.000    0.000 
#
# Total GULP energy -272635.954001 kJ/mol
# GULP energy per Si atom -12392.543364 kJ/mol
# Density = 2.079463 g / cm^3
# Si number density = 20.842065 Si / 1000 Ang^3
#
#
#
# Elastic Constant Matrix: (Units=GPa)
#
#
# Indices 1 2 3 4 5 6 
#
# 1 119.3004 40.5099 56.2224 0.0000 0.0000 0.0000
# 2 40.5099 120.4489 52.8135 0.0000 0.0000 0.0000
# 3 56.2224 52.8135 131.2274 0.0000 0.0000 0.0000
# 4 0.0000 0.0000 0.0000 40.9842 0.0000 0.0000
# 5 0.0000 0.0000 0.0000 0.0000 9.3568 0.0000
# 6 0.0000 0.0000 0.0000 0.0000 0.0000 22.8792
#
#
#
# Elastic Compliance Matrix: (Units=1/GPa)
#
#
# Indices 1 2 3 4 5 6 
#
# 1 0.010871 -0.001960 -0.003869 0.000000 0.000000 0.000000
# 2 -0.001960 0.010435 -0.003360 0.000000 0.000000 0.000000
# 3 -0.003869 -0.003360 0.010630 0.000000 0.000000 0.000000
# 4 0.000000 0.000000 0.000000 0.024400 0.000000 0.000000
# 5 0.000000 0.000000 0.000000 0.000000 0.106874 0.000000
# 6 0.000000 0.000000 0.000000 0.000000 0.000000 0.043708
#
#
# Mechanical properties :
#
#
# Convention : Reuss Voigt Hill
#
# Bulk Modulus (GPa) = 73.75292 74.45205 74.10249
# Shear Modulus (GPa) = 21.75675 29.40610 25.58142
#
# Velocity S-wave (km/s) = 3.23443 3.76027 3.50722
# Velocity P-wave (km/s) = 7.02937 7.39273 7.21334
#
# Compressibility (1/GPa) = 0.01355879
#
# Stress axis : x y z
#
# Youngs Moduli (GPa) = 91.98881 95.83497 94.07296
#
# Poissons Ratio (x) = 0.18782 0.36394
# Poissons Ratio (y) = 0.18028 0.31607
# Poissons Ratio (z) = 0.35588 0.32199
#
# Static dielectric constant tensor:
#      x y z
#    x 3.603180 0.000000 0.000000 
#    y 0.000000 4.103240 0.000000 
#    z 0.000000 0.000000 3.472490 
# 
# 
# High freq. dielectric constant tensor:
#      x y z
#    x 1.802140 0.000000 0.000000 
#    y 0.000000 1.828810 0.000000 
#    z 0.000000 0.000000 1.803010 
# 
# From -- ./inp_files/19295.got.cif
#   From: 2010.03.12/outbox.cif.g09.slc.cpg/sg37_10_cif.got.tgz:19295.got - 2010.04.14 02:25:27.
