data_PCOD8177441
_publ_section_title
;
Structure prediction by ZEFSAII (Michael W. Deem and Ramdas Pophale) SiO2 
 PCOD8177441
Probable space group: A M M 2
;
_chemical_formula_sum "Si O2"
_cell_formula_units_Z 32
_cell_length_a 10.397966
_cell_length_b 9.074641
_cell_length_c 18.531803
_cell_angle_alpha 90.000000
_cell_angle_beta 90.000000
_cell_angle_gamma 90.000000
_cell_volume 1748.620320
_symmetry_space_group_name_H-M "A M M 2"
_symmetry_group_IT_number 38
_symmetry_cell_setting 'orthorhombic'
loop_
_space_group_symop_operation_xyz
x,y,z
-x,-y,z
-x,y,z
x,-y,z
x,1/2+y,1/2+z
-x,1/2-y,1/2+z
-x,1/2+y,1/2+z
x,1/2-y,1/2+z
loop_
_atom_site_type_symbol
_atom_site_label
_atom_site_fract_x
_atom_site_fract_y
_atom_site_fract_z
Si Si1 0.000000 0.826119 0.594060
Si Si2 0.000000 0.175250 0.756890
Si Si3 0.245426 0.827710 0.843429
Si Si4 0.500000 0.173271 0.349891
Si Si5 0.221020 0.333472 0.512038
Si Si6 0.500000 0.167361 0.996391
O O1 0.871607 0.774842 0.554235
O O2 0.000000 0.763999 0.675391
O O3 0.000000 0.000000 0.594279
O O4 0.874067 0.234885 0.797806
O O5 0.000000 0.000000 0.759351
O O6 0.371639 0.742633 0.814824
O O7 0.267353 0.000000 0.830144
O O8 0.218224 0.794961 0.927399
O O9 0.500000 0.211482 0.434271
O O10 0.500000 0.000000 0.337418
O O11 0.172612 0.500000 0.524542
O O12 0.368120 0.313138 0.542013
O O13 0.500000 0.000000 0.962497
#
# Coordination Sequence:
#
# PCOD8177441 Si02
#       6
#     4   4   8   4   8   4
#     4  11  22  33  47  73 106 133 160 202 254 297
#     4   9  19  35  53  71  94 131 176 210 236 281
#     4   9  17  34  57  74  93 129 174 207 233 283
#     4  10  18  28  47  80 111 125 147 199 261 302
#     4   9  17  32  55  77  95 124 166 207 244 287
#     4   8  16  32  53  74  95 127 171 205 233 284
#
# _framework density 18.300141
#
# number of rings (size 3 to 8) (size 9 to 14) (size 15 to 20)
#    0.000    2.750    0.000    3.750    0.000    6.000 
#    0.000    4.375    0.000    4.500    0.000    0.000 
#    0.000    0.000    0.000    0.000    0.000    0.000 
#
# Total GULP energy -198324.412666 kJ/mol
# GULP energy per Si atom -12395.275792 kJ/mol
# Density = 1.825849 g / cm^3
# Si number density = 18.300141 Si / 1000 Ang^3
#
#
#
# Elastic Constant Matrix: (Units=GPa)
#
#
# Indices 1 2 3 4 5 6 
#
# 1 194.2886 60.2070 67.4189 0.0000 0.0000 0.0000
# 2 60.2070 70.2540 34.6995 0.0000 0.0000 0.0000
# 3 67.4189 34.6995 72.3107 0.0000 0.0000 0.0000
# 4 0.0000 0.0000 0.0000 17.6549 0.0000 0.0000
# 5 0.0000 0.0000 0.0000 0.0000 1.3811 0.0000
# 6 0.0000 0.0000 0.0000 0.0000 0.0000 28.1799
#
#
#
# Elastic Compliance Matrix: (Units=1/GPa)
#
#
# Indices 1 2 3 4 5 6 
#
# 1 0.008550 -0.004443 -0.005840 0.000000 0.000000 0.000000
# 2 -0.004443 0.020965 -0.005918 0.000000 0.000000 0.000000
# 3 -0.005840 -0.005918 0.022114 0.000000 0.000000 0.000000
# 4 0.000000 0.000000 0.000000 0.056641 0.000000 0.000000
# 5 0.000000 0.000000 0.000000 0.000000 0.724046 0.000000
# 6 0.000000 0.000000 0.000000 0.000000 0.000000 0.035486
#
#
# Mechanical properties :
#
#
# Convention : Reuss Voigt Hill
#
# Bulk Modulus (GPa) = 52.00907 73.50046 62.75477
# Shear Modulus (GPa) = 5.51504 21.07839 13.29672
#
# Velocity S-wave (km/s) = 1.73787 3.39752 2.69846
# Velocity P-wave (km/s) = 5.70164 7.45935 6.63892
#
# Compressibility (1/GPa) = 0.01922741
#
# Stress axis : x y z
#
# Youngs Moduli (GPa) = 116.95562 47.69935 45.22121
#
# Poissons Ratio (x) = 0.21194 0.26408
# Poissons Ratio (y) = 0.51966 0.26760
# Poissons Ratio (z) = 0.68299 0.28227
#
# Static dielectric constant tensor:
#      x y z
#    x 3.829110 0.000000 0.000000 
#    y 0.000000 3.103170 0.000000 
#    z 0.000000 0.000000 3.084830 
# 
# 
# High freq. dielectric constant tensor:
#      x y z
#    x 1.736920 0.000000 0.000000 
#    y 0.000000 1.689130 0.000000 
#    z 0.000000 0.000000 1.664830 
# 
# From -- ./inp_files/13343.got.cif
#   From: 2010.03.12/outbox.cif.g09.slc.cpg/sg38_7_cif.got.tgz:13343.got - 2010.04.14 02:38:36.
