data_PCOD8177941
_publ_section_title
;
Structure prediction by ZEFSAII (Michael W. Deem and Ramdas Pophale) SiO2 
 PCOD8177941
Probable space group: A M M 2
;
_chemical_formula_sum "Si O2"
_cell_formula_units_Z 64
_cell_length_a 9.462366
_cell_length_b 22.619582
_cell_length_c 15.323837
_cell_angle_alpha 90.000000
_cell_angle_beta 90.000000
_cell_angle_gamma 90.000000
_cell_volume 3279.833831
_symmetry_space_group_name_H-M "A M M 2"
_symmetry_group_IT_number 38
_symmetry_cell_setting 'orthorhombic'
loop_
_space_group_symop_operation_xyz
x,y,z
-x,-y,z
-x,y,z
x,-y,z
x,1/2+y,1/2+z
-x,1/2-y,1/2+z
-x,1/2+y,1/2+z
x,1/2-y,1/2+z
loop_
_atom_site_type_symbol
_atom_site_label
_atom_site_fract_x
_atom_site_fract_y
_atom_site_fract_z
Si Si1 0.838503 0.675390 0.744190
Si Si2 0.344192 0.430454 0.294865
Si Si3 0.661024 0.566125 0.797398
Si Si4 0.834380 0.722729 0.926871
Si Si5 0.843936 0.931226 0.642783
Si Si6 0.333869 0.933068 0.991663
Si Si7 0.662816 0.612533 0.986787
Si Si8 0.837548 0.672844 0.551546
O O1 0.753045 0.614546 0.748489
O O2 0.797742 0.721387 0.822455
O O3 0.813967 0.703300 0.647523
O O4 0.000000 0.656882 0.757272
O O5 0.500000 0.402204 0.280145
O O6 0.357108 0.500000 0.278896
O O7 0.232000 0.402077 0.227451
O O8 0.290594 0.418217 0.392414
O O9 0.500000 0.575537 0.767292
O O10 0.712179 0.500000 0.772351
O O11 0.674162 0.572833 0.901089
O O12 0.000000 0.709918 0.943547
O O13 0.740105 0.674604 0.974856
O O14 0.790211 0.784291 0.972440
O O15 0.743466 0.923060 0.560748
O O16 0.000000 0.902112 0.630252
O O17 0.864420 0.000000 0.659467
O O18 0.500000 0.925169 0.005402
O O19 0.252197 0.887184 0.052300
O O20 0.289115 0.000000 0.016246
O O21 0.500000 0.623484 0.013328
O O22 0.000000 0.655220 0.539267
#
# Coordination Sequence:
#
# PCOD8177941 Si02
#       8
#     8   8   8   8   8   8   8   8
#     4   9  19  36  56  77 106 142 179 222 272 323
#     4   8  15  30  49  68  98 139 177 217 265 314
#     4   9  18  32  51  77 108 142 179 219 267 322
#     4   9  19  38  57  74 104 142 181 227 276 321
#     4  10  19  29  45  73 107 143 184 227 273 327
#     4   9  19  36  57  81 111 145 178 219 273 328
#     4  10  19  32  51  74 104 141 183 229 276 323
#     4  10  21  37  58  83 109 142 182 224 274 330
#
# _framework density 19.513183999999999
#
# number of rings (size 3 to 8) (size 9 to 14) (size 15 to 20)
#    0.000    2.750    0.000    1.875    0.000    4.250 
#    2.250    3.750    0.000    0.000    0.000    0.000 
#    0.000    0.000    0.000    0.000    0.000    0.000 
#
# Total GULP energy -396611.559565 kJ/mol
# GULP energy per Si atom -12394.111236 kJ/mol
# Density = 1.946877 g / cm^3
# Si number density = 19.513184 Si / 1000 Ang^3
#
#
#
# Elastic Constant Matrix: (Units=GPa)
#
#
# Indices 1 2 3 4 5 6 
#
# 1 76.2022 31.2282 37.0442 0.0000 0.0000 0.0000
# 2 31.2282 79.5803 40.5063 0.0000 0.0000 0.0000
# 3 37.0442 40.5063 104.8987 0.0000 0.0000 0.0000
# 4 0.0000 0.0000 0.0000 23.5269 0.0000 0.0000
# 5 0.0000 0.0000 0.0000 0.0000 27.4126 0.0000
# 6 0.0000 0.0000 0.0000 0.0000 0.0000 26.8044
#
#
#
# Elastic Compliance Matrix: (Units=1/GPa)
#
#
# Indices 1 2 3 4 5 6 
#
# 1 0.017053 -0.004514 -0.004279 0.000000 0.000000 0.000000
# 2 -0.004514 0.016835 -0.004907 0.000000 0.000000 0.000000
# 3 -0.004279 -0.004907 0.012939 0.000000 0.000000 0.000000
# 4 0.000000 0.000000 0.000000 0.042505 0.000000 0.000000
# 5 0.000000 0.000000 0.000000 0.000000 0.036480 0.000000
# 6 0.000000 0.000000 0.000000 0.000000 0.000000 0.037307
#
#
# Mechanical properties :
#
#
# Convention : Reuss Voigt Hill
#
# Bulk Modulus (GPa) = 51.47370 53.13763 52.30566
# Shear Modulus (GPa) = 25.38165 25.67561 25.52863
#
# Velocity S-wave (km/s) = 3.61049 3.63134 3.62093
# Velocity P-wave (km/s) = 6.61945 6.69873 6.65921
#
# Compressibility (1/GPa) = 0.01942740
#
# Stress axis : x y z
#
# Youngs Moduli (GPa) = 58.64086 59.40143 77.28649
#
# Poissons Ratio (x) = 0.26812 0.33072
# Poissons Ratio (y) = 0.26468 0.37922
# Poissons Ratio (z) = 0.25094 0.29146
#
# Static dielectric constant tensor:
#      x y z
#    x 3.737890 0.000000 0.000000 
#    y 0.000000 3.216410 0.000000 
#    z 0.000000 0.000000 3.734980 
# 
# 
# High freq. dielectric constant tensor:
#      x y z
#    x 1.761080 0.000000 0.000000 
#    y 0.000000 1.724120 0.000000 
#    z 0.000000 0.000000 1.768640 
# 
# From -- ./inp_files/12752.got.cif
#   From: 2010.03.12/outbox.cif.g09.slc.cpg/sg38_7_cif.got.tgz:12752.got - 2010.04.14 02:38:36.
