data_PCOD8177097
_publ_section_title
;
Structure prediction by ZEFSAII (Michael W. Deem and Ramdas Pophale) SiO2 
 PCOD8177097
Probable space group: C C C 2
;
_chemical_formula_sum "Si O2"
_cell_formula_units_Z 52
_cell_length_a 8.278748
_cell_length_b 14.442991
_cell_length_c 20.048061
_cell_angle_alpha 90.000000
_cell_angle_beta 90.000000
_cell_angle_gamma 90.000000
_cell_volume 2397.144305
_symmetry_space_group_name_H-M "C C C 2"
_symmetry_group_IT_number 37
_symmetry_cell_setting 'orthorhombic'
loop_
_space_group_symop_operation_xyz
x,y,z
-x,-y,z
-x,y,1/2+z
x,-y,1/2+z
1/2+x,1/2+y,z
1/2-x,1/2-y,z
1/2-x,1/2+y,1/2+z
1/2+x,1/2-y,1/2+z
loop_
_atom_site_type_symbol
_atom_site_label
_atom_site_fract_x
_atom_site_fract_y
_atom_site_fract_z
Si Si1 0.861785 0.661873 0.087300
Si Si2 0.500000 0.500000 0.316329
Si Si3 0.856355 0.871857 0.717553
Si Si4 0.721375 0.858628 0.343152
Si Si5 0.671890 0.525197 0.578233
Si Si6 0.639097 0.840659 0.486381
Si Si7 0.997562 0.314432 0.225869
O O1 0.750000 0.750000 0.095348
O O2 0.759616 0.569877 0.092977
O O3 0.963623 0.674570 0.019274
O O4 0.978847 0.653481 0.150294
O O5 0.630331 0.453140 0.269814
O O6 0.385082 0.422489 0.353105
O O7 0.857205 0.911113 0.642891
O O8 0.007175 0.799009 0.728180
O O9 0.688133 0.830308 0.740552
O O10 0.750000 0.750000 0.340801
O O11 0.614868 0.873969 0.410005
O O12 0.613372 0.873005 0.276011
O O13 0.500000 0.500000 0.546139
O O14 0.774781 0.576675 0.523730
O O15 0.750000 0.750000 0.492182
#
# Coordination Sequence:
#
# PCOD8177097 Si02
#       7
#     8   4   8   8   8   8   8
#     4  12  25  43  71 100 140 183 232 290 350 418
#     4  12  24  44  70 106 130 190 238 288 362 426
#     4  11  23  40  71 103 137 175 235 289 346 420
#     4  11  25  47  70 100 143 183 232 295 356 428
#     4  12  24  42  69 102 134 177 235 286 346 414
#     4  11  25  47  68  97 139 183 231 290 354 420
#     4  11  23  44  68 103 140 184 224 291 352 410
#
# _framework density 21.692477
#
# number of rings (size 3 to 8) (size 9 to 14) (size 15 to 20)
#    0.000    0.615    3.846    4.615    1.077    1.846 
#    8.308    0.000    0.000    0.000    0.000    0.000 
#    0.000    0.000    0.000    0.000    0.000    0.000 
#
# Total GULP energy -322105.351192 kJ/mol
# GULP energy per Si atom -12388.667354 kJ/mol
# Density = 2.164310 g / cm^3
# Si number density = 21.692477 Si / 1000 Ang^3
#
#
#
# Elastic Constant Matrix: (Units=GPa)
#
#
# Indices 1 2 3 4 5 6 
#
# 1 95.4978 34.2018 29.9897 0.0000 0.0000 0.0000
# 2 34.2018 115.6483 21.5896 0.0000 0.0000 0.0000
# 3 29.9897 21.5896 124.1394 0.0000 0.0000 0.0000
# 4 0.0000 0.0000 0.0000 21.8354 0.0000 0.0000
# 5 0.0000 0.0000 0.0000 0.0000 23.6526 0.0000
# 6 0.0000 0.0000 0.0000 0.0000 0.0000 41.9970
#
#
#
# Elastic Compliance Matrix: (Units=1/GPa)
#
#
# Indices 1 2 3 4 5 6 
#
# 1 0.012385 -0.003208 -0.002434 0.000000 0.000000 0.000000
# 2 -0.003208 0.009768 -0.000924 0.000000 0.000000 0.000000
# 3 -0.002434 -0.000924 0.008804 0.000000 0.000000 0.000000
# 4 0.000000 0.000000 0.000000 0.045797 0.000000 0.000000
# 5 0.000000 0.000000 0.000000 0.000000 0.042279 0.000000
# 6 0.000000 0.000000 0.000000 0.000000 0.000000 0.023811
#
#
# Mechanical properties :
#
#
# Convention : Reuss Voigt Hill
#
# Bulk Modulus (GPa) = 56.10079 56.31641 56.20860
# Shear Modulus (GPa) = 30.87982 34.13061 32.50522
#
# Velocity S-wave (km/s) = 3.77706 3.97089 3.87519
# Velocity P-wave (km/s) = 6.70370 6.85869 6.78164
#
# Compressibility (1/GPa) = 0.01782506
#
# Stress axis : x y z
#
# Youngs Moduli (GPa) = 80.74393 102.37317 113.58322
#
# Poissons Ratio (x) = 0.32844 0.27646
# Poissons Ratio (y) = 0.25905 0.10492
# Poissons Ratio (z) = 0.19653 0.09457
#
# Static dielectric constant tensor:
#      x y z
#    x 4.076610 0.000000 0.000000 
#    y 0.000000 4.088150 0.000000 
#    z 0.000000 0.000000 4.232810 
# 
# 
# High freq. dielectric constant tensor:
#      x y z
#    x 1.856330 0.000000 0.000000 
#    y 0.000000 1.871330 0.000000 
#    z 0.000000 0.000000 1.843230 
# 
# From -- ./inp_files/16354.got.cif
#   From: 2010.03.12/outbox.cif.g09.slc.cpg/sg37_9_cif.got.tgz:16354.got - 2010.04.14 02:25:27.
