data_PCOD8177899
_publ_section_title
;
Structure prediction by ZEFSAII (Michael W. Deem and Ramdas Pophale) SiO2 
 PCOD8177899
Probable space group: A M M 2
;
_chemical_formula_sum "Si O2"
_cell_formula_units_Z 56
_cell_length_a 9.279105
_cell_length_b 13.658164
_cell_length_c 29.396187
_cell_angle_alpha 90.000000
_cell_angle_beta 90.000000
_cell_angle_gamma 90.000000
_cell_volume 3725.541571
_symmetry_space_group_name_H-M "A M M 2"
_symmetry_group_IT_number 38
_symmetry_cell_setting 'orthorhombic'
loop_
_space_group_symop_operation_xyz
x,y,z
-x,-y,z
-x,y,z
x,-y,z
x,1/2+y,1/2+z
-x,1/2-y,1/2+z
-x,1/2+y,1/2+z
x,1/2-y,1/2+z
loop_
_atom_site_type_symbol
_atom_site_label
_atom_site_fract_x
_atom_site_fract_y
_atom_site_fract_z
Si Si1 0.332057 0.111408 0.560790
Si Si2 0.167602 0.887414 0.014521
Si Si3 0.168611 0.223343 0.106081
Si Si4 0.828925 0.388831 0.693013
Si Si5 0.331023 0.279162 0.968972
Si Si6 0.170361 0.392161 0.790824
Si Si7 0.833142 0.116426 0.389415
O O1 0.500000 0.122660 0.570941
O O2 0.246825 0.173617 0.598173
O O3 0.294327 0.148250 0.510329
O O4 0.280084 0.000000 0.564730
O O5 0.203035 0.852087 0.065509
O O6 0.000000 0.872535 0.003391
O O7 0.213996 0.000000 0.010334
O O8 0.258842 0.826097 0.977948
O O9 0.233848 0.177585 0.152454
O O10 0.000000 0.244776 0.109939
O O11 0.770442 0.500000 0.688414
O O12 0.783121 0.342065 0.742600
O O13 0.000000 0.391061 0.688070
O O14 0.500000 0.263540 0.962517
O O15 0.267746 0.326889 0.923926
O O16 0.239301 0.500000 0.789994
O O17 0.213867 0.342534 0.838949
O O18 0.000000 0.402774 0.791307
O O19 0.000000 0.140509 0.399840
O O20 0.807025 0.000000 0.392424
#
# Coordination Sequence:
#
# PCOD8177899 Si02
#       7
#     8   8   8   8   8   8   8
#     4   9  18  31  42  53  76 110 141 166 196 237
#     4   9  17  29  43  60  84 110 135 165 199 236
#     4   9  16  25  41  65  85 103 132 166 198 231
#     4   8  12  20  37  61  87 110 130 156 193 236
#     4  10  19  29  42  60  81 107 139 170 202 241
#     4   7  11  20  35  57  83 108 132 158 192 236
#     4   9  16  26  41  61  84 109 137 168 201 239
#
# _framework density 15.031371
#
# number of rings (size 3 to 8) (size 9 to 14) (size 15 to 20)
#    0.000    3.286    0.000    3.000    0.000    3.714 
#    0.000    0.000    0.000    2.143    0.000    3.000 
#    0.000    3.429    0.000    0.000    0.000    0.000 
#
# Total GULP energy -346918.148418 kJ/mol
# GULP energy per Si atom -12389.933872 kJ/mol
# Density = 1.499716 g / cm^3
# Si number density = 15.031371 Si / 1000 Ang^3
#
#
#
# Elastic Constant Matrix: (Units=GPa)
#
#
# Indices 1 2 3 4 5 6 
#
# 1 38.6138 37.1200 39.8384 0.0000 0.0000 0.0000
# 2 37.1200 99.2179 58.6428 0.0000 0.0000 0.0000
# 3 39.8384 58.6428 130.9151 0.0000 0.0000 0.0000
# 4 0.0000 0.0000 0.0000 22.2412 0.0000 0.0000
# 5 0.0000 0.0000 0.0000 0.0000 11.6002 0.0000
# 6 0.0000 0.0000 0.0000 0.0000 0.0000 16.5445
#
#
#
# Elastic Compliance Matrix: (Units=1/GPa)
#
#
# Indices 1 2 3 4 5 6 
#
# 1 0.046733 -0.012348 -0.008690 0.000000 0.000000 0.000000
# 2 -0.012348 0.016971 -0.003844 0.000000 0.000000 0.000000
# 3 -0.008690 -0.003844 0.012005 0.000000 0.000000 0.000000
# 4 0.000000 0.000000 0.000000 0.044962 0.000000 0.000000
# 5 0.000000 0.000000 0.000000 0.000000 0.086206 0.000000
# 6 0.000000 0.000000 0.000000 0.000000 0.000000 0.060443
#
#
# Mechanical properties :
#
#
# Convention : Reuss Voigt Hill
#
# Bulk Modulus (GPa) = 38.54403 59.99436 49.26920
# Shear Modulus (GPa) = 15.35002 18.95355 17.15178
#
# Velocity S-wave (km/s) = 3.19909 3.55481 3.38163
# Velocity P-wave (km/s) = 6.27245 7.53978 6.93513
#
# Compressibility (1/GPa) = 0.02594435
#
# Stress axis : x y z
#
# Youngs Moduli (GPa) = 21.39798 58.92494 83.29801
#
# Poissons Ratio (x) = 0.72760 0.72387
# Poissons Ratio (y) = 0.26422 0.32023
# Poissons Ratio (z) = 0.18595 0.22653
#
# Static dielectric constant tensor:
#      x y z
#    x 2.644910 0.000000 0.000000 
#    y 0.000000 2.763210 0.000000 
#    z 0.000000 0.000000 3.207310 
# 
# 
# High freq. dielectric constant tensor:
#      x y z
#    x 1.550250 0.000000 0.000000 
#    y 0.000000 1.546320 0.000000 
#    z 0.000000 0.000000 1.580090 
# 
# From -- ./inp_files/24638.got.cif
#   From: 2010.03.12/outbox.cif.g09.slc.cpg/sg38_13_cif.got.tgz:24638.got - 2010.04.14 02:38:36.
