data_PCOD8177054
_publ_section_title
;
Structure prediction by ZEFSAII (Michael W. Deem and Ramdas Pophale) SiO2 
 PCOD8177054
Probable space group: C C C 2
;
_chemical_formula_sum "Si O2"
_cell_formula_units_Z 56
_cell_length_a 14.052432
_cell_length_b 13.183260
_cell_length_c 14.287903
_cell_angle_alpha 90.000000
_cell_angle_beta 90.000000
_cell_angle_gamma 90.000000
_cell_volume 2646.932113
_symmetry_space_group_name_H-M "C C C 2"
_symmetry_group_IT_number 37
_symmetry_cell_setting 'orthorhombic'
loop_
_space_group_symop_operation_xyz
x,y,z
-x,-y,z
-x,y,1/2+z
x,-y,1/2+z
1/2+x,1/2+y,z
1/2-x,1/2-y,z
1/2-x,1/2+y,1/2+z
1/2+x,1/2-y,1/2+z
loop_
_atom_site_type_symbol
_atom_site_label
_atom_site_fract_x
_atom_site_fract_y
_atom_site_fract_z
Si Si1 0.917082 0.066147 0.611650
Si Si2 0.524802 0.765782 0.831361
Si Si3 0.096541 0.047177 0.802188
Si Si4 0.082302 0.422850 0.977226
Si Si5 0.286845 0.500157 0.469315
Si Si6 0.643382 0.717837 0.474182
Si Si7 0.999016 0.285510 0.126662
O O1 0.832577 0.084517 0.537756
O O2 0.951188 0.177064 0.639719
O O3 0.883811 0.001571 0.701428
O O4 0.000000 0.000000 0.562363
O O5 0.585785 0.667949 0.801925
O O6 0.589057 0.836392 0.897887
O O7 0.426121 0.735914 0.884692
O O8 0.512337 0.825814 0.732948
O O9 0.189272 0.020869 0.861798
O O10 0.000000 0.000000 0.845934
O O11 0.174227 0.495075 0.981776
O O12 0.000000 0.500000 0.950053
O O13 0.066210 0.368128 0.076707
O O14 0.340091 0.398301 0.502023
O O15 0.750000 0.750000 0.446277
O O16 0.598314 0.774286 0.565124
#
# Coordination Sequence:
#
# PCOD8177054 Si02
#       7
#     8   8   8   8   8   8   8
#     4  11  20  38  68 105 129 155 210 278 345 392
#     4  11  22  44  69  94 131 176 216 278 337 395
#     4  11  20  38  68 105 129 155 210 278 345 392
#     4  11  28  48  60  91 139 187 231 257 328 398
#     4  12  21  40  66  93 135 170 209 283 320 387
#     4  11  22  39  66  94 128 177 228 262 326 403
#     4  11  22  44  69  94 131 176 216 278 337 395
#
# _framework density 21.156568
#
# number of rings (size 3 to 8) (size 9 to 14) (size 15 to 20)
#    0.000    0.857    5.714    3.857    0.000    2.857 
#   15.429    0.000    0.000    0.000    0.000    0.000 
#    0.000    0.000    0.000    0.000    0.000    0.000 
#
# Total GULP energy -347010.337375 kJ/mol
# GULP energy per Si atom -12393.226335 kJ/mol
# Density = 2.110841 g / cm^3
# Si number density = 21.156568 Si / 1000 Ang^3
#
#
#
# Elastic Constant Matrix: (Units=GPa)
#
#
# Indices 1 2 3 4 5 6 
#
# 1 110.3225 4.9913 38.3115 0.0000 0.0000 0.0000
# 2 4.9913 58.1914 20.0625 0.0000 0.0000 0.0000
# 3 38.3115 20.0625 114.7634 0.0000 0.0000 0.0000
# 4 0.0000 0.0000 0.0000 28.2617 0.0000 0.0000
# 5 0.0000 0.0000 0.0000 0.0000 14.1263 0.0000
# 6 0.0000 0.0000 0.0000 0.0000 0.0000 27.3967
#
#
#
# Elastic Compliance Matrix: (Units=1/GPa)
#
#
# Indices 1 2 3 4 5 6 
#
# 1 0.010259 0.000320 -0.003481 0.000000 0.000000 0.000000
# 2 0.000320 0.018297 -0.003305 0.000000 0.000000 0.000000
# 3 -0.003481 -0.003305 0.010453 0.000000 0.000000 0.000000
# 4 0.000000 0.000000 0.000000 0.035384 0.000000 0.000000
# 5 0.000000 0.000000 0.000000 0.000000 0.070790 0.000000
# 6 0.000000 0.000000 0.000000 0.000000 0.000000 0.036501
#
#
# Mechanical properties :
#
#
# Convention : Reuss Voigt Hill
#
# Bulk Modulus (GPa) = 38.34819 45.55645 41.95232
# Shear Modulus (GPa) = 24.59333 28.61773 26.60553
#
# Velocity S-wave (km/s) = 3.41316 3.68185 3.55005
# Velocity P-wave (km/s) = 5.80501 6.29718 6.05610
#
# Compressibility (1/GPa) = 0.02607685
#
# Stress axis : x y z
#
# Youngs Moduli (GPa) = 97.47967 54.65430 95.66323
#
# Poissons Ratio (x) = -0.01749 0.33296
# Poissons Ratio (y) = -0.03120 0.31621
# Poissons Ratio (z) = 0.33928 0.18066
#
# Static dielectric constant tensor:
#      x y z
#    x 3.720850 0.000000 0.000000 
#    y 0.000000 3.995690 0.000000 
#    z 0.000000 0.000000 3.879740 
# 
# 
# High freq. dielectric constant tensor:
#      x y z
#    x 1.807320 0.000000 0.000000 
#    y 0.000000 1.831550 0.000000 
#    z 0.000000 0.000000 1.836040 
# 
# From -- ./inp_files/11620.got.cif
#   From: 2010.03.12/outbox.cif.g09.slc.cpg/sg37_6_cif.got.tgz:11620.got - 2010.04.14 02:25:27.
