data_PCOD8177775
_publ_section_title
;
Structure prediction by ZEFSAII (Michael W. Deem and Ramdas Pophale) SiO2 
 PCOD8177775
Probable space group: A M M 2
;
_chemical_formula_sum "Si O2"
_cell_formula_units_Z 64
_cell_length_a 13.266095
_cell_length_b 18.153183
_cell_length_c 14.936817
_cell_angle_alpha 90.000000
_cell_angle_beta 90.000000
_cell_angle_gamma 90.000000
_cell_volume 3597.111906
_symmetry_space_group_name_H-M "A M M 2"
_symmetry_group_IT_number 38
_symmetry_cell_setting 'orthorhombic'
loop_
_space_group_symop_operation_xyz
x,y,z
-x,-y,z
-x,y,z
x,-y,z
x,1/2+y,1/2+z
-x,1/2-y,1/2+z
-x,1/2+y,1/2+z
x,1/2-y,1/2+z
loop_
_atom_site_type_symbol
_atom_site_label
_atom_site_fract_x
_atom_site_fract_y
_atom_site_fract_z
Si Si1 0.884926 0.775664 0.758730
Si Si2 0.258866 0.710893 0.619177
Si Si3 0.205754 0.770874 0.433800
Si Si4 0.616708 0.414585 0.544347
Si Si5 0.388923 0.185685 0.878696
Si Si6 0.613994 0.656580 0.172419
Si Si7 0.810185 0.580894 0.170494
Si Si8 0.885486 0.081743 0.477265
O O1 0.816382 0.716912 0.703759
O O2 0.874493 0.764200 0.865072
O O3 0.847224 0.858500 0.740730
O O4 0.000000 0.764864 0.729504
O O5 0.193294 0.734794 0.532061
O O6 0.307553 0.629558 0.610836
O O7 0.354534 0.765161 0.630365
O O8 0.317452 0.755083 0.397307
O O9 0.189347 0.858658 0.434506
O O10 0.500000 0.405286 0.574231
O O11 0.648397 0.500000 0.545208
O O12 0.633645 0.382723 0.444641
O O13 0.500000 0.217252 0.895073
O O14 0.376045 0.156475 0.779210
O O15 0.500000 0.637339 0.142081
O O16 0.694063 0.595472 0.139374
O O17 0.818025 0.500000 0.214753
O O18 0.880963 0.585562 0.084321
O O19 0.000000 0.099641 0.448588
O O20 0.853990 0.000000 0.443807
#
# Coordination Sequence:
#
# PCOD8177775 Si02
#       8
#     8   8   8   8   8   8   8   8
#     4  11  22  36  56  83 107 141 187 228 275 324
#     4  10  20  35  55  82 111 140 182 229 270 318
#     4  11  19  36  56  81 108 141 181 226 271 323
#     4   9  18  33  55  83 113 148 186 219 262 324
#     4   9  18  32  53  81 111 146 183 220 264 317
#     4  10  18  33  54  79 111 146 181 219 269 324
#     4  10  20  35  53  79 113 142 175 223 274 324
#     4  10  20  35  56  79 105 141 183 227 272 319
#
# _framework density 17.792051000000001
#
# number of rings (size 3 to 8) (size 9 to 14) (size 15 to 20)
#    0.000    2.000    5.000    1.125    0.000    2.500 
#    0.000    1.875    0.000    1.500    0.000    0.000 
#    0.000    0.000    0.000    0.000    0.000    0.000 
#
# Total GULP energy -396647.233217 kJ/mol
# GULP energy per Si atom -12395.226038 kJ/mol
# Density = 1.775156 g / cm^3
# Si number density = 17.792051 Si / 1000 Ang^3
#
#
#
# Elastic Constant Matrix: (Units=GPa)
#
#
# Indices 1 2 3 4 5 6 
#
# 1 101.5927 51.6032 21.2149 0.0000 0.0000 0.0000
# 2 51.6032 144.7131 28.7245 0.0000 0.0000 0.0000
# 3 21.2149 28.7245 54.5464 0.0000 0.0000 0.0000
# 4 0.0000 0.0000 0.0000 19.9467 0.0000 0.0000
# 5 0.0000 0.0000 0.0000 0.0000 26.7162 0.0000
# 6 0.0000 0.0000 0.0000 0.0000 0.0000 24.1151
#
#
#
# Elastic Compliance Matrix: (Units=1/GPa)
#
#
# Indices 1 2 3 4 5 6 
#
# 1 0.012387 -0.003865 -0.002783 0.000000 0.000000 0.000000
# 2 -0.003865 0.008923 -0.003196 0.000000 0.000000 0.000000
# 3 -0.002783 -0.003196 0.021098 0.000000 0.000000 0.000000
# 4 0.000000 0.000000 0.000000 0.050134 0.000000 0.000000
# 5 0.000000 0.000000 0.000000 0.000000 0.037431 0.000000
# 6 0.000000 0.000000 0.000000 0.000000 0.000000 0.041468
#
#
# Mechanical properties :
#
#
# Convention : Reuss Voigt Hill
#
# Bulk Modulus (GPa) = 44.01005 55.99303 50.00154
# Shear Modulus (GPa) = 25.16351 27.44289 26.30320
#
# Velocity S-wave (km/s) = 3.76481 3.93163 3.84913
# Velocity P-wave (km/s) = 6.60968 7.22146 6.92233
#
# Compressibility (1/GPa) = 0.02272208
#
# Stress axis : x y z
#
# Youngs Moduli (GPa) = 80.72686 112.07359 47.39766
#
# Poissons Ratio (x) = 0.43315 0.13189
# Poissons Ratio (y) = 0.31200 0.15146
# Poissons Ratio (z) = 0.22463 0.35814
#
# Static dielectric constant tensor:
#      x y z
#    x 3.466240 0.000000 0.000000 
#    y 0.000000 3.253090 0.000000 
#    z 0.000000 0.000000 3.243010 
# 
# 
# High freq. dielectric constant tensor:
#      x y z
#    x 1.692450 0.000000 0.000000 
#    y 0.000000 1.672470 0.000000 
#    z 0.000000 0.000000 1.673490 
# 
# From -- ./inp_files/14777.got.cif
#   From: 2010.03.12/outbox.cif.g09.slc.cpg/sg38_8_cif.got.tgz:14777.got - 2010.04.14 02:38:36.
