data_PCOD8177762
_publ_section_title
;
Structure prediction by ZEFSAII (Michael W. Deem and Ramdas Pophale) SiO2 
 PCOD8177762
Probable space group: A M M 2
;
_chemical_formula_sum "Si O2"
_cell_formula_units_Z 40
_cell_length_a 9.003861
_cell_length_b 11.533422
_cell_length_c 20.186410
_cell_angle_alpha 90.000000
_cell_angle_beta 90.000000
_cell_angle_gamma 90.000000
_cell_volume 2096.264379
_symmetry_space_group_name_H-M "A M M 2"
_symmetry_group_IT_number 38
_symmetry_cell_setting 'orthorhombic'
loop_
_space_group_symop_operation_xyz
x,y,z
-x,-y,z
-x,y,z
x,-y,z
x,1/2+y,1/2+z
-x,1/2-y,1/2+z
-x,1/2+y,1/2+z
x,1/2-y,1/2+z
loop_
_atom_site_type_symbol
_atom_site_label
_atom_site_fract_x
_atom_site_fract_y
_atom_site_fract_z
Si Si1 0.674681 0.500000 0.681221
Si Si2 0.823763 0.133700 0.381700
Si Si3 0.827217 0.746493 0.015058
Si Si4 0.171315 0.634775 0.148976
Si Si5 0.323563 0.225510 0.256145
Si Si6 0.170015 0.500000 0.544556
O O1 0.500000 0.500000 0.684619
O O2 0.737028 0.387120 0.717627
O O3 0.723123 0.500000 0.606321
O O4 0.761837 0.174847 0.453279
O O5 0.745770 0.218537 0.329168
O O6 0.000000 0.149818 0.376433
O O7 0.776787 0.000000 0.370744
O O8 0.760122 0.703794 0.085475
O O9 0.000000 0.717832 0.018969
O O10 0.796903 0.883614 0.002585
O O11 0.189893 0.500000 0.133696
O O12 0.263152 0.664548 0.215325
O O13 0.000000 0.668544 0.161253
O O14 0.500000 0.232779 0.261801
O O15 0.000000 0.500000 0.569633
#
# Coordination Sequence:
#
# PCOD8177762 Si02
#       6
#     4   8   8   8   8   4
#     4  10  20  34  54  80 110 141 176 225 274 321
#     4  10  20  35  56  80 109 145 184 226 273 327
#     4   9  18  33  55  84 111 138 177 227 278 324
#     4  10  20  36  59  85 112 142 181 228 275 327
#     4  11  22  37  56  80 113 146 182 228 274 326
#     4  10  18  32  58  84 108 137 176 227 276 329
#
# _framework density 19.081562000000002
#
# number of rings (size 3 to 8) (size 9 to 14) (size 15 to 20)
#    0.000    2.000    3.000    1.200    0.000    3.600 
#    1.800    2.000    0.000    2.400    0.000    0.000 
#    0.000    0.000    0.000    0.000    0.000    0.000 
#
# Total GULP energy -247988.461770 kJ/mol
# GULP energy per Si atom -12399.423089 kJ/mol
# Density = 1.903813 g / cm^3
# Si number density = 19.081562 Si / 1000 Ang^3
#
#
#
# Elastic Constant Matrix: (Units=GPa)
#
#
# Indices 1 2 3 4 5 6 
#
# 1 36.2154 23.8789 31.4081 0.0000 0.0000 0.0000
# 2 23.8789 90.7945 41.8571 0.0000 0.0000 0.0000
# 3 31.4081 41.8571 135.7245 0.0000 0.0000 0.0000
# 4 0.0000 0.0000 0.0000 38.1016 0.0000 0.0000
# 5 0.0000 0.0000 0.0000 0.0000 15.3120 0.0000
# 6 0.0000 0.0000 0.0000 0.0000 0.0000 19.0076
#
#
#
# Elastic Compliance Matrix: (Units=1/GPa)
#
#
# Indices 1 2 3 4 5 6 
#
# 1 0.037935 -0.006913 -0.006647 0.000000 0.000000 0.000000
# 2 -0.006913 0.014099 -0.002748 0.000000 0.000000 0.000000
# 3 -0.006647 -0.002748 0.009754 0.000000 0.000000 0.000000
# 4 0.000000 0.000000 0.000000 0.026246 0.000000 0.000000
# 5 0.000000 0.000000 0.000000 0.000000 0.065308 0.000000
# 6 0.000000 0.000000 0.000000 0.000000 0.000000 0.052610
#
#
# Mechanical properties :
#
#
# Convention : Reuss Voigt Hill
#
# Bulk Modulus (GPa) = 34.27961 50.78029 42.52995
# Shear Modulus (GPa) = 20.13765 25.52360 22.83063
#
# Velocity S-wave (km/s) = 3.25213 3.66130 3.46276
# Velocity P-wave (km/s) = 5.66618 6.67409 6.19068
#
# Compressibility (1/GPa) = 0.02917186
#
# Stress axis : x y z
#
# Youngs Moduli (GPa) = 26.36095 70.92719 102.52642
#
# Poissons Ratio (x) = 0.49030 0.68146
# Poissons Ratio (y) = 0.18223 0.28178
# Poissons Ratio (z) = 0.17521 0.19494
#
# Static dielectric constant tensor:
#      x y z
#    x 3.131420 0.000000 0.000000 
#    y 0.000000 3.607600 0.000000 
#    z 0.000000 0.000000 3.539220 
# 
# 
# High freq. dielectric constant tensor:
#      x y z
#    x 1.709220 0.000000 0.000000 
#    y 0.000000 1.745060 0.000000 
#    z 0.000000 0.000000 1.742400 
# 
# From -- ./inp_files/19493.got.cif
#   From: 2010.03.12/outbox.cif.g09.slc.cpg/sg38_10_cif.got.tgz:19493.got - 2010.04.14 02:38:36.
