data_PCOD8177221
_publ_section_title
;
Structure prediction by ZEFSAII (Michael W. Deem and Ramdas Pophale) SiO2 
 PCOD8177221
Probable space group: A M M 2
;
_chemical_formula_sum "Si O2"
_cell_formula_units_Z 64
_cell_length_a 17.828724
_cell_length_b 9.152958
_cell_length_c 22.991891
_cell_angle_alpha 90.000000
_cell_angle_beta 90.000000
_cell_angle_gamma 90.000000
_cell_volume 3751.944653
_symmetry_space_group_name_H-M "A M M 2"
_symmetry_group_IT_number 38
_symmetry_cell_setting 'orthorhombic'
loop_
_space_group_symop_operation_xyz
x,y,z
-x,-y,z
-x,y,z
x,-y,z
x,1/2+y,1/2+z
-x,1/2-y,1/2+z
-x,1/2+y,1/2+z
x,1/2-y,1/2+z
loop_
_atom_site_type_symbol
_atom_site_label
_atom_site_fract_x
_atom_site_fract_y
_atom_site_fract_z
Si Si1 0.915412 0.167236 0.804870
Si Si2 0.220245 0.826873 0.361415
Si Si3 0.297266 0.661772 0.747970
Si Si4 0.649770 0.828323 0.645358
Si Si5 0.212494 0.167286 0.094748
Si Si6 0.870005 0.659942 0.699804
Si Si7 0.417106 0.668096 0.544374
Si Si8 0.729190 0.833161 0.974596
O O1 0.860588 0.258229 0.846261
O O2 0.914595 0.222283 0.737693
O O3 0.000000 0.183376 0.828762
O O4 0.889024 0.000000 0.805145
O O5 0.283056 0.780231 0.313730
O O6 0.248674 0.774338 0.423362
O O7 0.209107 0.000000 0.361271
O O8 0.332948 0.500000 0.749400
O O9 0.353189 0.766233 0.711642
O O10 0.216537 0.657411 0.717914
O O11 0.728413 0.786104 0.616585
O O12 0.585788 0.759731 0.604300
O O13 0.638840 0.000000 0.648446
O O14 0.133767 0.195635 0.129817
O O15 0.239966 0.000000 0.107895
O O16 0.207129 0.184950 0.024952
O O17 0.906581 0.500000 0.710317
O O18 0.500000 0.691981 0.516783
O O19 0.403342 0.500000 0.561177
O O20 0.352846 0.715292 0.498546
O O21 0.727191 0.000000 0.951906
#
# Coordination Sequence:
#
# PCOD8177221 Si02
#       8
#     8   8   8   8   8   8   8   8
#     4  10  20  32  47  69  96 124 155 196 246 294
#     4  10  20  32  48  70  95 126 165 204 240 283
#     4   8  15  28  43  61  88 119 149 182 224 277
#     4  10  17  24  41  69  94 115 144 186 232 271
#     4   8  15  28  44  64  91 121 150 180 221 275
#     4   8  14  26  45  67  90 116 147 183 223 271
#     4   9  18  33  51  69  93 128 162 191 235 295
#     4   9  17  30  49  71  95 124 162 204 239 278
#
# _framework density 17.057822000000002
#
# number of rings (size 3 to 8) (size 9 to 14) (size 15 to 20)
#    0.000    3.000    0.000    4.125    0.000    8.250 
#    0.000    0.000    0.000    1.500    0.000    5.250 
#    0.000    0.000    0.000    0.000    0.000    0.000 
#
# Total GULP energy -396430.191758 kJ/mol
# GULP energy per Si atom -12388.443492 kJ/mol
# Density = 1.701900 g / cm^3
# Si number density = 17.057822 Si / 1000 Ang^3
#
#
#
# Elastic Constant Matrix: (Units=GPa)
#
#
# Indices 1 2 3 4 5 6 
#
# 1 58.9333 35.4563 40.3178 0.0000 0.0000 0.0000
# 2 35.4563 93.6643 52.1281 0.0000 0.0000 0.0000
# 3 40.3178 52.1281 121.2515 0.0000 0.0000 0.0000
# 4 0.0000 0.0000 0.0000 30.4362 0.0000 0.0000
# 5 0.0000 0.0000 0.0000 0.0000 16.4479 0.0000
# 6 0.0000 0.0000 0.0000 0.0000 0.0000 16.5646
#
#
#
# Elastic Compliance Matrix: (Units=1/GPa)
#
#
# Indices 1 2 3 4 5 6 
#
# 1 0.024439 -0.006216 -0.005454 0.000000 0.000000 0.000000
# 2 -0.006216 0.015615 -0.004646 0.000000 0.000000 0.000000
# 3 -0.005454 -0.004646 0.012058 0.000000 0.000000 0.000000
# 4 0.000000 0.000000 0.000000 0.032856 0.000000 0.000000
# 5 0.000000 0.000000 0.000000 0.000000 0.060798 0.000000
# 6 0.000000 0.000000 0.000000 0.000000 0.000000 0.060370
#
#
# Mechanical properties :
#
#
# Convention : Reuss Voigt Hill
#
# Bulk Modulus (GPa) = 51.33412 58.85042 55.09227
# Shear Modulus (GPa) = 20.38628 22.41953 21.40290
#
# Velocity S-wave (km/s) = 3.46081 3.62930 3.54605
# Velocity P-wave (km/s) = 6.79184 7.22065 7.00953
#
# Compressibility (1/GPa) = 0.01948022
#
# Stress axis : x y z
#
# Youngs Moduli (GPa) = 40.91758 64.03932 82.92942
#
# Poissons Ratio (x) = 0.39807 0.45230
# Poissons Ratio (y) = 0.25434 0.38532
# Poissons Ratio (z) = 0.22317 0.29755
#
# Static dielectric constant tensor:
#      x y z
#    x 2.936130 0.000000 0.000000 
#    y 0.000000 3.135210 0.000000 
#    z 0.000000 0.000000 3.433120 
# 
# 
# High freq. dielectric constant tensor:
#      x y z
#    x 1.613770 0.000000 0.000000 
#    y 0.000000 1.657540 0.000000 
#    z 0.000000 0.000000 1.651680 
# 
# From -- ./inp_files/23091.got.cif
#   From: 2010.03.12/outbox.cif.g09.slc.cpg/sg38_12_cif.got.tgz:23091.got - 2010.04.14 02:38:36.
