data_PCOD8177487
_publ_section_title
;
Structure prediction by ZEFSAII (Michael W. Deem and Ramdas Pophale) SiO2 
 PCOD8177487
Probable space group: A M M 2
;
_chemical_formula_sum "Si O2"
_cell_formula_units_Z 64
_cell_length_a 8.971048
_cell_length_b 27.377187
_cell_length_c 14.659444
_cell_angle_alpha 90.000000
_cell_angle_beta 90.000000
_cell_angle_gamma 90.000000
_cell_volume 3600.389626
_symmetry_space_group_name_H-M "A M M 2"
_symmetry_group_IT_number 38
_symmetry_cell_setting 'orthorhombic'
loop_
_space_group_symop_operation_xyz
x,y,z
-x,-y,z
-x,y,z
x,-y,z
x,1/2+y,1/2+z
-x,1/2-y,1/2+z
-x,1/2+y,1/2+z
x,1/2-y,1/2+z
loop_
_atom_site_type_symbol
_atom_site_label
_atom_site_fract_x
_atom_site_fract_y
_atom_site_fract_z
Si Si1 0.676074 0.135113 0.559380
Si Si2 0.674802 0.781744 0.696184
Si Si3 0.175913 0.167996 0.381892
Si Si4 0.822878 0.553891 0.385008
Si Si5 0.323821 0.329709 0.694447
Si Si6 0.826846 0.779520 0.879809
Si Si7 0.171350 0.442974 0.179999
Si Si8 0.824098 0.138050 0.017906
O O1 0.500000 0.135115 0.544306
O O2 0.729783 0.182882 0.615542
O O3 0.756751 0.135133 0.461929
O O4 0.723660 0.086303 0.611408
O O5 0.500000 0.785317 0.708676
O O6 0.725021 0.726299 0.675043
O O7 0.745441 0.800028 0.790538
O O8 0.249009 0.151030 0.287119
O O9 0.220332 0.224169 0.401540
O O10 0.000000 0.160193 0.376342
O O11 0.762202 0.500000 0.411468
O O12 0.771449 0.567925 0.282818
O O13 0.763107 0.592813 0.458062
O O14 0.000000 0.553365 0.384904
O O15 0.500000 0.335356 0.702479
O O16 0.262292 0.363207 0.613192
O O17 0.000000 0.784049 0.858195
O O18 0.781535 0.812073 0.966089
O O19 0.187753 0.500000 0.157563
O O20 0.000000 0.426258 0.167862
O O21 0.000000 0.134197 0.035860
#
# Coordination Sequence:
#
# PCOD8177487 Si02
#       8
#     8   8   8   8   8   8   8   8
#     4  11  21  32  49  74 102 132 165 200 244 296
#     4   9  19  32  46  68 100 135 165 195 237 293
#     4  10  20  34  50  69  95 128 167 208 247 287
#     4   8  15  29  50  75 101 128 158 194 237 285
#     4  10  20  34  49  67  96 132 167 203 244 289
#     4   9  18  30  47  72  99 128 164 206 245 283
#     4   9  18  34  55  77 101 130 163 199 242 291
#     4  10  18  29  48  73  98 125 161 201 240 285
#
# _framework density 17.775853999999999
#
# number of rings (size 3 to 8) (size 9 to 14) (size 15 to 20)
#    0.000    2.500    0.000    3.375    0.000    3.750 
#    0.000    0.625    0.000    1.875    0.000    1.750 
#    0.000    0.000    0.000    0.000    0.000    0.000 
#
# Total GULP energy -396847.352834 kJ/mol
# GULP energy per Si atom -12401.479776 kJ/mol
# Density = 1.773540 g / cm^3
# Si number density = 17.775854 Si / 1000 Ang^3
#
#
#
# Elastic Constant Matrix: (Units=GPa)
#
#
# Indices 1 2 3 4 5 6 
#
# 1 53.3717 26.9636 48.5247 0.0000 0.0000 0.0000
# 2 26.9636 70.2042 59.9254 0.0000 0.0000 0.0000
# 3 48.5247 59.9254 148.0202 0.0000 0.0000 0.0000
# 4 0.0000 0.0000 0.0000 25.9062 0.0000 0.0000
# 5 0.0000 0.0000 0.0000 0.0000 28.6574 0.0000
# 6 0.0000 0.0000 0.0000 0.0000 0.0000 20.1963
#
#
#
# Elastic Compliance Matrix: (Units=1/GPa)
#
#
# Indices 1 2 3 4 5 6 
#
# 1 0.027549 -0.004388 -0.007255 0.000000 0.000000 0.000000
# 2 -0.004388 0.022465 -0.007656 0.000000 0.000000 0.000000
# 3 -0.007255 -0.007656 0.012234 0.000000 0.000000 0.000000
# 4 0.000000 0.000000 0.000000 0.038601 0.000000 0.000000
# 5 0.000000 0.000000 0.000000 0.000000 0.034895 0.000000
# 6 0.000000 0.000000 0.000000 0.000000 0.000000 0.049514
#
#
# Mechanical properties :
#
#
# Convention : Reuss Voigt Hill
#
# Bulk Modulus (GPa) = 42.28460 60.26925 51.27692
# Shear Modulus (GPa) = 21.57595 24.03082 22.80339
#
# Velocity S-wave (km/s) = 3.48771 3.68078 3.58555
# Velocity P-wave (km/s) = 6.32915 7.21408 6.78605
#
# Compressibility (1/GPa) = 0.02364927
#
# Stress axis : x y z
#
# Youngs Moduli (GPa) = 36.29835 44.51400 81.74153
#
# Poissons Ratio (x) = 0.19535 0.59301
# Poissons Ratio (y) = 0.15929 0.62583
# Poissons Ratio (z) = 0.26334 0.34081
#
# Static dielectric constant tensor:
#      x y z
#    x 3.094880 0.000000 0.000000 
#    y 0.000000 3.306410 0.000000 
#    z 0.000000 0.000000 3.305650 
# 
# 
# High freq. dielectric constant tensor:
#      x y z
#    x 1.676310 0.000000 0.000000 
#    y 0.000000 1.666750 0.000000 
#    z 0.000000 0.000000 1.689390 
# 
# From -- ./inp_files/8620.got.cif
#   From: 2010.03.12/outbox.cif.g09.slc.cpg/sg38_5_cif.got.tgz:8620.got - 2010.04.14 02:38:36.
