data_PCOD8177112
_publ_section_title
;
Structure prediction by ZEFSAII (Michael W. Deem and Ramdas Pophale) SiO2 
 PCOD8177112
Probable space group: C C C 2
;
_chemical_formula_sum "Si O2"
_cell_formula_units_Z 48
_cell_length_a 16.904477
_cell_length_b 8.709202
_cell_length_c 14.850002
_cell_angle_alpha 90.000000
_cell_angle_beta 90.000000
_cell_angle_gamma 90.000000
_cell_volume 2186.284192
_symmetry_space_group_name_H-M "C C C 2"
_symmetry_group_IT_number 37
_symmetry_cell_setting 'orthorhombic'
loop_
_space_group_symop_operation_xyz
x,y,z
-x,-y,z
-x,y,1/2+z
x,-y,1/2+z
1/2+x,1/2+y,z
1/2-x,1/2-y,z
1/2-x,1/2+y,1/2+z
1/2+x,1/2-y,1/2+z
loop_
_atom_site_type_symbol
_atom_site_label
_atom_site_fract_x
_atom_site_fract_y
_atom_site_fract_z
Si Si1 0.476360 0.825783 0.255640
Si Si2 0.480883 0.174036 0.448276
Si Si3 0.192309 0.609557 0.961430
Si Si4 0.730618 0.572723 0.124537
Si Si5 0.447823 0.361133 0.096043
Si Si6 0.301122 0.107423 0.790952
O O1 0.508971 0.754013 0.349121
O O2 0.516740 0.713865 0.184831
O O3 0.381477 0.820888 0.251168
O O4 0.500000 0.000000 0.234125
O O5 0.391768 0.188171 0.486957
O O6 0.547744 0.238590 0.515271
O O7 0.500000 0.000000 0.431932
O O8 0.250000 0.750000 0.941303
O O9 0.222937 0.502234 0.041436
O O10 0.180600 0.508195 0.872154
O O11 0.750000 0.750000 0.136144
O O12 0.637498 0.565513 0.109945
O O13 0.753693 0.481416 0.213787
O O14 0.500000 0.500000 0.061163
O O15 0.250000 0.250000 0.827349
#
# Coordination Sequence:
#
# PCOD8177112 Si02
#       6
#     8   8   8   8   8   8
#     4  11  23  45  69  96 132 184 230 267 331 409
#     4  11  23  45  69  96 132 184 230 267 331 409
#     4  12  25  44  69 100 138 180 228 281 338 401
#     4  12  26  44  72 104 138 178 224 282 346 400
#     4  12  26  44  68 104 138 174 220 286 342 390
#     4  12  25  44  69 100 138 180 228 281 338 401
#
# _framework density 21.95506
#
# number of rings (size 3 to 8) (size 9 to 14) (size 15 to 20)
#    0.000    0.333    3.333    7.000    4.667    0.667 
#    0.000    0.000    0.000    0.000    0.000    0.000 
#    0.000    0.000    0.000    0.000    0.000    0.000 
#
# Total GULP energy -297648.841062 kJ/mol
# GULP energy per Si atom -12402.035044 kJ/mol
# Density = 2.190509 g / cm^3
# Si number density = 21.955060 Si / 1000 Ang^3
#
#
#
# Elastic Constant Matrix: (Units=GPa)
#
#
# Indices 1 2 3 4 5 6 
#
# 1 127.9710 20.4630 3.2916 0.0000 0.0000 0.0000
# 2 20.4630 55.8789 23.6756 0.0000 0.0000 0.0000
# 3 3.2916 23.6756 114.0775 0.0000 0.0000 0.0000
# 4 0.0000 0.0000 0.0000 -12.5685 0.0000 0.0000
# 5 0.0000 0.0000 0.0000 0.0000 34.5886 0.0000
# 6 0.0000 0.0000 0.0000 0.0000 0.0000 28.7321
#
#
#
# Elastic Compliance Matrix: (Units=1/GPa)
#
#
# Indices 1 2 3 4 5 6 
#
# 1 0.008320 -0.003229 0.000430 0.000000 0.000000 0.000000
# 2 -0.003229 0.020874 -0.004239 0.000000 0.000000 0.000000
# 3 0.000430 -0.004239 0.009633 0.000000 0.000000 0.000000
# 4 0.000000 0.000000 0.000000 -0.079564 0.000000 0.000000
# 5 0.000000 0.000000 0.000000 0.000000 0.028911 0.000000
# 6 0.000000 0.000000 0.000000 0.000000 0.000000 0.034804
#
#
# Mechanical properties :
#
#
# Convention : Reuss Voigt Hill
#
# Bulk Modulus (GPa) = 40.40164 43.64306 42.02235
# Shear Modulus (GPa) = 110.36379 26.85026 68.60703
#
# Velocity S-wave (km/s) = 7.09769 3.50089 5.59613
# Velocity P-wave (km/s) = 9.25265 6.02189 7.80623
#
# Compressibility (1/GPa) = 0.02475147
#
# Stress axis : x y z
#
# Youngs Moduli (GPa) = 120.19939 47.90571 103.80616
#
# Poissons Ratio (x) = 0.15468 -0.04464
# Poissons Ratio (y) = 0.38810 0.44004
# Poissons Ratio (z) = -0.05169 0.20308
#
# Static dielectric constant tensor:
#      x y z
#    x 3.453880 0.000000 0.000000 
#    y 0.000000 3.624190 0.000000 
#    z 0.000000 0.000000 4.171870 
# 
# 
# High freq. dielectric constant tensor:
#      x y z
#    x 1.883060 0.000000 0.000000 
#    y 0.000000 1.868230 0.000000 
#    z 0.000000 0.000000 1.873660 
# 
# From -- ./inp_files/12541.got.cif
#   From: 2010.03.12/outbox.cif.g09.slc.cpg/sg37_7_cif.got.tgz:12541.got - 2010.04.14 02:25:27.
