data_PCOD8177801
_publ_section_title
;
Structure prediction by ZEFSAII (Michael W. Deem and Ramdas Pophale) SiO2 
 PCOD8177801
Probable space group: A M M 2
;
_chemical_formula_sum "Si O2"
_cell_formula_units_Z 64
_cell_length_a 9.211700
_cell_length_b 23.820076
_cell_length_c 15.392094
_cell_angle_alpha 90.000000
_cell_angle_beta 90.000000
_cell_angle_gamma 90.000000
_cell_volume 3377.385508
_symmetry_space_group_name_H-M "A M M 2"
_symmetry_group_IT_number 38
_symmetry_cell_setting 'orthorhombic'
loop_
_space_group_symop_operation_xyz
x,y,z
-x,-y,z
-x,y,z
x,-y,z
x,1/2+y,1/2+z
-x,1/2-y,1/2+z
-x,1/2+y,1/2+z
x,1/2-y,1/2+z
loop_
_atom_site_type_symbol
_atom_site_label
_atom_site_fract_x
_atom_site_fract_y
_atom_site_fract_z
Si Si1 0.332913 0.860115 0.744120
Si Si2 0.828278 0.435721 0.106504
Si Si3 0.828286 0.869996 0.440042
Si Si4 0.333852 0.142418 0.939639
Si Si5 0.832983 0.751522 0.695425
Si Si6 0.830034 0.250430 0.494281
Si Si7 0.328092 0.063786 0.094434
Si Si8 0.831616 0.626205 0.747251
O O1 0.500000 0.858548 0.714660
O O2 0.245709 0.902304 0.683798
O O3 0.318043 0.882516 0.842784
O O4 0.269048 0.797594 0.738939
O O5 0.781036 0.500000 0.113543
O O6 0.000000 0.427661 0.115308
O O7 0.771880 0.412848 0.013504
O O8 0.764930 0.808070 0.458808
O O9 0.783384 0.891993 0.344552
O O10 0.000000 0.865279 0.445711
O O11 0.500000 0.156901 0.961224
O O12 0.244183 0.199394 0.943210
O O13 0.274089 0.096959 0.008785
O O14 0.792325 0.744817 0.595175
O O15 0.802401 0.692521 0.741427
O O16 0.000000 0.770358 0.706511
O O17 0.000000 0.255334 0.476259
O O18 0.500000 0.065945 0.102932
O O19 0.262702 0.091335 0.180238
O O20 0.272437 0.000000 0.086278
O O21 0.000000 0.612898 0.728910
#
# Coordination Sequence:
#
# PCOD8177801 Si02
#       8
#     8   8   8   8   8   8   8   8
#     4  11  23  37  57  85 115 149 186 229 280 332
#     4  10  21  39  60  80 108 149 193 235 280 330
#     4   9  18  34  56  83 113 145 179 218 274 336
#     4  10  22  38  56  81 112 147 186 226 275 334
#     4  10  19  34  58  86 116 147 180 224 278 333
#     4  10  18  33  59  85 112 145 179 223 276 330
#     4  10  22  40  58  76 106 149 189 227 276 331
#     4  10  20  35  58  87 113 141 181 228 276 327
#
# _framework density 18.949566999999998
#
# number of rings (size 3 to 8) (size 9 to 14) (size 15 to 20)
#    0.000    2.000    2.500    1.125    0.000    4.500 
#    0.000    3.750    0.000    0.000    0.000    0.000 
#    0.000    0.000    0.000    0.000    0.000    0.000 
#
# Total GULP energy -396845.965500 kJ/mol
# GULP energy per Si atom -12401.436422 kJ/mol
# Density = 1.890644 g / cm^3
# Si number density = 18.949567 Si / 1000 Ang^3
#
#
#
# Elastic Constant Matrix: (Units=GPa)
#
#
# Indices 1 2 3 4 5 6 
#
# 1 32.9623 32.6511 29.6016 0.0000 0.0000 0.0000
# 2 32.6511 110.8820 54.9359 0.0000 0.0000 0.0000
# 3 29.6016 54.9359 122.5033 0.0000 0.0000 0.0000
# 4 0.0000 0.0000 0.0000 10.8668 0.0000 0.0000
# 5 0.0000 0.0000 0.0000 0.0000 26.7033 0.0000
# 6 0.0000 0.0000 0.0000 0.0000 0.0000 21.1502
#
#
#
# Elastic Compliance Matrix: (Units=1/GPa)
#
#
# Indices 1 2 3 4 5 6 
#
# 1 0.046606 -0.010471 -0.006566 0.000000 0.000000 0.000000
# 2 -0.010471 0.013947 -0.003724 0.000000 0.000000 0.000000
# 3 -0.006566 -0.003724 0.011420 0.000000 0.000000 0.000000
# 4 0.000000 0.000000 0.000000 0.092023 0.000000 0.000000
# 5 0.000000 0.000000 0.000000 0.000000 0.037449 0.000000
# 6 0.000000 0.000000 0.000000 0.000000 0.000000 0.047281
#
#
# Mechanical properties :
#
#
# Convention : Reuss Voigt Hill
#
# Bulk Modulus (GPa) = 32.84026 55.63609 44.23818
# Shear Modulus (GPa) = 16.64452 21.68800 19.16626
#
# Velocity S-wave (km/s) = 2.96693 3.38673 3.18376
# Velocity P-wave (km/s) = 5.39489 6.68709 6.07544
#
# Compressibility (1/GPa) = 0.03045043
#
# Stress axis : x y z
#
# Youngs Moduli (GPa) = 21.45627 71.69951 87.56633
#
# Poissons Ratio (x) = 0.75075 0.57499
# Poissons Ratio (y) = 0.22466 0.32613
# Poissons Ratio (z) = 0.14089 0.26703
#
# Static dielectric constant tensor:
#      x y z
#    x 3.263760 0.000000 0.000000 
#    y 0.000000 3.522060 0.000000 
#    z 0.000000 0.000000 3.681230 
# 
# 
# High freq. dielectric constant tensor:
#      x y z
#    x 1.712640 0.000000 0.000000 
#    y 0.000000 1.733720 0.000000 
#    z 0.000000 0.000000 1.754010 
# 
# From -- ./inp_files/12718.got.cif
#   From: 2010.03.12/outbox.cif.g09.slc.cpg/sg38_7_cif.got.tgz:12718.got - 2010.04.14 02:38:36.
