data_PCOD8177974
_publ_section_title
;
Structure prediction by ZEFSAII (Michael W. Deem and Ramdas Pophale) SiO2 
 PCOD8177974
Probable space group: A M M 2
;
_chemical_formula_sum "Si O2"
_cell_formula_units_Z 48
_cell_length_a 9.298498
_cell_length_b 13.716191
_cell_length_c 23.578464
_cell_angle_alpha 90.000000
_cell_angle_beta 90.000000
_cell_angle_gamma 90.000000
_cell_volume 3007.196699
_symmetry_space_group_name_H-M "A M M 2"
_symmetry_group_IT_number 38
_symmetry_cell_setting 'orthorhombic'
loop_
_space_group_symop_operation_xyz
x,y,z
-x,-y,z
-x,y,z
x,-y,z
x,1/2+y,1/2+z
-x,1/2-y,1/2+z
-x,1/2+y,1/2+z
x,1/2-y,1/2+z
loop_
_atom_site_type_symbol
_atom_site_label
_atom_site_fract_x
_atom_site_fract_y
_atom_site_fract_z
Si Si1 0.166915 0.612252 0.060030
Si Si2 0.832255 0.726959 0.172992
Si Si3 0.667703 0.889096 0.114826
Si Si4 0.830422 0.107531 0.778263
Si Si5 0.833477 0.886217 0.906061
Si Si6 0.668748 0.724025 0.501690
O O1 0.213420 0.500000 0.056647
O O2 0.200243 0.649964 0.123212
O O3 0.259732 0.671456 0.014148
O O4 0.000000 0.626434 0.045067
O O5 0.751281 0.828273 0.162373
O O6 0.769404 0.682203 0.231425
O O7 0.000000 0.750799 0.177464
O O8 0.500000 0.879181 0.127438
O O9 0.705640 0.849975 0.052445
O O10 0.720618 0.000000 0.118357
O O11 0.795516 0.144281 0.841584
O O12 0.000000 0.098737 0.769866
O O13 0.762762 0.000000 0.768622
O O14 0.000000 0.864904 0.919841
O O15 0.799445 0.000000 0.915708
O O16 0.733046 0.820411 0.944746
O O17 0.500000 0.739253 0.493650
#
# Coordination Sequence:
#
# PCOD8177974 Si02
#       6
#     8   8   8   8   8   8
#     4   9  17  29  46  68  92 117 145 178 217 261
#     4   9  16  27  46  70  91 112 142 179 216 257
#     4   9  18  31  44  60  87 121 149 175 215 262
#     4   8  14  26  45  68  92 116 141 173 216 262
#     4   9  17  29  46  67  90 117 148 181 218 261
#     4  10  19  30  45  65  90 119 149 182 220 261
#
# _framework density 15.961708
#
# number of rings (size 3 to 8) (size 9 to 14) (size 15 to 20)
#    0.000    3.000    0.000    2.500    0.000    4.333 
#    0.000    0.833    0.000    3.500    0.000    2.333 
#    0.000    0.000    0.000    0.000    0.000    0.000 
#
# Total GULP energy -297577.074458 kJ/mol
# GULP energy per Si atom -12399.044769 kJ/mol
# Density = 1.592538 g / cm^3
# Si number density = 15.961708 Si / 1000 Ang^3
#
#
#
# Elastic Constant Matrix: (Units=GPa)
#
#
# Indices 1 2 3 4 5 6 
#
# 1 51.6999 51.7285 44.2115 0.0000 0.0000 0.0000
# 2 51.7285 132.0401 66.7401 0.0000 0.0000 0.0000
# 3 44.2115 66.7401 106.9446 0.0000 0.0000 0.0000
# 4 0.0000 0.0000 0.0000 26.9010 0.0000 0.0000
# 5 0.0000 0.0000 0.0000 0.0000 17.6638 0.0000
# 6 0.0000 0.0000 0.0000 0.0000 0.0000 21.1013
#
#
#
# Elastic Compliance Matrix: (Units=1/GPa)
#
#
# Indices 1 2 3 4 5 6 
#
# 1 0.037069 -0.009899 -0.009147 0.000000 0.000000 0.000000
# 2 -0.009899 0.013707 -0.004462 0.000000 0.000000 0.000000
# 3 -0.009147 -0.004462 0.015916 0.000000 0.000000 0.000000
# 4 0.000000 0.000000 0.000000 0.037173 0.000000 0.000000
# 5 0.000000 0.000000 0.000000 0.000000 0.056613 0.000000
# 6 0.000000 0.000000 0.000000 0.000000 0.000000 0.047391
#
#
# Mechanical properties :
#
#
# Convention : Reuss Voigt Hill
#
# Bulk Modulus (GPa) = 50.82069 68.44943 59.63506
# Shear Modulus (GPa) = 19.12471 21.66685 20.39578
#
# Velocity S-wave (km/s) = 3.46520 3.68832 3.57850
# Velocity P-wave (km/s) = 6.92231 7.81760 7.38354
#
# Compressibility (1/GPa) = 0.01967702
#
# Stress axis : x y z
#
# Youngs Moduli (GPa) = 26.97690 72.95789 62.82872
#
# Poissons Ratio (x) = 0.72220 0.57469
# Poissons Ratio (y) = 0.26704 0.28031
# Poissons Ratio (z) = 0.24676 0.32550
#
# Static dielectric constant tensor:
#      x y z
#    x 2.851710 0.000000 0.000000 
#    y 0.000000 3.067590 0.000000 
#    z 0.000000 0.000000 3.036540 
# 
# 
# High freq. dielectric constant tensor:
#      x y z
#    x 1.597420 0.000000 0.000000 
#    y 0.000000 1.606570 0.000000 
#    z 0.000000 0.000000 1.604850 
# 
# From -- ./inp_files/19623.got.cif
#   From: 2010.03.12/outbox.cif.g09.slc.cpg/sg38_10_cif.got.tgz:19623.got - 2010.04.14 02:38:36.
