data_PCOD8177609
_publ_section_title
;
Structure prediction by ZEFSAII (Michael W. Deem and Ramdas Pophale) SiO2 
 PCOD8177609
Probable space group: A M M 2
;
_chemical_formula_sum "Si O2"
_cell_formula_units_Z 56
_cell_length_a 15.378724
_cell_length_b 8.980699
_cell_length_c 20.031612
_cell_angle_alpha 90.000000
_cell_angle_beta 90.000000
_cell_angle_gamma 90.000000
_cell_volume 2766.599812
_symmetry_space_group_name_H-M "A M M 2"
_symmetry_group_IT_number 38
_symmetry_cell_setting 'orthorhombic'
loop_
_space_group_symop_operation_xyz
x,y,z
-x,-y,z
-x,y,z
x,-y,z
x,1/2+y,1/2+z
-x,1/2-y,1/2+z
-x,1/2+y,1/2+z
x,1/2-y,1/2+z
loop_
_atom_site_type_symbol
_atom_site_label
_atom_site_fract_x
_atom_site_fract_y
_atom_site_fract_z
Si Si1 0.721815 0.325959 0.736410
Si Si2 0.266091 0.825670 0.603207
Si Si3 0.096230 0.168411 0.066122
Si Si4 0.095010 0.330183 0.794138
Si Si5 0.149636 0.830828 0.919513
Si Si6 0.320686 0.325160 0.958017
Si Si7 0.598196 0.827499 0.842864
O O1 0.703197 0.500000 0.735536
O O2 0.691010 0.257445 0.665943
O O3 0.824578 0.288283 0.745743
O O4 0.665276 0.255765 0.795061
O O5 0.165065 0.781499 0.597091
O O6 0.318656 0.778943 0.536265
O O7 0.271976 0.000000 0.615720
O O8 0.000000 0.208438 0.092822
O O9 0.122010 0.000000 0.087860
O O10 0.093029 0.180577 0.986210
O O11 0.107200 0.500000 0.818410
O O12 0.091904 0.222584 0.857879
O O13 0.000000 0.311549 0.758201
O O14 0.231255 0.720879 0.922943
O O15 0.181808 0.000000 0.907939
O O16 0.334807 0.500000 0.950086
O O17 0.396251 0.238849 0.918190
O O18 0.500000 0.803785 0.816938
O O19 0.623173 0.000000 0.844598
#
# Coordination Sequence:
#
# PCOD8177609 Si02
#       7
#     8   8   8   8   8   8   8
#     4  11  23  40  62  88 123 166 206 247 300 359
#     4  10  22  38  58  84 118 159 202 249 302 355
#     4   9  18  32  50  76 112 154 203 254 302 355
#     4  10  21  35  52  79 117 160 204 250 300 354
#     4  10  18  30  52  81 114 152 196 250 304 351
#     4  10  20  37  61  89 119 154 195 242 300 359
#     4  11  24  42  67  97 125 154 192 245 305 361
#
# _framework density 20.241454000000001
#
# number of rings (size 3 to 8) (size 9 to 14) (size 15 to 20)
#    0.000    1.857    1.429    2.571    0.000    5.714 
#    0.000    2.143    0.000    0.857    0.000    0.000 
#    0.000    0.000    0.000    0.000    0.000    0.000 
#
# Total GULP energy -347160.230622 kJ/mol
# GULP energy per Si atom -12398.579665 kJ/mol
# Density = 2.019538 g / cm^3
# Si number density = 20.241454 Si / 1000 Ang^3
#
#
#
# Elastic Constant Matrix: (Units=GPa)
#
#
# Indices 1 2 3 4 5 6 
#
# 1 81.0900 38.5103 37.2994 0.0000 0.0000 0.0000
# 2 38.5103 102.9049 61.2598 0.0000 0.0000 0.0000
# 3 37.2994 61.2598 118.7201 0.0000 0.0000 0.0000
# 4 0.0000 0.0000 0.0000 36.0536 0.0000 0.0000
# 5 0.0000 0.0000 0.0000 0.0000 8.9937 0.0000
# 6 0.0000 0.0000 0.0000 0.0000 0.0000 26.2947
#
#
#
# Elastic Compliance Matrix: (Units=1/GPa)
#
#
# Indices 1 2 3 4 5 6 
#
# 1 0.015585 -0.004211 -0.002723 0.000000 0.000000 0.000000
# 2 -0.004211 0.015164 -0.006502 0.000000 0.000000 0.000000
# 3 -0.002723 -0.006502 0.012634 0.000000 0.000000 0.000000
# 4 0.000000 0.000000 0.000000 0.027736 0.000000 0.000000
# 5 0.000000 0.000000 0.000000 0.000000 0.111189 0.000000
# 6 0.000000 0.000000 0.000000 0.000000 0.000000 0.038030
#
#
# Mechanical properties :
#
#
# Convention : Reuss Voigt Hill
#
# Bulk Modulus (GPa) = 60.56905 64.09490 62.33197
# Shear Modulus (GPa) = 19.78524 25.31145 22.54834
#
# Velocity S-wave (km/s) = 3.12983 3.54004 3.34124
# Velocity P-wave (km/s) = 6.56120 6.96011 6.76360
#
# Compressibility (1/GPa) = 0.01651008
#
# Stress axis : x y z
#
# Youngs Moduli (GPa) = 64.16629 65.94529 79.15319
#
# Poissons Ratio (x) = 0.27769 0.21557
# Poissons Ratio (y) = 0.27020 0.51463
# Poissons Ratio (z) = 0.17476 0.42876
#
# Static dielectric constant tensor:
#      x y z
#    x 3.482600 0.000000 0.000000 
#    y 0.000000 3.669220 0.000000 
#    z 0.000000 0.000000 3.710820 
# 
# 
# High freq. dielectric constant tensor:
#      x y z
#    x 1.769810 0.000000 0.000000 
#    y 0.000000 1.795030 0.000000 
#    z 0.000000 0.000000 1.788880 
# 
# From -- ./inp_files/21013.got.cif
#   From: 2010.03.12/outbox.cif.g09.slc.cpg/sg38_11_cif.got.tgz:21013.got - 2010.04.14 02:38:36.
