data_PCOD8177601
_publ_section_title
;
Structure prediction by ZEFSAII (Michael W. Deem and Ramdas Pophale) SiO2 
 PCOD8177601
Probable space group: A M M 2
;
_chemical_formula_sum "Si O2"
_cell_formula_units_Z 48
_cell_length_a 16.691124
_cell_length_b 16.426687
_cell_length_c 9.181066
_cell_angle_alpha 90.000000
_cell_angle_beta 90.000000
_cell_angle_gamma 90.000000
_cell_volume 2517.263479
_symmetry_space_group_name_H-M "A M M 2"
_symmetry_group_IT_number 38
_symmetry_cell_setting 'orthorhombic'
loop_
_space_group_symop_operation_xyz
x,y,z
-x,-y,z
-x,y,z
x,-y,z
x,1/2+y,1/2+z
-x,1/2-y,1/2+z
-x,1/2+y,1/2+z
x,1/2-y,1/2+z
loop_
_atom_site_type_symbol
_atom_site_label
_atom_site_fract_x
_atom_site_fract_y
_atom_site_fract_z
Si Si1 0.766538 0.909025 0.243960
Si Si2 0.272848 0.175394 0.538753
Si Si3 0.313957 0.860174 0.980827
Si Si4 0.822181 0.092489 0.771141
Si Si5 0.911442 0.403143 0.545779
Si Si6 0.590639 0.404174 0.228599
O O1 0.743284 0.853239 0.376718
O O2 0.845029 0.871621 0.160987
O O3 0.783072 0.000000 0.300467
O O4 0.690652 0.909671 0.132306
O O5 0.285568 0.270701 0.525771
O O6 0.193500 0.152693 0.634316
O O7 0.351944 0.134842 0.606706
O O8 0.257071 0.907020 0.868078
O O9 0.397415 0.864567 0.891800
O O10 0.838187 0.000000 0.715248
O O11 0.892937 0.124627 0.878391
O O12 0.907343 0.500000 0.547365
O O13 0.000000 0.371143 0.589218
O O14 0.500000 0.384302 0.181741
O O15 0.606360 0.500000 0.234468
#
# Coordination Sequence:
#
# PCOD8177601 Si02
#       6
#     8   8   8   8   8   8
#     4  10  18  30  52  76  99 128 165 211 254 296
#     4  11  20  32  51  78 106 129 162 211 259 299
#     4  10  19  33  52  73  98 130 167 203 244 303
#     4   9  17  32  53  72  97 136 176 206 241 304
#     4   8  15  29  50  75 101 133 174 215 252 294
#     4  10  21  38  56  72  98 137 174 206 247 305
#
# _framework density 19.068325000000002
#
# number of rings (size 3 to 8) (size 9 to 14) (size 15 to 20)
#    0.000    2.333    0.000    7.000    0.000    0.667 
#    0.000    1.667    0.000   23.000    0.000    0.000 
#    0.000    0.000    0.000    0.000    0.000    0.000 
#
# Total GULP energy -297318.435974 kJ/mol
# GULP energy per Si atom -12388.268166 kJ/mol
# Density = 1.902492 g / cm^3
# Si number density = 19.068325 Si / 1000 Ang^3
#
#
#
# Elastic Constant Matrix: (Units=GPa)
#
#
# Indices 1 2 3 4 5 6 
#
# 1 95.0555 17.7860 40.4915 0.0000 0.0000 0.0000
# 2 17.7860 67.9106 8.6326 0.0000 0.0000 0.0000
# 3 40.4915 8.6326 103.9374 0.0000 0.0000 0.0000
# 4 0.0000 0.0000 0.0000 36.1013 0.0000 0.0000
# 5 0.0000 0.0000 0.0000 0.0000 25.2588 0.0000
# 6 0.0000 0.0000 0.0000 0.0000 0.0000 8.6548
#
#
#
# Elastic Compliance Matrix: (Units=1/GPa)
#
#
# Indices 1 2 3 4 5 6 
#
# 1 0.013126 -0.002817 -0.004880 0.000000 0.000000 0.000000
# 2 -0.002817 0.015487 -0.000189 0.000000 0.000000 0.000000
# 3 -0.004880 -0.000189 0.011538 0.000000 0.000000 0.000000
# 4 0.000000 0.000000 0.000000 0.027700 0.000000 0.000000
# 5 0.000000 0.000000 0.000000 0.000000 0.039590 0.000000
# 6 0.000000 0.000000 0.000000 0.000000 0.000000 0.115542
#
#
# Mechanical properties :
#
#
# Convention : Reuss Voigt Hill
#
# Bulk Modulus (GPa) = 41.01806 44.52484 42.77145
# Shear Modulus (GPa) = 20.25267 27.33589 23.79428
#
# Velocity S-wave (km/s) = 3.26254 3.79037 3.53631
# Velocity P-wave (km/s) = 5.97913 6.52355 6.25726
#
# Compressibility (1/GPa) = 0.02437950
#
# Stress axis : x y z
#
# Youngs Moduli (GPa) = 76.18515 64.56982 86.67168
#
# Poissons Ratio (x) = 0.18192 0.42292
# Poissons Ratio (y) = 0.21465 0.01635
# Poissons Ratio (z) = 0.37175 0.01218
#
# Static dielectric constant tensor:
#      x y z
#    x 3.739300 0.000000 0.000000 
#    y 0.000000 2.989150 0.000000 
#    z 0.000000 0.000000 3.738300 
# 
# 
# High freq. dielectric constant tensor:
#      x y z
#    x 1.713090 0.000000 0.000000 
#    y 0.000000 1.734100 0.000000 
#    z 0.000000 0.000000 1.743440 
# 
# From -- ./inp_files/6179.got.cif
#   From: 2010.03.12/outbox.cif.g09.slc.cpg/sg38_4_cif.got.tgz:6179.got - 2010.04.14 02:38:36.
