data_PCOD8177853
_publ_section_title
;
Structure prediction by ZEFSAII (Michael W. Deem and Ramdas Pophale) SiO2 
 PCOD8177853
Probable space group: A M M 2
;
_chemical_formula_sum "Si O2"
_cell_formula_units_Z 64
_cell_length_a 9.408620
_cell_length_b 13.610816
_cell_length_c 33.936669
_cell_angle_alpha 90.000000
_cell_angle_beta 90.000000
_cell_angle_gamma 90.000000
_cell_volume 4345.895747
_symmetry_space_group_name_H-M "A M M 2"
_symmetry_group_IT_number 38
_symmetry_cell_setting 'orthorhombic'
loop_
_space_group_symop_operation_xyz
x,y,z
-x,-y,z
-x,y,z
x,-y,z
x,1/2+y,1/2+z
-x,1/2-y,1/2+z
-x,1/2+y,1/2+z
x,1/2-y,1/2+z
loop_
_atom_site_type_symbol
_atom_site_label
_atom_site_fract_x
_atom_site_fract_y
_atom_site_fract_z
Si Si1 0.837340 0.388996 0.389600
Si Si2 0.835961 0.887846 0.424220
Si Si3 0.838465 0.796284 0.341000
Si Si4 0.332013 0.713469 0.456314
Si Si5 0.840502 0.616738 0.697025
Si Si6 0.839544 0.383486 0.610430
Si Si7 0.334785 0.112267 0.037403
Si Si8 0.333823 0.614687 0.771142
O O1 0.807306 0.500000 0.375619
O O2 0.809687 0.317118 0.352682
O O3 0.734049 0.363117 0.425492
O O4 0.000000 0.375316 0.404186
O O5 0.807359 0.865139 0.378463
O O6 0.736051 0.821040 0.451460
O O7 0.000000 0.865560 0.434404
O O8 0.795615 0.000000 0.432837
O O9 0.730574 0.824278 0.306905
O O10 0.000000 0.811657 0.326202
O O11 0.500000 0.718670 0.449137
O O12 0.293500 0.676583 0.499756
O O13 0.840039 0.500000 0.696393
O O14 0.791053 0.655296 0.653755
O O15 0.733834 0.655258 0.730547
O O16 0.000000 0.654496 0.706280
O O17 0.827224 0.500000 0.610157
O O18 0.742129 0.340672 0.575552
O O19 0.000000 0.349438 0.602236
O O20 0.500000 0.117128 0.046504
O O21 0.286457 0.000000 0.029514
O O22 0.500000 0.635015 0.769238
O O23 0.299011 0.500000 0.777359
#
# Coordination Sequence:
#
# PCOD8177853 Si02
#       8
#     8   8   8   8   8   8   8   8
#     4   9  18  32  47  61  79 106 140 175 209 244
#     4   9  18  32  47  61  79 106 140 175 210 246
#     4   9  17  29  44  60  78 103 134 167 204 243
#     4  10  19  29  42  62  86 110 138 170 205 247
#     4   8  14  25  39  54  75 104 135 165 198 235
#     4   8  14  24  38  56  76 101 135 169 198 231
#     4   9  17  27  38  55  82 113 139 164 197 237
#     4  10  19  27  37  57  83 109 137 167 197 233
#
# _framework density 14.726538
#
# number of rings (size 3 to 8) (size 9 to 14) (size 15 to 20)
#    0.000    3.000    0.000    3.000    0.000    5.750 
#    0.000    3.750    0.000    0.000    0.000    0.000 
#    0.000    1.000    0.000    9.000    0.000    5.750 
#
# Total GULP energy -396684.647991 kJ/mol
# GULP energy per Si atom -12396.395250 kJ/mol
# Density = 1.469302 g / cm^3
# Si number density = 14.726538 Si / 1000 Ang^3
#
#
#
# Elastic Constant Matrix: (Units=GPa)
#
#
# Indices 1 2 3 4 5 6 
#
# 1 84.2043 39.6308 73.5954 0.0000 0.0000 0.0000
# 2 39.6308 73.1293 45.1307 0.0000 0.0000 0.0000
# 3 73.5954 45.1307 124.4401 0.0000 0.0000 0.0000
# 4 0.0000 0.0000 0.0000 15.8834 0.0000 0.0000
# 5 0.0000 0.0000 0.0000 0.0000 26.7298 0.0000
# 6 0.0000 0.0000 0.0000 0.0000 0.0000 18.0648
#
#
#
# Elastic Compliance Matrix: (Units=1/GPa)
#
#
# Indices 1 2 3 4 5 6 
#
# 1 0.026505 -0.006042 -0.013484 0.000000 0.000000 0.000000
# 2 -0.006042 0.018995 -0.003315 0.000000 0.000000 0.000000
# 3 -0.013484 -0.003315 0.017213 0.000000 0.000000 0.000000
# 4 0.000000 0.000000 0.000000 0.062959 0.000000 0.000000
# 5 0.000000 0.000000 0.000000 0.000000 0.037411 0.000000
# 6 0.000000 0.000000 0.000000 0.000000 0.000000 0.055356
#
#
# Mechanical properties :
#
#
# Convention : Reuss Voigt Hill
#
# Bulk Modulus (GPa) = 58.72176 66.49862 62.61019
# Shear Modulus (GPa) = 18.53233 20.36339 19.44786
#
# Velocity S-wave (km/s) = 3.55129 3.72259 3.63795
# Velocity P-wave (km/s) = 7.53504 7.98314 7.76233
#
# Compressibility (1/GPa) = 0.01702946
#
# Stress axis : x y z
#
# Youngs Moduli (GPa) = 37.72910 52.64557 58.09584
#
# Poissons Ratio (x) = 0.31810 0.78336
# Poissons Ratio (y) = 0.22797 0.19261
# Poissons Ratio (z) = 0.50873 0.17454
#
# Static dielectric constant tensor:
#      x y z
#    x 2.906540 0.000000 0.000000 
#    y 0.000000 2.649040 0.000000 
#    z 0.000000 0.000000 3.003940 
# 
# 
# High freq. dielectric constant tensor:
#      x y z
#    x 1.569090 0.000000 0.000000 
#    y 0.000000 1.521630 0.000000 
#    z 0.000000 0.000000 1.559900 
# 
# From -- ./inp_files/24759.got.cif
#   From: 2010.03.12/outbox.cif.g09.slc.cpg/sg38_13_cif.got.tgz:24759.got - 2010.04.14 02:38:36.
