data_PCOD8177389
_publ_section_title
;
Structure prediction by ZEFSAII (Michael W. Deem and Ramdas Pophale) SiO2 
 PCOD8177389
Probable space group: A M M 2
;
_chemical_formula_sum "Si O2"
_cell_formula_units_Z 64
_cell_length_a 9.196726
_cell_length_b 26.340200
_cell_length_c 18.089810
_cell_angle_alpha 90.000000
_cell_angle_beta 90.000000
_cell_angle_gamma 90.000000
_cell_volume 4382.140737
_symmetry_space_group_name_H-M "A M M 2"
_symmetry_group_IT_number 38
_symmetry_cell_setting 'orthorhombic'
loop_
_space_group_symop_operation_xyz
x,y,z
-x,-y,z
-x,y,z
x,-y,z
x,1/2+y,1/2+z
-x,1/2-y,1/2+z
-x,1/2+y,1/2+z
x,1/2-y,1/2+z
loop_
_atom_site_type_symbol
_atom_site_label
_atom_site_fract_x
_atom_site_fract_y
_atom_site_fract_z
Si Si1 0.668250 0.941429 0.347020
Si Si2 0.836152 0.742435 0.861528
Si Si3 0.331033 0.942115 0.516127
Si Si4 0.667198 0.200421 0.146183
Si Si5 0.166246 0.646638 0.084441
Si Si6 0.837084 0.787944 0.715455
Si Si7 0.330539 0.761222 0.508220
Si Si8 0.168876 0.144059 0.262382
O O1 0.500000 0.928626 0.333855
O O2 0.710761 0.929605 0.431650
O O3 0.764296 0.907372 0.293637
O O4 0.700228 0.000000 0.328476
O O5 0.820736 0.790216 0.804472
O O6 0.798031 0.690595 0.817771
O O7 0.000000 0.739582 0.893410
O O8 0.722796 0.752238 0.926426
O O9 0.500000 0.931701 0.529305
O O10 0.239741 0.907366 0.571296
O O11 0.291717 0.000000 0.534825
O O12 0.500000 0.187948 0.162130
O O13 0.709595 0.252738 0.185424
O O14 0.695613 0.210955 0.058889
O O15 0.762339 0.155054 0.181210
O O16 0.177583 0.658361 0.172813
O O17 0.242983 0.690206 0.036794
O O18 0.000000 0.644030 0.058108
O O19 0.000000 0.764983 0.698440
O O20 0.500000 0.775804 0.506619
O O21 0.000000 0.135060 0.250837
#
# Coordination Sequence:
#
# PCOD8177389 Si02
#       8
#     8   8   8   8   8   8   8   8
#     4   9  18  31  44  58  79 108 139 170 203 236
#     4   9  17  28  41  58  81 108 136 166 201 239
#     4   9  18  31  44  59  81 108 138 171 203 235
#     4   9  17  28  41  57  78 105 135 166 199 237
#     4  10  18  28  43  60  80 108 139 169 202 239
#     4   8  16  29  41  56  79 105 134 167 200 237
#     4  10  19  28  40  60  83 107 137 169 200 238
#     4  10  19  29  42  60  81 107 138 169 202 239
#
# _framework density 14.604735
#
# number of rings (size 3 to 8) (size 9 to 14) (size 15 to 20)
#    0.000    2.750    0.000    3.750    0.000    7.500 
#    0.000    1.250    0.000    0.000    0.000    0.000 
#    0.000    1.000    0.000    6.500    0.000    4.875 
#
# Total GULP energy -396590.962155 kJ/mol
# GULP energy per Si atom -12393.467567 kJ/mol
# Density = 1.457149 g / cm^3
# Si number density = 14.604735 Si / 1000 Ang^3
#
#
#
# Elastic Constant Matrix: (Units=GPa)
#
#
# Indices 1 2 3 4 5 6 
#
# 1 84.1923 48.2975 49.8441 0.0000 0.0000 0.0000
# 2 48.2975 75.1595 47.4287 0.0000 0.0000 0.0000
# 3 49.8441 47.4287 82.5571 0.0000 0.0000 0.0000
# 4 0.0000 0.0000 0.0000 26.3031 0.0000 0.0000
# 5 0.0000 0.0000 0.0000 0.0000 23.4570 0.0000
# 6 0.0000 0.0000 0.0000 0.0000 0.0000 22.2346
#
#
#
# Elastic Compliance Matrix: (Units=1/GPa)
#
#
# Indices 1 2 3 4 5 6 
#
# 1 0.021725 -0.008916 -0.007995 0.000000 0.000000 0.000000
# 2 -0.008916 0.024530 -0.008710 0.000000 0.000000 0.000000
# 3 -0.007995 -0.008710 0.021943 0.000000 0.000000 0.000000
# 4 0.000000 0.000000 0.000000 0.038018 0.000000 0.000000
# 5 0.000000 0.000000 0.000000 0.000000 0.042631 0.000000
# 6 0.000000 0.000000 0.000000 0.000000 0.000000 0.044975
#
#
# Mechanical properties :
#
#
# Convention : Reuss Voigt Hill
#
# Bulk Modulus (GPa) = 58.96634 59.22771 59.09702
# Shear Modulus (GPa) = 19.94284 20.82150 20.38217
#
# Velocity S-wave (km/s) = 3.69928 3.77990 3.73981
# Velocity P-wave (km/s) = 7.66216 7.72606 7.69418
#
# Compressibility (1/GPa) = 0.01695883
#
# Stress axis : x y z
#
# Youngs Moduli (GPa) = 46.02975 40.76558 45.57189
#
# Poissons Ratio (x) = 0.36345 0.36433
# Poissons Ratio (y) = 0.41038 0.39692
# Poissons Ratio (z) = 0.36799 0.35506
#
# Static dielectric constant tensor:
#      x y z
#    x 2.917840 0.000000 0.000000 
#    y 0.000000 2.632730 0.000000 
#    z 0.000000 0.000000 2.922310 
# 
# 
# High freq. dielectric constant tensor:
#      x y z
#    x 1.573080 0.000000 0.000000 
#    y 0.000000 1.522730 0.000000 
#    z 0.000000 0.000000 1.545480 
# 
# From -- ./inp_files/17292.got.cif
#   From: 2010.03.12/outbox.cif.g09.slc.cpg/sg38_9_cif.got.tgz:17292.got - 2010.04.14 02:38:36.
