data_PCOD8177501
_publ_section_title
;
Structure prediction by ZEFSAII (Michael W. Deem and Ramdas Pophale) SiO2 
 PCOD8177501
Probable space group: A M M 2
;
_chemical_formula_sum "Si O2"
_cell_formula_units_Z 64
_cell_length_a 8.970305
_cell_length_b 14.363633
_cell_length_c 28.439271
_cell_angle_alpha 90.000000
_cell_angle_beta 90.000000
_cell_angle_gamma 90.000000
_cell_volume 3664.291115
_symmetry_space_group_name_H-M "A M M 2"
_symmetry_group_IT_number 38
_symmetry_cell_setting 'orthorhombic'
loop_
_space_group_symop_operation_xyz
x,y,z
-x,-y,z
-x,y,z
x,-y,z
x,1/2+y,1/2+z
-x,1/2-y,1/2+z
-x,1/2+y,1/2+z
x,1/2-y,1/2+z
loop_
_atom_site_type_symbol
_atom_site_label
_atom_site_fract_x
_atom_site_fract_y
_atom_site_fract_z
Si Si1 0.823999 0.893655 0.777940
Si Si2 0.824020 0.208687 0.595689
Si Si3 0.676103 0.894435 0.406940
Si Si4 0.824070 0.899195 0.135055
Si Si5 0.323897 0.725455 0.818945
Si Si6 0.174317 0.893251 0.502341
Si Si7 0.170519 0.608286 0.740519
Si Si8 0.329942 0.109269 0.681752
O O1 0.752800 0.827182 0.817621
O O2 0.762464 0.860140 0.727533
O O3 0.000000 0.882327 0.777711
O O4 0.776315 0.000000 0.788761
O O5 0.778941 0.317989 0.598697
O O6 0.770441 0.170319 0.545491
O O7 0.739554 0.154765 0.636106
O O8 0.000000 0.193156 0.602685
O O9 0.500000 0.891470 0.411028
O O10 0.733351 0.827536 0.365512
O O11 0.743528 0.857470 0.455744
O O12 0.731296 0.000000 0.396808
O O13 0.769477 0.873921 0.187626
O O14 0.000000 0.908974 0.138182
O O15 0.757600 0.000000 0.118882
O O16 0.500000 0.738443 0.819482
O O17 0.278224 0.665542 0.774010
O O18 0.000000 0.881659 0.493832
O O19 0.216602 0.000000 0.513736
O O20 0.182407 0.500000 0.753410
O O21 0.000000 0.643076 0.746619
O O22 0.500000 0.141987 0.688388
O O23 0.318704 0.000000 0.674241
#
# Coordination Sequence:
#
# PCOD8177501 Si02
#       8
#     8   8   8   8   8   8   8   8
#     4  10  21  36  52  70  96 131 167 202 240 285
#     4  10  18  29  49  73  97 128 164 202 244 289
#     4   9  19  35  52  71  97 128 159 192 238 295
#     4   8  15  28  45  66  93 125 160 194 228 271
#     4  11  21  32  50  74  98 125 160 203 249 298
#     4   9  18  31  47  70  97 123 157 202 247 290
#     4   9  17  29  46  70 100 133 167 199 234 285
#     4  10  20  32  47  71 102 132 162 197 238 286
#
# _framework density 17.465859999999999
#
# number of rings (size 3 to 8) (size 9 to 14) (size 15 to 20)
#    0.000    2.500    0.000    3.375    0.000    5.250 
#    0.000    2.500    0.000    1.875    0.000    1.750 
#    0.000    0.000    0.000    0.000    0.000    0.000 
#
# Total GULP energy -396776.194606 kJ/mol
# GULP energy per Si atom -12399.256081 kJ/mol
# Density = 1.742611 g / cm^3
# Si number density = 17.465860 Si / 1000 Ang^3
#
#
#
# Elastic Constant Matrix: (Units=GPa)
#
#
# Indices 1 2 3 4 5 6 
#
# 1 48.7218 35.6817 35.0623 0.0000 0.0000 0.0000
# 2 35.6817 96.8706 87.4144 0.0000 0.0000 0.0000
# 3 35.0623 87.4144 120.7213 0.0000 0.0000 0.0000
# 4 0.0000 0.0000 0.0000 31.6652 0.0000 0.0000
# 5 0.0000 0.0000 0.0000 0.0000 19.0327 0.0000
# 6 0.0000 0.0000 0.0000 0.0000 0.0000 22.6226
#
#
#
# Elastic Compliance Matrix: (Units=1/GPa)
#
#
# Indices 1 2 3 4 5 6 
#
# 1 0.028262 -0.008665 -0.001934 0.000000 0.000000 0.000000
# 2 -0.008665 0.032442 -0.020974 0.000000 0.000000 0.000000
# 3 -0.001934 -0.020974 0.024033 0.000000 0.000000 0.000000
# 4 0.000000 0.000000 0.000000 0.031580 0.000000 0.000000
# 5 0.000000 0.000000 0.000000 0.000000 0.052541 0.000000
# 6 0.000000 0.000000 0.000000 0.000000 0.000000 0.044204
#
#
# Mechanical properties :
#
#
# Convention : Reuss Voigt Hill
#
# Bulk Modulus (GPa) = 46.31790 64.73672 55.52731
# Shear Modulus (GPa) = 17.64254 21.87444 19.75849
#
# Velocity S-wave (km/s) = 3.18168 3.54278 3.36708
# Velocity P-wave (km/s) = 6.33041 7.34032 6.85399
#
# Compressibility (1/GPa) = 0.02158993
#
# Stress axis : x y z
#
# Youngs Moduli (GPa) = 35.38263 30.82468 41.60955
#
# Poissons Ratio (x) = 0.26709 0.08049
# Poissons Ratio (y) = 0.30658 0.87273
# Poissons Ratio (z) = 0.06845 0.64653
#
# Static dielectric constant tensor:
#      x y z
#    x 3.143810 0.000000 0.000000 
#    y 0.000000 3.849820 0.000000 
#    z 0.000000 0.000000 3.203630 
# 
# 
# High freq. dielectric constant tensor:
#      x y z
#    x 1.663770 0.000000 0.000000 
#    y 0.000000 1.679410 0.000000 
#    z 0.000000 0.000000 1.655960 
# 
# From -- ./inp_files/22116.got.cif
#   From: 2010.03.12/outbox.cif.g09.slc.cpg/sg38_12_cif.got.tgz:22116.got - 2010.04.14 02:38:36.
