data_PCOD8177258
_publ_section_title
;
Structure prediction by ZEFSAII (Michael W. Deem and Ramdas Pophale) SiO2 
 PCOD8177258
Probable space group: A M M 2
;
_chemical_formula_sum "Si O2"
_cell_formula_units_Z 64
_cell_length_a 8.364309
_cell_length_b 26.786027
_cell_length_c 18.554757
_cell_angle_alpha 90.000000
_cell_angle_beta 90.000000
_cell_angle_gamma 90.000000
_cell_volume 4157.130344
_symmetry_space_group_name_H-M "A M M 2"
_symmetry_group_IT_number 38
_symmetry_cell_setting 'orthorhombic'
loop_
_space_group_symop_operation_xyz
x,y,z
-x,-y,z
-x,y,z
x,-y,z
x,1/2+y,1/2+z
-x,1/2-y,1/2+z
-x,1/2+y,1/2+z
x,1/2-y,1/2+z
loop_
_atom_site_type_symbol
_atom_site_label
_atom_site_fract_x
_atom_site_fract_y
_atom_site_fract_z
Si Si1 0.316444 0.297344 0.672230
Si Si2 0.689347 0.747452 0.891958
Si Si3 0.689921 0.944793 0.552420
Si Si4 0.312649 0.149176 0.638693
Si Si5 0.185794 0.292019 0.259014
Si Si6 0.309866 0.850462 0.308137
Si Si7 0.815607 0.759468 0.550212
Si Si8 0.309645 0.944961 0.390608
O O1 0.500000 0.304846 0.649757
O O2 0.300437 0.248118 0.720980
O O3 0.255749 0.342571 0.724392
O O4 0.213289 0.290086 0.599619
O O5 0.500000 0.751620 0.894664
O O6 0.762128 0.792566 0.842935
O O7 0.750049 0.694688 0.859194
O O8 0.758758 0.753976 0.971004
O O9 0.500000 0.941901 0.550550
O O10 0.757582 0.902210 0.605337
O O11 0.754062 0.934976 0.471426
O O12 0.745278 0.000000 0.578636
O O13 0.500000 0.144692 0.652814
O O14 0.222994 0.156819 0.715611
O O15 0.282327 0.193975 0.582165
O O16 0.000000 0.278199 0.250678
O O17 0.500000 0.850692 0.310886
O O18 0.237999 0.902614 0.337529
O O19 0.000000 0.773944 0.551063
O O20 0.500000 0.942212 0.390249
O O21 0.253469 0.000000 0.364361
#
# Coordination Sequence:
#
# PCOD8177258 Si02
#       8
#     8   8   8   8   8   8   8   8
#     4   9  16  27  40  54  76 106 138 167 196 234
#     4  10  18  29  43  58  78 105 137 166 198 241
#     4   8  14  23  37  59  83 106 137 176 208 232
#     4  10  17  27  43  59  79 110 143 170 201 240
#     4  10  18  28  40  57  81 104 131 167 204 240
#     4   8  14  23  37  56  76 102 134 163 190 228
#     4  11  20  28  39  58  82 105 134 169 205 242
#     4   8  12  19  32  53  81 106 128 161 202 231
#
# _framework density 15.395234
#
# number of rings (size 3 to 8) (size 9 to 14) (size 15 to 20)
#    0.000    2.750    0.000    7.125    0.000    2.000 
#    0.000    0.000    0.000    1.500    0.000    0.000 
#    0.000   18.500    0.000    8.500    0.000    2.375 
#
# Total GULP energy -396501.410311 kJ/mol
# GULP energy per Si atom -12390.669072 kJ/mol
# Density = 1.536019 g / cm^3
# Si number density = 15.395234 Si / 1000 Ang^3
#
#
#
# Elastic Constant Matrix: (Units=GPa)
#
#
# Indices 1 2 3 4 5 6 
#
# 1 37.7518 9.2252 16.3732 0.0000 0.0000 0.0000
# 2 9.2252 92.6855 62.3577 0.0000 0.0000 0.0000
# 3 16.3732 62.3577 122.2329 0.0000 0.0000 0.0000
# 4 0.0000 0.0000 0.0000 28.5388 0.0000 0.0000
# 5 0.0000 0.0000 0.0000 0.0000 13.8278 0.0000
# 6 0.0000 0.0000 0.0000 0.0000 0.0000 2.8254
#
#
#
# Elastic Compliance Matrix: (Units=1/GPa)
#
#
# Indices 1 2 3 4 5 6 
#
# 1 0.028132 -0.000403 -0.003563 0.000000 0.000000 0.000000
# 2 -0.000403 0.016433 -0.008330 0.000000 0.000000 0.000000
# 3 -0.003563 -0.008330 0.012908 0.000000 0.000000 0.000000
# 4 0.000000 0.000000 0.000000 0.035040 0.000000 0.000000
# 5 0.000000 0.000000 0.000000 0.000000 0.072318 0.000000
# 6 0.000000 0.000000 0.000000 0.000000 0.000000 0.353928
#
#
# Mechanical properties :
#
#
# Convention : Reuss Voigt Hill
#
# Bulk Modulus (GPa) = 30.41113 47.62029 39.01571
# Shear Modulus (GPa) = 9.02021 20.01934 14.51977
#
# Velocity S-wave (km/s) = 2.42318 3.60996 3.07438
# Velocity P-wave (km/s) = 5.25600 6.95520 6.16443
#
# Compressibility (1/GPa) = 0.03288270
#
# Stress axis : x y z
#
# Youngs Moduli (GPa) = 35.54611 60.85202 77.47328
#
# Poissons Ratio (x) = 0.02453 0.27601
# Poissons Ratio (y) = 0.01433 0.64532
# Poissons Ratio (z) = 0.12664 0.50687
#
# Static dielectric constant tensor:
#      x y z
#    x 2.705190 0.000000 0.000000 
#    y 0.000000 3.104610 0.000000 
#    z 0.000000 0.000000 3.250340 
# 
# 
# High freq. dielectric constant tensor:
#      x y z
#    x 1.576000 0.000000 0.000000 
#    y 0.000000 1.553610 0.000000 
#    z 0.000000 0.000000 1.583630 
# 
# From -- ./inp_files/17356.got.cif
#   From: 2010.03.12/outbox.cif.g09.slc.cpg/sg38_9_cif.got.tgz:17356.got - 2010.04.14 02:38:36.
