data_PCOD8177430
_publ_section_title
;
Structure prediction by ZEFSAII (Michael W. Deem and Ramdas Pophale) SiO2 
 PCOD8177430
Probable space group: A M M 2
;
_chemical_formula_sum "Si O2"
_cell_formula_units_Z 40
_cell_length_a 12.962861
_cell_length_b 8.645328
_cell_length_c 20.082961
_cell_angle_alpha 90.000000
_cell_angle_beta 90.000000
_cell_angle_gamma 90.000000
_cell_volume 2250.660992
_symmetry_space_group_name_H-M "A M M 2"
_symmetry_group_IT_number 38
_symmetry_cell_setting 'orthorhombic'
loop_
_space_group_symop_operation_xyz
x,y,z
-x,-y,z
-x,y,z
x,-y,z
x,1/2+y,1/2+z
-x,1/2-y,1/2+z
-x,1/2+y,1/2+z
x,1/2-y,1/2+z
loop_
_atom_site_type_symbol
_atom_site_label
_atom_site_fract_x
_atom_site_fract_y
_atom_site_fract_z
Si Si1 0.115128 0.683838 0.191700
Si Si2 0.500000 0.170925 0.288325
Si Si3 0.279687 0.186025 0.438409
Si Si4 0.500000 0.331336 0.945907
Si Si5 0.114949 0.316284 0.043111
Si Si6 0.714046 0.683509 0.293853
O O1 0.116571 0.500000 0.191982
O O2 0.142970 0.743112 0.117230
O O3 0.199261 0.748357 0.243246
O O4 0.000000 0.741987 0.211481
O O5 0.500000 0.153008 0.366845
O O6 0.397112 0.261973 0.266372
O O7 0.500000 0.000000 0.255461
O O8 0.391668 0.251365 0.464739
O O9 0.194730 0.251927 0.489277
O O10 0.255513 0.249005 0.365415
O O11 0.282986 0.000000 0.434916
O O12 0.500000 0.500000 0.979874
O O13 0.120415 0.500000 0.041338
O O14 0.000000 0.260308 0.023626
O O15 0.713850 0.500000 0.297994
#
# Coordination Sequence:
#
# PCOD8177430 Si02
#       6
#     8   4   8   4   8   8
#     4   8  15  28  44  64  93 126 156 188 227 267
#     4   9  17  31  48  65  91 123 151 185 230 274
#     4   9  16  27  44  65  88 116 150 187 227 267
#     4   7  12  23  38  57  81 107 133 165 212 262
#     4   8  14  26  44  64  87 118 156 193 224 259
#     4  10  18  28  46  71  95 119 151 189 227 273
#
# _framework density 17.772556999999999
#
# number of rings (size 3 to 8) (size 9 to 14) (size 15 to 20)
#    0.000    3.400    0.000    3.300    0.000    0.800 
#    0.000    1.000    0.000    9.000    0.000    5.600 
#    0.000    0.000    0.000    0.000    0.000    0.000 
#
# Total GULP energy -247771.079435 kJ/mol
# GULP energy per Si atom -12388.553972 kJ/mol
# Density = 1.773211 g / cm^3
# Si number density = 17.772557 Si / 1000 Ang^3
#
#
#
# Elastic Constant Matrix: (Units=GPa)
#
#
# Indices 1 2 3 4 5 6 
#
# 1 191.2151 22.0371 107.3780 0.0000 0.0000 0.0000
# 2 22.0371 31.1415 17.2305 0.0000 0.0000 0.0000
# 3 107.3780 17.2305 109.3915 0.0000 0.0000 0.0000
# 4 0.0000 0.0000 0.0000 16.6473 0.0000 0.0000
# 5 0.0000 0.0000 0.0000 0.0000 18.5906 0.0000
# 6 0.0000 0.0000 0.0000 0.0000 0.0000 15.1263
#
#
#
# Elastic Compliance Matrix: (Units=1/GPa)
#
#
# Indices 1 2 3 4 5 6 
#
# 1 0.011780 -0.002123 -0.011229 0.000000 0.000000 0.000000
# 2 -0.002123 0.035560 -0.003517 0.000000 0.000000 0.000000
# 3 -0.011229 -0.003517 0.020717 0.000000 0.000000 0.000000
# 4 0.000000 0.000000 0.000000 0.060070 0.000000 0.000000
# 5 0.000000 0.000000 0.000000 0.000000 0.053791 0.000000
# 6 0.000000 0.000000 0.000000 0.000000 0.000000 0.066110
#
#
# Mechanical properties :
#
#
# Convention : Reuss Voigt Hill
#
# Bulk Modulus (GPa) = 29.13789 69.44880 49.29334
# Shear Modulus (GPa) = 17.05288 22.41300 19.73294
#
# Velocity S-wave (km/s) = 3.10095 3.55505 3.33574
# Velocity P-wave (km/s) = 5.40848 7.48415 6.52932
#
# Compressibility (1/GPa) = 0.03431958
#
# Stress axis : x y z
#
# Youngs Moduli (GPa) = 84.88999 28.12153 48.26851
#
# Poissons Ratio (x) = 0.05971 0.54199
# Poissons Ratio (y) = 0.18024 0.16976
# Poissons Ratio (z) = 0.95320 0.09890
#
# Static dielectric constant tensor:
#      x y z
#    x 3.905280 0.000000 0.000000 
#    y 0.000000 2.864440 0.000000 
#    z 0.000000 0.000000 3.263490 
# 
# 
# High freq. dielectric constant tensor:
#      x y z
#    x 1.706570 0.000000 0.000000 
#    y 0.000000 1.641900 0.000000 
#    z 0.000000 0.000000 1.663230 
# 
# From -- ./inp_files/14292.got.cif
#   From: 2010.03.12/outbox.cif.g09.slc.cpg/sg38_8_cif.got.tgz:14292.got - 2010.04.14 02:38:36.
