data_PCOD8177177
_publ_section_title
;
Structure prediction by ZEFSAII (Michael W. Deem and Ramdas Pophale) SiO2 
 PCOD8177177
Probable space group: C C C 2
;
_chemical_formula_sum "Si O2"
_cell_formula_units_Z 60
_cell_length_a 23.518267
_cell_length_b 9.379679
_cell_length_c 11.507503
_cell_angle_alpha 90.000000
_cell_angle_beta 90.000000
_cell_angle_gamma 90.000000
_cell_volume 2538.483759
_symmetry_space_group_name_H-M "C C C 2"
_symmetry_group_IT_number 37
_symmetry_cell_setting 'orthorhombic'
loop_
_space_group_symop_operation_xyz
x,y,z
-x,-y,z
-x,y,1/2+z
x,-y,1/2+z
1/2+x,1/2+y,z
1/2-x,1/2-y,z
1/2-x,1/2+y,1/2+z
1/2+x,1/2-y,1/2+z
loop_
_atom_site_type_symbol
_atom_site_label
_atom_site_fract_x
_atom_site_fract_y
_atom_site_fract_z
Si Si1 0.795108 0.549027 0.288790
Si Si2 0.750000 0.250000 0.609224
Si Si3 0.022885 0.152157 0.304348
Si Si4 0.954420 0.384141 0.620207
Si Si5 0.615354 0.874912 0.690954
Si Si6 0.084193 0.218062 0.912642
Si Si7 0.368152 0.247432 0.445015
Si Si8 0.191429 0.025629 0.941574
O O1 0.794883 0.672497 0.191977
O O2 0.819852 0.403452 0.232313
O O3 0.834039 0.612933 0.391643
O O4 0.732846 0.498499 0.331640
O O5 0.778704 0.126186 0.534735
O O6 0.016177 0.259062 0.194544
O O7 0.086373 0.176649 0.357595
O O8 0.981689 0.170418 0.416449
O O9 0.000000 0.000000 0.254022
O O10 0.913057 0.469570 0.705769
O O11 0.911875 0.328445 0.518523
O O12 0.000000 0.500000 0.570591
O O13 0.585835 0.776202 0.783232
O O14 0.604526 0.812417 0.562992
O O15 0.130902 0.095577 0.913276
O O16 0.322949 0.367463 0.486974
#
# Coordination Sequence:
#
# PCOD8177177 Si02
#       8
#     8   4   8   8   8   8   8   8
#     4  12  25  49  75 109 153 205 263 326 394 471
#     4  12  26  46  76 108 152 208 254 330 394 468
#     4  12  27  50  79 113 155 206 260 328 401 474
#     4  12  26  47  78 111 157 204 261 325 396 479
#     4  12  26  44  78 110 150 204 257 324 390 473
#     4  12  28  47  73 112 152 202 261 321 391 474
#     4  12  26  49  78 115 157 205 265 330 399 481
#     4  12  27  49  74 110 159 207 264 327 396 477
#
# _framework density 23.636157999999998
#
# number of rings (size 3 to 8) (size 9 to 14) (size 15 to 20)
#    0.000    0.000    5.333    4.000    3.733    1.600 
#    0.000    0.000    0.000    0.000    0.000    0.000 
#    0.000    0.000    0.000    0.000    0.000    0.000 
#
# Total GULP energy -371645.416637 kJ/mol
# GULP energy per Si atom -12388.180555 kJ/mol
# Density = 2.358236 g / cm^3
# Si number density = 23.636158 Si / 1000 Ang^3
#
#
#
# Elastic Constant Matrix: (Units=GPa)
#
#
# Indices 1 2 3 4 5 6 
#
# 1 92.2749 30.0772 16.5366 0.0000 0.0000 0.0000
# 2 30.0772 111.3058 44.8947 0.0000 0.0000 0.0000
# 3 16.5366 44.8947 103.3738 0.0000 0.0000 0.0000
# 4 0.0000 0.0000 0.0000 30.7275 0.0000 0.0000
# 5 0.0000 0.0000 0.0000 0.0000 19.6602 0.0000
# 6 0.0000 0.0000 0.0000 0.0000 0.0000 48.7853
#
#
#
# Elastic Compliance Matrix: (Units=1/GPa)
#
#
# Indices 1 2 3 4 5 6 
#
# 1 0.011916 -0.002972 -0.000616 0.000000 0.000000 0.000000
# 2 -0.002972 0.011633 -0.004577 0.000000 0.000000 0.000000
# 3 -0.000616 -0.004577 0.011760 0.000000 0.000000 0.000000
# 4 0.000000 0.000000 0.000000 0.032544 0.000000 0.000000
# 5 0.000000 0.000000 0.000000 0.000000 0.050864 0.000000
# 6 0.000000 0.000000 0.000000 0.000000 0.000000 0.020498
#
#
# Mechanical properties :
#
#
# Convention : Reuss Voigt Hill
#
# Bulk Modulus (GPa) = 52.68463 54.44126 53.56295
# Shear Modulus (GPa) = 30.88882 34.19770 32.54326
#
# Velocity S-wave (km/s) = 3.61895 3.80786 3.71461
# Velocity P-wave (km/s) = 6.30878 6.51276 6.41158
#
# Compressibility (1/GPa) = 0.01898087
#
# Stress axis : x y z
#
# Youngs Moduli (GPa) = 83.91985 85.95980 85.03518
#
# Poissons Ratio (x) = 0.25545 0.05235
# Poissons Ratio (y) = 0.24938 0.38920
# Poissons Ratio (z) = 0.05166 0.39343
#
# Static dielectric constant tensor:
#      x y z
#    x 4.485840 0.000000 0.000000 
#    y 0.000000 4.453250 0.000000 
#    z 0.000000 0.000000 3.977520 
# 
# 
# High freq. dielectric constant tensor:
#      x y z
#    x 1.953360 0.000000 0.000000 
#    y 0.000000 1.947120 0.000000 
#    z 0.000000 0.000000 1.926440 
# 
# From -- ./inp_files/9078.got.cif
#   From: 2010.03.12/outbox.cif.g09.slc.cpg/sg37_5_cif.got.tgz:9078.got - 2010.04.14 02:25:27.
