data_PCOD8177695
_publ_section_title
;
Structure prediction by ZEFSAII (Michael W. Deem and Ramdas Pophale) SiO2 
 PCOD8177695
Probable space group: A M M 2
;
_chemical_formula_sum "Si O2"
_cell_formula_units_Z 32
_cell_length_a 12.309578
_cell_length_b 8.705135
_cell_length_c 15.142464
_cell_angle_alpha 90.000000
_cell_angle_beta 90.000000
_cell_angle_gamma 90.000000
_cell_volume 1622.614023
_symmetry_space_group_name_H-M "A M M 2"
_symmetry_group_IT_number 38
_symmetry_cell_setting 'orthorhombic'
loop_
_space_group_symop_operation_xyz
x,y,z
-x,-y,z
-x,y,z
x,-y,z
x,1/2+y,1/2+z
-x,1/2-y,1/2+z
-x,1/2+y,1/2+z
x,1/2-y,1/2+z
loop_
_atom_site_type_symbol
_atom_site_label
_atom_site_fract_x
_atom_site_fract_y
_atom_site_fract_z
Si Si1 0.000000 0.174449 0.008920
Si Si2 0.374782 0.818097 0.831859
Si Si3 0.765501 0.676295 0.490097
Si Si4 0.776325 0.682122 0.689363
Si Si5 0.000000 0.677948 0.191649
O O1 0.889549 0.196975 0.952821
O O2 0.000000 0.297397 0.086837
O O3 0.000000 0.000000 0.049708
O O4 0.500000 0.771882 0.837578
O O5 0.325007 0.740011 0.745665
O O6 0.357580 0.000000 0.824541
O O7 0.316063 0.747652 0.919369
O O8 0.731940 0.500000 0.496702
O O9 0.757488 0.745458 0.589090
O O10 0.782616 0.500000 0.690462
O O11 0.889411 0.746696 0.729881
O O12 0.000000 0.500000 0.216813
#
# Coordination Sequence:
#
# PCOD8177695 Si02
#       5
#     4   8   8   8   4
#     4   8  14  29  52  77 104 136 178 221 263 317
#     4  10  21  36  53  77 108 143 187 230 265 310
#     4   8  16  32  54  76 102 139 178 218 265 322
#     4  10  20  36  57  81 109 141 179 221 267 319
#     4  10  18  31  54  83 112 140 172 213 269 327
#
# _framework density 19.721264000000001
#
# number of rings (size 3 to 8) (size 9 to 14) (size 15 to 20)
#    0.000    2.750    0.000    3.375    0.000    2.500 
#    0.000   11.250    0.000    0.000    0.000    0.000 
#    0.000    0.000    0.000    0.000    0.000    0.000 
#
# Total GULP energy -198267.723934 kJ/mol
# GULP energy per Si atom -12391.732746 kJ/mol
# Density = 1.967638 g / cm^3
# Si number density = 19.721264 Si / 1000 Ang^3
#
#
#
# Elastic Constant Matrix: (Units=GPa)
#
#
# Indices 1 2 3 4 5 6 
#
# 1 177.5175 42.3573 82.7867 0.0000 0.0000 0.0000
# 2 42.3573 56.9637 23.6360 0.0000 0.0000 0.0000
# 3 82.7867 23.6360 106.2731 0.0000 0.0000 0.0000
# 4 0.0000 0.0000 0.0000 21.2149 0.0000 0.0000
# 5 0.0000 0.0000 0.0000 0.0000 39.2292 0.0000
# 6 0.0000 0.0000 0.0000 0.0000 0.0000 27.8903
#
#
#
# Elastic Compliance Matrix: (Units=1/GPa)
#
#
# Indices 1 2 3 4 5 6 
#
# 1 0.009810 -0.004543 -0.006632 0.000000 0.000000 0.000000
# 2 -0.004543 0.021444 -0.001230 0.000000 0.000000 0.000000
# 3 -0.006632 -0.001230 0.014849 0.000000 0.000000 0.000000
# 4 0.000000 0.000000 0.000000 0.047137 0.000000 0.000000
# 5 0.000000 0.000000 0.000000 0.000000 0.025491 0.000000
# 6 0.000000 0.000000 0.000000 0.000000 0.000000 0.035855
#
#
# Mechanical properties :
#
#
# Convention : Reuss Voigt Hill
#
# Bulk Modulus (GPa) = 46.96313 70.92380 58.94347
# Shear Modulus (GPa) = 26.81073 30.46518 28.63796
#
# Velocity S-wave (km/s) = 3.69112 3.93464 3.81482
# Velocity P-wave (km/s) = 6.48313 7.52882 7.02545
#
# Compressibility (1/GPa) = 0.02129330
#
# Stress axis : x y z
#
# Youngs Moduli (GPa) = 101.93810 46.63412 67.34320
#
# Poissons Ratio (x) = 0.21185 0.44659
# Poissons Ratio (y) = 0.46309 0.08285
# Poissons Ratio (z) = 0.67600 0.05738
#
# Static dielectric constant tensor:
#      x y z
#    x 3.839330 0.000000 0.000000 
#    y 0.000000 3.234230 0.000000 
#    z 0.000000 0.000000 3.578490 
# 
# 
# High freq. dielectric constant tensor:
#      x y z
#    x 1.778420 0.000000 0.000000 
#    y 0.000000 1.735450 0.000000 
#    z 0.000000 0.000000 1.752730 
# 
# From -- ./inp_files/13307.got.cif
#   From: 2010.03.12/outbox.cif.g09.slc.cpg/sg38_7_cif.got.tgz:13307.got - 2010.04.14 02:38:36.
