data_PCOD8177153
_publ_section_title
;
Structure prediction by ZEFSAII (Michael W. Deem and Ramdas Pophale) SiO2 
 PCOD8177153
Probable space group: C C C 2
;
_chemical_formula_sum "Si O2"
_cell_formula_units_Z 28
_cell_length_a 4.910100
_cell_length_b 15.668229
_cell_length_c 14.247944
_cell_angle_alpha 90.000000
_cell_angle_beta 90.000000
_cell_angle_gamma 90.000000
_cell_volume 1096.130966
_symmetry_space_group_name_H-M "C C C 2"
_symmetry_group_IT_number 37
_symmetry_cell_setting 'orthorhombic'
loop_
_space_group_symop_operation_xyz
x,y,z
-x,-y,z
-x,y,1/2+z
x,-y,1/2+z
1/2+x,1/2+y,z
1/2-x,1/2-y,z
1/2-x,1/2+y,1/2+z
1/2+x,1/2-y,1/2+z
loop_
_atom_site_type_symbol
_atom_site_label
_atom_site_fract_x
_atom_site_fract_y
_atom_site_fract_z
Si Si1 0.926897 0.402319 0.286900
Si Si2 0.627599 0.093248 0.493682
Si Si3 0.360141 0.356182 0.606614
Si Si4 0.250000 0.250000 0.208026
O O1 0.175555 0.335409 0.267173
O O2 0.000000 0.500000 0.300370
O O3 0.803516 0.374810 0.388128
O O4 0.711365 0.404687 0.203123
O O5 0.401860 0.155959 0.539563
O O6 0.903568 0.091711 0.553266
O O7 0.500000 0.000000 0.499038
O O8 0.487452 0.265766 0.641294
#
# Coordination Sequence:
#
# PCOD8177153 Si02
#       4
#     8   8   8   4
#     4  11  28  52  81 117 159 209 267 332 394 480
#     4  11  27  48  83 116 153 207 267 320 402 467
#     4  12  26  50  75 115 158 202 260 328 388 474
#     4  12  28  48  78 116 164 212 262 318 414 458
#
# _framework density 25.544395000000002
#
# number of rings (size 3 to 8) (size 9 to 14) (size 15 to 20)
#    0.000    0.571    2.857    2.571    8.000    2.286 
#    0.000    0.000    0.000    0.000    0.000    0.000 
#    0.000    0.000    0.000    0.000    0.000    0.000 
#
# Total GULP energy -173476.976143 kJ/mol
# GULP energy per Si atom -12391.212582 kJ/mol
# Density = 2.548625 g / cm^3
# Si number density = 25.544395 Si / 1000 Ang^3
#
#
#
# Elastic Constant Matrix: (Units=GPa)
#
#
# Indices 1 2 3 4 5 6 
#
# 1 152.7852 17.3885 93.5332 0.0000 0.0000 0.0000
# 2 17.3885 114.1500 38.0116 0.0000 0.0000 0.0000
# 3 93.5332 38.0116 253.8427 0.0000 0.0000 0.0000
# 4 0.0000 0.0000 0.0000 63.4556 0.0000 0.0000
# 5 0.0000 0.0000 0.0000 0.0000 -45.7059 0.0000
# 6 0.0000 0.0000 0.0000 0.0000 0.0000 39.4144
#
#
#
# Elastic Compliance Matrix: (Units=1/GPa)
#
#
# Indices 1 2 3 4 5 6 
#
# 1 0.008459 -0.000264 -0.003077 0.000000 0.000000 0.000000
# 2 -0.000264 0.009228 -0.001285 0.000000 0.000000 0.000000
# 3 -0.003077 -0.001285 0.005266 0.000000 0.000000 0.000000
# 4 0.000000 0.000000 0.000000 0.015759 0.000000 0.000000
# 5 0.000000 0.000000 0.000000 0.000000 -0.021879 0.000000
# 6 0.000000 0.000000 0.000000 0.000000 0.000000 0.025371
#
#
# Mechanical properties :
#
#
# Convention : Reuss Voigt Hill
#
# Bulk Modulus (GPa) = 72.98517 90.96051 81.97284
# Shear Modulus (GPa) = 89.24790 36.22246 62.73518
#
# Velocity S-wave (km/s) = 5.91728 3.76975 4.96111
# Velocity P-wave (km/s) = 8.67868 7.39149 8.06082
#
# Compressibility (1/GPa) = 0.01370141
#
# Stress axis : x y z
#
# Youngs Moduli (GPa) = 118.21560 108.36124 189.90610
#
# Poissons Ratio (x) = 0.02859 0.58442
# Poissons Ratio (y) = 0.03119 0.24397
# Poissons Ratio (z) = 0.36380 0.13921
#
# Static dielectric constant tensor:
#      x y z
#    x 5.264840 0.000000 0.000000 
#    y 0.000000 4.669180 0.000000 
#    z 0.000000 0.000000 5.131940 
# 
# 
# High freq. dielectric constant tensor:
#      x y z
#    x 2.025730 0.000000 0.000000 
#    y 0.000000 2.030110 0.000000 
#    z 0.000000 0.000000 2.035830 
# 
# From -- ./inp_files/9391.got.cif
#   From: 2010.03.12/outbox.cif.g09.slc.cpg/sg37_5_cif.got.tgz:9391.got - 2010.04.14 02:25:27.
