data_PCOD8177811
_publ_section_title
;
Structure prediction by ZEFSAII (Michael W. Deem and Ramdas Pophale) SiO2 
 PCOD8177811
Probable space group: A M M 2
;
_chemical_formula_sum "Si O2"
_cell_formula_units_Z 40
_cell_length_a 13.708805
_cell_length_b 18.465585
_cell_length_c 8.941440
_cell_angle_alpha 90.000000
_cell_angle_beta 90.000000
_cell_angle_gamma 90.000000
_cell_volume 2263.445993
_symmetry_space_group_name_H-M "A M M 2"
_symmetry_group_IT_number 38
_symmetry_cell_setting 'orthorhombic'
loop_
_space_group_symop_operation_xyz
x,y,z
-x,-y,z
-x,y,z
x,-y,z
x,1/2+y,1/2+z
-x,1/2-y,1/2+z
-x,1/2+y,1/2+z
x,1/2-y,1/2+z
loop_
_atom_site_type_symbol
_atom_site_label
_atom_site_fract_x
_atom_site_fract_y
_atom_site_fract_z
Si Si1 0.609144 0.082706 0.310160
Si Si2 0.763712 0.691900 0.261066
Si Si3 0.208883 0.415113 0.012642
Si Si4 0.888513 0.676306 0.772274
Si Si5 0.711284 0.322443 0.585964
O O1 0.500000 0.098593 0.369855
O O2 0.685245 0.101897 0.441118
O O3 0.627781 0.129163 0.160975
O O4 0.621412 0.000000 0.261240
O O5 0.794586 0.617707 0.179703
O O6 0.857246 0.740651 0.313052
O O7 0.700652 0.672685 0.407659
O O8 0.699021 0.739660 0.144975
O O9 0.185815 0.500000 0.021770
O O10 0.125742 0.375197 0.916025
O O11 0.818733 0.647950 0.637711
O O12 0.000000 0.673938 0.719994
#
# Coordination Sequence:
#
# PCOD8177811 Si02
#       5
#     8   8   8   8   8
#     4   9  18  35  56  77 105 144 183 219 270 326
#     4  10  18  34  52  78 112 136 183 217 266 322
#     4  10  20  35  57  81 110 143 179 226 269 315
#     4   9  18  34  55  77 105 143 180 214 263 324
#     4   9  18  32  52  75 107 139 179 219 260 319
#
# _framework density 17.672170000000001
#
# number of rings (size 3 to 8) (size 9 to 14) (size 15 to 20)
#    1.200    1.400    2.000    0.000    0.000    4.400 
#    0.000    5.000    0.000    2.400    0.000    2.800 
#    0.000    0.000    0.000    0.000    0.000    0.000 
#
# Total GULP energy -247846.758336 kJ/mol
# GULP energy per Si atom -12392.337917 kJ/mol
# Density = 1.763195 g / cm^3
# Si number density = 17.672170 Si / 1000 Ang^3
#
#
#
# Elastic Constant Matrix: (Units=GPa)
#
#
# Indices 1 2 3 4 5 6 
#
# 1 69.1552 22.6449 0.3610 0.0000 0.0000 0.0000
# 2 22.6449 99.9586 43.4536 0.0000 0.0000 0.0000
# 3 0.3610 43.4536 102.2228 0.0000 0.0000 0.0000
# 4 0.0000 0.0000 0.0000 33.7457 0.0000 0.0000
# 5 0.0000 0.0000 0.0000 0.0000 12.4658 0.0000
# 6 0.0000 0.0000 0.0000 0.0000 0.0000 17.1636
#
#
#
# Elastic Compliance Matrix: (Units=1/GPa)
#
#
# Indices 1 2 3 4 5 6 
#
# 1 0.015887 -0.004385 0.001808 0.000000 0.000000 0.000000
# 2 -0.004385 0.013482 -0.005716 0.000000 0.000000 0.000000
# 3 0.001808 -0.005716 0.012206 0.000000 0.000000 0.000000
# 4 0.000000 0.000000 0.000000 0.029633 0.000000 0.000000
# 5 0.000000 0.000000 0.000000 0.000000 0.080219 0.000000
# 6 0.000000 0.000000 0.000000 0.000000 0.000000 0.058263
#
#
# Mechanical properties :
#
#
# Convention : Reuss Voigt Hill
#
# Bulk Modulus (GPa) = 40.01711 44.91727 42.46719
# Shear Modulus (GPa) = 21.31240 26.33350 23.82295
#
# Velocity S-wave (km/s) = 3.47650 3.86438 3.67556
# Velocity P-wave (km/s) = 6.22961 6.73672 6.48812
#
# Compressibility (1/GPa) = 0.02498931
#
# Stress axis : x y z
#
# Youngs Moduli (GPa) = 62.94602 74.17203 81.92822
#
# Poissons Ratio (x) = 0.32524 -0.14812
# Poissons Ratio (y) = 0.27601 0.46827
# Poissons Ratio (z) = -0.11380 0.42394
#
# Static dielectric constant tensor:
#      x y z
#    x 3.030000 0.000000 0.000000 
#    y 0.000000 3.234790 0.000000 
#    z 0.000000 0.000000 3.025480 
# 
# 
# High freq. dielectric constant tensor:
#      x y z
#    x 1.654460 0.000000 0.000000 
#    y 0.000000 1.678910 0.000000 
#    z 0.000000 0.000000 1.669120 
# 
# From -- ./inp_files/5556.got.cif
#   From: 2010.03.12/outbox.cif.g09.slc.cpg/sg38_3_cif.got.tgz:5556.got - 2010.04.14 02:38:36.
