data_PCOD8177335
_publ_section_title
;
Structure prediction by ZEFSAII (Michael W. Deem and Ramdas Pophale) SiO2 
 PCOD8177335
Probable space group: A M M 2
;
_chemical_formula_sum "Si O2"
_cell_formula_units_Z 64
_cell_length_a 9.061466
_cell_length_b 26.142400
_cell_length_c 18.554798
_cell_angle_alpha 90.000000
_cell_angle_beta 90.000000
_cell_angle_gamma 90.000000
_cell_volume 4395.417686
_symmetry_space_group_name_H-M "A M M 2"
_symmetry_group_IT_number 38
_symmetry_cell_setting 'orthorhombic'
loop_
_space_group_symop_operation_xyz
x,y,z
-x,-y,z
-x,y,z
x,-y,z
x,1/2+y,1/2+z
-x,1/2-y,1/2+z
-x,1/2+y,1/2+z
x,1/2-y,1/2+z
loop_
_atom_site_type_symbol
_atom_site_label
_atom_site_fract_x
_atom_site_fract_y
_atom_site_fract_z
Si Si1 0.168724 0.207757 0.106600
Si Si2 0.828205 0.942045 0.462938
Si Si3 0.169753 0.257958 0.967432
Si Si4 0.826112 0.148179 0.563575
Si Si5 0.173097 0.251900 0.808450
Si Si6 0.167302 0.641011 0.731838
Si Si7 0.673095 0.058217 0.317036
Si Si8 0.326146 0.797570 0.683241
O O1 0.191481 0.153078 0.146024
O O2 0.285591 0.246839 0.139238
O O3 0.000000 0.226806 0.123638
O O4 0.191786 0.207949 0.019684
O O5 0.783722 0.906732 0.530339
O O6 0.743537 0.923279 0.391938
O O7 0.000000 0.936438 0.445137
O O8 0.784779 0.000000 0.483367
O O9 0.242682 0.249191 0.889265
O O10 0.000000 0.268657 0.950704
O O11 0.231541 0.308139 0.008134
O O12 0.742684 0.154054 0.640105
O O13 0.000000 0.153658 0.577328
O O14 0.206125 0.308186 0.777036
O O15 0.256747 0.208057 0.762932
O O16 0.000000 0.239340 0.805876
O O17 0.272608 0.594385 0.752587
O O18 0.000000 0.623923 0.747113
O O19 0.500000 0.063460 0.324516
O O20 0.720656 0.000000 0.299563
O O21 0.500000 0.804539 0.689571
#
# Coordination Sequence:
#
# PCOD8177335 Si02
#       8
#     8   8   8   8   8   8   8   8
#     4   8  15  28  42  57  77 101 130 163 198 234
#     4   9  17  29  45  62  78 100 134 172 204 235
#     4   8  13  23  41  59  75 100 131 158 187 231
#     4   9  16  28  43  57  77 105 134 163 197 234
#     4   9  16  27  42  59  79 104 132 160 195 235
#     4   9  16  26  41  58  77 104 137 167 194 231
#     4  10  20  30  39  55  81 109 135 166 202 236
#     4  10  18  26  37  56  80 105 133 162 191 226
#
# _framework density 14.560618
#
# number of rings (size 3 to 8) (size 9 to 14) (size 15 to 20)
#    0.000    3.000    0.000    3.750    0.000    5.250 
#    0.000    2.500    0.000    0.000    0.000    0.000 
#    0.000    1.000    0.000    7.250    0.000    2.125 
#
# Total GULP energy -396536.769041 kJ/mol
# GULP energy per Si atom -12391.774033 kJ/mol
# Density = 1.452748 g / cm^3
# Si number density = 14.560618 Si / 1000 Ang^3
#
#
#
# Elastic Constant Matrix: (Units=GPa)
#
#
# Indices 1 2 3 4 5 6 
#
# 1 49.0159 27.4556 29.9621 0.0000 0.0000 0.0000
# 2 27.4556 65.4497 44.9202 0.0000 0.0000 0.0000
# 3 29.9621 44.9202 107.5875 0.0000 0.0000 0.0000
# 4 0.0000 0.0000 0.0000 25.2448 0.0000 0.0000
# 5 0.0000 0.0000 0.0000 0.0000 10.5352 0.0000
# 6 0.0000 0.0000 0.0000 0.0000 0.0000 15.5786
#
#
#
# Elastic Compliance Matrix: (Units=1/GPa)
#
#
# Indices 1 2 3 4 5 6 
#
# 1 0.027864 -0.008919 -0.004036 0.000000 0.000000 0.000000
# 2 -0.008919 0.024270 -0.007650 0.000000 0.000000 0.000000
# 3 -0.004036 -0.007650 0.013613 0.000000 0.000000 0.000000
# 4 0.000000 0.000000 0.000000 0.039612 0.000000 0.000000
# 5 0.000000 0.000000 0.000000 0.000000 0.094920 0.000000
# 6 0.000000 0.000000 0.000000 0.000000 0.000000 0.064191
#
#
# Mechanical properties :
#
#
# Convention : Reuss Voigt Hill
#
# Bulk Modulus (GPa) = 40.75244 47.41431 44.08338
# Shear Modulus (GPa) = 15.93070 18.25272 17.09171
#
# Velocity S-wave (km/s) = 3.31130 3.54442 3.42984
# Velocity P-wave (km/s) = 6.53211 7.02742 6.78429
#
# Compressibility (1/GPa) = 0.02453841
#
# Stress axis : x y z
#
# Youngs Moduli (GPa) = 35.88798 41.20236 73.46062
#
# Poissons Ratio (x) = 0.36747 0.29651
# Poissons Ratio (y) = 0.32007 0.56195
# Poissons Ratio (z) = 0.14485 0.31519
#
# Static dielectric constant tensor:
#      x y z
#    x 2.667550 0.000000 0.000000 
#    y 0.000000 2.697770 0.000000 
#    z 0.000000 0.000000 3.083270 
# 
# 
# High freq. dielectric constant tensor:
#      x y z
#    x 1.544690 0.000000 0.000000 
#    y 0.000000 1.519190 0.000000 
#    z 0.000000 0.000000 1.551750 
# 
# From -- ./inp_files/17346.got.cif
#   From: 2010.03.12/outbox.cif.g09.slc.cpg/sg38_9_cif.got.tgz:17346.got - 2010.04.14 02:38:36.
