data_PCOD8177531
_publ_section_title
;
Structure prediction by ZEFSAII (Michael W. Deem and Ramdas Pophale) SiO2 
 PCOD8177531
Probable space group: A M M 2
;
_chemical_formula_sum "Si O2"
_cell_formula_units_Z 64
_cell_length_a 8.794684
_cell_length_b 30.478004
_cell_length_c 14.580933
_cell_angle_alpha 90.000000
_cell_angle_beta 90.000000
_cell_angle_gamma 90.000000
_cell_volume 3908.337643
_symmetry_space_group_name_H-M "A M M 2"
_symmetry_group_IT_number 38
_symmetry_cell_setting 'orthorhombic'
loop_
_space_group_symop_operation_xyz
x,y,z
-x,-y,z
-x,y,z
x,-y,z
x,1/2+y,1/2+z
-x,1/2-y,1/2+z
-x,1/2+y,1/2+z
x,1/2-y,1/2+z
loop_
_atom_site_type_symbol
_atom_site_label
_atom_site_fract_x
_atom_site_fract_y
_atom_site_fract_z
Si Si1 0.675314 0.048705 0.849470
Si Si2 0.321295 0.132519 0.098139
Si Si3 0.678574 0.268036 0.919449
Si Si4 0.677051 0.364018 0.258724
Si Si5 0.680530 0.713248 0.715340
Si Si6 0.677127 0.701331 0.111037
Si Si7 0.177317 0.323663 0.429678
Si Si8 0.821395 0.549160 0.542855
O O1 0.500000 0.051816 0.879792
O O2 0.711721 0.083946 0.768828
O O3 0.713711 0.000000 0.811286
O O4 0.774359 0.059785 0.938402
O O5 0.500000 0.128938 0.107557
O O6 0.254754 0.168580 0.169308
O O7 0.275667 0.145905 0.995863
O O8 0.252079 0.083869 0.114150
O O9 0.500000 0.255638 0.917138
O O10 0.717408 0.301603 0.002797
O O11 0.776971 0.226190 0.945747
O O12 0.731153 0.287541 0.821957
O O13 0.500000 0.354324 0.279717
O O14 0.723404 0.345035 0.158436
O O15 0.781028 0.336442 0.326848
O O16 0.500000 0.712868 0.706974
O O17 0.749737 0.756128 0.663402
O O18 0.500000 0.708745 0.122533
O O19 0.000000 0.330605 0.449261
O O20 0.767346 0.500000 0.569607
O O21 0.000000 0.553718 0.549670
#
# Coordination Sequence:
#
# PCOD8177531 Si02
#       8
#     8   8   8   8   8   8   8   8
#     4   9  17  28  44  66  91 121 155 188 224 270
#     4  11  20  32  48  67  91 125 162 193 226 274
#     4  10  18  33  50  64  90 123 159 197 229 272
#     4  10  18  30  47  66  90 124 159 188 221 272
#     4   9  17  28  47  71  89 115 158 198 229 266
#     4   9  16  27  47  70  88 117 159 193 225 267
#     4  12  22  29  42  67  96 124 155 191 234 273
#     4  10  20  32  46  68  97 122 148 187 233 279
#
# _framework density 16.375250000000001
#
# number of rings (size 3 to 8) (size 9 to 14) (size 15 to 20)
#    0.000    2.000    3.750    1.875    0.000    0.750 
#    0.000    3.125    0.000    0.000    0.000    0.875 
#    0.000    5.000    0.000    3.375    0.000    3.125 
#
# Total GULP energy -396585.306805 kJ/mol
# GULP energy per Si atom -12393.290838 kJ/mol
# Density = 1.633798 g / cm^3
# Si number density = 16.375250 Si / 1000 Ang^3
#
#
#
# Elastic Constant Matrix: (Units=GPa)
#
#
# Indices 1 2 3 4 5 6 
#
# 1 28.5638 25.4683 12.1488 0.0000 0.0000 0.0000
# 2 25.4683 113.6290 39.5439 0.0000 0.0000 0.0000
# 3 12.1488 39.5439 84.1485 0.0000 0.0000 0.0000
# 4 0.0000 0.0000 0.0000 27.0199 0.0000 0.0000
# 5 0.0000 0.0000 0.0000 0.0000 2.1245 0.0000
# 6 0.0000 0.0000 0.0000 0.0000 0.0000 15.4425
#
#
#
# Elastic Compliance Matrix: (Units=1/GPa)
#
#
# Indices 1 2 3 4 5 6 
#
# 1 0.044049 -0.009157 -0.002056 0.000000 0.000000 0.000000
# 2 -0.009157 0.012425 -0.004517 0.000000 0.000000 0.000000
# 3 -0.002056 -0.004517 0.014303 0.000000 0.000000 0.000000
# 4 0.000000 0.000000 0.000000 0.037010 0.000000 0.000000
# 5 0.000000 0.000000 0.000000 0.000000 0.470703 0.000000
# 6 0.000000 0.000000 0.000000 0.000000 0.000000 0.064756
#
#
# Mechanical properties :
#
#
# Convention : Reuss Voigt Hill
#
# Bulk Modulus (GPa) = 25.43471 42.29592 33.86532
# Shear Modulus (GPa) = 7.26943 18.86272 13.06607
#
# Velocity S-wave (km/s) = 2.10924 3.39765 2.82780
# Velocity P-wave (km/s) = 4.63660 6.42474 5.60247
#
# Compressibility (1/GPa) = 0.03931635
#
# Stress axis : x y z
#
# Youngs Moduli (GPa) = 22.70209 80.48333 69.91455
#
# Poissons Ratio (x) = 0.73701 0.14376
# Poissons Ratio (y) = 0.20789 0.31579
# Poissons Ratio (z) = 0.04668 0.36352
#
# Static dielectric constant tensor:
#      x y z
#    x 2.869330 0.000000 0.000000 
#    y 0.000000 3.412050 0.000000 
#    z 0.000000 0.000000 3.072230 
# 
# 
# High freq. dielectric constant tensor:
#      x y z
#    x 1.608160 0.000000 0.000000 
#    y 0.000000 1.629360 0.000000 
#    z 0.000000 0.000000 1.599580 
# 
# From -- ./inp_files/13053.got.cif
#   From: 2010.03.12/outbox.cif.g09.slc.cpg/sg38_7_cif.got.tgz:13053.got - 2010.04.14 02:38:36.
