data_PCOD8177103
_publ_section_title
;
Structure prediction by ZEFSAII (Michael W. Deem and Ramdas Pophale) SiO2 
 PCOD8177103
Probable space group: C C C 2
;
_chemical_formula_sum "Si O2"
_cell_formula_units_Z 52
_cell_length_a 7.232703
_cell_length_b 17.314472
_cell_length_c 19.551577
_cell_angle_alpha 90.000000
_cell_angle_beta 90.000000
_cell_angle_gamma 90.000000
_cell_volume 2448.452465
_symmetry_space_group_name_H-M "C C C 2"
_symmetry_group_IT_number 37
_symmetry_cell_setting 'orthorhombic'
loop_
_space_group_symop_operation_xyz
x,y,z
-x,-y,z
-x,y,1/2+z
x,-y,1/2+z
1/2+x,1/2+y,z
1/2-x,1/2-y,z
1/2-x,1/2+y,1/2+z
1/2+x,1/2-y,1/2+z
loop_
_atom_site_type_symbol
_atom_site_label
_atom_site_fract_x
_atom_site_fract_y
_atom_site_fract_z
Si Si1 0.171333 0.833099 0.190810
Si Si2 0.000000 0.500000 0.408204
Si Si3 0.530877 0.916347 0.189024
Si Si4 0.895140 0.921698 0.107878
Si Si5 0.471349 0.315302 0.841185
Si Si6 0.396276 0.848566 0.827756
Si Si7 0.364998 0.433731 0.951846
O O1 0.250000 0.750000 0.173913
O O2 0.328974 0.891029 0.163370
O O3 0.122227 0.844323 0.270964
O O4 0.988502 0.849669 0.146765
O O5 0.958395 0.572727 0.361160
O O6 0.833623 0.474662 0.456916
O O7 0.678558 0.922060 0.127495
O O8 0.598308 0.855476 0.245761
O O9 0.500000 0.000000 0.222746
O O10 0.920520 0.906990 0.027464
O O11 0.000000 0.000000 0.130890
O O12 0.686843 0.333626 0.847924
O O13 0.367117 0.359130 0.902595
O O14 0.038127 0.278469 0.847937
O O15 0.500000 0.500000 0.922537
#
# Coordination Sequence:
#
# PCOD8177103 Si02
#       7
#     8   4   8   8   8   8   8
#     4  12  25  43  73 101 139 178 227 285 344 401
#     4  12  24  42  70 104 130 182 236 278 336 404
#     4  12  23  40  71 105 130 179 231 280 342 405
#     4  11  26  46  67  99 141 182 225 283 339 408
#     4  11  24  45  68 101 141 177 224 287 337 401
#     4  11  23  41  72 102 136 175 228 285 341 397
#     4  11  26  46  68 100 141 182 226 281 342 407
#
# _framework density 21.237904
#
# number of rings (size 3 to 8) (size 9 to 14) (size 15 to 20)
#    0.000    0.615    6.923    0.923    1.077    1.231 
#    2.769    1.538    0.000    0.000    0.000    0.000 
#    0.000    0.000    0.000    0.000    0.000    0.000 
#
# Total GULP energy -322405.944938 kJ/mol
# GULP energy per Si atom -12400.228651 kJ/mol
# Density = 2.118957 g / cm^3
# Si number density = 21.237904 Si / 1000 Ang^3
#
#
#
# Elastic Constant Matrix: (Units=GPa)
#
#
# Indices 1 2 3 4 5 6 
#
# 1 110.5200 44.4368 35.1654 0.0000 0.0000 0.0000
# 2 44.4368 138.5493 55.2859 0.0000 0.0000 0.0000
# 3 35.1654 55.2859 102.2201 0.0000 0.0000 0.0000
# 4 0.0000 0.0000 0.0000 17.1824 0.0000 0.0000
# 5 0.0000 0.0000 0.0000 0.0000 13.7741 0.0000
# 6 0.0000 0.0000 0.0000 0.0000 0.0000 42.1054
#
#
#
# Elastic Compliance Matrix: (Units=1/GPa)
#
#
# Indices 1 2 3 4 5 6 
#
# 1 0.010814 -0.002530 -0.002352 0.000000 0.000000 0.000000
# 2 -0.002530 0.009796 -0.004428 0.000000 0.000000 0.000000
# 3 -0.002352 -0.004428 0.012987 0.000000 0.000000 0.000000
# 4 0.000000 0.000000 0.000000 0.058199 0.000000 0.000000
# 5 0.000000 0.000000 0.000000 0.000000 0.072600 0.000000
# 6 0.000000 0.000000 0.000000 0.000000 0.000000 0.023750
#
#
# Mechanical properties :
#
#
# Convention : Reuss Voigt Hill
#
# Bulk Modulus (GPa) = 66.76775 69.00728 67.88752
# Shear Modulus (GPa) = 23.61202 29.03914 26.32558
#
# Velocity S-wave (km/s) = 3.33796 3.70175 3.52455
# Velocity P-wave (km/s) = 6.80898 7.12977 6.97122
#
# Compressibility (1/GPa) = 0.01497729
#
# Stress axis : x y z
#
# Youngs Moduli (GPa) = 92.47626 102.08382 77.00202
#
# Poissons Ratio (x) = 0.25825 0.18109
# Poissons Ratio (y) = 0.23394 0.34095
# Poissons Ratio (z) = 0.21749 0.45201
#
# Static dielectric constant tensor:
#      x y z
#    x 4.172600 0.000000 0.000000 
#    y 0.000000 4.307440 0.000000 
#    z 0.000000 0.000000 3.440320 
# 
# 
# High freq. dielectric constant tensor:
#      x y z
#    x 1.857120 0.000000 0.000000 
#    y 0.000000 1.841330 0.000000 
#    z 0.000000 0.000000 1.805660 
# 
# From -- ./inp_files/15857.got.cif
#   From: 2010.03.12/outbox.cif.g09.slc.cpg/sg37_8_cif.got.tgz:15857.got - 2010.04.14 02:25:27.
