data_PCOD8177216
_publ_section_title
;
Structure prediction by ZEFSAII (Michael W. Deem and Ramdas Pophale) SiO2 
 PCOD8177216
Probable space group: A M M 2
;
_chemical_formula_sum "Si O2"
_cell_formula_units_Z 56
_cell_length_a 8.552549
_cell_length_b 19.854770
_cell_length_c 15.222943
_cell_angle_alpha 90.000000
_cell_angle_beta 90.000000
_cell_angle_gamma 90.000000
_cell_volume 2584.991104
_symmetry_space_group_name_H-M "A M M 2"
_symmetry_group_IT_number 38
_symmetry_cell_setting 'orthorhombic'
loop_
_space_group_symop_operation_xyz
x,y,z
-x,-y,z
-x,y,z
x,-y,z
x,1/2+y,1/2+z
-x,1/2-y,1/2+z
-x,1/2+y,1/2+z
x,1/2-y,1/2+z
loop_
_atom_site_type_symbol
_atom_site_label
_atom_site_fract_x
_atom_site_fract_y
_atom_site_fract_z
Si Si1 0.685543 0.576934 0.021890
Si Si2 0.818240 0.132299 0.696611
Si Si3 0.316570 0.277685 0.688631
Si Si4 0.665169 0.500000 0.771830
Si Si5 0.823674 0.000000 0.104095
Si Si6 0.327224 0.142228 0.352979
Si Si7 0.186062 0.862032 0.033384
Si Si8 0.317254 0.576831 0.369386
O O1 0.500000 0.586354 0.036610
O O2 0.722810 0.500000 0.993054
O O3 0.779184 0.590176 0.110489
O O4 0.746681 0.634713 0.951090
O O5 0.715513 0.199613 0.699448
O O6 0.773969 0.085968 0.778751
O O7 0.000000 0.151392 0.699192
O O8 0.500000 0.293144 0.684633
O O9 0.240588 0.316122 0.774796
O O10 0.243852 0.302254 0.596205
O O11 0.500000 0.500000 0.717071
O O12 0.814625 0.500000 0.709115
O O13 0.665921 0.435987 0.832508
O O14 0.743556 0.068323 0.071658
O O15 0.000000 0.000000 0.070982
O O16 0.500000 0.174193 0.360974
O O17 0.256678 0.863778 0.935071
O O18 0.000000 0.858474 0.028960
O O19 0.500000 0.587245 0.353160
O O20 0.281544 0.500000 0.403157
#
# Coordination Sequence:
#
# PCOD8177216 Si02
#       8
#     8   8   8   4   4   8   8   8
#     4  10  20  39  67  95 122 155 201 257 313 372
#     4  12  27  45  62  85 124 169 212 263 319 373
#     4  11  23  41  64  92 127 169 214 255 302 373
#     4  10  16  30  56  89 122 155 198 245 304 362
#     4  10  20  32  52  87 130 167 196 241 308 374
#     4   9  18  33  61  95 123 153 194 249 305 360
#     4  11  22  38  61  94 132 167 203 251 318 380
#     4  11  24  43  69  97 122 158 212 267 317 375
#
# _framework density 21.663518
#
# number of rings (size 3 to 8) (size 9 to 14) (size 15 to 20)
#    0.000    1.429    2.857    3.000    0.000    4.571 
#    0.000    6.429    0.000    0.000    0.000    0.000 
#    0.000    0.000    0.000    0.000    0.000    0.000 
#
# Total GULP energy -346920.217440 kJ/mol
# GULP energy per Si atom -12390.007766 kJ/mol
# Density = 2.161421 g / cm^3
# Si number density = 21.663518 Si / 1000 Ang^3
#
#
#
# Elastic Constant Matrix: (Units=GPa)
#
#
# Indices 1 2 3 4 5 6 
#
# 1 66.5103 11.9851 31.7492 0.0000 0.0000 0.0000
# 2 11.9851 69.5585 17.9434 0.0000 0.0000 0.0000
# 3 31.7492 17.9434 138.7885 0.0000 0.0000 0.0000
# 4 0.0000 0.0000 0.0000 1.8461 0.0000 0.0000
# 5 0.0000 0.0000 0.0000 0.0000 21.2405 0.0000
# 6 0.0000 0.0000 0.0000 0.0000 0.0000 51.5449
#
#
#
# Elastic Compliance Matrix: (Units=1/GPa)
#
#
# Indices 1 2 3 4 5 6 
#
# 1 0.017146 -0.002009 -0.003662 0.000000 0.000000 0.000000
# 2 -0.002009 0.015108 -0.001494 0.000000 0.000000 0.000000
# 3 -0.003662 -0.001494 0.008236 0.000000 0.000000 0.000000
# 4 0.000000 0.000000 0.000000 0.541676 0.000000 0.000000
# 5 0.000000 0.000000 0.000000 0.000000 0.047080 0.000000
# 6 0.000000 0.000000 0.000000 0.000000 0.000000 0.019401
#
#
# Mechanical properties :
#
#
# Convention : Reuss Voigt Hill
#
# Bulk Modulus (GPa) = 38.22810 44.24585 41.23698
# Shear Modulus (GPa) = 7.44384 29.13827 18.29105
#
# Velocity S-wave (km/s) = 1.85569 3.67146 2.90888
# Velocity P-wave (km/s) = 4.71975 6.20010 5.50987
#
# Compressibility (1/GPa) = 0.02615877
#
# Stress axis : x y z
#
# Youngs Moduli (GPa) = 58.32378 66.19053 121.41643
#
# Poissons Ratio (x) = 0.13301 0.44468
# Poissons Ratio (y) = 0.11720 0.18134
# Poissons Ratio (z) = 0.21361 0.09886
#
# Static dielectric constant tensor:
#      x y z
#    x 3.647690 0.000000 0.000000 
#    y 0.000000 3.831440 0.000000 
#    z 0.000000 0.000000 4.182470 
# 
# 
# High freq. dielectric constant tensor:
#      x y z
#    x 1.823230 0.000000 0.000000 
#    y 0.000000 1.844130 0.000000 
#    z 0.000000 0.000000 1.867390 
# 
# From -- ./inp_files/12509.got.cif
#   From: 2010.03.12/outbox.cif.g09.slc.cpg/sg38_7_cif.got.tgz:12509.got - 2010.04.14 02:38:36.
