data_PCOD8177806
_publ_section_title
;
Structure prediction by ZEFSAII (Michael W. Deem and Ramdas Pophale) SiO2 
 PCOD8177806
Probable space group: A M M 2
;
_chemical_formula_sum "Si O2"
_cell_formula_units_Z 48
_cell_length_a 8.670970
_cell_length_b 18.089909
_cell_length_c 15.035356
_cell_angle_alpha 90.000000
_cell_angle_beta 90.000000
_cell_angle_gamma 90.000000
_cell_volume 2358.401712
_symmetry_space_group_name_H-M "A M M 2"
_symmetry_group_IT_number 38
_symmetry_cell_setting 'orthorhombic'
loop_
_space_group_symop_operation_xyz
x,y,z
-x,-y,z
-x,y,z
x,-y,z
x,1/2+y,1/2+z
-x,1/2-y,1/2+z
-x,1/2+y,1/2+z
x,1/2-y,1/2+z
loop_
_atom_site_type_symbol
_atom_site_label
_atom_site_fract_x
_atom_site_fract_y
_atom_site_fract_z
Si Si1 0.816616 0.500000 0.380570
Si Si2 0.322929 0.417898 0.858791
Si Si3 0.180686 0.769606 0.296630
Si Si4 0.174217 0.107210 0.537365
Si Si5 0.174827 0.729911 0.595233
Si Si6 0.180070 0.500000 0.185427
Si Si7 0.680612 0.653145 0.436319
O O1 0.741497 0.500000 0.281674
O O2 0.758568 0.573740 0.427544
O O3 0.000000 0.500000 0.382273
O O4 0.500000 0.395632 0.842743
O O5 0.289543 0.500000 0.818183
O O6 0.214293 0.355469 0.817103
O O7 0.290833 0.422172 0.963642
O O8 0.237714 0.757420 0.195217
O O9 0.262077 0.712613 0.363357
O O10 0.000000 0.754332 0.305971
O O11 0.179685 0.194553 0.541011
O O12 0.228693 0.073174 0.631278
O O13 0.000000 0.080181 0.515394
O O14 0.281611 0.675806 0.537919
O O15 0.000000 0.698959 0.599207
O O16 0.000000 0.500000 0.204204
O O17 0.500000 0.645445 0.424454
#
# Coordination Sequence:
#
# PCOD8177806 Si02
#       7
#     4   8   8   8   8   4   8
#     4  11  23  43  67  90 123 168 217 263 308 370
#     4  11  23  38  57  88 128 165 200 250 315 372
#     4  11  23  42  68  94 122 164 217 263 308 374
#     4  10  18  33  60  89 119 154 200 253 307 367
#     4  10  22  40  64  93 121 163 217 264 308 369
#     4   9  18  33  59  94 121 154 203 259 308 358
#     4  12  25  42  65  95 132 168 205 261 328 381
#
# _framework density 20.352768999999999
#
# number of rings (size 3 to 8) (size 9 to 14) (size 15 to 20)
#    0.000    1.333    2.500    3.750    0.000    5.000 
#    1.500    3.333    0.000    0.000    0.000    0.000 
#    0.000    0.000    0.000    0.000    0.000    0.000 
#
# Total GULP energy -297549.861707 kJ/mol
# GULP energy per Si atom -12397.910904 kJ/mol
# Density = 2.030644 g / cm^3
# Si number density = 20.352769 Si / 1000 Ang^3
#
#
#
# Elastic Constant Matrix: (Units=GPa)
#
#
# Indices 1 2 3 4 5 6 
#
# 1 80.3894 36.0207 33.0565 0.0000 0.0000 0.0000
# 2 36.0207 121.1370 30.4504 0.0000 0.0000 0.0000
# 3 33.0565 30.4504 89.3134 0.0000 0.0000 0.0000
# 4 0.0000 0.0000 0.0000 25.3816 0.0000 0.0000
# 5 0.0000 0.0000 0.0000 0.0000 10.4202 0.0000
# 6 0.0000 0.0000 0.0000 0.0000 0.0000 26.5539
#
#
#
# Elastic Compliance Matrix: (Units=1/GPa)
#
#
# Indices 1 2 3 4 5 6 
#
# 1 0.015968 -0.003568 -0.004694 0.000000 0.000000 0.000000
# 2 -0.003568 0.009826 -0.002029 0.000000 0.000000 0.000000
# 3 -0.004694 -0.002029 0.013626 0.000000 0.000000 0.000000
# 4 0.000000 0.000000 0.000000 0.039399 0.000000 0.000000
# 5 0.000000 0.000000 0.000000 0.000000 0.095967 0.000000
# 6 0.000000 0.000000 0.000000 0.000000 0.000000 0.037659
#
#
# Mechanical properties :
#
#
# Convention : Reuss Voigt Hill
#
# Bulk Modulus (GPa) = 53.08570 54.43275 53.75923
# Shear Modulus (GPa) = 20.89363 25.22531 23.05947
#
# Velocity S-wave (km/s) = 3.20750 3.52434 3.36964
# Velocity P-wave (km/s) = 6.31322 6.58513 6.45061
#
# Compressibility (1/GPa) = 0.01883747
#
# Stress axis : x y z
#
# Youngs Moduli (GPa) = 62.62359 101.76708 73.39115
#
# Poissons Ratio (x) = 0.36315 0.34447
# Poissons Ratio (y) = 0.22347 0.14894
# Poissons Ratio (z) = 0.29393 0.20653
#
# Static dielectric constant tensor:
#      x y z
#    x 3.543050 0.000000 0.000000 
#    y 0.000000 3.815410 0.000000 
#    z 0.000000 0.000000 3.793790 
# 
# 
# High freq. dielectric constant tensor:
#      x y z
#    x 1.780860 0.000000 0.000000 
#    y 0.000000 1.805650 0.000000 
#    z 0.000000 0.000000 1.793200 
# 
# From -- ./inp_files/12149.got.cif
#   From: 2010.03.12/outbox.cif.g09.slc.cpg/sg38_7_cif.got.tgz:12149.got - 2010.04.14 02:38:36.
