data_PCOD8177731
_publ_section_title
;
Structure prediction by ZEFSAII (Michael W. Deem and Ramdas Pophale) SiO2 
 PCOD8177731
Probable space group: A M M 2
;
_chemical_formula_sum "Si O2"
_cell_formula_units_Z 56
_cell_length_a 16.575968
_cell_length_b 9.125294
_cell_length_c 20.488923
_cell_angle_alpha 90.000000
_cell_angle_beta 90.000000
_cell_angle_gamma 90.000000
_cell_volume 3099.166404
_symmetry_space_group_name_H-M "A M M 2"
_symmetry_group_IT_number 38
_symmetry_cell_setting 'orthorhombic'
loop_
_space_group_symop_operation_xyz
x,y,z
-x,-y,z
-x,y,z
x,-y,z
x,1/2+y,1/2+z
-x,1/2-y,1/2+z
-x,1/2+y,1/2+z
x,1/2-y,1/2+z
loop_
_atom_site_type_symbol
_atom_site_label
_atom_site_fract_x
_atom_site_fract_y
_atom_site_fract_z
Si Si1 0.408234 0.172495 0.966880
Si Si2 0.000000 0.174814 0.334428
Si Si3 0.745019 0.674579 0.013066
Si Si4 0.831169 0.673975 0.882325
Si Si5 0.592052 0.667028 0.317931
Si Si6 0.828623 0.173190 0.133100
Si Si7 0.730948 0.172351 0.260455
Si Si8 0.000000 0.326778 0.686986
O O1 0.500000 0.209443 0.988797
O O2 0.395643 0.223617 0.892052
O O3 0.392340 0.000000 0.974151
O O4 0.345723 0.260465 0.012495
O O5 0.077433 0.232083 0.374552
O O6 0.000000 0.238695 0.260488
O O7 0.000000 0.000000 0.330103
O O8 0.739856 0.500000 0.017273
O O9 0.796205 0.735806 0.072649
O O10 0.792018 0.731459 0.948953
O O11 0.830037 0.500000 0.880946
O O12 0.781598 0.736319 0.821076
O O13 0.500000 0.684616 0.296765
O O14 0.620192 0.500000 0.313574
O O15 0.641997 0.760297 0.265518
O O16 0.773453 0.219410 0.193943
O O17 0.920399 0.223555 0.147771
O O18 0.823569 0.000000 0.119022
O O19 0.723437 0.000000 0.264938
O O20 0.000000 0.500000 0.694051
#
# Coordination Sequence:
#
# PCOD8177731 Si02
#       8
#     8   4   8   8   8   8   8   4
#     4   9  18  34  56  80 106 139 179 222 269 322
#     4   9  14  27  52  79 105 134 177 226 268 309
#     4  11  22  35  52  80 115 146 177 219 274 327
#     4   9  17  29  49  78 106 132 171 222 266 307
#     4   9  18  32  52  80 111 141 173 214 269 325
#     4  10  21  36  56  79 107 145 186 225 266 317
#     4  10  18  32  54  80 105 134 178 226 264 307
#     4   9  16  31  55  79 101 136 183 226 266 315
#
# _framework density 18.069375000000001
#
# number of rings (size 3 to 8) (size 9 to 14) (size 15 to 20)
#    0.000    2.429    2.857    1.286    0.000    1.714 
#    0.000    3.214    0.000    0.857    0.000    1.500 
#    0.000    0.000    0.000    0.000    0.000    0.000 
#
# Total GULP energy -347149.767475 kJ/mol
# GULP energy per Si atom -12398.205981 kJ/mol
# Density = 1.802825 g / cm^3
# Si number density = 18.069375 Si / 1000 Ang^3
#
#
#
# Elastic Constant Matrix: (Units=GPa)
#
#
# Indices 1 2 3 4 5 6 
#
# 1 135.2017 36.7681 65.1401 0.0000 0.0000 0.0000
# 2 36.7681 32.8977 38.0813 0.0000 0.0000 0.0000
# 3 65.1401 38.0813 112.4126 0.0000 0.0000 0.0000
# 4 0.0000 0.0000 0.0000 26.4796 0.0000 0.0000
# 5 0.0000 0.0000 0.0000 0.0000 31.4769 0.0000
# 6 0.0000 0.0000 0.0000 0.0000 0.0000 21.8810
#
#
#
# Elastic Compliance Matrix: (Units=1/GPa)
#
#
# Indices 1 2 3 4 5 6 
#
# 1 0.011541 -0.008484 -0.003813 0.000000 0.000000 0.000000
# 2 -0.008484 0.056245 -0.014137 0.000000 0.000000 0.000000
# 3 -0.003813 -0.014137 0.015895 0.000000 0.000000 0.000000
# 4 0.000000 0.000000 0.000000 0.037765 0.000000 0.000000
# 5 0.000000 0.000000 0.000000 0.000000 0.031769 0.000000
# 6 0.000000 0.000000 0.000000 0.000000 0.000000 0.045702
#
#
# Mechanical properties :
#
#
# Convention : Reuss Voigt Hill
#
# Bulk Modulus (GPa) = 32.45675 62.27678 47.36676
# Shear Modulus (GPa) = 19.07986 25.33569 22.20777
#
# Velocity S-wave (km/s) = 3.25302 3.74857 3.50955
# Velocity P-wave (km/s) = 5.66664 7.29903 6.53402
#
# Compressibility (1/GPa) = 0.03081023
#
# Stress axis : x y z
#
# Youngs Moduli (GPa) = 86.64726 17.77949 62.91378
#
# Poissons Ratio (x) = 0.15085 0.23992
# Poissons Ratio (y) = 0.73516 0.88942
# Poissons Ratio (z) = 0.33043 0.25135
#
# Static dielectric constant tensor:
#      x y z
#    x 3.563470 0.000000 0.000000 
#    y 0.000000 2.951520 0.000000 
#    z 0.000000 0.000000 3.261850 
# 
# 
# High freq. dielectric constant tensor:
#      x y z
#    x 1.716170 0.000000 0.000000 
#    y 0.000000 1.665770 0.000000 
#    z 0.000000 0.000000 1.686060 
# 
# From -- ./inp_files/21157.got.cif
#   From: 2010.03.12/outbox.cif.g09.slc.cpg/sg38_11_cif.got.tgz:21157.got - 2010.04.14 02:38:36.
