data_PCOD8177272
_publ_section_title
;
Structure prediction by ZEFSAII (Michael W. Deem and Ramdas Pophale) SiO2 
 PCOD8177272
Probable space group: A M M 2
;
_chemical_formula_sum "Si O2"
_cell_formula_units_Z 48
_cell_length_a 9.464267
_cell_length_b 11.951620
_cell_length_c 25.108046
_cell_angle_alpha 90.000000
_cell_angle_beta 90.000000
_cell_angle_gamma 90.000000
_cell_volume 2840.054511
_symmetry_space_group_name_H-M "A M M 2"
_symmetry_group_IT_number 38
_symmetry_cell_setting 'orthorhombic'
loop_
_space_group_symop_operation_xyz
x,y,z
-x,-y,z
-x,y,z
x,-y,z
x,1/2+y,1/2+z
-x,1/2-y,1/2+z
-x,1/2+y,1/2+z
x,1/2-y,1/2+z
loop_
_atom_site_type_symbol
_atom_site_label
_atom_site_fract_x
_atom_site_fract_y
_atom_site_fract_z
Si Si1 0.667835 0.626032 0.189370
Si Si2 0.332578 0.500000 0.768656
Si Si3 0.835619 0.128108 0.003174
Si Si4 0.332385 0.243531 0.293946
Si Si5 0.666939 0.222013 0.093551
Si Si6 0.332830 0.000000 0.151529
Si Si7 0.160117 0.369875 0.380846
O O1 0.500000 0.626105 0.191249
O O2 0.728236 0.500000 0.193988
O O3 0.723821 0.700183 0.238953
O O4 0.715585 0.677008 0.132323
O O5 0.500000 0.500000 0.763487
O O6 0.283575 0.613729 0.797698
O O7 0.264957 0.500000 0.709968
O O8 0.748212 0.220055 0.037208
O O9 0.000000 0.139586 0.017016
O O10 0.785394 0.000000 0.014051
O O11 0.806957 0.158960 0.941964
O O12 0.500000 0.255617 0.296996
O O13 0.267845 0.302709 0.344774
O O14 0.500000 0.225759 0.082673
O O15 0.719309 0.109288 0.121573
O O16 0.500000 0.000000 0.156104
O O17 0.183706 0.500000 0.369889
O O18 0.000000 0.335721 0.366615
#
# Coordination Sequence:
#
# PCOD8177272 Si02
#       7
#     8   4   8   8   8   4   8
#     4   9  17  28  45  72 102 128 153 187 235 284
#     4   9  16  28  47  73 103 129 151 188 243 288
#     4   9  18  32  49  69  94 123 154 194 244 285
#     4  10  18  30  51  75  98 125 160 198 235 281
#     4  10  17  27  48  73  96 122 155 192 228 276
#     4   9  14  24  43  71  99 123 147 180 233 282
#     4   9  19  35  51  68  95 129 160 196 245 289
#
# _framework density 16.901084000000001
#
# number of rings (size 3 to 8) (size 9 to 14) (size 15 to 20)
#    0.000    2.667    2.500    1.500    0.000    1.667 
#    0.000    2.917    1.833    2.500    0.000    0.000 
#    0.000    0.000    0.000    0.000    0.000    0.000 
#
# Total GULP energy -297468.039801 kJ/mol
# GULP energy per Si atom -12394.501658 kJ/mol
# Density = 1.686262 g / cm^3
# Si number density = 16.901084 Si / 1000 Ang^3
#
#
#
# Elastic Constant Matrix: (Units=GPa)
#
#
# Indices 1 2 3 4 5 6 
#
# 1 35.3447 29.9945 42.3353 0.0000 0.0000 0.0000
# 2 29.9945 111.1227 59.3352 0.0000 0.0000 0.0000
# 3 42.3353 59.3352 112.2242 0.0000 0.0000 0.0000
# 4 0.0000 0.0000 0.0000 27.3550 0.0000 0.0000
# 5 0.0000 0.0000 0.0000 0.0000 7.0107 0.0000
# 6 0.0000 0.0000 0.0000 0.0000 0.0000 16.4056
#
#
#
# Elastic Compliance Matrix: (Units=1/GPa)
#
#
# Indices 1 2 3 4 5 6 
#
# 1 0.053625 -0.005118 -0.017524 0.000000 0.000000 0.000000
# 2 -0.005118 0.013027 -0.004957 0.000000 0.000000 0.000000
# 3 -0.017524 -0.004957 0.018142 0.000000 0.000000 0.000000
# 4 0.000000 0.000000 0.000000 0.036556 0.000000 0.000000
# 5 0.000000 0.000000 0.000000 0.000000 0.142639 0.000000
# 6 0.000000 0.000000 0.000000 0.000000 0.000000 0.060955
#
#
# Mechanical properties :
#
#
# Convention : Reuss Voigt Hill
#
# Bulk Modulus (GPa) = 33.78633 58.00239 45.89436
# Shear Modulus (GPa) = 12.82022 18.62269 15.72146
#
# Velocity S-wave (km/s) = 2.75716 3.32303 3.05323
# Velocity P-wave (km/s) = 5.49271 7.00833 6.29629
#
# Compressibility (1/GPa) = 0.02959777
#
# Stress axis : x y z
#
# Youngs Moduli (GPa) = 18.64789 76.76106 55.11963
#
# Poissons Ratio (x) = 0.39284 0.96590
# Poissons Ratio (y) = 0.09543 0.27324
# Poissons Ratio (z) = 0.32678 0.38052
#
# Static dielectric constant tensor:
#      x y z
#    x 2.773390 0.000000 0.000000 
#    y 0.000000 3.277400 0.000000 
#    z 0.000000 0.000000 3.173500 
# 
# 
# High freq. dielectric constant tensor:
#      x y z
#    x 1.612700 0.000000 0.000000 
#    y 0.000000 1.642780 0.000000 
#    z 0.000000 0.000000 1.654860 
# 
# From -- ./inp_files/22500.got.cif
#   From: 2010.03.12/outbox.cif.g09.slc.cpg/sg38_12_cif.got.tgz:22500.got - 2010.04.14 02:38:36.
