data_PCOD8177520
_publ_section_title
;
Structure prediction by ZEFSAII (Michael W. Deem and Ramdas Pophale) SiO2 
 PCOD8177520
Probable space group: A M M 2
;
_chemical_formula_sum "Si O2"
_cell_formula_units_Z 56
_cell_length_a 21.611821
_cell_length_b 9.229345
_cell_length_c 15.241228
_cell_angle_alpha 90.000000
_cell_angle_beta 90.000000
_cell_angle_gamma 90.000000
_cell_volume 3040.060330
_symmetry_space_group_name_H-M "A M M 2"
_symmetry_group_IT_number 38
_symmetry_cell_setting 'orthorhombic'
loop_
_space_group_symop_operation_xyz
x,y,z
-x,-y,z
-x,y,z
x,-y,z
x,1/2+y,1/2+z
-x,1/2-y,1/2+z
-x,1/2+y,1/2+z
x,1/2-y,1/2+z
loop_
_atom_site_type_symbol
_atom_site_label
_atom_site_fract_x
_atom_site_fract_y
_atom_site_fract_z
Si Si1 0.789021 0.170585 0.706280
Si Si2 0.000000 0.336339 0.868862
Si Si3 0.878721 0.669427 0.051900
Si Si4 0.429032 0.169384 0.863460
Si Si5 0.350422 0.327594 0.200545
Si Si6 0.134824 0.835724 0.348692
Si Si7 0.000000 0.828442 0.043674
Si Si8 0.571004 0.669499 0.038093
O O1 0.822708 0.214279 0.615825
O O2 0.719465 0.232059 0.700634
O O3 0.821734 0.234156 0.791960
O O4 0.788678 0.000000 0.719551
O O5 0.936538 0.318730 0.813868
O O6 0.000000 0.500000 0.911499
O O7 0.000000 0.212430 0.941616
O O8 0.894394 0.500000 0.059516
O O9 0.861095 0.709001 0.951485
O O10 0.938168 0.759567 0.085694
O O11 0.500000 0.204452 0.839374
O O12 0.386037 0.230163 0.786018
O O13 0.419163 0.000000 0.878763
O O14 0.407699 0.250526 0.950563
O O15 0.352113 0.500000 0.199211
O O16 0.386057 0.268499 0.115347
O O17 0.157634 0.000000 0.336477
O O18 0.000000 0.000000 0.057795
O O19 0.500000 0.704553 0.061977
O O20 0.581040 0.500000 0.023372
#
# Coordination Sequence:
#
# PCOD8177520 Si02
#       8
#     8   4   8   8   8   8   4   8
#     4  10  21  35  51  72  98 133 174 205 235 288
#     4   8  16  33  54  73  98 132 162 195 251 309
#     4   9  19  36  53  70  99 135 164 197 249 304
#     4   9  17  31  52  76 101 129 161 201 251 297
#     4   9  18  33  51  71  99 135 170 201 239 292
#     4   9  18  34  54  74  99 129 161 202 252 299
#     4  10  18  29  52  81 100 120 160 211 253 289
#     4   9  17  31  53  78 100 126 165 208 245 287
#
# _framework density 18.420687000000001
#
# number of rings (size 3 to 8) (size 9 to 14) (size 15 to 20)
#    0.000    2.857    0.000    1.929    0.000    6.286 
#    0.000    5.000    0.000    3.429    0.000    0.000 
#    0.000    0.000    0.000    0.000    0.000    0.000 
#
# Total GULP energy -347112.842634 kJ/mol
# GULP energy per Si atom -12396.887237 kJ/mol
# Density = 1.837876 g / cm^3
# Si number density = 18.420687 Si / 1000 Ang^3
#
#
#
# Elastic Constant Matrix: (Units=GPa)
#
#
# Indices 1 2 3 4 5 6 
#
# 1 155.8535 42.8611 97.0663 0.0000 0.0000 0.0000
# 2 42.8611 43.1669 41.0586 0.0000 0.0000 0.0000
# 3 97.0663 41.0586 137.6107 0.0000 0.0000 0.0000
# 4 0.0000 0.0000 0.0000 28.6671 0.0000 0.0000
# 5 0.0000 0.0000 0.0000 0.0000 22.5953 0.0000
# 6 0.0000 0.0000 0.0000 0.0000 0.0000 20.8374
#
#
#
# Elastic Compliance Matrix: (Units=1/GPa)
#
#
# Indices 1 2 3 4 5 6 
#
# 1 0.012325 -0.005541 -0.007040 0.000000 0.000000 0.000000
# 2 -0.005541 0.034837 -0.006486 0.000000 0.000000 0.000000
# 3 -0.007040 -0.006486 0.014168 0.000000 0.000000 0.000000
# 4 0.000000 0.000000 0.000000 0.034883 0.000000 0.000000
# 5 0.000000 0.000000 0.000000 0.000000 0.044257 0.000000
# 6 0.000000 0.000000 0.000000 0.000000 0.000000 0.047991
#
#
# Mechanical properties :
#
#
# Convention : Reuss Voigt Hill
#
# Bulk Modulus (GPa) = 43.11188 77.62256 60.36722
# Shear Modulus (GPa) = 21.33779 24.79629 23.06704
#
# Velocity S-wave (km/s) = 3.40716 3.67292 3.54253
# Velocity P-wave (km/s) = 6.23965 7.75999 7.04097
#
# Compressibility (1/GPa) = 0.02319546
#
# Stress axis : x y z
#
# Youngs Moduli (GPa) = 81.13676 28.70544 70.58174
#
# Poissons Ratio (x) = 0.15906 0.49692
# Poissons Ratio (y) = 0.44959 0.45776
# Poissons Ratio (z) = 0.57123 0.18617
#
# Static dielectric constant tensor:
#      x y z
#    x 3.616100 0.000000 0.000000 
#    y 0.000000 3.109920 0.000000 
#    z 0.000000 0.000000 3.351930 
# 
# 
# High freq. dielectric constant tensor:
#      x y z
#    x 1.718510 0.000000 0.000000 
#    y 0.000000 1.688650 0.000000 
#    z 0.000000 0.000000 1.709590 
# 
# From -- ./inp_files/15541.got.cif
#   From: 2010.03.12/outbox.cif.g09.slc.cpg/sg38_8_cif.got.tgz:15541.got - 2010.04.14 02:38:36.
