data_PCOD8177231
_publ_section_title
;
Structure prediction by ZEFSAII (Michael W. Deem and Ramdas Pophale) SiO2 
 PCOD8177231
Probable space group: A M M 2
;
_chemical_formula_sum "Si O2"
_cell_formula_units_Z 56
_cell_length_a 8.970719
_cell_length_b 22.484674
_cell_length_c 17.683137
_cell_angle_alpha 90.000000
_cell_angle_beta 90.000000
_cell_angle_gamma 90.000000
_cell_volume 3566.754024
_symmetry_space_group_name_H-M "A M M 2"
_symmetry_group_IT_number 38
_symmetry_cell_setting 'orthorhombic'
loop_
_space_group_symop_operation_xyz
x,y,z
-x,-y,z
-x,y,z
x,-y,z
x,1/2+y,1/2+z
-x,1/2-y,1/2+z
-x,1/2+y,1/2+z
x,1/2-y,1/2+z
loop_
_atom_site_type_symbol
_atom_site_label
_atom_site_fract_x
_atom_site_fract_y
_atom_site_fract_z
Si Si1 0.176254 0.655282 0.191790
Si Si2 0.664964 0.682832 0.589179
Si Si3 0.668594 0.680173 0.043643
Si Si4 0.322564 0.275091 0.746261
Si Si5 0.174537 0.846396 0.947072
Si Si6 0.176263 0.566240 0.320746
Si Si7 0.823854 0.713820 0.899040
O O1 0.247359 0.643718 0.109439
O O2 0.245025 0.711754 0.234201
O O3 0.215752 0.597650 0.241679
O O4 0.000000 0.665671 0.183919
O O5 0.500000 0.656513 0.580644
O O6 0.668631 0.751553 0.567010
O O7 0.717168 0.680144 0.676743
O O8 0.767290 0.644642 0.532757
O O9 0.500000 0.656257 0.034357
O O10 0.758195 0.672075 0.965295
O O11 0.500000 0.265625 0.752058
O O12 0.256053 0.305267 0.821328
O O13 0.243268 0.896232 0.891317
O O14 0.219814 0.782105 0.915064
O O15 0.000000 0.852925 0.950889
O O16 0.245788 0.500000 0.321170
O O17 0.000000 0.563251 0.330209
O O18 0.000000 0.704192 0.893133
#
# Coordination Sequence:
#
# PCOD8177231 Si02
#       7
#     8   8   8   8   8   8   8
#     4  10  17  28  43  59  80 110 147 183 215 249
#     4   8  16  27  38  55  78 108 139 166 204 251
#     4   9  17  28  40  58  82 111 140 169 213 260
#     4  10  18  27  40  59  85 115 142 170 211 260
#     4   9  16  27  41  58  78 106 141 175 211 245
#     4   9  17  29  44  62  84 111 146 185 221 252
#     4  10  17  26  41  63  85 109 143 176 206 249
#
# _framework density 15.700551000000001
#
# number of rings (size 3 to 8) (size 9 to 14) (size 15 to 20)
#    0.000    2.714    1.429    2.571    0.000    4.571 
#    0.000    0.000    0.000    3.857    0.000    0.000 
#    0.000    1.143    0.000   11.143    0.000    3.143 
#
# Total GULP energy -347062.432678 kJ/mol
# GULP energy per Si atom -12395.086881 kJ/mol
# Density = 1.566482 g / cm^3
# Si number density = 15.700551 Si / 1000 Ang^3
#
#
#
# Elastic Constant Matrix: (Units=GPa)
#
#
# Indices 1 2 3 4 5 6 
#
# 1 64.0673 20.1326 51.2674 0.0000 0.0000 0.0000
# 2 20.1326 46.5524 40.6961 0.0000 0.0000 0.0000
# 3 51.2674 40.6961 158.5885 0.0000 0.0000 0.0000
# 4 0.0000 0.0000 0.0000 15.8754 0.0000 0.0000
# 5 0.0000 0.0000 0.0000 0.0000 31.8964 0.0000
# 6 0.0000 0.0000 0.0000 0.0000 0.0000 7.1724
#
#
#
# Elastic Compliance Matrix: (Units=1/GPa)
#
#
# Indices 1 2 3 4 5 6 
#
# 1 0.021670 -0.004187 -0.005931 0.000000 0.000000 0.000000
# 2 -0.004187 0.028503 -0.005961 0.000000 0.000000 0.000000
# 3 -0.005931 -0.005961 0.009753 0.000000 0.000000 0.000000
# 4 0.000000 0.000000 0.000000 0.062991 0.000000 0.000000
# 5 0.000000 0.000000 0.000000 0.000000 0.031351 0.000000
# 6 0.000000 0.000000 0.000000 0.000000 0.000000 0.139423
#
#
# Mechanical properties :
#
#
# Convention : Reuss Voigt Hill
#
# Bulk Modulus (GPa) = 36.01218 54.82226 45.41722
# Shear Modulus (GPa) = 14.92072 21.46298 18.19185
#
# Velocity S-wave (km/s) = 3.08609 3.70134 3.40763
# Velocity P-wave (km/s) = 5.97372 7.29793 6.66877
#
# Compressibility (1/GPa) = 0.02776838
#
# Stress axis : x y z
#
# Youngs Moduli (GPa) = 46.14598 35.08435 102.53719
#
# Poissons Ratio (x) = 0.14690 0.60815
# Poissons Ratio (y) = 0.19321 0.61119
# Poissons Ratio (z) = 0.27369 0.20913
#
# Static dielectric constant tensor:
#      x y z
#    x 2.993430 0.000000 0.000000 
#    y 0.000000 2.608130 0.000000 
#    z 0.000000 0.000000 3.386460 
# 
# 
# High freq. dielectric constant tensor:
#      x y z
#    x 1.603300 0.000000 0.000000 
#    y 0.000000 1.527830 0.000000 
#    z 0.000000 0.000000 1.621480 
# 
# From -- ./inp_files/17079.got.cif
#   From: 2010.03.12/outbox.cif.g09.slc.cpg/sg38_9_cif.got.tgz:17079.got - 2010.04.14 02:38:36.
