data_PCOD8177653
_publ_section_title
;
Structure prediction by ZEFSAII (Michael W. Deem and Ramdas Pophale) SiO2 
 PCOD8177653
Probable space group: A M M 2
;
_chemical_formula_sum "Si O2"
_cell_formula_units_Z 64
_cell_length_a 8.787266
_cell_length_b 23.202530
_cell_length_c 19.145683
_cell_angle_alpha 90.000000
_cell_angle_beta 90.000000
_cell_angle_gamma 90.000000
_cell_volume 3903.552098
_symmetry_space_group_name_H-M "A M M 2"
_symmetry_group_IT_number 38
_symmetry_cell_setting 'orthorhombic'
loop_
_space_group_symop_operation_xyz
x,y,z
-x,-y,z
-x,y,z
x,-y,z
x,1/2+y,1/2+z
-x,1/2-y,1/2+z
-x,1/2+y,1/2+z
x,1/2-y,1/2+z
loop_
_atom_site_type_symbol
_atom_site_label
_atom_site_fract_x
_atom_site_fract_y
_atom_site_fract_z
Si Si1 0.821427 0.656501 0.235930
Si Si2 0.676444 0.761028 0.969569
Si Si3 0.325918 0.282870 0.114366
Si Si4 0.679924 0.434196 0.326171
Si Si5 0.179018 0.117134 0.964459
Si Si6 0.675571 0.334302 0.692140
Si Si7 0.678628 0.934683 0.098641
Si Si8 0.678769 0.238577 0.315169
O O1 0.777810 0.671909 0.156129
O O2 0.746081 0.595842 0.256731
O O3 0.763755 0.704392 0.290145
O O4 0.000000 0.650931 0.242549
O O5 0.500000 0.780505 0.972924
O O6 0.779672 0.816847 0.979908
O O7 0.712853 0.728450 0.896784
O O8 0.712210 0.715732 0.031748
O O9 0.500000 0.299693 0.129249
O O10 0.292342 0.218077 0.139633
O O11 0.500000 0.429211 0.325639
O O12 0.735174 0.500000 0.326356
O O13 0.741399 0.401966 0.393754
O O14 0.000000 0.110610 0.955863
O O15 0.235234 0.076191 0.026470
O O16 0.500000 0.347990 0.700469
O O17 0.747947 0.392298 0.658861
O O18 0.738499 0.316301 0.769310
O O19 0.500000 0.922811 0.085832
O O20 0.708306 0.000000 0.123092
O O21 0.500000 0.248308 0.300371
#
# Coordination Sequence:
#
# PCOD8177653 Si02
#       8
#     8   8   8   8   8   8   8   8
#     4  11  21  32  48  73 100 125 156 202 252 293
#     4  10  18  31  52  72  94 130 169 200 236 289
#     4   9  17  31  50  68  92 126 163 201 239 288
#     4  11  23  38  54  69  91 130 174 206 236 287
#     4  12  23  32  45  69 102 132 160 204 248 285
#     4   8  14  27  45  68  91 117 159 205 241 276
#     4  10  19  32  49  66  91 132 174 204 234 283
#     4   9  17  30  50  70  93 126 163 201 242 290
#
# _framework density 16.395323000000001
#
# number of rings (size 3 to 8) (size 9 to 14) (size 15 to 20)
#    0.000    2.000    2.500    3.750    0.000    3.250 
#    0.000    0.000    0.000    0.000    0.000    0.875 
#    0.000    5.000    0.000    0.000    0.000    0.000 
#
# Total GULP energy -396705.267112 kJ/mol
# GULP energy per Si atom -12397.039597 kJ/mol
# Density = 1.635801 g / cm^3
# Si number density = 16.395323 Si / 1000 Ang^3
#
#
#
# Elastic Constant Matrix: (Units=GPa)
#
#
# Indices 1 2 3 4 5 6 
#
# 1 52.4133 19.8086 22.8316 0.0000 0.0000 0.0000
# 2 19.8086 59.5555 34.7951 0.0000 0.0000 0.0000
# 3 22.8316 34.7951 109.8876 0.0000 0.0000 0.0000
# 4 0.0000 0.0000 0.0000 22.5926 0.0000 0.0000
# 5 0.0000 0.0000 0.0000 0.0000 8.8439 0.0000
# 6 0.0000 0.0000 0.0000 0.0000 0.0000 7.8476
#
#
#
# Elastic Compliance Matrix: (Units=1/GPa)
#
#
# Indices 1 2 3 4 5 6 
#
# 1 0.022518 -0.005836 -0.002831 0.000000 0.000000 0.000000
# 2 -0.005836 0.022115 -0.005790 0.000000 0.000000 0.000000
# 3 -0.002831 -0.005790 0.011522 0.000000 0.000000 0.000000
# 4 0.000000 0.000000 0.000000 0.044262 0.000000 0.000000
# 5 0.000000 0.000000 0.000000 0.000000 0.113072 0.000000
# 6 0.000000 0.000000 0.000000 0.000000 0.000000 0.127428
#
#
# Mechanical properties :
#
#
# Convention : Reuss Voigt Hill
#
# Bulk Modulus (GPa) = 36.70883 41.85856 39.28369
# Shear Modulus (GPa) = 13.19575 17.48488 15.34031
#
# Velocity S-wave (km/s) = 2.84006 3.26921 3.06216
# Velocity P-wave (km/s) = 5.76134 6.31162 6.04274
#
# Compressibility (1/GPa) = 0.02724140
#
# Stress axis : x y z
#
# Youngs Moduli (GPa) = 44.40946 45.21841 86.79259
#
# Poissons Ratio (x) = 0.26388 0.24569
# Poissons Ratio (y) = 0.25916 0.50253
# Poissons Ratio (z) = 0.12571 0.26182
#
# Static dielectric constant tensor:
#      x y z
#    x 2.971570 0.000000 0.000000 
#    y 0.000000 3.068840 0.000000 
#    z 0.000000 0.000000 3.358950 
# 
# 
# High freq. dielectric constant tensor:
#      x y z
#    x 1.618740 0.000000 0.000000 
#    y 0.000000 1.601920 0.000000 
#    z 0.000000 0.000000 1.632300 
# 
# From -- ./inp_files/20206.got.cif
#   From: 2010.03.12/outbox.cif.g09.slc.cpg/sg38_11_cif.got.tgz:20206.got - 2010.04.14 02:38:36.
