data_PCOD8177525
_publ_section_title
;
Structure prediction by ZEFSAII (Michael W. Deem and Ramdas Pophale) SiO2 
 PCOD8177525
Probable space group: A M M 2
;
_chemical_formula_sum "Si O2"
_cell_formula_units_Z 64
_cell_length_a 8.567947
_cell_length_b 26.218268
_cell_length_c 18.467333
_cell_angle_alpha 90.000000
_cell_angle_beta 90.000000
_cell_angle_gamma 90.000000
_cell_volume 4148.441309
_symmetry_space_group_name_H-M "A M M 2"
_symmetry_group_IT_number 38
_symmetry_cell_setting 'orthorhombic'
loop_
_space_group_symop_operation_xyz
x,y,z
-x,-y,z
-x,y,z
x,-y,z
x,1/2+y,1/2+z
-x,1/2-y,1/2+z
-x,1/2+y,1/2+z
x,1/2-y,1/2+z
loop_
_atom_site_type_symbol
_atom_site_label
_atom_site_fract_x
_atom_site_fract_y
_atom_site_fract_z
Si Si1 0.313887 0.644514 0.519750
Si Si2 0.318164 0.058484 0.775517
Si Si3 0.182883 0.258536 0.443558
Si Si4 0.818027 0.848782 0.699895
Si Si5 0.686469 0.243160 0.787401
Si Si6 0.820084 0.558417 0.428376
Si Si7 0.327129 0.699256 0.066968
Si Si8 0.670922 0.697451 0.655681
O O1 0.500000 0.640295 0.521530
O O2 0.269124 0.689254 0.464417
O O3 0.237842 0.591663 0.495834
O O4 0.246479 0.656884 0.601361
O O5 0.500000 0.067617 0.762044
O O6 0.219811 0.093028 0.720600
O O7 0.279078 0.073462 0.858008
O O8 0.269552 0.000000 0.761043
O O9 0.227243 0.245407 0.361698
O O10 0.234981 0.210505 0.492617
O O11 0.000000 0.267257 0.451719
O O12 0.727179 0.812413 0.755986
O O13 0.765364 0.841071 0.616692
O O14 0.000000 0.837396 0.706896
O O15 0.500000 0.246319 0.796060
O O16 0.752020 0.287260 0.731744
O O17 0.792732 0.500000 0.450625
O O18 0.000000 0.569800 0.411140
O O19 0.500000 0.677733 0.048957
O O20 0.344058 0.751181 0.110212
O O21 0.500000 0.676046 0.674339
#
# Coordination Sequence:
#
# PCOD8177525 Si02
#       8
#     8   8   8   8   8   8   8   8
#     4  10  18  30  46  62  82 112 148 180 214 257
#     4  10  20  33  47  62  82 112 149 184 216 253
#     4  11  20  29  42  64  90 114 144 180 217 254
#     4  11  20  30  45  65  88 114 144 180 221 258
#     4  10  18  30  45  61  85 117 149 177 210 256
#     4  10  20  32  44  61  86 113 143 182 223 258
#     4   9  17  31  46  61  83 113 146 176 210 254
#     4   7  14  27  43  60  78 104 139 176 207 242
#
# _framework density 15.427481
#
# number of rings (size 3 to 8) (size 9 to 14) (size 15 to 20)
#    0.000    2.250    0.000    6.375    0.000    1.500 
#    0.000    1.875    0.000    0.000    0.000    0.000 
#    0.000    1.000    0.000    5.250    0.000    4.875 
#
# Total GULP energy -396632.629381 kJ/mol
# GULP energy per Si atom -12394.769668 kJ/mol
# Density = 1.539237 g / cm^3
# Si number density = 15.427481 Si / 1000 Ang^3
#
#
#
# Elastic Constant Matrix: (Units=GPa)
#
#
# Indices 1 2 3 4 5 6 
#
# 1 52.6512 17.5726 13.4669 0.0000 0.0000 0.0000
# 2 17.5726 66.8013 43.5898 0.0000 0.0000 0.0000
# 3 13.4669 43.5898 96.3009 0.0000 0.0000 0.0000
# 4 0.0000 0.0000 0.0000 27.7826 0.0000 0.0000
# 5 0.0000 0.0000 0.0000 0.0000 21.1394 0.0000
# 6 0.0000 0.0000 0.0000 0.0000 0.0000 21.3052
#
#
#
# Elastic Compliance Matrix: (Units=1/GPa)
#
#
# Indices 1 2 3 4 5 6 
#
# 1 0.020847 -0.005083 -0.000614 0.000000 0.000000 0.000000
# 2 -0.005083 0.022484 -0.009466 0.000000 0.000000 0.000000
# 3 -0.000614 -0.009466 0.014755 0.000000 0.000000 0.000000
# 4 0.000000 0.000000 0.000000 0.035994 0.000000 0.000000
# 5 0.000000 0.000000 0.000000 0.000000 0.047305 0.000000
# 6 0.000000 0.000000 0.000000 0.000000 0.000000 0.046937
#
#
# Mechanical properties :
#
#
# Convention : Reuss Voigt Hill
#
# Bulk Modulus (GPa) = 36.02577 40.55690 38.29133
# Shear Modulus (GPa) = 21.93934 23.45372 22.69653
#
# Velocity S-wave (km/s) = 3.77516 3.90328 3.83975
# Velocity P-wave (km/s) = 6.51190 6.83080 6.67326
#
# Compressibility (1/GPa) = 0.02775791
#
# Stress axis : x y z
#
# Youngs Moduli (GPa) = 47.96967 44.47617 67.77398
#
# Poissons Ratio (x) = 0.22607 0.04165
# Poissons Ratio (y) = 0.24382 0.64157
# Poissons Ratio (z) = 0.02948 0.42103
#
# Static dielectric constant tensor:
#      x y z
#    x 2.991140 0.000000 0.000000 
#    y 0.000000 2.824940 0.000000 
#    z 0.000000 0.000000 3.148570 
# 
# 
# High freq. dielectric constant tensor:
#      x y z
#    x 1.600160 0.000000 0.000000 
#    y 0.000000 1.554800 0.000000 
#    z 0.000000 0.000000 1.583290 
# 
# From -- ./inp_files/17320.got.cif
#   From: 2010.03.12/outbox.cif.g09.slc.cpg/sg38_9_cif.got.tgz:17320.got - 2010.04.14 02:38:36.
