data_PCOD8177073
_publ_section_title
;
Structure prediction by ZEFSAII (Michael W. Deem and Ramdas Pophale) SiO2 
 PCOD8177073
Probable space group: C C C 2
;
_chemical_formula_sum "Si O2"
_cell_formula_units_Z 64
_cell_length_a 8.693677
_cell_length_b 19.642118
_cell_length_c 18.725792
_cell_angle_alpha 90.000000
_cell_angle_beta 90.000000
_cell_angle_gamma 90.000000
_cell_volume 3197.657991
_symmetry_space_group_name_H-M "C C C 2"
_symmetry_group_IT_number 37
_symmetry_cell_setting 'orthorhombic'
loop_
_space_group_symop_operation_xyz
x,y,z
-x,-y,z
-x,y,1/2+z
x,-y,1/2+z
1/2+x,1/2+y,z
1/2-x,1/2-y,z
1/2-x,1/2+y,1/2+z
1/2+x,1/2-y,1/2+z
loop_
_atom_site_type_symbol
_atom_site_label
_atom_site_fract_x
_atom_site_fract_y
_atom_site_fract_z
Si Si1 0.958203 0.921754 0.047240
Si Si2 0.648946 0.418682 0.699672
Si Si3 0.756846 0.456102 0.421633
Si Si4 0.318233 0.443718 0.763536
Si Si5 0.666162 0.817212 0.288171
Si Si6 0.235212 0.329158 0.553550
Si Si7 0.850256 0.683748 0.713968
Si Si8 0.594588 0.098212 0.927476
O O1 0.852811 0.904824 0.115243
O O2 0.103235 0.870086 0.045601
O O3 0.855443 0.916377 0.975995
O O4 0.000000 0.000000 0.057557
O O5 0.478539 0.421038 0.730975
O O6 0.738620 0.488532 0.721074
O O7 0.729160 0.353391 0.730520
O O8 0.666347 0.459644 0.347102
O O9 0.796791 0.533255 0.443643
O O10 0.916245 0.416570 0.416192
O O11 0.198687 0.382737 0.757426
O O12 0.750000 0.750000 0.316463
O O13 0.515548 0.796671 0.244018
O O14 0.647166 0.865218 0.355886
O O15 0.250000 0.250000 0.536423
O O16 0.158844 0.337785 0.631175
O O17 0.111503 0.355307 0.496810
O O18 0.750000 0.750000 0.729955
#
# Coordination Sequence:
#
# PCOD8177073 Si02
#       8
#     8   8   8   8   8   8   8   8
#     4  12  23  44  66 101 132 180 230 275 335 411
#     4  11  24  39  68 102 128 171 231 274 329 397
#     4  11  25  41  68  96 138 173 222 278 336 409
#     4  11  21  43  66  96 132 171 219 284 327 390
#     4  12  26  43  70  97 137 176 226 278 337 408
#     4  11  25  45  69  95 137 175 221 282 342 403
#     4  11  24  46  69  95 132 179 220 277 343 398
#     4  11  24  46  62 101 134 173 221 276 347 399
#
# _framework density 20.014648000000001
#
# number of rings (size 3 to 8) (size 9 to 14) (size 15 to 20)
#    0.000    0.750    6.250    1.125    7.000    0.500 
#    2.250    0.625    0.000    0.000    0.000    0.000 
#    0.000    0.000    0.000    0.000    0.000    0.000 
#
# Total GULP energy -396763.013297 kJ/mol
# GULP energy per Si atom -12398.844166 kJ/mol
# Density = 1.996909 g / cm^3
# Si number density = 20.014648 Si / 1000 Ang^3
#
#
#
# Elastic Constant Matrix: (Units=GPa)
#
#
# Indices 1 2 3 4 5 6 
#
# 1 54.2542 35.9353 33.1432 0.0000 0.0000 0.0000
# 2 35.9353 107.8245 24.8143 0.0000 0.0000 0.0000
# 3 33.1432 24.8143 116.8645 0.0000 0.0000 0.0000
# 4 0.0000 0.0000 0.0000 47.7903 0.0000 0.0000
# 5 0.0000 0.0000 0.0000 0.0000 28.9499 0.0000
# 6 0.0000 0.0000 0.0000 0.0000 0.0000 36.7817
#
#
#
# Elastic Compliance Matrix: (Units=1/GPa)
#
#
# Indices 1 2 3 4 5 6 
#
# 1 0.027239 -0.007675 -0.006095 0.000000 0.000000 0.000000
# 2 -0.007675 0.011914 -0.000353 0.000000 0.000000 0.000000
# 3 -0.006095 -0.000353 0.010361 0.000000 0.000000 0.000000
# 4 0.000000 0.000000 0.000000 0.020925 0.000000 0.000000
# 5 0.000000 0.000000 0.000000 0.000000 0.034542 0.000000
# 6 0.000000 0.000000 0.000000 0.000000 0.000000 0.027187
#
#
# Mechanical properties :
#
#
# Convention : Reuss Voigt Hill
#
# Bulk Modulus (GPa) = 47.02358 51.85876 49.44117
# Shear Modulus (GPa) = 29.85008 35.04107 32.44558
#
# Velocity S-wave (km/s) = 3.86607 4.18876 4.03065
# Velocity P-wave (km/s) = 6.59350 7.02573 6.81305
#
# Compressibility (1/GPa) = 0.02126592
#
# Stress axis : x y z
#
# Youngs Moduli (GPa) = 36.71191 83.93794 96.52029
#
# Poissons Ratio (x) = 0.64426 0.58833
# Poissons Ratio (y) = 0.28178 0.03406
# Poissons Ratio (z) = 0.22377 0.02962
#
# Static dielectric constant tensor:
#      x y z
#    x 3.414450 0.000000 0.000000 
#    y 0.000000 3.808550 0.000000 
#    z 0.000000 0.000000 3.923850 
# 
# 
# High freq. dielectric constant tensor:
#      x y z
#    x 1.775160 0.000000 0.000000 
#    y 0.000000 1.789720 0.000000 
#    z 0.000000 0.000000 1.796820 
# 
# From -- ./inp_files/14748.got.cif
#   From: 2010.03.12/outbox.cif.g09.slc.cpg/sg37_8_cif.got.tgz:14748.got - 2010.04.14 02:25:27.
