data_PCOD8177374
_publ_section_title
;
Structure prediction by ZEFSAII (Michael W. Deem and Ramdas Pophale) SiO2 
 PCOD8177374
Probable space group: A M M 2
;
_chemical_formula_sum "Si O2"
_cell_formula_units_Z 64
_cell_length_a 9.046681
_cell_length_b 14.466031
_cell_length_c 28.274325
_cell_angle_alpha 90.000000
_cell_angle_beta 90.000000
_cell_angle_gamma 90.000000
_cell_volume 3700.248692
_symmetry_space_group_name_H-M "A M M 2"
_symmetry_group_IT_number 38
_symmetry_cell_setting 'orthorhombic'
loop_
_space_group_symop_operation_xyz
x,y,z
-x,-y,z
-x,y,z
x,-y,z
x,1/2+y,1/2+z
-x,1/2-y,1/2+z
-x,1/2+y,1/2+z
x,1/2-y,1/2+z
loop_
_atom_site_type_symbol
_atom_site_label
_atom_site_fract_x
_atom_site_fract_y
_atom_site_fract_z
Si Si1 0.824475 0.396729 0.238530
Si Si2 0.174844 0.274861 0.048093
Si Si3 0.830582 0.106427 0.458718
Si Si4 0.175766 0.603565 0.133464
Si Si5 0.672828 0.395851 0.510058
Si Si6 0.329897 0.106861 0.901506
Si Si7 0.824740 0.725909 0.324168
Si Si8 0.673640 0.605423 0.862221
O O1 0.764160 0.500000 0.249509
O O2 0.772720 0.365500 0.186059
O O3 0.762772 0.325473 0.277406
O O4 0.000000 0.398666 0.240979
O O5 0.239579 0.324921 0.094900
O O6 0.000000 0.267307 0.050904
O O7 0.225153 0.333645 0.002718
O O8 0.241218 0.172523 0.044972
O O9 0.728273 0.131935 0.414533
O O10 0.000000 0.128873 0.445157
O O11 0.813030 0.000000 0.473475
O O12 0.234622 0.500000 0.122670
O O13 0.000000 0.602359 0.130549
O O14 0.500000 0.381956 0.517595
O O15 0.719731 0.500000 0.523486
O O16 0.715156 0.375519 0.455743
O O17 0.500000 0.135237 0.892673
O O18 0.222809 0.168899 0.870187
O O19 0.305677 0.000000 0.888268
O O20 0.753401 0.827945 0.324616
O O21 0.000000 0.735323 0.323598
O O22 0.500000 0.621490 0.859994
O O23 0.716800 0.500000 0.849788
#
# Coordination Sequence:
#
# PCOD8177374 Si02
#       8
#     8   8   8   8   8   8   8   8
#     4   8  15  28  46  70  98 123 146 176 220 275
#     4  10  18  27  46  74  95 116 151 190 226 264
#     4   9  17  29  45  69 100 125 147 182 227 272
#     4   8  14  27  47  70  97 124 146 174 219 275
#     4   9  19  34  47  60  86 126 163 190 222 267
#     4   9  18  32  48  67  94 128 161 189 222 271
#     4  11  20  29  47  73  96 119 152 194 236 275
#     4  10  21  35  48  63  88 125 164 195 226 271
#
# _framework density 17.296133999999999
#
# number of rings (size 3 to 8) (size 9 to 14) (size 15 to 20)
#    0.000    2.750    0.000    3.750    0.000    6.250 
#    0.000    1.250    0.000    3.375    0.000    8.750 
#    0.000    0.000    0.000    0.000    0.000    0.000 
#
# Total GULP energy -396754.388492 kJ/mol
# GULP energy per Si atom -12398.574640 kJ/mol
# Density = 1.725677 g / cm^3
# Si number density = 17.296134 Si / 1000 Ang^3
#
#
#
# Elastic Constant Matrix: (Units=GPa)
#
#
# Indices 1 2 3 4 5 6 
#
# 1 40.6338 37.3952 33.6953 0.0000 0.0000 0.0000
# 2 37.3952 127.1421 85.6409 0.0000 0.0000 0.0000
# 3 33.6953 85.6409 110.0422 0.0000 0.0000 0.0000
# 4 0.0000 0.0000 0.0000 32.8606 0.0000 0.0000
# 5 0.0000 0.0000 0.0000 0.0000 6.1385 0.0000
# 6 0.0000 0.0000 0.0000 0.0000 0.0000 27.9049
#
#
#
# Elastic Compliance Matrix: (Units=1/GPa)
#
#
# Indices 1 2 3 4 5 6 
#
# 1 0.035394 -0.006537 -0.005751 0.000000 0.000000 0.000000
# 2 -0.006537 0.017738 -0.011803 0.000000 0.000000 0.000000
# 3 -0.005751 -0.011803 0.020034 0.000000 0.000000 0.000000
# 4 0.000000 0.000000 0.000000 0.030432 0.000000 0.000000
# 5 0.000000 0.000000 0.000000 0.000000 0.162905 0.000000
# 6 0.000000 0.000000 0.000000 0.000000 0.000000 0.035836
#
#
# Mechanical properties :
#
#
# Convention : Reuss Voigt Hill
#
# Bulk Modulus (GPa) = 40.02303 65.69787 52.86045
# Shear Modulus (GPa) = 13.93338 21.45326 17.69332
#
# Velocity S-wave (km/s) = 2.84135 3.52568 3.20185
# Velocity P-wave (km/s) = 5.82705 7.39192 6.65564
#
# Compressibility (1/GPa) = 0.02498561
#
# Stress axis : x y z
#
# Youngs Moduli (GPa) = 28.25299 56.37480 49.91419
#
# Poissons Ratio (x) = 0.36851 0.28704
# Poissons Ratio (y) = 0.18468 0.58916
# Poissons Ratio (z) = 0.16247 0.66542
#
# Static dielectric constant tensor:
#      x y z
#    x 2.915920 0.000000 0.000000 
#    y 0.000000 3.394910 0.000000 
#    z 0.000000 0.000000 3.293890 
# 
# 
# High freq. dielectric constant tensor:
#      x y z
#    x 1.642080 0.000000 0.000000 
#    y 0.000000 1.672860 0.000000 
#    z 0.000000 0.000000 1.650480 
# 
# From -- ./inp_files/24781.got.cif
#   From: 2010.03.12/outbox.cif.g09.slc.cpg/sg38_13_cif.got.tgz:24781.got - 2010.04.14 02:38:36.
