data_PCOD8177158
_publ_section_title
;
Structure prediction by ZEFSAII (Michael W. Deem and Ramdas Pophale) SiO2 
 PCOD8177158
Probable space group: C C C 2
;
_chemical_formula_sum "Si O2"
_cell_formula_units_Z 48
_cell_length_a 9.684309
_cell_length_b 9.684308
_cell_length_c 24.842380
_cell_angle_alpha 90.000000
_cell_angle_beta 90.000000
_cell_angle_gamma 90.000000
_cell_volume 2329.863255
_symmetry_space_group_name_H-M "C C C 2"
_symmetry_group_IT_number 37
_symmetry_cell_setting 'orthorhombic'
loop_
_space_group_symop_operation_xyz
x,y,z
-x,-y,z
-x,y,1/2+z
x,-y,1/2+z
1/2+x,1/2+y,z
1/2-x,1/2-y,z
1/2-x,1/2+y,1/2+z
1/2+x,1/2-y,1/2+z
loop_
_atom_site_type_symbol
_atom_site_label
_atom_site_fract_x
_atom_site_fract_y
_atom_site_fract_z
Si Si1 0.752610 0.589047 0.713950
Si Si2 0.480809 0.832019 0.463695
Si Si3 0.750000 0.250000 0.012225
Si Si4 0.410953 0.247390 0.845591
Si Si5 0.000000 0.000000 0.779771
Si Si6 0.000000 0.500000 0.779771
Si Si7 0.250000 0.750000 0.547316
Si Si8 0.167981 0.480809 0.595847
O O1 0.750000 0.750000 0.731407
O O2 0.622643 0.507056 0.736854
O O3 0.871926 0.500421 0.740460
O O4 0.773925 0.583926 0.650324
O O5 0.620503 0.744449 0.471916
O O6 0.416074 0.773926 0.409217
O O7 0.383731 0.780054 0.511595
O O8 0.500000 0.000000 0.464004
O O9 0.780054 0.383731 0.047946
O O10 0.250000 0.250000 0.828134
O O11 0.492944 0.377357 0.822688
O O12 0.499579 0.128074 0.819081
O O13 0.255551 0.620503 0.587625
O O14 0.000000 0.500000 0.595537
#
# Coordination Sequence:
#
# PCOD8177158 Si02
#       8
#     8   8   4   8   4   4   4   8
#     4  12  26  46  74 106 146 186 239 298 350 424
#     4  12  26  46  74 105 142 187 234 292 363 420
#     4  12  24  46  72 106 140 180 238 292 350 428
#     4  12  26  46  74 106 146 186 239 298 350 424
#     4  12  26  46  68 116 138 180 250 294 344 424
#     4  12  22  46  76  96 146 192 218 298 364 400
#     4  12  24  46  72 106 140 180 238 292 350 428
#     4  12  26  46  74 105 142 187 234 292 363 420
#
# _framework density 20.602067999999999
#
# number of rings (size 3 to 8) (size 9 to 14) (size 15 to 20)
#    0.000    0.000   10.000    0.000    0.000    9.333 
#    0.000    0.000    0.000    0.000    0.000    0.000 
#    0.000    0.000    0.000    0.000    0.000    0.000 
#
# Total GULP energy -297344.102674 kJ/mol
# GULP energy per Si atom -12389.337611 kJ/mol
# Density = 2.055518 g / cm^3
# Si number density = 20.602068 Si / 1000 Ang^3
#
#
#
# Elastic Constant Matrix: (Units=GPa)
#
#
# Indices 1 2 3 4 5 6 
#
# 1 135.4962 59.2419 37.2511 0.0000 0.0000 0.0000
# 2 59.2419 135.4963 37.2511 0.0000 0.0000 0.0000
# 3 37.2511 37.2511 101.7370 0.0000 0.0000 0.0000
# 4 0.0000 0.0000 0.0000 40.1808 0.0000 0.0000
# 5 0.0000 0.0000 0.0000 0.0000 40.1809 0.0000
# 6 0.0000 0.0000 0.0000 0.0000 0.0000 38.0982
#
#
#
# Elastic Compliance Matrix: (Units=1/GPa)
#
#
# Indices 1 2 3 4 5 6 
#
# 1 0.009543 -0.003571 -0.002187 0.000000 0.000000 0.000000
# 2 -0.003571 0.009543 -0.002187 0.000000 0.000000 0.000000
# 3 -0.002187 -0.002187 0.011430 0.000000 0.000000 0.000000
# 4 0.000000 0.000000 0.000000 0.024887 0.000000 0.000000
# 5 0.000000 0.000000 0.000000 0.000000 0.024887 0.000000
# 6 0.000000 0.000000 0.000000 0.000000 0.000000 0.026248
#
#
# Mechanical properties :
#
#
# Convention : Reuss Voigt Hill
#
# Bulk Modulus (GPa) = 68.36378 71.13530 69.74954
# Shear Modulus (GPa) = 39.27628 39.62434 39.45031
#
# Velocity S-wave (km/s) = 4.37100 4.39032 4.38067
# Velocity P-wave (km/s) = 7.66350 7.76551 7.71467
#
# Compressibility (1/GPa) = 0.01462763
#
# Stress axis : x y z
#
# Youngs Moduli (GPa) = 104.79089 104.79097 87.48559
#
# Poissons Ratio (x) = 0.37423 0.19129
# Poissons Ratio (y) = 0.37423 0.19129
# Poissons Ratio (z) = 0.22913 0.22913
#
# Static dielectric constant tensor:
#      x y z
#    x 3.832310 0.000000 0.000000 
#    y 0.000000 3.832310 0.000000 
#    z 0.000000 0.000000 4.003320 
# 
# 
# High freq. dielectric constant tensor:
#      x y z
#    x 1.809030 0.000000 0.000000 
#    y 0.000000 1.809030 0.000000 
#    z 0.000000 0.000000 1.834280 
# 
# From -- ./inp_files/20387.got.cif
#   From: 2010.03.12/outbox.cif.g09.slc.cpg/sg37_11_cif.got.tgz:20387.got - 2010.04.14 02:25:27.
