data_PCOD8177104
_publ_section_title
;
Structure prediction by ZEFSAII (Michael W. Deem and Ramdas Pophale) SiO2 
 PCOD8177104
Probable space group: C C C 2
;
_chemical_formula_sum "Si O2"
_cell_formula_units_Z 60
_cell_length_a 6.486036
_cell_length_b 17.518527
_cell_length_c 24.762921
_cell_angle_alpha 90.000000
_cell_angle_beta 90.000000
_cell_angle_gamma 90.000000
_cell_volume 2813.706629
_symmetry_space_group_name_H-M "C C C 2"
_symmetry_group_IT_number 37
_symmetry_cell_setting 'orthorhombic'
loop_
_space_group_symop_operation_xyz
x,y,z
-x,-y,z
-x,y,1/2+z
x,-y,1/2+z
1/2+x,1/2+y,z
1/2-x,1/2-y,z
1/2-x,1/2+y,1/2+z
1/2+x,1/2-y,1/2+z
loop_
_atom_site_type_symbol
_atom_site_label
_atom_site_fract_x
_atom_site_fract_y
_atom_site_fract_z
Si Si1 0.305852 0.667526 0.828140
Si Si2 0.351561 0.075101 0.656272
Si Si3 0.621219 0.676616 0.921698
Si Si4 0.622104 0.572657 0.762456
Si Si5 0.000000 0.000000 0.087679
Si Si6 0.410616 0.074860 0.860569
Si Si7 0.965637 0.284903 0.083268
Si Si8 0.830752 0.147516 0.540676
O O1 0.250000 0.750000 0.805961
O O2 0.414464 0.671197 0.886673
O O3 0.455709 0.634758 0.781918
O O4 0.090412 0.625211 0.834986
O O5 0.271826 0.101582 0.714972
O O6 0.451636 0.154373 0.633277
O O7 0.154954 0.051786 0.621376
O O8 0.500000 0.000000 0.659270
O O9 0.750000 0.750000 0.904539
O O10 0.778426 0.609119 0.908702
O O11 0.561306 0.672368 0.984646
O O12 0.500000 0.500000 0.739647
O O13 0.760738 0.548009 0.812644
O O14 0.129655 0.058620 0.051106
O O15 0.500000 0.000000 0.888371
O O16 0.750000 0.250000 0.063627
O O17 0.092506 0.204036 0.089836
O O18 0.083147 0.335453 0.037134
#
# Coordination Sequence:
#
# PCOD8177104 Si02
#       8
#     8   8   8   8   4   8   8   8
#     4  11  24  44  67  99 136 177 221 285 335 411
#     4  12  25  44  70  98 131 183 230 280 346 411
#     4  11  23  42  69 100 136 182 227 270 343 410
#     4  11  24  43  71  96 132 177 224 277 346 409
#     4  12  24  46  68 100 140 176 232 292 334 408
#     4  11  23  43  67  98 134 173 222 278 336 411
#     4  11  23  43  67  97 136 180 223 279 336 399
#     4  11  25  45  68 100 142 181 229 287 342 408
#
# _framework density 21.324183999999999
#
# number of rings (size 3 to 8) (size 9 to 14) (size 15 to 20)
#    0.000    0.800    7.333    0.400    0.000    2.667 
#    4.800    0.000    0.000    0.000    0.000    0.000 
#    0.000    0.000    0.000    0.000    0.000    0.000 
#
# Total GULP energy -371645.535749 kJ/mol
# GULP energy per Si atom -12388.184525 kJ/mol
# Density = 2.127565 g / cm^3
# Si number density = 21.324184 Si / 1000 Ang^3
#
#
#
# Elastic Constant Matrix: (Units=GPa)
#
#
# Indices 1 2 3 4 5 6 
#
# 1 89.6070 37.7376 22.3502 0.0000 0.0000 0.0000
# 2 37.7376 141.1823 34.7117 0.0000 0.0000 0.0000
# 3 22.3502 34.7117 88.6663 0.0000 0.0000 0.0000
# 4 0.0000 0.0000 0.0000 44.7511 0.0000 0.0000
# 5 0.0000 0.0000 0.0000 0.0000 4107.5088 0.0000
# 6 0.0000 0.0000 0.0000 0.0000 0.0000 46.5956
#
#
#
# Elastic Compliance Matrix: (Units=1/GPa)
#
#
# Indices 1 2 3 4 5 6 
#
# 1 0.012922 -0.002936 -0.002108 0.000000 0.000000 0.000000
# 2 -0.002936 0.008504 -0.002589 0.000000 0.000000 0.000000
# 3 -0.002108 -0.002589 0.012823 0.000000 0.000000 0.000000
# 4 0.000000 0.000000 0.000000 0.022346 0.000000 0.000000
# 5 0.000000 0.000000 0.000000 0.000000 0.000243 0.000000
# 6 0.000000 0.000000 0.000000 0.000000 0.000000 0.021461
#
#
# Mechanical properties :
#
#
# Convention : Reuss Voigt Hill
#
# Bulk Modulus (GPa) = 52.67707 56.56162 54.61935
# Shear Modulus (GPa) = 50.05299 854.74817 452.40058
#
# Velocity S-wave (km/s) = 4.85009 20.04259 14.58130
# Velocity P-wave (km/s) = 7.49140 23.71053 17.58281
#
# Compressibility (1/GPa) = 0.01898359
#
# Stress axis : x y z
#
# Youngs Moduli (GPa) = 77.38745 117.58650 77.98308
#
# Poissons Ratio (x) = 0.34520 0.16439
# Poissons Ratio (y) = 0.22719 0.20192
# Poissons Ratio (z) = 0.16313 0.30447
#
# Static dielectric constant tensor:
#      x y z
#    x 2.657040 0.000000 0.000000 
#    y 0.000000 3.765540 0.000000 
#    z 0.000000 0.000000 3.521720 
# 
# 
# High freq. dielectric constant tensor:
#      x y z
#    x 1.856540 0.000000 0.000000 
#    y 0.000000 1.850480 0.000000 
#    z 0.000000 0.000000 1.806820 
# 
# From -- ./inp_files/19493.got.cif
#   From: 2010.03.12/outbox.cif.g09.slc.cpg/sg37_10_cif.got.tgz:19493.got - 2010.04.14 02:25:27.
