data_PCOD8177810
_publ_section_title
;
Structure prediction by ZEFSAII (Michael W. Deem and Ramdas Pophale) SiO2 
 PCOD8177810
Probable space group: A M M 2
;
_chemical_formula_sum "Si O2"
_cell_formula_units_Z 64
_cell_length_a 14.658948
_cell_length_b 26.695954
_cell_length_c 9.889653
_cell_angle_alpha 90.000000
_cell_angle_beta 90.000000
_cell_angle_gamma 90.000000
_cell_volume 3870.163416
_symmetry_space_group_name_H-M "A M M 2"
_symmetry_group_IT_number 38
_symmetry_cell_setting 'orthorhombic'
loop_
_space_group_symop_operation_xyz
x,y,z
-x,-y,z
-x,y,z
x,-y,z
x,1/2+y,1/2+z
-x,1/2-y,1/2+z
-x,1/2+y,1/2+z
x,1/2-y,1/2+z
loop_
_atom_site_type_symbol
_atom_site_label
_atom_site_fract_x
_atom_site_fract_y
_atom_site_fract_z
Si Si1 0.661652 0.722626 0.014710
Si Si2 0.102182 0.056522 0.769339
Si Si3 0.818879 0.202848 0.103227
Si Si4 0.098709 0.700040 0.118454
Si Si5 0.199387 0.846054 0.386693
Si Si6 0.399677 0.302219 0.303600
Si Si7 0.213166 0.147652 0.842163
Si Si8 0.896800 0.056602 0.449633
O O1 0.738589 0.758712 0.072136
O O2 0.598708 0.709978 0.143113
O O3 0.704880 0.670788 0.955524
O O4 0.611169 0.751444 0.892319
O O5 0.183083 0.089985 0.832016
O O6 0.105124 0.062571 0.609588
O O7 0.000000 0.071670 0.819754
O O8 0.123677 0.000000 0.813920
O O9 0.905276 0.239353 0.126024
O O10 0.797762 0.169510 0.231825
O O11 0.835035 0.166614 0.977718
O O12 0.176291 0.678764 0.215709
O O13 0.000000 0.679190 0.162698
O O14 0.117642 0.681996 0.965425
O O15 0.179074 0.905652 0.389117
O O16 0.500000 0.324661 0.336913
O O17 0.322712 0.343652 0.342950
O O18 0.000000 0.068279 0.397522
O O19 0.869434 0.000000 0.407466
#
# Coordination Sequence:
#
# PCOD8177810 Si02
#       8
#     8   8   8   8   8   8   8   8
#     4  10  18  34  49  73 100 134 163 207 246 303
#     4   9  17  32  54  76  96 126 172 216 251 293
#     4  10  21  32  45  67 104 132 164 199 252 298
#     4  11  20  31  48  69  97 135 172 199 239 297
#     4  11  18  32  50  67  97 133 167 205 250 293
#     4  11  20  32  52  76 104 135 167 206 253 301
#     4  11  20  34  51  72 101 134 167 211 249 297
#     4   9  17  29  47  71  95 126 171 213 247 289
#
# _framework density 16.536770000000001
#
# number of rings (size 3 to 8) (size 9 to 14) (size 15 to 20)
#    0.000    1.750    5.000    3.375    0.000    3.000 
#    0.000    0.625    0.000    1.875    0.000    0.000 
#    0.000    1.500    0.000    0.000    0.000    0.000 
#
# Total GULP energy -396538.666418 kJ/mol
# GULP energy per Si atom -12391.833326 kJ/mol
# Density = 1.649913 g / cm^3
# Si number density = 16.536770 Si / 1000 Ang^3
#
#
#
# Elastic Constant Matrix: (Units=GPa)
#
#
# Indices 1 2 3 4 5 6 
#
# 1 90.0481 41.2659 15.4991 0.0000 0.0000 0.0000
# 2 41.2659 110.6666 39.0018 0.0000 0.0000 0.0000
# 3 15.4991 39.0018 63.5307 0.0000 0.0000 0.0000
# 4 0.0000 0.0000 0.0000 17.0170 0.0000 0.0000
# 5 0.0000 0.0000 0.0000 0.0000 11.4793 0.0000
# 6 0.0000 0.0000 0.0000 0.0000 0.0000 15.8765
#
#
#
# Elastic Compliance Matrix: (Units=1/GPa)
#
#
# Indices 1 2 3 4 5 6 
#
# 1 0.013397 -0.004905 -0.000257 0.000000 0.000000 0.000000
# 2 -0.004905 0.013327 -0.006985 0.000000 0.000000 0.000000
# 3 -0.000257 -0.006985 0.020091 0.000000 0.000000 0.000000
# 4 0.000000 0.000000 0.000000 0.058765 0.000000 0.000000
# 5 0.000000 0.000000 0.000000 0.000000 0.087113 0.000000
# 6 0.000000 0.000000 0.000000 0.000000 0.000000 0.062986
#
#
# Mechanical properties :
#
#
# Convention : Reuss Voigt Hill
#
# Bulk Modulus (GPa) = 44.40251 50.64212 47.52231
# Shear Modulus (GPa) = 17.39250 20.10647 18.74948
#
# Velocity S-wave (km/s) = 3.24658 3.49071 3.37086
# Velocity P-wave (km/s) = 6.40022 6.85107 6.62948
#
# Compressibility (1/GPa) = 0.02252125
#
# Stress axis : x y z
#
# Youngs Moduli (GPa) = 74.64236 75.03716 49.77315
#
# Poissons Ratio (x) = 0.36805 0.01280
# Poissons Ratio (y) = 0.36612 0.34765
# Poissons Ratio (z) = 0.01920 0.52411
#
# Static dielectric constant tensor:
#      x y z
#    x 3.002500 0.000000 0.000000 
#    y 0.000000 3.231510 0.000000 
#    z 0.000000 0.000000 3.116900 
# 
# 
# High freq. dielectric constant tensor:
#      x y z
#    x 1.613640 0.000000 0.000000 
#    y 0.000000 1.618050 0.000000 
#    z 0.000000 0.000000 1.634050 
# 
# From -- ./inp_files/6006.got.cif
#   From: 2010.03.12/outbox.cif.g09.slc.cpg/sg38_4_cif.got.tgz:6006.got - 2010.04.14 02:38:36.
