data_PCOD8177268
_publ_section_title
;
Structure prediction by ZEFSAII (Michael W. Deem and Ramdas Pophale) SiO2 
 PCOD8177268
Probable space group: A M M 2
;
_chemical_formula_sum "Si O2"
_cell_formula_units_Z 64
_cell_length_a 9.237898
_cell_length_b 30.606217
_cell_length_c 14.317338
_cell_angle_alpha 90.000000
_cell_angle_beta 90.000000
_cell_angle_gamma 90.000000
_cell_volume 4048.042781
_symmetry_space_group_name_H-M "A M M 2"
_symmetry_group_IT_number 38
_symmetry_cell_setting 'orthorhombic'
loop_
_space_group_symop_operation_xyz
x,y,z
-x,-y,z
-x,y,z
x,-y,z
x,1/2+y,1/2+z
-x,1/2-y,1/2+z
-x,1/2+y,1/2+z
x,1/2-y,1/2+z
loop_
_atom_site_type_symbol
_atom_site_label
_atom_site_fract_x
_atom_site_fract_y
_atom_site_fract_z
Si Si1 0.670792 0.951584 0.653970
Si Si2 0.169922 0.548323 0.959657
Si Si3 0.664871 0.276134 0.547217
Si Si4 0.832359 0.364074 0.873002
Si Si5 0.673124 0.782065 0.832306
Si Si6 0.170502 0.796247 0.223801
Si Si7 0.334828 0.364887 0.226659
Si Si8 0.339289 0.177281 0.533055
O O1 0.500000 0.945833 0.635295
O O2 0.749613 0.943494 0.556437
O O3 0.722786 0.915313 0.731607
O O4 0.706532 0.000000 0.693210
O O5 0.208505 0.500000 0.919444
O O6 0.222017 0.585575 0.885327
O O7 0.000000 0.551873 0.979883
O O8 0.500000 0.292251 0.560496
O O9 0.715382 0.283187 0.440930
O O10 0.768001 0.301782 0.619057
O O11 0.681880 0.225559 0.573855
O O12 0.797141 0.343346 0.772097
O O13 0.768748 0.331904 0.950065
O O14 0.000000 0.363130 0.892963
O O15 0.500000 0.776877 0.817344
O O16 0.749435 0.741821 0.781046
O O17 0.738891 0.827782 0.790879
O O18 0.000000 0.785879 0.220946
O O19 0.500000 0.363614 0.258252
O O20 0.312934 0.355185 0.117756
O O21 0.500000 0.172379 0.491057
#
# Coordination Sequence:
#
# PCOD8177268 Si02
#       8
#     8   8   8   8   8   8   8   8
#     4   9  16  26  42  65  92 118 144 177 220 267
#     4   9  17  29  44  62  87 117 148 181 216 261
#     4  10  20  33  48  64  86 120 159 192 219 256
#     4  10  20  31  43  65  93 121 150 181 223 269
#     4  10  19  33  50  66  87 118 158 193 219 260
#     4  11  22  32  45  66  94 121 147 185 230 273
#     4   9  16  27  43  65  90 116 147 181 217 258
#     4  10  17  27  46  67  89 118 150 185 220 256
#
# _framework density 15.81011
#
# number of rings (size 3 to 8) (size 9 to 14) (size 15 to 20)
#    0.000    2.250    3.750    0.375    0.000    1.500 
#    0.000    0.625    0.000    0.000    0.000    0.875 
#    0.000    1.000    0.000    0.000    0.000    0.000 
#
# Total GULP energy -396471.360630 kJ/mol
# GULP energy per Si atom -12389.730020 kJ/mol
# Density = 1.577413 g / cm^3
# Si number density = 15.810110 Si / 1000 Ang^3
#
#
#
# Elastic Constant Matrix: (Units=GPa)
#
#
# Indices 1 2 3 4 5 6 
#
# 1 19.4132 124.8273 -61.3536 0.0000 0.0000 0.0000
# 2 124.8273 -737.8470 844.7739 0.0000 0.0000 0.0000
# 3 -61.3536 844.7739 -691.2335 0.0000 0.0000 0.0000
# 4 0.0000 0.0000 0.0000 28.4912 0.0000 0.0000
# 5 0.0000 0.0000 0.0000 0.0000 17.7887 0.0000
# 6 0.0000 0.0000 0.0000 0.0000 0.0000 15.6991
#
#
#
# Elastic Compliance Matrix: (Units=1/GPa)
#
#
# Indices 1 2 3 4 5 6 
#
# 1 0.060885 -0.010303 -0.017995 0.000000 0.000000 0.000000
# 2 -0.010303 0.005138 0.007194 0.000000 0.000000 0.000000
# 3 -0.017995 0.007194 0.008942 0.000000 0.000000 0.000000
# 4 0.000000 0.000000 0.000000 0.035099 0.000000 0.000000
# 5 0.000000 0.000000 0.000000 0.000000 0.056216 0.000000
# 6 0.000000 0.000000 0.000000 0.000000 0.000000 0.063698
#
#
# Mechanical properties :
#
#
# Convention : Reuss Voigt Hill
#
# Bulk Modulus (GPa) = 30.52717 45.20310 37.86513
# Shear Modulus (GPa) = 17.66131 -142.13187 -62.23528
#
# Velocity S-wave (km/s) = 3.34592 -9.49181 -6.28090
# Velocity P-wave (km/s) = 5.85469 9.56414 5.34768
#
# Compressibility (1/GPa) = 0.03275771
#
# Stress axis : x y z
#
# Youngs Moduli (GPa) = 16.42439 194.62529 111.82794
#
# Poissons Ratio (x) = 2.00514 2.01236
# Poissons Ratio (y) = 0.16921 -0.80447
# Poissons Ratio (z) = 0.29556 -1.40010
#
# Static dielectric constant tensor:
#      x y z
#    x 2.958680 0.000000 0.000000 
#    y 0.000000 3.398170 0.000000 
#    z 0.000000 0.000000 2.883530 
# 
# 
# High freq. dielectric constant tensor:
#      x y z
#    x 1.594510 0.000000 0.000000 
#    y 0.000000 1.611710 0.000000 
#    z 0.000000 0.000000 1.576830 
# 
# From -- ./inp_files/13097.got.cif
#   From: 2010.03.12/outbox.cif.g09.slc.cpg/sg38_7_cif.got.tgz:13097.got - 2010.04.14 02:38:36.
