data_PCOD8177224
_publ_section_title
;
Structure prediction by ZEFSAII (Michael W. Deem and Ramdas Pophale) SiO2 
 PCOD8177224
Probable space group: A M M 2
;
_chemical_formula_sum "Si O2"
_cell_formula_units_Z 64
_cell_length_a 9.060291
_cell_length_b 22.427543
_cell_length_c 20.491136
_cell_angle_alpha 90.000000
_cell_angle_beta 90.000000
_cell_angle_gamma 90.000000
_cell_volume 4163.800188
_symmetry_space_group_name_H-M "A M M 2"
_symmetry_group_IT_number 38
_symmetry_cell_setting 'orthorhombic'
loop_
_space_group_symop_operation_xyz
x,y,z
-x,-y,z
-x,y,z
x,-y,z
x,1/2+y,1/2+z
-x,1/2-y,1/2+z
-x,1/2+y,1/2+z
x,1/2-y,1/2+z
loop_
_atom_site_type_symbol
_atom_site_label
_atom_site_fract_x
_atom_site_fract_y
_atom_site_fract_z
Si Si1 0.332501 0.146575 0.416190
Si Si2 0.669337 0.740035 0.816265
Si Si3 0.332541 0.250775 0.127443
Si Si4 0.826485 0.566463 0.159798
Si Si5 0.337082 0.152976 0.741911
Si Si6 0.327650 0.431704 0.790806
Si Si7 0.174135 0.155718 0.547572
Si Si8 0.174063 0.837048 0.212571
O O1 0.500000 0.135647 0.440063
O O2 0.314238 0.214816 0.389667
O O3 0.289781 0.100362 0.359179
O O4 0.222109 0.135837 0.475674
O O5 0.500000 0.726405 0.791763
O O6 0.698685 0.811773 0.810102
O O7 0.788328 0.706054 0.772575
O O8 0.500000 0.236010 0.107077
O O9 0.325556 0.295559 0.187982
O O10 0.251280 0.281915 0.066329
O O11 0.249068 0.189490 0.146827
O O12 0.758702 0.500000 0.155948
O O13 0.773537 0.599159 0.226210
O O14 0.773480 0.603336 0.096654
O O15 0.000000 0.563036 0.163197
O O16 0.500000 0.124766 0.743713
O O17 0.500000 0.425136 0.775271
O O18 0.277945 0.500000 0.796651
O O19 0.238699 0.402150 0.730608
O O20 0.000000 0.164689 0.550801
O O21 0.000000 0.840934 0.201668
#
# Coordination Sequence:
#
# PCOD8177224 Si02
#       8
#     8   8   8   8   8   8   8   8
#     4   9  17  29  43  59  81 111 144 175 207 245
#     4   8  15  28  43  58  79 106 135 167 208 256
#     4   9  16  28  44  59  78 105 136 170 211 256
#     4   9  18  30  40  53  79 113 141 166 202 245
#     4   8  14  25  42  61  76  95 129 172 209 240
#     4   9  18  32  46  59  81 116 153 182 208 245
#     4  10  19  29  41  59  83 111 144 179 210 243
#     4  10  17  25  41  64  85 103 130 172 219 259
#
# _framework density 15.370575000000001
#
# number of rings (size 3 to 8) (size 9 to 14) (size 15 to 20)
#    0.000    3.000    0.000    3.375    0.000    6.500 
#    0.000    0.000    0.000    0.000    0.000    0.000 
#    0.000    1.000    0.000    5.250    0.000    5.125 
#
# Total GULP energy -396545.770008 kJ/mol
# GULP energy per Si atom -12392.055313 kJ/mol
# Density = 1.533559 g / cm^3
# Si number density = 15.370575 Si / 1000 Ang^3
#
#
#
# Elastic Constant Matrix: (Units=GPa)
#
#
# Indices 1 2 3 4 5 6 
#
# 1 69.4083 43.2503 24.5109 0.0000 0.0000 0.0000
# 2 43.2503 103.5754 54.5015 0.0000 0.0000 0.0000
# 3 24.5109 54.5015 32.5640 0.0000 0.0000 0.0000
# 4 0.0000 0.0000 0.0000 16.1778 0.0000 0.0000
# 5 0.0000 0.0000 0.0000 0.0000 21.6079 0.0000
# 6 0.0000 0.0000 0.0000 0.0000 0.0000 21.5972
#
#
#
# Elastic Compliance Matrix: (Units=1/GPa)
#
#
# Indices 1 2 3 4 5 6 
#
# 1 0.019779 -0.003565 -0.008922 0.000000 0.000000 0.000000
# 2 -0.003565 0.081563 -0.133826 0.000000 0.000000 0.000000
# 3 -0.008922 -0.133826 0.261405 0.000000 0.000000 0.000000
# 4 0.000000 0.000000 0.000000 0.061813 0.000000 0.000000
# 5 0.000000 0.000000 0.000000 0.000000 0.046279 0.000000
# 6 0.000000 0.000000 0.000000 0.000000 0.000000 0.046302
#
#
# Mechanical properties :
#
#
# Convention : Reuss Voigt Hill
#
# Bulk Modulus (GPa) = 14.26084 50.00811 32.13447
# Shear Modulus (GPa) = 6.00138 17.42892 11.71515
#
# Velocity S-wave (km/s) = 1.97811 3.37102 2.76376
# Velocity P-wave (km/s) = 3.80991 6.91066 5.57999
#
# Compressibility (1/GPa) = 0.07012212
#
# Stress axis : x y z
#
# Youngs Moduli (GPa) = 50.55764 12.26050 3.82547
#
# Poissons Ratio (x) = 0.04370 0.03413
# Poissons Ratio (y) = 0.18022 0.51195
# Poissons Ratio (z) = 0.45107 1.64078
#
# Static dielectric constant tensor:
#      x y z
#    x 2.904120 0.000000 0.000000 
#    y 0.000000 3.121590 0.000000 
#    z 0.000000 0.000000 2.769170 
# 
# 
# High freq. dielectric constant tensor:
#      x y z
#    x 1.592350 0.000000 0.000000 
#    y 0.000000 1.572940 0.000000 
#    z 0.000000 0.000000 1.549200 
# 
# From -- ./inp_files/20204.got.cif
#   From: 2010.03.12/outbox.cif.g09.slc.cpg/sg38_11_cif.got.tgz:20204.got - 2010.04.14 02:38:36.
