data_PCOD8177017
_publ_section_title
;
Structure prediction by ZEFSAII (Michael W. Deem and Ramdas Pophale) SiO2 
 PCOD8177017
Probable space group: C C C 2
;
_chemical_formula_sum "Si O2"
_cell_formula_units_Z 60
_cell_length_a 11.607532
_cell_length_b 20.605460
_cell_length_c 11.214289
_cell_angle_alpha 90.000000
_cell_angle_beta 90.000000
_cell_angle_gamma 90.000000
_cell_volume 2682.217229
_symmetry_space_group_name_H-M "C C C 2"
_symmetry_group_IT_number 37
_symmetry_cell_setting 'orthorhombic'
loop_
_space_group_symop_operation_xyz
x,y,z
-x,-y,z
-x,y,1/2+z
x,-y,1/2+z
1/2+x,1/2+y,z
1/2-x,1/2-y,z
1/2-x,1/2+y,1/2+z
1/2+x,1/2-y,1/2+z
loop_
_atom_site_type_symbol
_atom_site_label
_atom_site_fract_x
_atom_site_fract_y
_atom_site_fract_z
Si Si1 0.713873 0.914579 0.979300
Si Si2 0.379329 0.270831 0.614270
Si Si3 0.250000 0.250000 0.279647
Si Si4 0.569986 0.825681 0.149826
Si Si5 0.063280 0.434918 0.757010
Si Si6 0.902399 0.118457 0.290511
Si Si7 0.228276 0.954588 0.097519
Si Si8 0.866284 0.862812 0.412543
O O1 0.619770 0.942485 0.886957
O O2 0.823494 0.887340 0.908212
O O3 0.650978 0.857219 0.049917
O O4 0.756214 0.968716 0.074350
O O5 0.250000 0.250000 0.585055
O O6 0.453891 0.206150 0.599436
O O7 0.383823 0.308265 0.740982
O O8 0.426843 0.321562 0.516849
O O9 0.363074 0.235339 0.203836
O O10 0.225946 0.183670 0.349594
O O11 0.530095 0.877241 0.250340
O O12 0.157784 0.422599 0.654193
O O13 0.000000 0.500000 0.722232
O O14 0.873073 0.062381 0.192747
O O15 0.036026 0.109007 0.325046
O O16 0.203317 0.923181 0.968596
#
# Coordination Sequence:
#
# PCOD8177017 Si02
#       8
#     8   8   4   8   8   8   8   8
#     4  11  26  44  74 105 144 190 243 296 368 427
#     4  11  23  44  70 101 147 187 243 289 364 440
#     4  12  28  44  68 108 144 188 242 308 352 444
#     4  12  27  44  70 109 143 186 235 307 359 437
#     4  11  25  45  72 107 145 184 237 302 362 437
#     4  10  24  46  68 104 142 194 240 296 355 437
#     4  10  24  48  70 106 144 188 248 295 357 435
#     4  11  24  44  72  99 143 197 239 290 366 425
#
# _framework density 22.369554000000001
#
# number of rings (size 3 to 8) (size 9 to 14) (size 15 to 20)
#    0.000    1.067    3.333    2.400    7.467    1.600 
#    0.000    4.000    0.000    0.000    0.000    0.000 
#    0.000    0.000    0.000    0.000    0.000    0.000 
#
# Total GULP energy -371991.395140 kJ/mol
# GULP energy per Si atom -12399.713171 kJ/mol
# Density = 2.231864 g / cm^3
# Si number density = 22.369554 Si / 1000 Ang^3
#
#
#
# Elastic Constant Matrix: (Units=GPa)
#
#
# Indices 1 2 3 4 5 6 
#
# 1 108.3566 38.4499 42.4632 0.0000 0.0000 0.0000
# 2 38.4499 104.4762 33.3469 0.0000 0.0000 0.0000
# 3 42.4632 33.3469 87.7420 0.0000 0.0000 0.0000
# 4 0.0000 0.0000 0.0000 39.3465 0.0000 0.0000
# 5 0.0000 0.0000 0.0000 0.0000 34.4631 0.0000
# 6 0.0000 0.0000 0.0000 0.0000 0.0000 46.5006
#
#
#
# Elastic Compliance Matrix: (Units=1/GPa)
#
#
# Indices 1 2 3 4 5 6 
#
# 1 0.012138 -0.002950 -0.004753 0.000000 0.000000 0.000000
# 2 -0.002950 0.011610 -0.002985 0.000000 0.000000 0.000000
# 3 -0.004753 -0.002985 0.014832 0.000000 0.000000 0.000000
# 4 0.000000 0.000000 0.000000 0.025415 0.000000 0.000000
# 5 0.000000 0.000000 0.000000 0.000000 0.029017 0.000000
# 6 0.000000 0.000000 0.000000 0.000000 0.000000 0.021505
#
#
# Mechanical properties :
#
#
# Convention : Reuss Voigt Hill
#
# Bulk Modulus (GPa) = 58.12605 58.78831 58.45718
# Shear Modulus (GPa) = 35.30387 36.48303 35.89345
#
# Velocity S-wave (km/s) = 3.97698 4.04285 4.01005
# Velocity P-wave (km/s) = 6.86508 6.93761 6.90144
#
# Compressibility (1/GPa) = 0.01720399
#
# Stress axis : x y z
#
# Youngs Moduli (GPa) = 82.38370 86.13319 67.42290
#
# Poissons Ratio (x) = 0.25410 0.32048
# Poissons Ratio (y) = 0.24304 0.20124
# Poissons Ratio (z) = 0.39159 0.25708
#
# Static dielectric constant tensor:
#      x y z
#    x 4.018770 0.000000 0.000000 
#    y 0.000000 3.951720 0.000000 
#    z 0.000000 0.000000 4.101470 
# 
# 
# High freq. dielectric constant tensor:
#      x y z
#    x 1.887040 0.000000 0.000000 
#    y 0.000000 1.882500 0.000000 
#    z 0.000000 0.000000 1.877940 
# 
# From -- ./inp_files/7338.got.cif
#   From: 2010.03.12/outbox.cif.g09.slc.cpg/sg37_4_cif.got.tgz:7338.got - 2010.04.14 02:25:27.
