data_PCOD8177546
_publ_section_title
;
Structure prediction by ZEFSAII (Michael W. Deem and Ramdas Pophale) SiO2 
 PCOD8177546
Probable space group: A M M 2
;
_chemical_formula_sum "Si O2"
_cell_formula_units_Z 64
_cell_length_a 15.171251
_cell_length_b 13.304769
_cell_length_c 18.409521
_cell_angle_alpha 90.000000
_cell_angle_beta 90.000000
_cell_angle_gamma 90.000000
_cell_volume 3715.961630
_symmetry_space_group_name_H-M "A M M 2"
_symmetry_group_IT_number 38
_symmetry_cell_setting 'orthorhombic'
loop_
_space_group_symop_operation_xyz
x,y,z
-x,-y,z
-x,y,z
x,-y,z
x,1/2+y,1/2+z
-x,1/2-y,1/2+z
-x,1/2+y,1/2+z
x,1/2-y,1/2+z
loop_
_atom_site_type_symbol
_atom_site_label
_atom_site_fract_x
_atom_site_fract_y
_atom_site_fract_z
Si Si1 0.399575 0.111549 0.137580
Si Si2 0.272724 0.114677 0.598259
Si Si3 0.599656 0.190410 0.716307
Si Si4 0.130545 0.388234 0.323075
Si Si5 0.097355 0.881092 0.979556
Si Si6 0.904445 0.118572 0.668592
Si Si7 0.671512 0.886641 0.859260
Si Si8 0.283122 0.194700 0.013703
O O1 0.500000 0.124719 0.109851
O O2 0.378120 0.192398 0.200570
O O3 0.334769 0.124468 0.069668
O O4 0.384844 0.000000 0.170207
O O5 0.337029 0.120481 0.667715
O O6 0.175469 0.156875 0.619297
O O7 0.302647 0.188481 0.533315
O O8 0.271027 0.000000 0.569784
O O9 0.500000 0.165146 0.692979
O O10 0.608100 0.169373 0.802255
O O11 0.090711 0.500000 0.323200
O O12 0.096430 0.336451 0.397176
O O13 0.098341 0.332252 0.249705
O O14 0.235322 0.390625 0.319977
O O15 0.000000 0.859401 0.014423
O O16 0.117793 0.000000 0.977830
O O17 0.178273 0.829017 0.021443
O O18 0.000000 0.144062 0.633104
O O19 0.890146 0.000000 0.677755
O O20 0.637563 0.000000 0.875295
O O21 0.677887 0.824862 0.933978
#
# Coordination Sequence:
#
# PCOD8177546 Si02
#       8
#     8   8   8   8   8   8   8   8
#     4   9  18  34  53  72  98 132 166 197 233 286
#     4  10  20  34  48  68 100 134 166 203 243 291
#     4  10  20  33  53  78  99 124 160 200 248 295
#     4   8  13  23  40  63  93 122 148 188 241 286
#     4   9  16  26  43  69  99 128 158 197 247 296
#     4   9  15  24  42  66  92 125 161 196 236 279
#     4  10  18  30  48  72 100 123 152 200 249 286
#     4  10  20  32  49  71  99 133 165 201 243 296
#
# _framework density 17.222998
#
# number of rings (size 3 to 8) (size 9 to 14) (size 15 to 20)
#    0.000    2.625    1.250    2.625    0.000    3.500 
#    0.000    0.625    0.000    0.000    0.000    0.000 
#    0.000    0.000    0.000    0.000    0.000    0.000 
#
# Total GULP energy -396494.622105 kJ/mol
# GULP energy per Si atom -12390.456941 kJ/mol
# Density = 1.718380 g / cm^3
# Si number density = 17.222998 Si / 1000 Ang^3
#
#
#
# Elastic Constant Matrix: (Units=GPa)
#
#
# Indices 1 2 3 4 5 6 
#
# 1 79.7357 27.4209 28.5550 0.0000 0.0000 0.0000
# 2 27.4209 83.9895 43.6111 0.0000 0.0000 0.0000
# 3 28.5550 43.6111 82.1566 0.0000 0.0000 0.0000
# 4 0.0000 0.0000 0.0000 18.9103 0.0000 0.0000
# 5 0.0000 0.0000 0.0000 0.0000 19.6565 0.0000
# 6 0.0000 0.0000 0.0000 0.0000 0.0000 17.9685
#
#
#
# Elastic Compliance Matrix: (Units=1/GPa)
#
#
# Indices 1 2 3 4 5 6 
#
# 1 0.014850 -0.002993 -0.003573 0.000000 0.000000 0.000000
# 2 -0.002993 0.017040 -0.008005 0.000000 0.000000 0.000000
# 3 -0.003573 -0.008005 0.017663 0.000000 0.000000 0.000000
# 4 0.000000 0.000000 0.000000 0.052881 0.000000 0.000000
# 5 0.000000 0.000000 0.000000 0.000000 0.050874 0.000000
# 6 0.000000 0.000000 0.000000 0.000000 0.000000 0.055653
#
#
# Mechanical properties :
#
#
# Convention : Reuss Voigt Hill
#
# Bulk Modulus (GPa) = 48.99196 49.45065 49.22131
# Shear Modulus (GPa) = 20.41597 21.06005 20.73801
#
# Velocity S-wave (km/s) = 3.44668 3.50063 3.47376
# Velocity P-wave (km/s) = 6.65935 6.71666 6.68807
#
# Compressibility (1/GPa) = 0.02041151
#
# Stress axis : x y z
#
# Youngs Moduli (GPa) = 67.33905 58.68536 56.61602
#
# Poissons Ratio (x) = 0.17566 0.20226
# Poissons Ratio (y) = 0.20156 0.45321
# Poissons Ratio (z) = 0.24057 0.46977
#
# Static dielectric constant tensor:
#      x y z
#    x 3.359240 0.000000 0.000000 
#    y 0.000000 2.955340 0.000000 
#    z 0.000000 0.000000 3.032210 
# 
# 
# High freq. dielectric constant tensor:
#      x y z
#    x 1.679390 0.000000 0.000000 
#    y 0.000000 1.627480 0.000000 
#    z 0.000000 0.000000 1.642830 
# 
# From -- ./inp_files/18513.got.cif
#   From: 2010.03.12/outbox.cif.g09.slc.cpg/sg38_10_cif.got.tgz:18513.got - 2010.04.14 02:38:36.
