data_PCOD8177752
_publ_section_title
;
Structure prediction by ZEFSAII (Michael W. Deem and Ramdas Pophale) SiO2 
 PCOD8177752
Probable space group: A M M 2
;
_chemical_formula_sum "Si O2"
_cell_formula_units_Z 64
_cell_length_a 19.283719
_cell_length_b 9.015219
_cell_length_c 20.173855
_cell_angle_alpha 90.000000
_cell_angle_beta 90.000000
_cell_angle_gamma 90.000000
_cell_volume 3507.163160
_symmetry_space_group_name_H-M "A M M 2"
_symmetry_group_IT_number 38
_symmetry_cell_setting 'orthorhombic'
loop_
_space_group_symop_operation_xyz
x,y,z
-x,-y,z
-x,y,z
x,-y,z
x,1/2+y,1/2+z
-x,1/2-y,1/2+z
-x,1/2+y,1/2+z
x,1/2-y,1/2+z
loop_
_atom_site_type_symbol
_atom_site_label
_atom_site_fract_x
_atom_site_fract_y
_atom_site_fract_z
Si Si1 0.283309 0.673987 0.966140
Si Si2 0.924495 0.175988 0.778207
Si Si3 0.788633 0.674968 0.588017
Si Si4 0.576667 0.827372 0.765140
Si Si5 0.787721 0.329244 0.345344
Si Si6 0.921342 0.673892 0.128281
Si Si7 0.715131 0.168828 0.705594
Si Si8 0.423116 0.172768 0.401824
O O1 0.271779 0.500000 0.977282
O O2 0.240293 0.723440 0.902161
O O3 0.364868 0.713105 0.956224
O O4 0.258722 0.761794 0.029992
O O5 0.865394 0.229469 0.828684
O O6 0.910418 0.232089 0.703446
O O7 0.000000 0.233287 0.802867
O O8 0.924013 0.000000 0.774130
O O9 0.792071 0.500000 0.581843
O O10 0.866779 0.738922 0.582261
O O11 0.754309 0.719675 0.657571
O O12 0.500000 0.778816 0.740056
O O13 0.633091 0.790079 0.708201
O O14 0.596717 0.749018 0.833224
O O15 0.579258 0.000000 0.781633
O O16 0.788257 0.500000 0.369908
O O17 0.742271 0.312906 0.279847
O O18 0.905453 0.500000 0.122705
O O19 0.000000 0.708167 0.104722
O O20 0.726997 0.000000 0.680522
O O21 0.500000 0.222565 0.426877
O O22 0.421798 0.000000 0.386734
#
# Coordination Sequence:
#
# PCOD8177752 Si02
#       8
#     8   8   8   8   8   8   8   8
#     4  11  23  38  56  78 110 148 187 228 278 335
#     4   8  14  27  51  81 109 139 175 215 262 316
#     4  12  25  38  55  80 113 149 190 233 275 324
#     4   9  17  30  52  82 112 143 179 222 274 333
#     4  10  18  32  56  83 110 139 177 224 273 327
#     4   9  17  34  60  85 110 143 182 222 272 333
#     4  10  19  34  56  81 111 144 181 224 274 331
#     4   9  18  33  54  80 107 137 177 227 280 333
#
# _framework density 18.248366000000001
#
# number of rings (size 3 to 8) (size 9 to 14) (size 15 to 20)
#    0.000    2.250    2.500    2.250    0.000    1.750 
#    0.000    1.250    0.000    6.375    0.000    0.000 
#    0.000    0.000    0.000    0.000    0.000    0.000 
#
# Total GULP energy -396684.853489 kJ/mol
# GULP energy per Si atom -12396.401672 kJ/mol
# Density = 1.820683 g / cm^3
# Si number density = 18.248366 Si / 1000 Ang^3
#
#
#
# Elastic Constant Matrix: (Units=GPa)
#
#
# Indices 1 2 3 4 5 6 
#
# 1 143.4588 50.6035 41.5286 0.0000 0.0000 0.0000
# 2 50.6035 69.4803 29.4766 0.0000 0.0000 0.0000
# 3 41.5286 29.4766 51.8971 0.0000 0.0000 0.0000
# 4 0.0000 0.0000 0.0000 26.5246 0.0000 0.0000
# 5 0.0000 0.0000 0.0000 0.0000 24.7787 0.0000
# 6 0.0000 0.0000 0.0000 0.0000 0.0000 22.7708
#
#
#
# Elastic Compliance Matrix: (Units=1/GPa)
#
#
# Indices 1 2 3 4 5 6 
#
# 1 0.010375 -0.005315 -0.005283 0.000000 0.000000 0.000000
# 2 -0.005315 0.021684 -0.008063 0.000000 0.000000 0.000000
# 3 -0.005283 -0.008063 0.028077 0.000000 0.000000 0.000000
# 4 0.000000 0.000000 0.000000 0.037701 0.000000 0.000000
# 5 0.000000 0.000000 0.000000 0.000000 0.040357 0.000000
# 6 0.000000 0.000000 0.000000 0.000000 0.000000 0.043916
#
#
# Mechanical properties :
#
#
# Convention : Reuss Voigt Hill
#
# Bulk Modulus (GPa) = 43.83527 56.45041 50.14284
# Shear Modulus (GPa) = 22.02291 24.36333 23.19312
#
# Velocity S-wave (km/s) = 3.47773 3.65786 3.56893
# Velocity P-wave (km/s) = 6.34033 6.98868 6.67238
#
# Compressibility (1/GPa) = 0.02281268
#
# Stress axis : x y z
#
# Youngs Moduli (GPa) = 96.38778 46.11667 35.61695
#
# Poissons Ratio (x) = 0.24509 0.18818
# Poissons Ratio (y) = 0.51227 0.28719
# Poissons Ratio (z) = 0.50925 0.37185
#
# Static dielectric constant tensor:
#      x y z
#    x 4.136180 0.000000 0.000000 
#    y 0.000000 3.186580 0.000000 
#    z 0.000000 0.000000 3.115470 
# 
# 
# High freq. dielectric constant tensor:
#      x y z
#    x 1.733040 0.000000 0.000000 
#    y 0.000000 1.688240 0.000000 
#    z 0.000000 0.000000 1.672360 
# 
# From -- ./inp_files/18898.got.cif
#   From: 2010.03.12/outbox.cif.g09.slc.cpg/sg38_10_cif.got.tgz:18898.got - 2010.04.14 02:38:36.
