data_PCOD8177818
_publ_section_title
;
Structure prediction by ZEFSAII (Michael W. Deem and Ramdas Pophale) SiO2 
 PCOD8177818
Probable space group: A M M 2
;
_chemical_formula_sum "Si O2"
_cell_formula_units_Z 48
_cell_length_a 10.066360
_cell_length_b 9.156121
_cell_length_c 27.273054
_cell_angle_alpha 90.000000
_cell_angle_beta 90.000000
_cell_angle_gamma 90.000000
_cell_volume 2513.724937
_symmetry_space_group_name_H-M "A M M 2"
_symmetry_group_IT_number 38
_symmetry_cell_setting 'orthorhombic'
loop_
_space_group_symop_operation_xyz
x,y,z
-x,-y,z
-x,y,z
x,-y,z
x,1/2+y,1/2+z
-x,1/2-y,1/2+z
-x,1/2+y,1/2+z
x,1/2-y,1/2+z
loop_
_atom_site_type_symbol
_atom_site_label
_atom_site_fract_x
_atom_site_fract_y
_atom_site_fract_z
Si Si1 0.500000 0.826754 0.025620
Si Si2 0.225591 0.673425 0.483756
Si Si3 0.277863 0.831665 0.704716
Si Si4 0.348116 0.329505 0.802479
Si Si5 0.500000 0.333273 0.126803
Si Si6 0.000000 0.168593 0.658308
Si Si7 0.000000 0.173374 0.055797
Si Si8 0.847803 0.671664 0.376378
O O1 0.500000 0.771302 0.080676
O O2 0.500000 0.000000 0.028395
O O3 0.627588 0.768390 0.996074
O O4 0.219002 0.500000 0.482493
O O5 0.180638 0.733011 0.430870
O O6 0.128124 0.731225 0.526181
O O7 0.325106 0.729022 0.748127
O O8 0.368691 0.798796 0.657862
O O9 0.127050 0.792944 0.691196
O O10 0.292727 0.000000 0.721305
O O11 0.500000 0.298178 0.818366
O O12 0.316400 0.500000 0.802814
O O13 0.249470 0.250968 0.839384
O O14 0.500000 0.500000 0.108661
O O15 0.000000 0.263198 0.609705
O O16 0.000000 0.000000 0.642400
O O17 0.000000 0.000000 0.060164
O O18 0.819037 0.500000 0.373326
O O19 0.000000 0.705933 0.362139
#
# Coordination Sequence:
#
# PCOD8177818 Si02
#       8
#     4   8   8   8   4   4   4   8
#     4  10  20  32  53  84 115 147 188 235 279 332
#     4   9  18  34  56  84 113 146 191 236 276 330
#     4  10  21  39  60  82 113 151 194 239 282 339
#     4  11  25  42  60  86 119 150 188 241 297 350
#     4  10  20  36  57  80 111 151 192 237 285 334
#     4  10  22  36  55  86 117 147 190 237 279 336
#     4  10  18  34  57  80 113 151 188 233 283 334
#     4  10  21  39  64  89 115 151 196 241 286 341
#
# _framework density 19.095168999999999
#
# number of rings (size 3 to 8) (size 9 to 14) (size 15 to 20)
#    0.000    2.000    1.667    1.500    2.333    2.667 
#    0.000    1.667    0.000    0.000    0.000    0.000 
#    0.000    0.000    0.000    0.000    0.000    0.000 
#
# Total GULP energy -297660.834518 kJ/mol
# GULP energy per Si atom -12402.534772 kJ/mol
# Density = 1.905171 g / cm^3
# Si number density = 19.095169 Si / 1000 Ang^3
#
#
#
# Elastic Constant Matrix: (Units=GPa)
#
#
# Indices 1 2 3 4 5 6 
#
# 1 154.7490 51.3953 48.4893 0.0000 0.0000 0.0000
# 2 51.3953 55.0911 44.7487 0.0000 0.0000 0.0000
# 3 48.4893 44.7487 93.9453 0.0000 0.0000 0.0000
# 4 0.0000 0.0000 0.0000 31.2778 0.0000 0.0000
# 5 0.0000 0.0000 0.0000 0.0000 24.9121 0.0000
# 6 0.0000 0.0000 0.0000 0.0000 0.0000 21.5055
#
#
#
# Elastic Compliance Matrix: (Units=1/GPa)
#
#
# Indices 1 2 3 4 5 6 
#
# 1 0.009433 -0.007903 -0.001104 0.000000 0.000000 0.000000
# 2 -0.007903 0.036228 -0.013177 0.000000 0.000000 0.000000
# 3 -0.001104 -0.013177 0.017491 0.000000 0.000000 0.000000
# 4 0.000000 0.000000 0.000000 0.031972 0.000000 0.000000
# 5 0.000000 0.000000 0.000000 0.000000 0.040141 0.000000
# 6 0.000000 0.000000 0.000000 0.000000 0.000000 0.046500
#
#
# Mechanical properties :
#
#
# Convention : Reuss Voigt Hill
#
# Bulk Modulus (GPa) = 53.24006 65.89466 59.56736
# Shear Modulus (GPa) = 21.51508 26.14921 23.83214
#
# Velocity S-wave (km/s) = 3.36032 3.70458 3.53664
# Velocity P-wave (km/s) = 6.55726 7.27200 6.92386
#
# Compressibility (1/GPa) = 0.01878285
#
# Stress axis : x y z
#
# Youngs Moduli (GPa) = 106.01228 27.60279 57.17172
#
# Poissons Ratio (x) = 0.21815 0.06313
# Poissons Ratio (y) = 0.83783 0.75337
# Poissons Ratio (z) = 0.11706 0.36373
#
# Static dielectric constant tensor:
#      x y z
#    x 3.900460 0.000000 0.000000 
#    y 0.000000 3.247160 0.000000 
#    z 0.000000 0.000000 3.474160 
# 
# 
# High freq. dielectric constant tensor:
#      x y z
#    x 1.765220 0.000000 0.000000 
#    y 0.000000 1.715610 0.000000 
#    z 0.000000 0.000000 1.748120 
# 
# From -- ./inp_files/24488.got.cif
#   From: 2010.03.12/outbox.cif.g09.slc.cpg/sg38_13_cif.got.tgz:24488.got - 2010.04.14 02:38:36.
