data_PCOD8177315
_publ_section_title
;
Structure prediction by ZEFSAII (Michael W. Deem and Ramdas Pophale) SiO2 
 PCOD8177315
Probable space group: A M M 2
;
_chemical_formula_sum "Si O2"
_cell_formula_units_Z 48
_cell_length_a 19.243677
_cell_length_b 8.912601
_cell_length_c 14.954005
_cell_angle_alpha 90.000000
_cell_angle_beta 90.000000
_cell_angle_gamma 90.000000
_cell_volume 2564.779565
_symmetry_space_group_name_H-M "A M M 2"
_symmetry_group_IT_number 38
_symmetry_cell_setting 'orthorhombic'
loop_
_space_group_symop_operation_xyz
x,y,z
-x,-y,z
-x,y,z
x,-y,z
x,1/2+y,1/2+z
-x,1/2-y,1/2+z
-x,1/2+y,1/2+z
x,1/2-y,1/2+z
loop_
_atom_site_type_symbol
_atom_site_label
_atom_site_fract_x
_atom_site_fract_y
_atom_site_fract_z
Si Si1 0.500000 0.169421 0.323840
Si Si2 0.348876 0.829286 0.387655
Si Si3 0.000000 0.177778 0.901488
Si Si4 0.259397 0.322778 0.242493
Si Si5 0.104477 0.678199 0.250341
Si Si6 0.000000 0.677518 0.098813
Si Si7 0.500000 0.175921 0.642203
Si Si8 0.353422 0.323753 0.086254
O O1 0.568199 0.195530 0.383670
O O2 0.500000 0.292536 0.247144
O O3 0.500000 0.000000 0.284270
O O4 0.306054 0.716724 0.327131
O O5 0.325491 0.790099 0.487843
O O6 0.329871 0.000000 0.361895
O O7 0.066365 0.231197 0.841929
O O8 0.000000 0.249574 0.000271
O O9 0.000000 0.000000 0.915051
O O10 0.252836 0.500000 0.235698
O O11 0.182187 0.253217 0.250125
O O12 0.297694 0.254532 0.155302
O O13 0.104428 0.500000 0.251040
O O14 0.066366 0.729793 0.158486
O O15 0.000000 0.500000 0.084053
O O16 0.569984 0.248696 0.600662
O O17 0.500000 0.000000 0.623879
O O18 0.360184 0.500000 0.104627
#
# Coordination Sequence:
#
# PCOD8177315 Si02
#       8
#     4   8   4   8   8   4   4   8
#     4  10  19  31  49  70  98 130 161 205 263 306
#     4  10  20  34  50  72 101 133 165 206 260 306
#     4   9  17  33  54  76 102 135 167 199 244 298
#     4  10  19  34  53  74  99 132 171 208 243 294
#     4   8  17  33  52  73 104 138 164 196 250 303
#     4   9  17  33  56  80 102 131 169 207 240 286
#     4  10  17  31  53  72  90 124 173 213 243 290
#     4   9  18  31  50  71  94 126 166 206 247 295
#
# _framework density 18.715059
#
# number of rings (size 3 to 8) (size 9 to 14) (size 15 to 20)
#    0.000    2.667    1.667    1.500    0.000    3.333 
#    0.000    6.667    0.000    1.000    0.000    0.000 
#    0.000    0.000    0.000    0.000    0.000    0.000 
#
# Total GULP energy -297439.801157 kJ/mol
# GULP energy per Si atom -12393.325048 kJ/mol
# Density = 1.867246 g / cm^3
# Si number density = 18.715059 Si / 1000 Ang^3
#
#
#
# Elastic Constant Matrix: (Units=GPa)
#
#
# Indices 1 2 3 4 5 6 
#
# 1 157.3366 16.3590 67.0711 0.0000 0.0000 0.0000
# 2 16.3590 11.4922 14.3589 0.0000 0.0000 0.0000
# 3 67.0711 14.3589 141.4960 0.0000 0.0000 0.0000
# 4 0.0000 0.0000 0.0000 28.6830 0.0000 0.0000
# 5 0.0000 0.0000 0.0000 0.0000 8.7392 0.0000
# 6 0.0000 0.0000 0.0000 0.0000 0.0000 12.4424
#
#
#
# Elastic Compliance Matrix: (Units=1/GPa)
#
#
# Indices 1 2 3 4 5 6 
#
# 1 0.008587 -0.008175 -0.003241 0.000000 0.000000 0.000000
# 2 -0.008175 0.107432 -0.007027 0.000000 0.000000 0.000000
# 3 -0.003241 -0.007027 0.009317 0.000000 0.000000 0.000000
# 4 0.000000 0.000000 0.000000 0.034864 0.000000 0.000000
# 5 0.000000 0.000000 0.000000 0.000000 0.114427 0.000000
# 6 0.000000 0.000000 0.000000 0.000000 0.000000 0.080370
#
#
# Mechanical properties :
#
#
# Convention : Reuss Voigt Hill
#
# Bulk Modulus (GPa) = 11.30576 56.21142 33.75859
# Shear Modulus (GPa) = 11.86617 24.14198 18.00407
#
# Velocity S-wave (km/s) = 2.52075 3.59552 3.10499
# Velocity P-wave (km/s) = 3.81135 6.88023 5.56165
#
# Compressibility (1/GPa) = 0.08845046
#
# Stress axis : x y z
#
# Youngs Moduli (GPa) = 116.45046 9.30822 107.33390
#
# Poissons Ratio (x) = 0.07609 0.34787
# Poissons Ratio (y) = 0.95193 0.75426
# Poissons Ratio (z) = 0.37741 0.06541
#
# Static dielectric constant tensor:
#      x y z
#    x 3.878430 0.000000 0.000000 
#    y 0.000000 2.976180 0.000000 
#    z 0.000000 0.000000 3.417900 
# 
# 
# High freq. dielectric constant tensor:
#      x y z
#    x 1.733430 0.000000 0.000000 
#    y 0.000000 1.676720 0.000000 
#    z 0.000000 0.000000 1.732910 
# 
# From -- ./inp_files/15110.got.cif
#   From: 2010.03.12/outbox.cif.g09.slc.cpg/sg38_8_cif.got.tgz:15110.got - 2010.04.14 02:38:36.
