data_PCOD8177896
_publ_section_title
;
Structure prediction by ZEFSAII (Michael W. Deem and Ramdas Pophale) SiO2 
 PCOD8177896
Probable space group: A M M 2
;
_chemical_formula_sum "Si O2"
_cell_formula_units_Z 64
_cell_length_a 15.035856
_cell_length_b 9.448654
_cell_length_c 30.132997
_cell_angle_alpha 90.000000
_cell_angle_beta 90.000000
_cell_angle_gamma 90.000000
_cell_volume 4280.952726
_symmetry_space_group_name_H-M "A M M 2"
_symmetry_group_IT_number 38
_symmetry_cell_setting 'orthorhombic'
loop_
_space_group_symop_operation_xyz
x,y,z
-x,-y,z
-x,y,z
x,-y,z
x,1/2+y,1/2+z
-x,1/2-y,1/2+z
-x,1/2+y,1/2+z
x,1/2-y,1/2+z
loop_
_atom_site_type_symbol
_atom_site_label
_atom_site_fract_x
_atom_site_fract_y
_atom_site_fract_z
Si Si1 0.105624 0.658693 0.482480
Si Si2 0.239746 0.836749 0.734750
Si Si3 0.101249 0.834698 0.662186
Si Si4 0.894620 0.340389 0.580286
Si Si5 0.401303 0.340583 0.839116
Si Si6 0.232994 0.332959 0.337830
Si Si7 0.402902 0.658524 0.733717
Si Si8 0.894668 0.664178 0.899371
O O1 0.139820 0.500000 0.470590
O O2 0.141369 0.704163 0.531365
O O3 0.139188 0.771413 0.446218
O O4 0.000000 0.656661 0.483507
O O5 0.154578 0.789885 0.706182
O O6 0.220960 0.800043 0.785828
O O7 0.325685 0.757724 0.714906
O O8 0.261245 0.000000 0.728796
O O9 0.143926 0.759663 0.618916
O O10 0.000000 0.786078 0.670455
O O11 0.107600 0.000000 0.652933
O O12 0.864872 0.500000 0.590836
O O13 0.000000 0.326542 0.579989
O O14 0.500000 0.296104 0.856637
O O15 0.378575 0.500000 0.855538
O O16 0.326311 0.231022 0.856282
O O17 0.402181 0.337233 0.786476
O O18 0.230442 0.500000 0.348102
O O19 0.151018 0.253314 0.360502
O O20 0.500000 0.710689 0.716806
O O21 0.384978 0.500000 0.716730
O O22 0.866550 0.500000 0.897172
O O23 0.000000 0.682285 0.893647
#
# Coordination Sequence:
#
# PCOD8177896 Si02
#       8
#     8   8   8   8   8   8   8   8
#     4   8  14  26  43  60  78 100 127 163 207 249
#     4   9  18  29  40  57  80 109 143 173 201 234
#     4   9  17  28  40  55  79 110 141 171 200 232
#     4   8  14  25  41  60  79  99 127 164 205 246
#     4   8  14  26  43  60  79 103 130 165 210 252
#     4  10  19  29  42  59  81 111 144 176 207 240
#     4   8  14  25  41  59  77  99 128 164 208 250
#     4  10  20  31  42  58  81 109 142 176 206 241
#
# _framework density 14.949944
#
# number of rings (size 3 to 8) (size 9 to 14) (size 15 to 20)
#    0.000    3.250    0.000    2.250    0.000    3.250 
#    0.000    6.250    0.000    1.500    0.000    0.000 
#    0.000    1.000    0.000    7.000    0.000    6.000 
#
# Total GULP energy -396557.302202 kJ/mol
# GULP energy per Si atom -12392.415694 kJ/mol
# Density = 1.491592 g / cm^3
# Si number density = 14.949944 Si / 1000 Ang^3
#
#
#
# Elastic Constant Matrix: (Units=GPa)
#
#
# Indices 1 2 3 4 5 6 
#
# 1 68.8443 47.9817 41.0001 0.0000 0.0000 0.0000
# 2 47.9817 85.5775 49.6649 0.0000 0.0000 0.0000
# 3 41.0001 49.6649 73.0561 0.0000 0.0000 0.0000
# 4 0.0000 0.0000 0.0000 24.0475 0.0000 0.0000
# 5 0.0000 0.0000 0.0000 0.0000 1.6072 0.0000
# 6 0.0000 0.0000 0.0000 0.0000 0.0000 24.8722
#
#
#
# Elastic Compliance Matrix: (Units=1/GPa)
#
#
# Indices 1 2 3 4 5 6 
#
# 1 0.026295 -0.010205 -0.007819 0.000000 0.000000 0.000000
# 2 -0.010205 0.023260 -0.010086 0.000000 0.000000 0.000000
# 3 -0.007819 -0.010086 0.024933 0.000000 0.000000 0.000000
# 4 0.000000 0.000000 0.000000 0.041584 0.000000 0.000000
# 5 0.000000 0.000000 0.000000 0.000000 0.622210 0.000000
# 6 0.000000 0.000000 0.000000 0.000000 0.000000 0.040206
#
#
# Mechanical properties :
#
#
# Convention : Reuss Voigt Hill
#
# Bulk Modulus (GPa) = 54.74091 56.08570 55.41331
# Shear Modulus (GPa) = 5.94674 16.02745 10.98709
#
# Velocity S-wave (km/s) = 1.99660 3.27781 2.71389
# Velocity P-wave (km/s) = 6.48158 7.20572 6.85322
#
# Compressibility (1/GPa) = 0.01826787
#
# Stress axis : x y z
#
# Youngs Moduli (GPa) = 38.03022 42.99179 40.10767
#
# Poissons Ratio (x) = 0.43873 0.31362
# Poissons Ratio (y) = 0.38810 0.40451
# Poissons Ratio (z) = 0.29738 0.43360
#
# Static dielectric constant tensor:
#      x y z
#    x 2.887960 0.000000 0.000000 
#    y 0.000000 3.020280 0.000000 
#    z 0.000000 0.000000 2.929500 
# 
# 
# High freq. dielectric constant tensor:
#      x y z
#    x 1.544650 0.000000 0.000000 
#    y 0.000000 1.578630 0.000000 
#    z 0.000000 0.000000 1.545240 
# 
# From -- ./inp_files/25084.got.cif
#   From: 2010.03.12/outbox.cif.g09.slc.cpg/sg38_13_cif.got.tgz:25084.got - 2010.04.14 02:38:36.
