data_PCOD8177459
_publ_section_title
;
Structure prediction by ZEFSAII (Michael W. Deem and Ramdas Pophale) SiO2 
 PCOD8177459
Probable space group: A M M 2
;
_chemical_formula_sum "Si O2"
_cell_formula_units_Z 64
_cell_length_a 9.560217
_cell_length_b 18.150544
_cell_length_c 22.100320
_cell_angle_alpha 90.000000
_cell_angle_beta 90.000000
_cell_angle_gamma 90.000000
_cell_volume 3834.916906
_symmetry_space_group_name_H-M "A M M 2"
_symmetry_group_IT_number 38
_symmetry_cell_setting 'orthorhombic'
loop_
_space_group_symop_operation_xyz
x,y,z
-x,-y,z
-x,y,z
x,-y,z
x,1/2+y,1/2+z
-x,1/2-y,1/2+z
-x,1/2+y,1/2+z
x,1/2-y,1/2+z
loop_
_atom_site_type_symbol
_atom_site_label
_atom_site_fract_x
_atom_site_fract_y
_atom_site_fract_z
Si Si1 0.162042 0.172166 0.444900
Si Si2 0.657850 0.419201 0.721773
Si Si3 0.338094 0.084035 0.802079
Si Si4 0.838875 0.627937 0.188366
Si Si5 0.834068 0.416873 0.057132
Si Si6 0.157465 0.286132 0.734998
Si Si7 0.650392 0.081458 0.364166
Si Si8 0.163587 0.706438 0.356941
O O1 0.226129 0.144130 0.509046
O O2 0.221300 0.125021 0.390528
O O3 0.189148 0.256970 0.423667
O O4 0.000000 0.154975 0.446441
O O5 0.500000 0.403616 0.699581
O O6 0.706751 0.500000 0.696390
O O7 0.754378 0.350818 0.702371
O O8 0.666938 0.422782 0.793182
O O9 0.500000 0.108980 0.795300
O O10 0.259584 0.090844 0.738180
O O11 0.259780 0.133966 0.852407
O O12 0.329618 0.000000 0.824553
O O13 0.777989 0.602967 0.123619
O O14 0.830085 0.716097 0.191071
O O15 0.000000 0.601958 0.198338
O O16 0.785987 0.500000 0.039490
O O17 0.000000 0.411725 0.058648
O O18 0.208687 0.262215 0.802488
O O19 0.000000 0.315568 0.739105
O O20 0.500000 0.118296 0.380892
O O21 0.654450 0.000000 0.391925
O O22 0.000000 0.685202 0.347979
#
# Coordination Sequence:
#
# PCOD8177459 Si02
#       8
#     8   8   8   8   8   8   8   8
#     4  10  18  29  45  66  91 119 157 194 220 259
#     4   9  17  27  39  58  85 116 148 180 219 271
#     4  10  20  32  48  71  94 117 150 193 237 278
#     4   9  18  32  49  68  93 124 158 192 230 277
#     4   9  17  29  47  70  94 125 161 191 222 263
#     4   9  16  27  42  63  88 115 149 188 229 269
#     4   9  17  27  38  56  85 121 154 180 216 264
#     4   9  18  30  44  66  94 121 149 185 231 280
#
# _framework density 16.688758
#
# number of rings (size 3 to 8) (size 9 to 14) (size 15 to 20)
#    0.000    2.750    1.250    2.625    0.000    5.000 
#    0.000    1.875    0.000    2.250    0.000    0.875 
#    0.000    7.000    0.000    0.000    0.000    0.000 
#
# Total GULP energy -396439.448401 kJ/mol
# GULP energy per Si atom -12388.732763 kJ/mol
# Density = 1.665077 g / cm^3
# Si number density = 16.688758 Si / 1000 Ang^3
#
#
#
# Elastic Constant Matrix: (Units=GPa)
#
#
# Indices 1 2 3 4 5 6 
#
# 1 52.9112 41.5603 19.7090 0.0000 0.0000 0.0000
# 2 41.5603 91.1532 30.7833 0.0000 0.0000 0.0000
# 3 19.7090 30.7833 63.7597 0.0000 0.0000 0.0000
# 4 0.0000 0.0000 0.0000 22.2003 0.0000 0.0000
# 5 0.0000 0.0000 0.0000 0.0000 8.9741 0.0000
# 6 0.0000 0.0000 0.0000 0.0000 0.0000 27.6364
#
#
#
# Elastic Compliance Matrix: (Units=1/GPa)
#
#
# Indices 1 2 3 4 5 6 
#
# 1 0.029977 -0.012591 -0.003187 0.000000 0.000000 0.000000
# 2 -0.012591 0.018396 -0.004990 0.000000 0.000000 0.000000
# 3 -0.003187 -0.004990 0.019078 0.000000 0.000000 0.000000
# 4 0.000000 0.000000 0.000000 0.045045 0.000000 0.000000
# 5 0.000000 0.000000 0.000000 0.000000 0.111431 0.000000
# 6 0.000000 0.000000 0.000000 0.000000 0.000000 0.036184
#
#
# Mechanical properties :
#
#
# Convention : Reuss Voigt Hill
#
# Bulk Modulus (GPa) = 38.58746 43.54771 41.06758
# Shear Modulus (GPa) = 16.11416 19.48027 17.79721
#
# Velocity S-wave (km/s) = 3.11073 3.42024 3.26915
# Velocity P-wave (km/s) = 6.00618 6.46127 6.23788
#
# Compressibility (1/GPa) = 0.02591515
#
# Stress axis : x y z
#
# Youngs Moduli (GPa) = 33.35899 54.35824 52.41607
#
# Poissons Ratio (x) = 0.68444 0.16706
# Poissons Ratio (y) = 0.42003 0.26154
# Poissons Ratio (z) = 0.10632 0.27123
#
# Static dielectric constant tensor:
#      x y z
#    x 3.142630 0.000000 0.000000 
#    y 0.000000 3.342150 0.000000 
#    z 0.000000 0.000000 2.967260 
# 
# 
# High freq. dielectric constant tensor:
#      x y z
#    x 1.632380 0.000000 0.000000 
#    y 0.000000 1.642340 0.000000 
#    z 0.000000 0.000000 1.598790 
# 
# From -- ./inp_files/22258.got.cif
#   From: 2010.03.12/outbox.cif.g09.slc.cpg/sg38_12_cif.got.tgz:22258.got - 2010.04.14 02:38:36.
