data_PCOD8177686
_publ_section_title
;
Structure prediction by ZEFSAII (Michael W. Deem and Ramdas Pophale) SiO2 
 PCOD8177686
Probable space group: A M M 2
;
_chemical_formula_sum "Si O2"
_cell_formula_units_Z 64
_cell_length_a 9.277665
_cell_length_b 19.621690
_cell_length_c 20.678601
_cell_angle_alpha 90.000000
_cell_angle_beta 90.000000
_cell_angle_gamma 90.000000
_cell_volume 3764.404210
_symmetry_space_group_name_H-M "A M M 2"
_symmetry_group_IT_number 38
_symmetry_cell_setting 'orthorhombic'
loop_
_space_group_symop_operation_xyz
x,y,z
-x,-y,z
-x,y,z
x,-y,z
x,1/2+y,1/2+z
-x,1/2-y,1/2+z
-x,1/2+y,1/2+z
x,1/2-y,1/2+z
loop_
_atom_site_type_symbol
_atom_site_label
_atom_site_fract_x
_atom_site_fract_y
_atom_site_fract_z
Si Si1 0.833030 0.077820 0.845520
Si Si2 0.834188 0.424125 0.592781
Si Si3 0.329386 0.701923 0.397569
Si Si4 0.170421 0.426648 0.199049
Si Si5 0.170284 0.284560 0.153253
Si Si6 0.167709 0.289876 0.523252
Si Si7 0.666543 0.575057 0.722055
Si Si8 0.667388 0.216278 0.271356
O O1 0.735961 0.126593 0.889368
O O2 0.777165 0.086751 0.772166
O O3 0.000000 0.099391 0.852803
O O4 0.811741 0.000000 0.868622
O O5 0.796121 0.500000 0.567028
O O6 0.800099 0.369730 0.536866
O O7 0.747013 0.405344 0.656553
O O8 0.000000 0.418480 0.613311
O O9 0.500000 0.697114 0.404483
O O10 0.262511 0.734178 0.462583
O O11 0.281525 0.750697 0.338570
O O12 0.232552 0.500000 0.174080
O O13 0.219395 0.364180 0.153707
O O14 0.000000 0.432050 0.201182
O O15 0.218721 0.253940 0.084962
O O16 0.244585 0.246371 0.212069
O O17 0.000000 0.276705 0.163433
O O18 0.000000 0.277210 0.508045
O O19 0.500000 0.573196 0.703580
O O20 0.715792 0.500000 0.748185
O O21 0.696492 0.634391 0.774743
O O22 0.500000 0.232224 0.259112
#
# Coordination Sequence:
#
# PCOD8177686 Si02
#       8
#     8   8   8   8   8   8   8   8
#     4   9  17  31  52  75 100 132 167 203 245 294
#     4   9  17  30  48  71  99 127 157 196 241 289
#     4  11  23  35  48  70 102 139 171 205 250 296
#     4   8  14  26  48  77 102 124 156 200 248 295
#     4  10  18  31  54  78  98 126 167 207 247 295
#     4  10  21  34  48  71 100 133 171 206 244 294
#     4   9  17  30  50  74  98 125 159 199 244 295
#     4  10  20  33  50  74 101 128 163 206 253 294
#
# _framework density 17.001360999999999
#
# number of rings (size 3 to 8) (size 9 to 14) (size 15 to 20)
#    0.000    2.500    2.500    1.125    0.000    2.250 
#    0.000    1.250    0.000    1.125    0.000    0.000 
#    0.000    0.000    0.000    0.000    0.000    0.000 
#
# Total GULP energy -396643.754896 kJ/mol
# GULP energy per Si atom -12395.117340 kJ/mol
# Density = 1.696267 g / cm^3
# Si number density = 17.001361 Si / 1000 Ang^3
#
#
#
# Elastic Constant Matrix: (Units=GPa)
#
#
# Indices 1 2 3 4 5 6 
#
# 1 46.8129 34.2997 44.7981 0.0000 0.0000 0.0000
# 2 34.2997 109.1857 64.9320 0.0000 0.0000 0.0000
# 3 44.7981 64.9320 114.8466 0.0000 0.0000 0.0000
# 4 0.0000 0.0000 0.0000 21.5494 0.0000 0.0000
# 5 0.0000 0.0000 0.0000 0.0000 24.8899 0.0000
# 6 0.0000 0.0000 0.0000 0.0000 0.0000 18.2491
#
#
#
# Elastic Compliance Matrix: (Units=1/GPa)
#
#
# Indices 1 2 3 4 5 6 
#
# 1 0.035426 -0.004385 -0.011339 0.000000 0.000000 0.000000
# 2 -0.004385 0.014341 -0.006397 0.000000 0.000000 0.000000
# 3 -0.011339 -0.006397 0.016747 0.000000 0.000000 0.000000
# 4 0.000000 0.000000 0.000000 0.046405 0.000000 0.000000
# 5 0.000000 0.000000 0.000000 0.000000 0.040177 0.000000
# 6 0.000000 0.000000 0.000000 0.000000 0.000000 0.054797
#
#
# Mechanical properties :
#
#
# Convention : Reuss Voigt Hill
#
# Bulk Modulus (GPa) = 44.90318 62.10051 53.50185
# Shear Modulus (GPa) = 19.26332 21.39204 20.32768
#
# Velocity S-wave (km/s) = 3.36973 3.55104 3.46157
# Velocity P-wave (km/s) = 6.45050 7.30885 6.89305
#
# Compressibility (1/GPa) = 0.02227014
#
# Stress axis : x y z
#
# Youngs Moduli (GPa) = 28.22791 69.73087 59.71121
#
# Poissons Ratio (x) = 0.30580 0.67707
# Poissons Ratio (y) = 0.12379 0.38200
# Poissons Ratio (z) = 0.32008 0.44610
#
# Static dielectric constant tensor:
#      x y z
#    x 3.059690 0.000000 0.000000 
#    y 0.000000 3.807840 0.000000 
#    z 0.000000 0.000000 3.011430 
# 
# 
# High freq. dielectric constant tensor:
#      x y z
#    x 1.640600 0.000000 0.000000 
#    y 0.000000 1.666060 0.000000 
#    z 0.000000 0.000000 1.628350 
# 
# From -- ./inp_files/17228.got.cif
#   From: 2010.03.12/outbox.cif.g09.slc.cpg/sg38_9_cif.got.tgz:17228.got - 2010.04.14 02:38:36.
