data_PCOD8177716
_publ_section_title
;
Structure prediction by ZEFSAII (Michael W. Deem and Ramdas Pophale) SiO2 
 PCOD8177716
Probable space group: A M M 2
;
_chemical_formula_sum "Si O2"
_cell_formula_units_Z 64
_cell_length_a 9.397192
_cell_length_b 33.184575
_cell_length_c 11.758200
_cell_angle_alpha 90.000000
_cell_angle_beta 90.000000
_cell_angle_gamma 90.000000
_cell_volume 3666.698520
_symmetry_space_group_name_H-M "A M M 2"
_symmetry_group_IT_number 38
_symmetry_cell_setting 'orthorhombic'
loop_
_space_group_symop_operation_xyz
x,y,z
-x,-y,z
-x,y,z
x,-y,z
x,1/2+y,1/2+z
-x,1/2-y,1/2+z
-x,1/2+y,1/2+z
x,1/2-y,1/2+z
loop_
_atom_site_type_symbol
_atom_site_label
_atom_site_fract_x
_atom_site_fract_y
_atom_site_fract_z
Si Si1 0.164520 0.681546 0.718520
Si Si2 0.337141 0.454894 0.984307
Si Si3 0.836452 0.670399 0.457339
Si Si4 0.662492 0.169393 0.615563
Si Si5 0.665379 0.628096 0.882598
Si Si6 0.834734 0.270776 0.256276
Si Si7 0.160832 0.046053 0.710869
Si Si8 0.663385 0.109780 0.823551
O O1 0.195887 0.683353 0.584922
O O2 0.250496 0.645174 0.775117
O O3 0.215021 0.724527 0.768625
O O4 0.000000 0.673492 0.744215
O O5 0.500000 0.449516 0.027906
O O6 0.315964 0.500000 0.931668
O O7 0.303290 0.420027 0.892281
O O8 0.233042 0.448424 0.089027
O O9 0.799787 0.708104 0.375979
O O10 0.733731 0.633388 0.428154
O O11 0.000000 0.657067 0.440058
O O12 0.500000 0.183684 0.607499
O O13 0.716630 0.151329 0.496233
O O14 0.754775 0.207946 0.651308
O O15 0.680642 0.134410 0.707583
O O16 0.500000 0.635878 0.861562
O O17 0.000000 0.272652 0.224282
O O18 0.250596 0.068530 0.807781
O O19 0.000000 0.063209 0.703608
O O20 0.159471 0.000000 0.748800
O O21 0.500000 0.100652 0.853369
#
# Coordination Sequence:
#
# PCOD8177716 Si02
#       8
#     8   8   8   8   8   8   8   8
#     4  10  22  36  53  76 102 137 178 219 262 311
#     4   9  17  32  53  75 105 142 175 214 264 315
#     4   9  19  36  52  72 101 131 171 218 261 306
#     4   9  18  32  49  74 104 132 167 210 256 307
#     4  10  20  34  51  77 109 137 171 217 265 315
#     4   9  19  34  54  75  98 132 171 214 260 309
#     4  10  19  29  46  77 111 138 166 205 256 311
#     4  10  18  32  53  74 100 135 172 209 252 306
#
# _framework density 17.454394000000001
#
# number of rings (size 3 to 8) (size 9 to 14) (size 15 to 20)
#    0.000    2.500    1.250    0.750    1.750    3.250 
#    0.000    0.000    0.000    0.750    0.000    3.500 
#    0.000    0.000    0.000    0.000    0.000    0.000 
#
# Total GULP energy -396804.003957 kJ/mol
# GULP energy per Si atom -12400.125124 kJ/mol
# Density = 1.741467 g / cm^3
# Si number density = 17.454394 Si / 1000 Ang^3
#
#
#
# Elastic Constant Matrix: (Units=GPa)
#
#
# Indices 1 2 3 4 5 6 
#
# 1 88.5070 60.2744 39.0303 0.0000 0.0000 0.0000
# 2 60.2744 121.7019 47.3487 0.0000 0.0000 0.0000
# 3 39.0303 47.3487 76.0470 0.0000 0.0000 0.0000
# 4 0.0000 0.0000 0.0000 23.9598 0.0000 0.0000
# 5 0.0000 0.0000 0.0000 0.0000 27.7026 0.0000
# 6 0.0000 0.0000 0.0000 0.0000 0.0000 28.0147
#
#
#
# Elastic Compliance Matrix: (Units=1/GPa)
#
#
# Indices 1 2 3 4 5 6 
#
# 1 0.018368 -0.007165 -0.004966 0.000000 0.000000 0.000000
# 2 -0.007165 0.013638 -0.004814 0.000000 0.000000 0.000000
# 3 -0.004966 -0.004814 0.018696 0.000000 0.000000 0.000000
# 4 0.000000 0.000000 0.000000 0.041737 0.000000 0.000000
# 5 0.000000 0.000000 0.000000 0.000000 0.036098 0.000000
# 6 0.000000 0.000000 0.000000 0.000000 0.000000 0.035696
#
#
# Mechanical properties :
#
#
# Convention : Reuss Voigt Hill
#
# Bulk Modulus (GPa) = 59.48204 64.39584 61.93894
# Shear Modulus (GPa) = 24.54272 25.24225 24.89249
#
# Velocity S-wave (km/s) = 3.75388 3.80700 3.78053
# Velocity P-wave (km/s) = 7.27608 7.50321 7.39052
#
# Compressibility (1/GPa) = 0.01681180
#
# Stress axis : x y z
#
# Youngs Moduli (GPa) = 54.44289 73.32306 53.48728
#
# Poissons Ratio (x) = 0.52535 0.26562
# Poissons Ratio (y) = 0.39007 0.25750
# Poissons Ratio (z) = 0.27037 0.35300
#
# Static dielectric constant tensor:
#      x y z
#    x 3.312790 0.000000 0.000000 
#    y 0.000000 3.393610 0.000000 
#    z 0.000000 0.000000 2.954810 
# 
# 
# High freq. dielectric constant tensor:
#      x y z
#    x 1.677950 0.000000 0.000000 
#    y 0.000000 1.676650 0.000000 
#    z 0.000000 0.000000 1.643880 
# 
# From -- ./inp_files/8517.got.cif
#   From: 2010.03.12/outbox.cif.g09.slc.cpg/sg38_5_cif.got.tgz:8517.got - 2010.04.14 02:38:36.
