data_PCOD8177358
_publ_section_title
;
Structure prediction by ZEFSAII (Michael W. Deem and Ramdas Pophale) SiO2 
 PCOD8177358
Probable space group: A M M 2
;
_chemical_formula_sum "Si O2"
_cell_formula_units_Z 64
_cell_length_a 8.746701
_cell_length_b 18.484596
_cell_length_c 26.666728
_cell_angle_alpha 90.000000
_cell_angle_beta 90.000000
_cell_angle_gamma 90.000000
_cell_volume 4311.456165
_symmetry_space_group_name_H-M "A M M 2"
_symmetry_group_IT_number 38
_symmetry_cell_setting 'orthorhombic'
loop_
_space_group_symop_operation_xyz
x,y,z
-x,-y,z
-x,y,z
x,-y,z
x,1/2+y,1/2+z
-x,1/2-y,1/2+z
-x,1/2+y,1/2+z
x,1/2-y,1/2+z
loop_
_atom_site_type_symbol
_atom_site_label
_atom_site_fract_x
_atom_site_fract_y
_atom_site_fract_z
Si Si1 0.319151 0.081825 0.136930
Si Si2 0.818731 0.661045 0.434211
Si Si3 0.319899 0.083346 0.838545
Si Si4 0.681657 0.167790 0.233410
Si Si5 0.181180 0.292807 0.286325
Si Si6 0.319729 0.283436 0.882747
Si Si7 0.820196 0.082395 0.034072
Si Si8 0.320141 0.420511 0.829470
O O1 0.500000 0.082182 0.135558
O O2 0.259732 0.132826 0.181675
O O3 0.256624 0.113031 0.084551
O O4 0.258309 0.000000 0.145662
O O5 0.749711 0.611174 0.390769
O O6 0.755526 0.744064 0.430874
O O7 0.763678 0.630310 0.487510
O O8 0.000000 0.660294 0.429028
O O9 0.500000 0.096058 0.839905
O O10 0.248185 0.125750 0.790522
O O11 0.276145 0.000000 0.831685
O O12 0.500000 0.175989 0.235167
O O13 0.755829 0.247861 0.238503
O O14 0.741550 0.116140 0.278429
O O15 0.242384 0.253120 0.335261
O O16 0.000000 0.295579 0.284708
O O17 0.500000 0.268981 0.881855
O O18 0.283509 0.369481 0.877989
O O19 0.000000 0.087643 0.040815
O O20 0.767723 0.000000 0.024292
O O21 0.500000 0.429249 0.823562
O O22 0.244990 0.500000 0.837161
#
# Coordination Sequence:
#
# PCOD8177358 Si02
#       8
#     8   8   8   8   8   8   8   8
#     4   9  17  28  43  62  81 104 136 172 205 235
#     4  10  18  28  42  57  78 109 140 167 199 241
#     4  10  19  29  42  60  81 105 134 168 203 237
#     4   9  16  27  42  58  79 106 135 165 196 232
#     4  10  18  27  40  57  79 106 134 163 195 235
#     4   9  16  26  40  57  78 103 132 167 201 234
#     4   9  18  30  41  55  78 107 136 167 202 237
#     4   8  13  22  38  58  78 102 131 160 191 230
#
# _framework density 14.844173
#
# number of rings (size 3 to 8) (size 9 to 14) (size 15 to 20)
#    0.000    2.750    0.000    5.250    0.000    4.500 
#    0.000    1.250    0.000   12.375    0.000    0.000 
#    0.000    1.000    0.000    5.500    0.000    3.750 
#
# Total GULP energy -396547.356628 kJ/mol
# GULP energy per Si atom -12392.104895 kJ/mol
# Density = 1.481039 g / cm^3
# Si number density = 14.844173 Si / 1000 Ang^3
#
#
#
# Elastic Constant Matrix: (Units=GPa)
#
#
# Indices 1 2 3 4 5 6 
#
# 1 55.5234 34.7128 29.1373 0.0000 0.0000 0.0000
# 2 34.7128 122.1983 65.9109 0.0000 0.0000 0.0000
# 3 29.1373 65.9109 96.5661 0.0000 0.0000 0.0000
# 4 0.0000 0.0000 0.0000 27.7706 0.0000 0.0000
# 5 0.0000 0.0000 0.0000 0.0000 19.9006 0.0000
# 6 0.0000 0.0000 0.0000 0.0000 0.0000 12.7336
#
#
#
# Elastic Compliance Matrix: (Units=1/GPa)
#
#
# Indices 1 2 3 4 5 6 
#
# 1 0.022787 -0.004375 -0.003889 0.000000 0.000000 0.000000
# 2 -0.004375 0.013792 -0.008093 0.000000 0.000000 0.000000
# 3 -0.003889 -0.008093 0.017053 0.000000 0.000000 0.000000
# 4 0.000000 0.000000 0.000000 0.036009 0.000000 0.000000
# 5 0.000000 0.000000 0.000000 0.000000 0.050250 0.000000
# 6 0.000000 0.000000 0.000000 0.000000 0.000000 0.078533
#
#
# Mechanical properties :
#
#
# Convention : Reuss Voigt Hill
#
# Bulk Modulus (GPa) = 47.81021 59.31221 53.56121
# Shear Modulus (GPa) = 19.37153 21.71607 20.54380
#
# Velocity S-wave (km/s) = 3.61639 3.82898 3.72420
# Velocity P-wave (km/s) = 7.05093 7.71955 7.39280
#
# Compressibility (1/GPa) = 0.02091603
#
# Stress axis : x y z
#
# Youngs Moduli (GPa) = 43.88503 72.50778 58.64017
#
# Poissons Ratio (x) = 0.31724 0.22807
# Poissons Ratio (y) = 0.19201 0.47459
# Poissons Ratio (z) = 0.17068 0.58682
#
# Static dielectric constant tensor:
#      x y z
#    x 2.811340 0.000000 0.000000 
#    y 0.000000 3.388350 0.000000 
#    z 0.000000 0.000000 2.857930 
# 
# 
# High freq. dielectric constant tensor:
#      x y z
#    x 1.567000 0.000000 0.000000 
#    y 0.000000 1.562450 0.000000 
#    z 0.000000 0.000000 1.533580 
# 
# From -- ./inp_files/23651.got.cif
#   From: 2010.03.12/outbox.cif.g09.slc.cpg/sg38_12_cif.got.tgz:23651.got - 2010.04.14 02:38:36.
