data_PCOD8177267
_publ_section_title
;
Structure prediction by ZEFSAII (Michael W. Deem and Ramdas Pophale) SiO2 
 PCOD8177267
Probable space group: A M M 2
;
_chemical_formula_sum "Si O2"
_cell_formula_units_Z 64
_cell_length_a 14.215784
_cell_length_b 9.119210
_cell_length_c 31.059890
_cell_angle_alpha 90.000000
_cell_angle_beta 90.000000
_cell_angle_gamma 90.000000
_cell_volume 4026.502251
_symmetry_space_group_name_H-M "A M M 2"
_symmetry_group_IT_number 38
_symmetry_cell_setting 'orthorhombic'
loop_
_space_group_symop_operation_xyz
x,y,z
-x,-y,z
-x,y,z
x,-y,z
x,1/2+y,1/2+z
-x,1/2-y,1/2+z
-x,1/2+y,1/2+z
x,1/2-y,1/2+z
loop_
_atom_site_type_symbol
_atom_site_label
_atom_site_fract_x
_atom_site_fract_y
_atom_site_fract_z
Si Si1 0.388109 0.163445 0.014810
Si Si2 0.282918 0.673175 0.673790
Si Si3 0.106608 0.829581 0.701741
Si Si4 0.611388 0.667885 0.097948
Si Si5 0.293854 0.825432 0.836549
Si Si6 0.101897 0.825929 0.799482
Si Si7 0.604844 0.674453 0.420813
Si Si8 0.608807 0.169250 0.259402
O O1 0.500000 0.155933 0.013818
O O2 0.352275 0.272749 0.051799
O O3 0.347871 0.000000 0.023751
O O4 0.355042 0.222750 0.967712
O O5 0.280093 0.500000 0.668616
O O6 0.177210 0.736535 0.672183
O O7 0.342079 0.737246 0.634856
O O8 0.332220 0.722130 0.718148
O O9 0.117615 0.772513 0.750671
O O10 0.000000 0.802943 0.685591
O O11 0.133456 0.000000 0.698215
O O12 0.500000 0.686123 0.101900
O O13 0.642915 0.500000 0.102233
O O14 0.187125 0.767318 0.829051
O O15 0.326751 0.766818 0.883191
O O16 0.363138 0.764571 0.800403
O O17 0.298524 0.000000 0.833872
O O18 0.000000 0.767345 0.816401
O O19 0.099927 0.000000 0.799458
O O20 0.500000 0.738667 0.412926
O O21 0.599665 0.500000 0.419841
O O22 0.500000 0.196482 0.248795
O O23 0.629326 0.000000 0.269852
#
# Coordination Sequence:
#
# PCOD8177267 Si02
#       8
#     8   8   8   8   8   8   8   8
#     4   8  14  27  45  62  85 116 147 183 230 277
#     4  11  21  32  47  66  91 123 156 188 227 277
#     4   9  17  31  49  67  90 119 152 193 236 272
#     4  10  20  32  47  68  92 117 152 195 232 272
#     4  10  17  27  46  67  87 116 156 192 219 259
#     4   8  14  25  42  64  89 116 147 187 230 263
#     4   8  14  24  40  65  91 113 144 187 228 266
#     4  10  21  33  41  56  89 126 153 179 217 265
#
# _framework density 15.894689
#
# number of rings (size 3 to 8) (size 9 to 14) (size 15 to 20)
#    0.000    2.750    1.250    3.000    0.000    2.750 
#    0.000    0.625    0.000    2.625    0.000    0.875 
#    0.000    3.000    0.000    0.000    0.000    0.000 
#
# Total GULP energy -396662.023452 kJ/mol
# GULP energy per Si atom -12395.688233 kJ/mol
# Density = 1.585851 g / cm^3
# Si number density = 15.894689 Si / 1000 Ang^3
#
#
#
# Elastic Constant Matrix: (Units=GPa)
#
#
# Indices 1 2 3 4 5 6 
#
# 1 71.2270 29.5914 35.5024 0.0000 0.0000 0.0000
# 2 29.5914 50.8719 39.6092 0.0000 0.0000 0.0000
# 3 35.5024 39.6092 107.0459 0.0000 0.0000 0.0000
# 4 0.0000 0.0000 0.0000 19.4748 0.0000 0.0000
# 5 0.0000 0.0000 0.0000 0.0000 10.7293 0.0000
# 6 0.0000 0.0000 0.0000 0.0000 0.0000 18.0625
#
#
#
# Elastic Compliance Matrix: (Units=1/GPa)
#
#
# Indices 1 2 3 4 5 6 
#
# 1 0.019240 -0.008742 -0.003146 0.000000 0.000000 0.000000
# 2 -0.008742 0.031584 -0.008788 0.000000 0.000000 0.000000
# 3 -0.003146 -0.008788 0.013637 0.000000 0.000000 0.000000
# 4 0.000000 0.000000 0.000000 0.051348 0.000000 0.000000
# 5 0.000000 0.000000 0.000000 0.000000 0.093203 0.000000
# 6 0.000000 0.000000 0.000000 0.000000 0.000000 0.055363
#
#
# Mechanical properties :
#
#
# Convention : Reuss Voigt Hill
#
# Bulk Modulus (GPa) = 43.27216 48.72784 46.00000
# Shear Modulus (GPa) = 15.95257 17.94945 16.95101
#
# Velocity S-wave (km/s) = 3.17147 3.36411 3.26921
# Velocity P-wave (km/s) = 6.37921 6.76852 6.57675
#
# Compressibility (1/GPa) = 0.02310955
#
# Stress axis : x y z
#
# Youngs Moduli (GPa) = 51.97615 31.66151 73.33062
#
# Poissons Ratio (x) = 0.27677 0.23072
# Poissons Ratio (y) = 0.45435 0.64440
# Poissons Ratio (z) = 0.16354 0.27823
#
# Static dielectric constant tensor:
#      x y z
#    x 3.116060 0.000000 0.000000 
#    y 0.000000 2.828570 0.000000 
#    z 0.000000 0.000000 3.182120 
# 
# 
# High freq. dielectric constant tensor:
#      x y z
#    x 1.593830 0.000000 0.000000 
#    y 0.000000 1.590630 0.000000 
#    z 0.000000 0.000000 1.601180 
# 
# From -- ./inp_files/25108.got.cif
#   From: 2010.03.12/outbox.cif.g09.slc.cpg/sg38_13_cif.got.tgz:25108.got - 2010.04.14 02:38:36.
