data_PCOD8177096
_publ_section_title
;
Structure prediction by ZEFSAII (Michael W. Deem and Ramdas Pophale) SiO2 
 PCOD8177096
Probable space group: C C C 2
;
_chemical_formula_sum "Si O2"
_cell_formula_units_Z 56
_cell_length_a 16.396697
_cell_length_b 10.548372
_cell_length_c 14.184457
_cell_angle_alpha 90.000000
_cell_angle_beta 90.000000
_cell_angle_gamma 90.000000
_cell_volume 2453.321832
_symmetry_space_group_name_H-M "C C C 2"
_symmetry_group_IT_number 37
_symmetry_cell_setting 'orthorhombic'
loop_
_space_group_symop_operation_xyz
x,y,z
-x,-y,z
-x,y,1/2+z
x,-y,1/2+z
1/2+x,1/2+y,z
1/2-x,1/2-y,z
1/2-x,1/2+y,1/2+z
1/2+x,1/2-y,1/2+z
loop_
_atom_site_type_symbol
_atom_site_label
_atom_site_fract_x
_atom_site_fract_y
_atom_site_fract_z
Si Si1 0.285633 0.621526 0.992660
Si Si2 0.967281 0.867953 0.560930
Si Si3 0.799329 0.122920 0.790962
Si Si4 0.485661 0.636016 0.771792
Si Si5 0.066961 0.606623 0.314649
Si Si6 0.182665 0.493339 0.656054
Si Si7 0.562716 0.887550 0.023886
O O1 0.250000 0.750000 0.952333
O O2 0.294567 0.547214 0.892133
O O3 0.372978 0.644900 0.037620
O O4 0.216965 0.577811 0.065187
O O5 0.971163 0.874162 0.672142
O O6 0.018337 0.748290 0.523049
O O7 0.000000 0.000000 0.516575
O O8 0.750000 0.250000 0.788001
O O9 0.890398 0.161721 0.764071
O O10 0.763352 0.036271 0.709204
O O11 0.500000 0.500000 0.824604
O O12 0.527007 0.754568 0.823082
O O13 0.132576 0.595326 0.229879
O O14 0.103657 0.586821 0.420473
O O15 0.000000 0.500000 0.293581
O O16 0.128157 0.606423 0.609804
O O17 0.500000 0.000000 0.046133
#
# Coordination Sequence:
#
# PCOD8177096 Si02
#       7
#     8   8   8   8   8   8   8
#     4  11  24  42  64  91 128 172 211 253 317 390
#     4  11  23  42  67  95 129 170 213 260 315 378
#     4  11  24  42  64  91 128 172 211 253 317 390
#     4  11  23  42  67  95 129 170 213 260 315 378
#     4  11  23  40  66  97 128 168 217 266 318 378
#     4  12  23  40  65  96 128 162 214 272 317 366
#     4  11  23  40  66  97 128 168 217 266 318 378
#
# _framework density 22.826195999999999
#
# number of rings (size 3 to 8) (size 9 to 14) (size 15 to 20)
#    0.000    0.857    0.000    9.000    0.000    6.857 
#    0.000    0.000    0.000    6.857    0.000    0.000 
#    0.000    0.000    0.000    0.000    0.000    0.000 
#
# Total GULP energy -346885.696486 kJ/mol
# GULP energy per Si atom -12388.774875 kJ/mol
# Density = 2.277424 g / cm^3
# Si number density = 22.826196 Si / 1000 Ang^3
#
#
#
# Elastic Constant Matrix: (Units=GPa)
#
#
# Indices 1 2 3 4 5 6 
#
# 1 111.5524 23.4155 26.1235 0.0000 0.0000 0.0000
# 2 23.4155 106.3922 16.5908 0.0000 0.0000 0.0000
# 3 26.1235 16.5908 128.7260 0.0000 0.0000 0.0000
# 4 0.0000 0.0000 0.0000 -9.0475 0.0000 0.0000
# 5 0.0000 0.0000 0.0000 0.0000 104.9596 0.0000
# 6 0.0000 0.0000 0.0000 0.0000 0.0000 29.8958
#
#
#
# Elastic Compliance Matrix: (Units=1/GPa)
#
#
# Indices 1 2 3 4 5 6 
#
# 1 0.009766 -0.001878 -0.001740 0.000000 0.000000 0.000000
# 2 -0.001878 0.009953 -0.000902 0.000000 0.000000 0.000000
# 3 -0.001740 -0.000902 0.008238 0.000000 0.000000 0.000000
# 4 0.000000 0.000000 0.000000 -0.110528 0.000000 0.000000
# 5 0.000000 0.000000 0.000000 0.000000 0.009527 0.000000
# 6 0.000000 0.000000 0.000000 0.000000 0.000000 0.033449
#
#
# Mechanical properties :
#
#
# Convention : Reuss Voigt Hill
#
# Bulk Modulus (GPa) = 52.86047 53.21446 53.03747
# Shear Modulus (GPa) = -206.19251 43.86431 -81.16410
#
# Velocity S-wave (km/s) = -9.51460 4.38844 -5.96947
# Velocity P-wave (km/s) = 9.87398 7.00295 4.92210
#
# Compressibility (1/GPa) = 0.01891773
#
# Stress axis : x y z
#
# Youngs Moduli (GPa) = 102.39550 100.47096 121.39257
#
# Poissons Ratio (x) = 0.18869 0.21121
# Poissons Ratio (y) = 0.19231 0.10946
# Poissons Ratio (z) = 0.17815 0.09059
#
# Static dielectric constant tensor:
#      x y z
#    x 3.917100 0.000000 0.000000 
#    y 0.000000 4.317620 0.000000 
#    z 0.000000 0.000000 4.481730 
# 
# 
# High freq. dielectric constant tensor:
#      x y z
#    x 1.898260 0.000000 0.000000 
#    y 0.000000 1.890670 0.000000 
#    z 0.000000 0.000000 1.931510 
# 
# From -- ./inp_files/12134.got.cif
#   From: 2010.03.12/outbox.cif.g09.slc.cpg/sg37_7_cif.got.tgz:12134.got - 2010.04.14 02:25:27.
