data_PCOD8177375
_publ_section_title
;
Structure prediction by ZEFSAII (Michael W. Deem and Ramdas Pophale) SiO2 
 PCOD8177375
Probable space group: A M M 2
;
_chemical_formula_sum "Si O2"
_cell_formula_units_Z 64
_cell_length_a 8.715419
_cell_length_b 26.636400
_cell_length_c 18.532609
_cell_angle_alpha 90.000000
_cell_angle_beta 90.000000
_cell_angle_gamma 90.000000
_cell_volume 4302.296747
_symmetry_space_group_name_H-M "A M M 2"
_symmetry_group_IT_number 38
_symmetry_cell_setting 'orthorhombic'
loop_
_space_group_symop_operation_xyz
x,y,z
-x,-y,z
-x,y,z
x,-y,z
x,1/2+y,1/2+z
-x,1/2-y,1/2+z
-x,1/2+y,1/2+z
x,1/2-y,1/2+z
loop_
_atom_site_type_symbol
_atom_site_label
_atom_site_fract_x
_atom_site_fract_y
_atom_site_fract_z
Si Si1 0.179599 0.653232 0.379460
Si Si2 0.684378 0.257441 0.467269
Si Si3 0.318791 0.055414 0.114308
Si Si4 0.332252 0.301632 0.836881
Si Si5 0.822418 0.556264 0.463783
Si Si6 0.818241 0.255445 0.622764
Si Si7 0.329808 0.299997 0.247882
Si Si8 0.684258 0.350182 0.700001
O O1 0.261427 0.688637 0.438230
O O2 0.215618 0.595585 0.400551
O O3 0.242265 0.660010 0.298319
O O4 0.000000 0.665506 0.380852
O O5 0.500000 0.257654 0.469823
O O6 0.748187 0.213511 0.412366
O O7 0.755496 0.243920 0.543552
O O8 0.500000 0.054292 0.115539
O O9 0.259443 0.095287 0.173528
O O10 0.252071 0.000000 0.132905
O O11 0.268328 0.072573 0.035136
O O12 0.500000 0.322726 0.856016
O O13 0.345152 0.251322 0.790667
O O14 0.251837 0.341903 0.782629
O O15 0.774801 0.500000 0.438440
O O16 0.000000 0.558246 0.484495
O O17 0.763558 0.210022 0.674320
O O18 0.753153 0.309072 0.646503
O O19 0.000000 0.257606 0.622305
O O20 0.500000 0.320503 0.229127
O O21 0.500000 0.344287 0.698615
#
# Coordination Sequence:
#
# PCOD8177375 Si02
#       8
#     8   8   8   8   8   8   8   8
#     4  10  18  28  43  62  82 106 140 176 206 237
#     4  10  18  28  41  57  80 109 139 168 204 249
#     4   9  17  27  40  59  81 106 139 177 209 238
#     4   7  13  25  40  55  71  98 132 161 190 235
#     4   9  18  30  41  55  80 112 141 170 204 240
#     4  11  20  28  40  60  83 105 135 172 206 240
#     4   9  17  30  44  58  79 107 135 162 202 250
#     4   9  16  28  43  57  78 108 139 168 203 246
#
# _framework density 14.875775000000001
#
# number of rings (size 3 to 8) (size 9 to 14) (size 15 to 20)
#    0.000    2.750    0.000    4.500    0.000    3.500 
#    0.000    0.625    0.000    0.000    0.000    0.000 
#    0.000    1.000    0.000    4.000    0.000    2.375 
#
# Total GULP energy -396488.709972 kJ/mol
# GULP energy per Si atom -12390.272187 kJ/mol
# Density = 1.484192 g / cm^3
# Si number density = 14.875775 Si / 1000 Ang^3
#
#
#
# Elastic Constant Matrix: (Units=GPa)
#
#
# Indices 1 2 3 4 5 6 
#
# 1 52.3831 24.2092 31.2766 0.0000 0.0000 0.0000
# 2 24.2092 83.6263 60.4638 0.0000 0.0000 0.0000
# 3 31.2766 60.4638 120.2184 0.0000 0.0000 0.0000
# 4 0.0000 0.0000 0.0000 24.7609 0.0000 0.0000
# 5 0.0000 0.0000 0.0000 0.0000 18.3361 0.0000
# 6 0.0000 0.0000 0.0000 0.0000 0.0000 14.8875
#
#
#
# Elastic Compliance Matrix: (Units=1/GPa)
#
#
# Indices 1 2 3 4 5 6 
#
# 1 0.023313 -0.003714 -0.004197 0.000000 0.000000 0.000000
# 2 -0.003714 0.019383 -0.008782 0.000000 0.000000 0.000000
# 3 -0.004197 -0.008782 0.013827 0.000000 0.000000 0.000000
# 4 0.000000 0.000000 0.000000 0.040386 0.000000 0.000000
# 5 0.000000 0.000000 0.000000 0.000000 0.054537 0.000000
# 6 0.000000 0.000000 0.000000 0.000000 0.000000 0.067170
#
#
# Mechanical properties :
#
#
# Convention : Reuss Voigt Hill
#
# Bulk Modulus (GPa) = 43.22352 54.23631 48.72991
# Shear Modulus (GPa) = 19.25178 20.94878 20.10028
#
# Velocity S-wave (km/s) = 3.60136 3.75673 3.67987
# Velocity P-wave (km/s) = 6.81267 7.44016 7.13332
#
# Compressibility (1/GPa) = 0.02313555
#
# Stress axis : x y z
#
# Youngs Moduli (GPa) = 42.89513 51.59133 72.32112
#
# Poissons Ratio (x) = 0.19162 0.30353
# Poissons Ratio (y) = 0.15932 0.63515
# Poissons Ratio (z) = 0.18003 0.45310
#
# Static dielectric constant tensor:
#      x y z
#    x 2.878190 0.000000 0.000000 
#    y 0.000000 2.957490 0.000000 
#    z 0.000000 0.000000 3.096180 
# 
# 
# High freq. dielectric constant tensor:
#      x y z
#    x 1.568700 0.000000 0.000000 
#    y 0.000000 1.536650 0.000000 
#    z 0.000000 0.000000 1.562240 
# 
# From -- ./inp_files/17330.got.cif
#   From: 2010.03.12/outbox.cif.g09.slc.cpg/sg38_9_cif.got.tgz:17330.got - 2010.04.14 02:38:36.
