data_PCOD8177053
_publ_section_title
;
Structure prediction by ZEFSAII (Michael W. Deem and Ramdas Pophale) SiO2 
 PCOD8177053
Probable space group: C C C 2
;
_chemical_formula_sum "Si O2"
_cell_formula_units_Z 64
_cell_length_a 14.397779
_cell_length_b 17.249317
_cell_length_c 12.813027
_cell_angle_alpha 90.000000
_cell_angle_beta 90.000000
_cell_angle_gamma 90.000000
_cell_volume 3182.139012
_symmetry_space_group_name_H-M "C C C 2"
_symmetry_group_IT_number 37
_symmetry_cell_setting 'orthorhombic'
loop_
_space_group_symop_operation_xyz
x,y,z
-x,-y,z
-x,y,1/2+z
x,-y,1/2+z
1/2+x,1/2+y,z
1/2-x,1/2-y,z
1/2-x,1/2+y,1/2+z
1/2+x,1/2-y,1/2+z
loop_
_atom_site_type_symbol
_atom_site_label
_atom_site_fract_x
_atom_site_fract_y
_atom_site_fract_z
Si Si1 0.096980 0.167351 0.753120
Si Si2 0.853904 0.281211 0.654751
Si Si3 0.908225 0.845216 0.312417
Si Si4 0.762875 0.572152 0.216843
Si Si5 0.864142 0.960398 0.027651
Si Si6 0.757300 0.426165 0.336456
Si Si7 0.952127 0.128136 0.036850
Si Si8 0.648730 0.213841 0.421392
O O1 0.196825 0.127058 0.758454
O O2 0.079084 0.185051 0.630738
O O3 0.091592 0.242462 0.830145
O O4 0.007792 0.113126 0.786250
O O5 0.750000 0.250000 0.646813
O O6 0.910412 0.231869 0.739827
O O7 0.847761 0.368371 0.700869
O O8 0.898924 0.279707 0.537165
O O9 0.819463 0.897227 0.291054
O O10 0.912012 0.827678 0.435728
O O11 0.719922 0.554943 0.105138
O O12 0.804462 0.495343 0.270925
O O13 0.936253 0.887565 0.034691
O O14 0.908968 0.042798 0.050917
O O15 0.818754 0.960693 0.914584
O O16 0.839439 0.376631 0.390067
O O17 0.750000 0.250000 0.429742
#
# Coordination Sequence:
#
# PCOD8177053 Si02
#       8
#     8   8   8   8   8   8   8   8
#     4  11  22  33  52  82 113 146 181 228 275 331
#     4   9  20  36  55  77 106 149 191 225 269 329
#     4  11  22  33  52  82 113 146 181 228 275 331
#     4  11  20  35  56  82 110 143 189 227 273 337
#     4  11  20  32  51  81 117 152 177 218 283 339
#     4  11  20  35  56  82 110 143 189 227 273 337
#     4  11  22  32  49  83 125 148 173 228 283 347
#     4   9  20  36  55  77 106 149 191 225 269 329
#
# _framework density 20.112258000000001
#
# number of rings (size 3 to 8) (size 9 to 14) (size 15 to 20)
#    0.000    1.500    6.250    0.000    3.500    0.500 
#    0.000    6.875    0.000    0.750    0.000    1.750 
#    0.000    0.000    0.000    0.000    0.000    0.000 
#
# Total GULP energy -396512.412432 kJ/mol
# GULP energy per Si atom -12391.012888 kJ/mol
# Density = 2.006648 g / cm^3
# Si number density = 20.112258 Si / 1000 Ang^3
#
#
#
# Elastic Constant Matrix: (Units=GPa)
#
#
# Indices 1 2 3 4 5 6 
#
# 1 20.2382 8.9706 21.5993 0.0000 0.0000 0.0000
# 2 8.9706 99.7339 50.2010 0.0000 0.0000 0.0000
# 3 21.5993 50.2010 160.9993 0.0000 0.0000 0.0000
# 4 0.0000 0.0000 0.0000 31.2592 0.0000 0.0000
# 5 0.0000 0.0000 0.0000 0.0000 18.6732 0.0000
# 6 0.0000 0.0000 0.0000 0.0000 0.0000 10.8879
#
#
#
# Elastic Compliance Matrix: (Units=1/GPa)
#
#
# Indices 1 2 3 4 5 6 
#
# 1 0.057867 -0.001539 -0.007283 0.000000 0.000000 0.000000
# 2 -0.001539 0.011934 -0.003515 0.000000 0.000000 0.000000
# 3 -0.007283 -0.003515 0.008284 0.000000 0.000000 0.000000
# 4 0.000000 0.000000 0.000000 0.031991 0.000000 0.000000
# 5 0.000000 0.000000 0.000000 0.000000 0.053553 0.000000
# 6 0.000000 0.000000 0.000000 0.000000 0.000000 0.091845
#
#
# Mechanical properties :
#
#
# Convention : Reuss Voigt Hill
#
# Bulk Modulus (GPa) = 18.72258 49.16812 33.94535
# Shear Modulus (GPa) = 16.78125 25.51076 21.14600
#
# Velocity S-wave (km/s) = 2.89170 3.56535 3.24605
# Velocity P-wave (km/s) = 4.52531 6.43808 5.56450
#
# Compressibility (1/GPa) = 0.05341145
#
# Stress axis : x y z
#
# Youngs Moduli (GPa) = 17.28106 83.79256 120.71058
#
# Poissons Ratio (x) = 0.12893 0.87919
# Poissons Ratio (y) = 0.02659 0.42427
# Poissons Ratio (z) = 0.12587 0.29451
#
# Static dielectric constant tensor:
#      x y z
#    x 3.327770 0.000000 0.000000 
#    y 0.000000 3.716590 0.000000 
#    z 0.000000 0.000000 3.966860 
# 
# 
# High freq. dielectric constant tensor:
#      x y z
#    x 1.736120 0.000000 0.000000 
#    y 0.000000 1.760000 0.000000 
#    z 0.000000 0.000000 1.806760 
# 
# From -- ./inp_files/8410.got.cif
#   From: 2010.03.12/outbox.cif.g09.slc.cpg/sg37_5_cif.got.tgz:8410.got - 2010.04.14 02:25:27.
