data_PCOD8177429
_publ_section_title
;
Structure prediction by ZEFSAII (Michael W. Deem and Ramdas Pophale) SiO2 
 PCOD8177429
Probable space group: A M M 2
;
_chemical_formula_sum "Si O2"
_cell_formula_units_Z 48
_cell_length_a 8.875422
_cell_length_b 16.645932
_cell_length_c 18.989921
_cell_angle_alpha 90.000000
_cell_angle_beta 90.000000
_cell_angle_gamma 90.000000
_cell_volume 2805.564682
_symmetry_space_group_name_H-M "A M M 2"
_symmetry_group_IT_number 38
_symmetry_cell_setting 'orthorhombic'
loop_
_space_group_symop_operation_xyz
x,y,z
-x,-y,z
-x,y,z
x,-y,z
x,1/2+y,1/2+z
-x,1/2-y,1/2+z
-x,1/2+y,1/2+z
x,1/2-y,1/2+z
loop_
_atom_site_type_symbol
_atom_site_label
_atom_site_fract_x
_atom_site_fract_y
_atom_site_fract_z
Si Si1 0.823637 0.341768 0.044590
Si Si2 0.178350 0.264010 0.413577
Si Si3 0.821341 0.500000 0.858727
Si Si4 0.323128 0.500000 0.011595
Si Si5 0.822173 0.809516 0.131458
Si Si6 0.819895 0.410227 0.500523
Si Si7 0.179715 0.837025 0.286317
O O1 0.729072 0.422500 0.055906
O O2 0.782091 0.280753 0.107531
O O3 0.000000 0.362573 0.044346
O O4 0.773543 0.302177 0.970851
O O5 0.238825 0.352342 0.436902
O O6 0.239512 0.234872 0.337492
O O7 0.000000 0.268391 0.412432
O O8 0.764869 0.577637 0.815911
O O9 0.000000 0.500000 0.867834
O O10 0.752703 0.500000 0.935664
O O11 0.500000 0.500000 0.002634
O O12 0.760199 0.874342 0.074874
O O13 0.750681 0.824824 0.208471
O O14 0.000000 0.820183 0.135285
O O15 0.754762 0.500000 0.489743
O O16 0.000000 0.411477 0.501249
O O17 0.000000 0.834821 0.283687
#
# Coordination Sequence:
#
# PCOD8177429 Si02
#       7
#     8   8   4   4   8   8   8
#     4   9  16  30  47  64  89 123 152 180 230 278
#     4   8  13  22  38  57  82 118 150 172 209 268
#     4  10  18  28  46  70  98 127 146 176 233 284
#     4  12  22  30  46  70  92 113 156 206 229 260
#     4   8  15  24  39  63  89 114 145 184 220 267
#     4   8  13  20  31  51  82 115 141 173 217 256
#     4   9  15  23  39  64  90 116 148 179 213 268
#
# _framework density 17.108854999999998
#
# number of rings (size 3 to 8) (size 9 to 14) (size 15 to 20)
#    0.000    3.167    1.667    2.750    1.167    0.000 
#    0.000    0.000    1.833    1.000    0.000    0.000 
#    0.000    6.500    0.000    0.000    0.000    0.000 
#
# Total GULP energy -297394.316109 kJ/mol
# GULP energy per Si atom -12391.429838 kJ/mol
# Density = 1.706991 g / cm^3
# Si number density = 17.108855 Si / 1000 Ang^3
#
#
#
# Elastic Constant Matrix: (Units=GPa)
#
#
# Indices 1 2 3 4 5 6 
#
# 1 14.7019 15.6428 4.4505 0.0000 0.0000 0.0000
# 2 15.6428 161.2401 72.0160 0.0000 0.0000 0.0000
# 3 4.4505 72.0160 110.4748 0.0000 0.0000 0.0000
# 4 0.0000 0.0000 0.0000 23.4111 0.0000 0.0000
# 5 0.0000 0.0000 0.0000 0.0000 1.7691 0.0000
# 6 0.0000 0.0000 0.0000 0.0000 0.0000 1.3184
#
#
#
# Elastic Compliance Matrix: (Units=1/GPa)
#
#
# Indices 1 2 3 4 5 6 
#
# 1 0.076323 -0.008509 0.002472 0.000000 0.000000 0.000000
# 2 -0.008509 0.009698 -0.005979 0.000000 0.000000 0.000000
# 3 0.002472 -0.005979 0.012850 0.000000 0.000000 0.000000
# 4 0.000000 0.000000 0.000000 0.042715 0.000000 0.000000
# 5 0.000000 0.000000 0.000000 0.000000 0.565259 0.000000
# 6 0.000000 0.000000 0.000000 0.000000 0.000000 0.758481
#
#
# Mechanical properties :
#
#
# Convention : Reuss Voigt Hill
#
# Bulk Modulus (GPa) = 13.36193 52.29281 32.82737
# Shear Modulus (GPa) = 3.30185 18.25355 10.77770
#
# Velocity S-wave (km/s) = 1.39072 3.26990 2.51260
# Velocity P-wave (km/s) = 3.22579 6.69981 5.25800
#
# Compressibility (1/GPa) = 0.07483947
#
# Stress axis : x y z
#
# Youngs Moduli (GPa) = 13.10216 103.11555 77.82187
#
# Poissons Ratio (x) = 0.87736 -0.19236
# Poissons Ratio (y) = 0.11148 0.46530
# Poissons Ratio (z) = -0.03239 0.61653
#
# Static dielectric constant tensor:
#      x y z
#    x 2.481000 0.000000 0.000000 
#    y 0.000000 3.550980 0.000000 
#    z 0.000000 0.000000 3.500540 
# 
# 
# High freq. dielectric constant tensor:
#      x y z
#    x 1.584510 0.000000 0.000000 
#    y 0.000000 1.669640 0.000000 
#    z 0.000000 0.000000 1.650750 
# 
# From -- ./inp_files/19930.got.cif
#   From: 2010.03.12/outbox.cif.g09.slc.cpg/sg38_10_cif.got.tgz:19930.got - 2010.04.14 02:38:36.
