data_PCOD8177244
_publ_section_title
;
Structure prediction by ZEFSAII (Michael W. Deem and Ramdas Pophale) SiO2 
 PCOD8177244
Probable space group: A M M 2
;
_chemical_formula_sum "Si O2"
_cell_formula_units_Z 64
_cell_length_a 19.544509
_cell_length_b 8.817272
_cell_length_c 20.815363
_cell_angle_alpha 90.000000
_cell_angle_beta 90.000000
_cell_angle_gamma 90.000000
_cell_volume 3587.095935
_symmetry_space_group_name_H-M "A M M 2"
_symmetry_group_IT_number 38
_symmetry_cell_setting 'orthorhombic'
loop_
_space_group_symop_operation_xyz
x,y,z
-x,-y,z
-x,y,z
x,-y,z
x,1/2+y,1/2+z
-x,1/2-y,1/2+z
-x,1/2+y,1/2+z
x,1/2-y,1/2+z
loop_
_atom_site_type_symbol
_atom_site_label
_atom_site_fract_x
_atom_site_fract_y
_atom_site_fract_z
Si Si1 0.425459 0.321904 0.793900
Si Si2 0.920181 0.327633 0.858874
Si Si3 0.150139 0.821838 0.485416
Si Si4 0.290098 0.320684 0.296971
Si Si5 0.705466 0.822029 0.437253
Si Si6 0.148105 0.678841 0.240576
Si Si7 0.921884 0.818912 0.612240
Si Si8 0.426182 0.824017 0.932393
O O1 0.500000 0.281866 0.762058
O O2 0.412042 0.500000 0.790112
O O3 0.360450 0.236135 0.762021
O O4 0.427978 0.270490 0.867248
O O5 0.895007 0.500000 0.848381
O O6 0.883992 0.253532 0.921170
O O7 0.901579 0.232837 0.796576
O O8 0.000000 0.319603 0.871533
O O9 0.231026 0.785606 0.484012
O O10 0.115553 0.751471 0.549005
O O11 0.135898 0.000000 0.485407
O O12 0.292642 0.500000 0.305466
O O13 0.280795 0.246096 0.366794
O O14 0.226373 0.268834 0.252767
O O15 0.638541 0.744609 0.471115
O O16 0.693580 0.000000 0.429909
O O17 0.143921 0.500000 0.238653
O O18 0.119923 0.745446 0.173426
O O19 0.000000 0.759893 0.614494
O O20 0.920468 0.000000 0.611673
O O21 0.500000 0.802991 0.968120
O O22 0.413294 0.000000 0.916879
#
# Coordination Sequence:
#
# PCOD8177244 Si02
#       8
#     8   8   8   8   8   8   8   8
#     4   9  16  25  39  61  89 121 155 190 228 269
#     4  10  19  31  49  71  94 120 152 192 238 287
#     4   9  17  29  46  70  94 120 156 196 237 277
#     4  10  18  27  41  64  94 125 154 186 229 280
#     4  10  17  26  43  66  92 120 152 193 234 272
#     4  10  20  32  48  71  96 124 157 194 237 282
#     4   9  17  31  50  69  92 122 158 199 237 279
#     4   9  16  25  38  59  90 125 155 184 223 273
#
# _framework density 17.841729999999998
#
# number of rings (size 3 to 8) (size 9 to 14) (size 15 to 20)
#    0.000    2.500    1.250    3.750    0.000    4.250 
#    0.000    0.000    0.000    2.250    0.000    0.875 
#    0.000    7.000    0.000    0.000    0.000    0.000 
#
# Total GULP energy -396525.238485 kJ/mol
# GULP energy per Si atom -12391.413703 kJ/mol
# Density = 1.780112 g / cm^3
# Si number density = 17.841730 Si / 1000 Ang^3
#
#
#
# Elastic Constant Matrix: (Units=GPa)
#
#
# Indices 1 2 3 4 5 6 
#
# 1 162.8192 36.5913 56.2223 0.0000 0.0000 0.0000
# 2 36.5913 33.1138 12.2575 0.0000 0.0000 0.0000
# 3 56.2223 12.2575 90.6514 0.0000 0.0000 0.0000
# 4 0.0000 0.0000 0.0000 11.9999 0.0000 0.0000
# 5 0.0000 0.0000 0.0000 0.0000 14.5819 0.0000
# 6 0.0000 0.0000 0.0000 0.0000 0.0000 24.7313
#
#
#
# Elastic Compliance Matrix: (Units=1/GPa)
#
#
# Indices 1 2 3 4 5 6 
#
# 1 0.009878 -0.009103 -0.004895 0.000000 0.000000 0.000000
# 2 -0.009103 0.040179 0.000213 0.000000 0.000000 0.000000
# 3 -0.004895 0.000213 0.014039 0.000000 0.000000 0.000000
# 4 0.000000 0.000000 0.000000 0.083334 0.000000 0.000000
# 5 0.000000 0.000000 0.000000 0.000000 0.068578 0.000000
# 6 0.000000 0.000000 0.000000 0.000000 0.000000 0.040435
#
#
# Mechanical properties :
#
#
# Convention : Reuss Voigt Hill
#
# Bulk Modulus (GPa) = 27.37886 55.19184 41.28535
# Shear Modulus (GPa) = 16.88111 22.36351 19.62231
#
# Velocity S-wave (km/s) = 3.07931 3.54423 3.31992
# Velocity P-wave (km/s) = 5.29354 6.91014 6.15515
#
# Compressibility (1/GPa) = 0.03652453
#
# Stress axis : x y z
#
# Youngs Moduli (GPa) = 101.23442 24.88838 71.23180
#
# Poissons Ratio (x) = 0.22657 0.34872
# Poissons Ratio (y) = 0.92157 -0.01517
# Poissons Ratio (z) = 0.49559 -0.00530
#
# Static dielectric constant tensor:
#      x y z
#    x 4.199860 0.000000 0.000000 
#    y 0.000000 3.128220 0.000000 
#    z 0.000000 0.000000 3.034490 
# 
# 
# High freq. dielectric constant tensor:
#      x y z
#    x 1.721400 0.000000 0.000000 
#    y 0.000000 1.671700 0.000000 
#    z 0.000000 0.000000 1.632940 
# 
# From -- ./inp_files/21534.got.cif
#   From: 2010.03.12/outbox.cif.g09.slc.cpg/sg38_11_cif.got.tgz:21534.got - 2010.04.14 02:38:36.
