data_PCOD8177088
_publ_section_title
;
Structure prediction by ZEFSAII (Michael W. Deem and Ramdas Pophale) SiO2 
 PCOD8177088
Probable space group: C C C 2
;
_chemical_formula_sum "Si O2"
_cell_formula_units_Z 64
_cell_length_a 11.551486
_cell_length_b 17.844741
_cell_length_c 14.493274
_cell_angle_alpha 90.000000
_cell_angle_beta 90.000000
_cell_angle_gamma 90.000000
_cell_volume 2987.546047
_symmetry_space_group_name_H-M "C C C 2"
_symmetry_group_IT_number 37
_symmetry_cell_setting 'orthorhombic'
loop_
_space_group_symop_operation_xyz
x,y,z
-x,-y,z
-x,y,1/2+z
x,-y,1/2+z
1/2+x,1/2+y,z
1/2-x,1/2-y,z
1/2-x,1/2+y,1/2+z
1/2+x,1/2-y,1/2+z
loop_
_atom_site_type_symbol
_atom_site_label
_atom_site_fract_x
_atom_site_fract_y
_atom_site_fract_z
Si Si1 0.509134 0.678442 0.718800
Si Si2 0.763249 0.831796 0.817605
Si Si3 0.005512 0.341171 0.124439
Si Si4 0.964888 0.416991 0.301954
Si Si5 0.120822 0.667014 0.943344
Si Si6 0.874301 0.161740 0.893321
Si Si7 0.258668 0.832279 0.532011
Si Si8 0.023035 0.086930 0.045554
O O1 0.606965 0.649381 0.789637
O O2 0.503878 0.763652 0.682060
O O3 0.395315 0.661783 0.782091
O O4 0.535802 0.627019 0.631592
O O5 0.750000 0.750000 0.768589
O O6 0.671544 0.896370 0.789460
O O7 0.748396 0.820864 0.924667
O O8 0.013793 0.406315 0.199616
O O9 0.117324 0.360162 0.063465
O O10 0.899686 0.349925 0.052035
O O11 0.000000 0.500000 0.334223
O O12 0.019142 0.362826 0.378267
O O13 0.115594 0.755634 0.933521
O O14 0.243916 0.631846 0.912074
O O15 0.967552 0.112189 0.948719
O O16 0.250000 0.750000 0.580082
O O17 0.158134 0.890846 0.557995
O O18 0.000000 0.000000 0.056034
#
# Coordination Sequence:
#
# PCOD8177088 Si02
#       8
#     8   8   8   8   8   8   8   8
#     4  12  24  43  75 106 135 185 250 295 351 441
#     4  11  22  43  75  99 136 191 247 290 349 443
#     4  12  24  43  75 106 135 185 250 295 351 441
#     4  12  28  45  68 109 147 184 237 306 369 419
#     4  11  24  45  72 100 140 186 239 292 360 436
#     4  11  24  45  72 100 140 186 239 292 360 436
#     4  11  22  43  75  99 136 191 247 290 349 443
#     4  12  28  45  68 109 147 184 237 306 369 419
#
# _framework density 21.422263000000001
#
# number of rings (size 3 to 8) (size 9 to 14) (size 15 to 20)
#    0.000    0.500    7.500    0.000    3.500    3.000 
#    0.000    0.000    0.000    0.000    0.000    0.000 
#    0.000    0.000    0.000    0.000    0.000    0.000 
#
# Total GULP energy -396464.185600 kJ/mol
# GULP energy per Si atom -12389.505800 kJ/mol
# Density = 2.137351 g / cm^3
# Si number density = 21.422263 Si / 1000 Ang^3
#
#
#
# Elastic Constant Matrix: (Units=GPa)
#
#
# Indices 1 2 3 4 5 6 
#
# 1 122.6141 26.2210 24.3723 0.0000 0.0000 0.0000
# 2 26.2210 74.0475 -4.5958 0.0000 0.0000 0.0000
# 3 24.3723 -4.5958 104.5259 0.0000 0.0000 0.0000
# 4 0.0000 0.0000 0.0000 20.7639 0.0000 0.0000
# 5 0.0000 0.0000 0.0000 0.0000 35.3969 0.0000
# 6 0.0000 0.0000 0.0000 0.0000 0.0000 32.3956
#
#
#
# Elastic Compliance Matrix: (Units=1/GPa)
#
#
# Indices 1 2 3 4 5 6 
#
# 1 0.009359 -0.003459 -0.002334 0.000000 0.000000 0.000000
# 2 -0.003459 0.014820 0.001458 0.000000 0.000000 0.000000
# 3 -0.002334 0.001458 0.010175 0.000000 0.000000 0.000000
# 4 0.000000 0.000000 0.000000 0.048161 0.000000 0.000000
# 5 0.000000 0.000000 0.000000 0.000000 0.028251 0.000000
# 6 0.000000 0.000000 0.000000 0.000000 0.000000 0.030868
#
#
# Mechanical properties :
#
#
# Convention : Reuss Voigt Hill
#
# Bulk Modulus (GPa) = 38.93423 43.68695 41.31059
# Shear Modulus (GPa) = 31.47281 34.72396 33.09838
#
# Velocity S-wave (km/s) = 3.83713 4.03044 3.93497
# Velocity P-wave (km/s) = 6.15187 6.48821 6.32227
#
# Compressibility (1/GPa) = 0.02568434
#
# Stress axis : x y z
#
# Youngs Moduli (GPa) = 106.84414 67.47515 98.27582
#
# Poissons Ratio (x) = 0.23341 0.22942
# Poissons Ratio (y) = 0.36959 -0.14330
# Poissons Ratio (z) = 0.24942 -0.09839
#
# Static dielectric constant tensor:
#      x y z
#    x 4.228320 0.000000 0.000000 
#    y 0.000000 2.896630 0.000000 
#    z 0.000000 0.000000 4.117790 
# 
# 
# High freq. dielectric constant tensor:
#      x y z
#    x 1.847180 0.000000 0.000000 
#    y 0.000000 1.808600 0.000000 
#    z 0.000000 0.000000 1.857750 
# 
# From -- ./inp_files/11773.got.cif
#   From: 2010.03.12/outbox.cif.g09.slc.cpg/sg37_6_cif.got.tgz:11773.got - 2010.04.14 02:25:27.
