data_PCOD8177366
_publ_section_title
;
Structure prediction by ZEFSAII (Michael W. Deem and Ramdas Pophale) SiO2 
 PCOD8177366
Probable space group: A M M 2
;
_chemical_formula_sum "Si O2"
_cell_formula_units_Z 64
_cell_length_a 8.864960
_cell_length_b 26.129301
_cell_length_c 18.364156
_cell_angle_alpha 90.000000
_cell_angle_beta 90.000000
_cell_angle_gamma 90.000000
_cell_volume 4253.785098
_symmetry_space_group_name_H-M "A M M 2"
_symmetry_group_IT_number 38
_symmetry_cell_setting 'orthorhombic'
loop_
_space_group_symop_operation_xyz
x,y,z
-x,-y,z
-x,y,z
x,-y,z
x,1/2+y,1/2+z
-x,1/2-y,1/2+z
-x,1/2+y,1/2+z
x,1/2-y,1/2+z
loop_
_atom_site_type_symbol
_atom_site_label
_atom_site_fract_x
_atom_site_fract_y
_atom_site_fract_z
Si Si1 0.334128 0.303160 0.500000
Si Si2 0.330382 0.198035 0.413429
Si Si3 0.825226 0.058054 0.775651
Si Si4 0.178746 0.850974 0.545533
Si Si5 0.674813 0.940944 0.623669
Si Si6 0.178687 0.751038 0.787681
Si Si7 0.824159 0.648946 0.374903
Si Si8 0.319800 0.259551 0.132251
O O1 0.500000 0.326561 0.508762
O O2 0.337454 0.251707 0.453697
O O3 0.238795 0.345651 0.456936
O O4 0.269214 0.287496 0.579294
O O5 0.500000 0.178233 0.396995
O O6 0.243979 0.157936 0.464806
O O7 0.237339 0.204801 0.338615
O O8 0.725390 0.070728 0.705803
O O9 0.770862 0.095223 0.840541
O O10 0.000000 0.068338 0.755548
O O11 0.800362 0.000000 0.802364
O O12 0.225543 0.908087 0.568158
O O13 0.246248 0.812263 0.605229
O O14 0.000000 0.844803 0.544026
O O15 0.500000 0.926098 0.616041
O O16 0.704033 0.000000 0.604207
O O17 0.228703 0.805306 0.821971
O O18 0.261229 0.745214 0.711235
O O19 0.000000 0.746893 0.777602
O O20 0.000000 0.651118 0.384371
O O21 0.500000 0.266290 0.130630
#
# Coordination Sequence:
#
# PCOD8177366 Si02
#       8
#     8   8   8   8   8   8   8   8
#     4   8  16  28  41  57  78 106 138 171 206 244
#     4   9  17  30  44  59  82 111 141 173 210 251
#     4   9  17  29  43  60  84 112 142 177 214 249
#     4  11  20  30  45  63  84 112 145 179 215 253
#     4  10  20  32  45  62  84 111 144 179 213 251
#     4  10  18  27  41  63  87 111 142 176 210 250
#     4   9  17  27  40  58  80 108 140 171 205 245
#     4  10  19  30  43  61  85 113 144 175 211 255
#
# _framework density 15.045423
#
# number of rings (size 3 to 8) (size 9 to 14) (size 15 to 20)
#    0.000    2.500    0.000    4.125    0.000    6.250 
#    0.000    0.000    0.000    0.000    0.000    0.000 
#    0.000    1.000    0.000    6.500    0.000    4.250 
#
# Total GULP energy -396726.369320 kJ/mol
# GULP energy per Si atom -12397.699041 kJ/mol
# Density = 1.501118 g / cm^3
# Si number density = 15.045423 Si / 1000 Ang^3
#
#
#
# Elastic Constant Matrix: (Units=GPa)
#
#
# Indices 1 2 3 4 5 6 
#
# 1 76.0906 33.8193 41.8842 0.0000 0.0000 0.0000
# 2 33.8193 68.2880 50.4796 0.0000 0.0000 0.0000
# 3 41.8842 50.4796 103.2580 0.0000 0.0000 0.0000
# 4 0.0000 0.0000 0.0000 25.8621 0.0000 0.0000
# 5 0.0000 0.0000 0.0000 0.0000 28.6619 0.0000
# 6 0.0000 0.0000 0.0000 0.0000 0.0000 19.4443
#
#
#
# Elastic Compliance Matrix: (Units=1/GPa)
#
#
# Indices 1 2 3 4 5 6 
#
# 1 0.018176 -0.005561 -0.004654 0.000000 0.000000 0.000000
# 2 -0.005561 0.024632 -0.009786 0.000000 0.000000 0.000000
# 3 -0.004654 -0.009786 0.016356 0.000000 0.000000 0.000000
# 4 0.000000 0.000000 0.000000 0.038667 0.000000 0.000000
# 5 0.000000 0.000000 0.000000 0.000000 0.034890 0.000000
# 6 0.000000 0.000000 0.000000 0.000000 0.000000 0.051429
#
#
# Mechanical properties :
#
#
# Convention : Reuss Voigt Hill
#
# Bulk Modulus (GPa) = 52.18719 55.55588 53.87153
# Shear Modulus (GPa) = 21.68835 22.89057 22.28946
#
# Velocity S-wave (km/s) = 3.80086 3.90478 3.85317
# Velocity P-wave (km/s) = 7.35009 7.57201 7.46187
#
# Compressibility (1/GPa) = 0.01916179
#
# Stress axis : x y z
#
# Youngs Moduli (GPa) = 55.01852 40.59755 61.13857
#
# Poissons Ratio (x) = 0.22577 0.28453
# Poissons Ratio (y) = 0.30597 0.59830
# Poissons Ratio (z) = 0.25605 0.39729
#
# Static dielectric constant tensor:
#      x y z
#    x 3.030120 0.000000 0.000000 
#    y 0.000000 2.782100 0.000000 
#    z 0.000000 0.000000 2.983030 
# 
# 
# High freq. dielectric constant tensor:
#      x y z
#    x 1.589320 0.000000 0.000000 
#    y 0.000000 1.540360 0.000000 
#    z 0.000000 0.000000 1.566130 
# 
# From -- ./inp_files/17288.got.cif
#   From: 2010.03.12/outbox.cif.g09.slc.cpg/sg38_9_cif.got.tgz:17288.got - 2010.04.14 02:38:36.
