data_PCOD8177591
_publ_section_title
;
Structure prediction by ZEFSAII (Michael W. Deem and Ramdas Pophale) SiO2 
 PCOD8177591
Probable space group: A M M 2
;
_chemical_formula_sum "Si O2"
_cell_formula_units_Z 48
_cell_length_a 15.722014
_cell_length_b 8.737128
_cell_length_c 18.369386
_cell_angle_alpha 90.000000
_cell_angle_beta 90.000000
_cell_angle_gamma 90.000000
_cell_volume 2523.315277
_symmetry_space_group_name_H-M "A M M 2"
_symmetry_group_IT_number 38
_symmetry_cell_setting 'orthorhombic'
loop_
_space_group_symop_operation_xyz
x,y,z
-x,-y,z
-x,y,z
x,-y,z
x,1/2+y,1/2+z
-x,1/2-y,1/2+z
-x,1/2+y,1/2+z
x,1/2-y,1/2+z
loop_
_atom_site_type_symbol
_atom_site_label
_atom_site_fract_x
_atom_site_fract_y
_atom_site_fract_z
Si Si1 0.325974 0.181252 0.434490
Si Si2 0.682998 0.677514 0.099510
Si Si3 0.161849 0.182416 0.689817
Si Si4 0.500000 0.678280 0.434714
Si Si5 0.833646 0.818890 0.854681
Si Si6 0.000000 0.818430 0.601824
Si Si7 0.000000 0.819940 0.943151
Si Si8 0.500000 0.176321 0.587553
O O1 0.312213 0.242685 0.517250
O O2 0.413962 0.248158 0.401365
O O3 0.248410 0.237245 0.386421
O O4 0.331891 0.000000 0.432761
O O5 0.705101 0.500000 0.095722
O O6 0.752850 0.753223 0.152502
O O7 0.587351 0.704890 0.132561
O O8 0.155023 0.240637 0.772306
O O9 0.082377 0.245544 0.643818
O O10 0.162446 0.000000 0.689755
O O11 0.500000 0.500000 0.416975
O O12 0.500000 0.708535 0.520586
O O13 0.916953 0.767657 0.898805
O O14 0.820229 0.000000 0.858145
O O15 0.000000 0.762703 0.519805
O O16 0.000000 0.000000 0.601667
O O17 0.000000 0.000000 0.955840
O O18 0.500000 0.000000 0.557827
#
# Coordination Sequence:
#
# PCOD8177591 Si02
#       8
#     8   8   8   4   8   4   4   4
#     4  10  19  33  53  77 105 135 171 217 262 304
#     4   8  14  26  46  70  94 124 164 208 250 292
#     4   9  17  30  49  73  99 128 168 213 251 295
#     4  10  18  30  51  78 105 135 173 213 255 306
#     4  10  20  34  51  73 104 140 174 211 260 314
#     4  10  19  33  55  77  95 126 174 218 252 298
#     4  10  21  35  51  75 107 138 168 212 268 314
#     4   8  14  26  45  70  99 129 163 209 261 300
#
# _framework density 19.022592
#
# number of rings (size 3 to 8) (size 9 to 14) (size 15 to 20)
#    0.000    2.667    0.000    3.750    0.000    4.000 
#    0.000    1.667    0.000    9.000    0.000    0.000 
#    0.000    0.000    0.000    0.000    0.000    0.000 
#
# Total GULP energy -297463.213043 kJ/mol
# GULP energy per Si atom -12394.300543 kJ/mol
# Density = 1.897930 g / cm^3
# Si number density = 19.022592 Si / 1000 Ang^3
#
#
#
# Elastic Constant Matrix: (Units=GPa)
#
#
# Indices 1 2 3 4 5 6 
#
# 1 206.7502 38.8182 85.2532 0.0000 0.0000 0.0000
# 2 38.8182 40.6896 27.2955 0.0000 0.0000 0.0000
# 3 85.2532 27.2955 118.8386 0.0000 0.0000 0.0000
# 4 0.0000 0.0000 0.0000 20.0181 0.0000 0.0000
# 5 0.0000 0.0000 0.0000 0.0000 10.8686 0.0000
# 6 0.0000 0.0000 0.0000 0.0000 0.0000 22.6198
#
#
#
# Elastic Compliance Matrix: (Units=1/GPa)
#
#
# Indices 1 2 3 4 5 6 
#
# 1 0.007416 -0.004145 -0.004368 0.000000 0.000000 0.000000
# 2 -0.004145 0.031369 -0.004232 0.000000 0.000000 0.000000
# 3 -0.004368 -0.004232 0.012520 0.000000 0.000000 0.000000
# 4 0.000000 0.000000 0.000000 0.049955 0.000000 0.000000
# 5 0.000000 0.000000 0.000000 0.000000 0.092008 0.000000
# 6 0.000000 0.000000 0.000000 0.000000 0.000000 0.044209
#
#
# Mechanical properties :
#
#
# Convention : Reuss Voigt Hill
#
# Bulk Modulus (GPa) = 38.73504 74.33470 56.53487
# Shear Modulus (GPa) = 18.41129 25.02874 21.72002
#
# Velocity S-wave (km/s) = 3.11443 3.63124 3.38272
# Velocity P-wave (km/s) = 5.77406 7.53280 6.71129
#
# Compressibility (1/GPa) = 0.02581642
#
# Stress axis : x y z
#
# Youngs Moduli (GPa) = 134.83966 31.87849 79.86923
#
# Poissons Ratio (x) = 0.13213 0.34889
# Poissons Ratio (y) = 0.55888 0.33798
# Poissons Ratio (z) = 0.58902 0.13490
#
# Static dielectric constant tensor:
#      x y z
#    x 3.975760 0.000000 0.000000 
#    y 0.000000 3.067650 0.000000 
#    z 0.000000 0.000000 3.415440 
# 
# 
# High freq. dielectric constant tensor:
#      x y z
#    x 1.767990 0.000000 0.000000 
#    y 0.000000 1.699080 0.000000 
#    z 0.000000 0.000000 1.716480 
# 
# From -- ./inp_files/18264.got.cif
#   From: 2010.03.12/outbox.cif.g09.slc.cpg/sg38_10_cif.got.tgz:18264.got - 2010.04.14 02:38:36.
