data_PCOD8177079
_publ_section_title
;
Structure prediction by ZEFSAII (Michael W. Deem and Ramdas Pophale) SiO2 
 PCOD8177079
Probable space group: C C C 2
;
_chemical_formula_sum "Si O2"
_cell_formula_units_Z 52
_cell_length_a 23.997571
_cell_length_b 9.606425
_cell_length_c 10.592783
_cell_angle_alpha 90.000000
_cell_angle_beta 90.000000
_cell_angle_gamma 90.000000
_cell_volume 2441.963438
_symmetry_space_group_name_H-M "C C C 2"
_symmetry_group_IT_number 37
_symmetry_cell_setting 'orthorhombic'
loop_
_space_group_symop_operation_xyz
x,y,z
-x,-y,z
-x,y,1/2+z
x,-y,1/2+z
1/2+x,1/2+y,z
1/2-x,1/2-y,z
1/2-x,1/2+y,1/2+z
1/2+x,1/2-y,1/2+z
loop_
_atom_site_type_symbol
_atom_site_label
_atom_site_fract_x
_atom_site_fract_y
_atom_site_fract_z
Si Si1 0.186175 0.722948 0.815490
Si Si2 0.608114 0.414812 0.968964
Si Si3 0.029701 0.868790 0.744908
Si Si4 0.500000 0.000000 0.481285
Si Si5 0.883438 0.446913 0.362148
Si Si6 0.439481 0.204344 0.660138
Si Si7 0.628309 0.287319 0.569444
O O1 0.250000 0.750000 0.847853
O O2 0.161688 0.571254 0.856947
O O3 0.177757 0.754524 0.667355
O O4 0.156991 0.836928 0.899522
O O5 0.590697 0.334014 0.094266
O O6 0.633774 0.564284 0.002368
O O7 0.555764 0.423870 0.874416
O O8 0.071586 0.788832 0.651011
O O9 0.979032 0.761482 0.774047
O O10 0.000000 0.000000 0.674570
O O11 0.553984 0.007816 0.393173
O O12 0.483271 0.129769 0.568142
O O13 0.889535 0.387878 0.219016
O O14 0.866161 0.331772 0.464068
#
# Coordination Sequence:
#
# PCOD8177079 Si02
#       7
#     8   8   8   4   8   8   8
#     4  11  28  52  73  96 135 184 251 315 362 416
#     4  11  25  44  67 102 142 188 239 290 354 430
#     4  11  22  36  62 101 151 192 222 274 346 435
#     4  12  22  38  60 108 150 192 218 282 354 440
#     4  12  25  42  72 104 143 189 235 288 365 440
#     4  12  23  36  65 104 151 189 229 279 357 441
#     4  11  25  45  70 103 140 184 239 292 352 429
#
# _framework density 21.294338
#
# number of rings (size 3 to 8) (size 9 to 14) (size 15 to 20)
#    0.000    0.615    4.615    3.231    8.615    1.231 
#    0.000    0.000    0.000    0.000    0.000    0.000 
#    0.000    0.000    0.000    0.000    0.000    0.000 
#
# Total GULP energy -322156.711862 kJ/mol
# GULP energy per Si atom -12390.642764 kJ/mol
# Density = 2.124587 g / cm^3
# Si number density = 21.294338 Si / 1000 Ang^3
#
#
#
# Elastic Constant Matrix: (Units=GPa)
#
#
# Indices 1 2 3 4 5 6 
#
# 1 111.7687 56.6515 38.6411 0.0000 0.0000 0.0000
# 2 56.6515 145.9755 57.3262 0.0000 0.0000 0.0000
# 3 38.6411 57.3262 106.6802 0.0000 0.0000 0.0000
# 4 0.0000 0.0000 0.0000 46.4795 0.0000 0.0000
# 5 0.0000 0.0000 0.0000 0.0000 -21.7964 0.0000
# 6 0.0000 0.0000 0.0000 0.0000 0.0000 25.8939
#
#
#
# Elastic Compliance Matrix: (Units=1/GPa)
#
#
# Indices 1 2 3 4 5 6 
#
# 1 0.011549 -0.003599 -0.002249 0.000000 0.000000 0.000000
# 2 -0.003599 0.009804 -0.003965 0.000000 0.000000 0.000000
# 3 -0.002249 -0.003965 0.012319 0.000000 0.000000 0.000000
# 4 0.000000 0.000000 0.000000 0.021515 0.000000 0.000000
# 5 0.000000 0.000000 0.000000 0.000000 -0.045879 0.000000
# 6 0.000000 0.000000 0.000000 0.000000 0.000000 0.038619
#
#
# Mechanical properties :
#
#
# Convention : Reuss Voigt Hill
#
# Bulk Modulus (GPa) = 71.19336 74.40689 72.80013
# Shear Modulus (GPa) = 69.21886 24.23577 46.72731
#
# Velocity S-wave (km/s) = 5.70757 3.37728 4.68947
# Velocity P-wave (km/s) = 8.77158 7.08703 7.97392
#
# Compressibility (1/GPa) = 0.01404625
#
# Stress axis : x y z
#
# Youngs Moduli (GPa) = 86.58992 101.99820 81.17430
#
# Poissons Ratio (x) = 0.36705 0.18259
# Poissons Ratio (y) = 0.31160 0.32185
# Poissons Ratio (z) = 0.19477 0.40441
#
# Static dielectric constant tensor:
#      x y z
#    x 3.636510 0.000000 0.000000 
#    y 0.000000 4.334100 0.000000 
#    z 0.000000 0.000000 3.974700 
# 
# 
# High freq. dielectric constant tensor:
#      x y z
#    x 1.801340 0.000000 0.000000 
#    y 0.000000 1.856450 0.000000 
#    z 0.000000 0.000000 1.844380 
# 
# From -- ./inp_files/9052.got.cif
#   From: 2010.03.12/outbox.cif.g09.slc.cpg/sg37_5_cif.got.tgz:9052.got - 2010.04.14 02:25:27.
