data_PCOD8177419
_publ_section_title
;
Structure prediction by ZEFSAII (Michael W. Deem and Ramdas Pophale) SiO2 
 PCOD8177419
Probable space group: A M M 2
;
_chemical_formula_sum "Si O2"
_cell_formula_units_Z 40
_cell_length_a 12.896433
_cell_length_b 8.672069
_cell_length_c 20.077232
_cell_angle_alpha 90.000000
_cell_angle_beta 90.000000
_cell_angle_gamma 90.000000
_cell_volume 2245.412667
_symmetry_space_group_name_H-M "A M M 2"
_symmetry_group_IT_number 38
_symmetry_cell_setting 'orthorhombic'
loop_
_space_group_symop_operation_xyz
x,y,z
-x,-y,z
-x,y,z
x,-y,z
x,1/2+y,1/2+z
-x,1/2-y,1/2+z
-x,1/2+y,1/2+z
x,1/2-y,1/2+z
loop_
_atom_site_type_symbol
_atom_site_label
_atom_site_fract_x
_atom_site_fract_y
_atom_site_fract_z
Si Si1 0.500000 0.681186 0.559590
Si Si2 0.500000 0.181808 0.703623
Si Si3 0.882600 0.681533 0.814123
Si Si4 0.721708 0.816403 0.058935
Si Si5 0.289937 0.182580 0.210743
Si Si6 0.116564 0.182886 0.953352
O O1 0.500000 0.500000 0.551871
O O2 0.500000 0.719815 0.636851
O O3 0.390690 0.743479 0.529857
O O4 0.606642 0.233575 0.740219
O O5 0.500000 0.000000 0.691371
O O6 0.877686 0.500000 0.823737
O O7 0.807423 0.736335 0.755026
O O8 0.843172 0.758216 0.882325
O O9 0.000000 0.735144 0.797042
O O10 0.735344 0.761468 0.135302
O O11 0.726609 0.000000 0.057038
O O12 0.811130 0.747042 0.011857
O O13 0.306936 0.000000 0.214181
O O14 0.000000 0.242571 0.966790
O O15 0.121106 0.000000 0.953422
#
# Coordination Sequence:
#
# PCOD8177419 Si02
#       6
#     4   4   8   8   8   8
#     4   8  14  28  47  64  87 119 151 185 227 270
#     4  10  18  28  45  70  97 121 149 187 231 278
#     4   9  18  32  49  68  91 122 157 190 227 273
#     4   8  14  26  46  68  86 111 149 186 221 264
#     4   9  17  31  50  69  92 122 155 191 228 268
#     4   9  17  29  45  65  91 121 150 185 230 274
#
# _framework density 17.814097
#
# number of rings (size 3 to 8) (size 9 to 14) (size 15 to 20)
#    0.000    3.200    0.000    2.100    0.000    1.600 
#    0.000    9.000    0.000    1.200    0.000    5.600 
#    0.000    0.000    0.000    0.000    0.000    0.000 
#
# Total GULP energy -247786.843701 kJ/mol
# GULP energy per Si atom -12389.342185 kJ/mol
# Density = 1.777355 g / cm^3
# Si number density = 17.814097 Si / 1000 Ang^3
#
#
#
# Elastic Constant Matrix: (Units=GPa)
#
#
# Indices 1 2 3 4 5 6 
#
# 1 154.9152 8.5549 92.4914 0.0000 0.0000 0.0000
# 2 8.5549 -56.8291 20.2919 0.0000 0.0000 0.0000
# 3 92.4914 20.2919 105.6300 0.0000 0.0000 0.0000
# 4 0.0000 0.0000 0.0000 19.8306 0.0000 0.0000
# 5 0.0000 0.0000 0.0000 0.0000 16.9648 0.0000
# 6 0.0000 0.0000 0.0000 0.0000 0.0000 16.6551
#
#
#
# Elastic Compliance Matrix: (Units=1/GPa)
#
#
# Indices 1 2 3 4 5 6 
#
# 1 0.013276 -0.002014 -0.011237 0.000000 0.000000 0.000000
# 2 -0.002014 -0.016161 0.004868 0.000000 0.000000 0.000000
# 3 -0.011237 0.004868 0.018371 0.000000 0.000000 0.000000
# 4 0.000000 0.000000 0.000000 0.050427 0.000000 0.000000
# 5 0.000000 0.000000 0.000000 0.000000 0.058946 0.000000
# 6 0.000000 0.000000 0.000000 0.000000 0.000000 0.060042
#
#
# Mechanical properties :
#
#
# Convention : Reuss Voigt Hill
#
# Bulk Modulus (GPa) = -780.68078 49.59916 -365.54081
# Shear Modulus (GPa) = 24.84603 16.18197 20.51400
#
# Velocity S-wave (km/s) = 3.73867 3.01720 3.39715
# Velocity P-wave (km/s) = 20.50737 6.32781 13.79331
#
# Compressibility (1/GPa) = -0.00128093
#
# Stress axis : x y z
#
# Youngs Moduli (GPa) = 75.32596 -61.87546 54.43215
#
# Poissons Ratio (x) = -0.12462 0.61168
# Poissons Ratio (y) = 0.15171 -0.26499
# Poissons Ratio (z) = 0.84647 0.30123
#
# Static dielectric constant tensor:
#      x y z
#    x 4.035760 0.000000 0.000000 
#    y 0.000000 2.935790 0.000000 
#    z 0.000000 0.000000 3.230500 
# 
# 
# High freq. dielectric constant tensor:
#      x y z
#    x 1.708610 0.000000 0.000000 
#    y 0.000000 1.657040 0.000000 
#    z 0.000000 0.000000 1.660410 
# 
# From -- ./inp_files/14298.got.cif
#   From: 2010.03.12/outbox.cif.g09.slc.cpg/sg38_8_cif.got.tgz:14298.got - 2010.04.14 02:38:36.
