data_PCOD8177322
_publ_section_title
;
Structure prediction by ZEFSAII (Michael W. Deem and Ramdas Pophale) SiO2 
 PCOD8177322
Probable space group: A M M 2
;
_chemical_formula_sum "Si O2"
_cell_formula_units_Z 48
_cell_length_a 8.654536
_cell_length_b 18.483691
_cell_length_c 14.939093
_cell_angle_alpha 90.000000
_cell_angle_beta 90.000000
_cell_angle_gamma 90.000000
_cell_volume 2389.773381
_symmetry_space_group_name_H-M "A M M 2"
_symmetry_group_IT_number 38
_symmetry_cell_setting 'orthorhombic'
loop_
_space_group_symop_operation_xyz
x,y,z
-x,-y,z
-x,y,z
x,-y,z
x,1/2+y,1/2+z
-x,1/2-y,1/2+z
-x,1/2+y,1/2+z
x,1/2-y,1/2+z
loop_
_atom_site_type_symbol
_atom_site_label
_atom_site_fract_x
_atom_site_fract_y
_atom_site_fract_z
Si Si1 0.822873 0.077512 0.277250
Si Si2 0.816022 0.500000 0.449727
Si Si3 0.816488 0.344836 0.184919
Si Si4 0.183396 0.000000 0.751234
Si Si5 0.823012 0.121110 0.080030
Si Si6 0.816153 0.730954 0.835962
Si Si7 0.320769 0.761329 0.529214
O O1 0.810265 0.076192 0.170542
O O2 0.744706 0.150732 0.315731
O O3 0.000000 0.078308 0.307968
O O4 0.749253 0.000000 0.310603
O O5 0.746048 0.500000 0.350866
O O6 0.758810 0.571912 0.499636
O O7 0.000000 0.500000 0.451904
O O8 0.759627 0.426839 0.203292
O O9 0.756457 0.290455 0.263614
O O10 0.000000 0.340064 0.178436
O O11 0.745289 0.327341 0.087819
O O12 0.000000 0.000000 0.758030
O O13 0.000000 0.146636 0.064147
O O14 0.712848 0.190281 0.087738
O O15 0.764814 0.751137 0.935225
O O16 0.000000 0.729208 0.829566
O O17 0.500000 0.773716 0.511622
#
# Coordination Sequence:
#
# PCOD8177322 Si02
#       7
#     8   4   8   4   8   8   8
#     4   9  16  30  56  90 116 138 178 236 291 334
#     4   9  16  28  57  94 119 138 174 238 300 348
#     4  10  20  39  64  87 113 147 192 243 290 339
#     4   9  18  32  55  90 117 138 182 242 294 336
#     4  10  17  32  59  88 116 145 184 232 286 344
#     4  10  20  37  62  86 113 149 193 241 287 341
#     4  12  25  38  55  82 118 159 198 234 281 342
#
# _framework density 20.085585999999999
#
# number of rings (size 3 to 8) (size 9 to 14) (size 15 to 20)
#    0.000    2.000    2.500    2.500    0.000    3.333 
#    1.500    0.833    0.000    2.000    0.000    0.000 
#    0.000    0.000    0.000    0.000    0.000    0.000 
#
# Total GULP energy -297451.254847 kJ/mol
# GULP energy per Si atom -12393.802285 kJ/mol
# Density = 2.003987 g / cm^3
# Si number density = 20.085586 Si / 1000 Ang^3
#
#
#
# Elastic Constant Matrix: (Units=GPa)
#
#
# Indices 1 2 3 4 5 6 
#
# 1 22.0949 20.4945 13.1603 0.0000 0.0000 0.0000
# 2 20.4945 154.8316 27.7764 0.0000 0.0000 0.0000
# 3 13.1603 27.7764 75.5226 0.0000 0.0000 0.0000
# 4 0.0000 0.0000 0.0000 33.7045 0.0000 0.0000
# 5 0.0000 0.0000 0.0000 0.0000 7.3359 0.0000
# 6 0.0000 0.0000 0.0000 0.0000 0.0000 3.5010
#
#
#
# Elastic Compliance Matrix: (Units=1/GPa)
#
#
# Indices 1 2 3 4 5 6 
#
# 1 0.055227 -0.005978 -0.007425 0.000000 0.000000 0.000000
# 2 -0.005978 0.007562 -0.001739 0.000000 0.000000 0.000000
# 3 -0.007425 -0.001739 0.015175 0.000000 0.000000 0.000000
# 4 0.000000 0.000000 0.000000 0.029670 0.000000 0.000000
# 5 0.000000 0.000000 0.000000 0.000000 0.136316 0.000000
# 6 0.000000 0.000000 0.000000 0.000000 0.000000 0.285637
#
#
# Mechanical properties :
#
#
# Convention : Reuss Voigt Hill
#
# Bulk Modulus (GPa) = 20.97387 41.70130 31.33758
# Shear Modulus (GPa) = 8.68412 21.64280 15.16346
#
# Velocity S-wave (km/s) = 2.08157 3.28613 2.75060
# Velocity P-wave (km/s) = 4.03016 5.93339 5.07185
#
# Compressibility (1/GPa) = 0.04767836
#
# Stress axis : x y z
#
# Youngs Moduli (GPa) = 18.10712 132.24015 65.89925
#
# Poissons Ratio (x) = 0.79056 0.48930
# Poissons Ratio (y) = 0.10825 0.11463
# Poissons Ratio (z) = 0.13444 0.23003
#
# Static dielectric constant tensor:
#      x y z
#    x 3.049390 0.000000 0.000000 
#    y 0.000000 4.003020 0.000000 
#    z 0.000000 0.000000 3.624300 
# 
# 
# High freq. dielectric constant tensor:
#      x y z
#    x 1.720460 0.000000 0.000000 
#    y 0.000000 1.802810 0.000000 
#    z 0.000000 0.000000 1.779900 
# 
# From -- ./inp_files/12140.got.cif
#   From: 2010.03.12/outbox.cif.g09.slc.cpg/sg38_7_cif.got.tgz:12140.got - 2010.04.14 02:38:36.
