data_PCOD8177394
_publ_section_title
;
Structure prediction by ZEFSAII (Michael W. Deem and Ramdas Pophale) SiO2 
 PCOD8177394
Probable space group: A M M 2
;
_chemical_formula_sum "Si O2"
_cell_formula_units_Z 48
_cell_length_a 10.457807
_cell_length_b 8.355416
_cell_length_c 28.701883
_cell_angle_alpha 90.000000
_cell_angle_beta 90.000000
_cell_angle_gamma 90.000000
_cell_volume 2507.951247
_symmetry_space_group_name_H-M "A M M 2"
_symmetry_group_IT_number 38
_symmetry_cell_setting 'orthorhombic'
loop_
_space_group_symop_operation_xyz
x,y,z
-x,-y,z
-x,y,z
x,-y,z
x,1/2+y,1/2+z
-x,1/2-y,1/2+z
-x,1/2+y,1/2+z
x,1/2-y,1/2+z
loop_
_atom_site_type_symbol
_atom_site_label
_atom_site_fract_x
_atom_site_fract_y
_atom_site_fract_z
Si Si1 0.644564 0.190471 0.238020
Si Si2 0.355773 0.309847 0.636145
Si Si3 0.500000 0.686592 0.490210
Si Si4 0.000000 0.309615 0.489646
Si Si5 0.500000 0.688962 0.888238
Si Si6 0.000000 0.309475 0.884464
Si Si7 0.250914 0.690862 0.540924
Si Si8 0.749814 0.189854 0.332762
O O1 0.500000 0.252328 0.246431
O O2 0.693533 0.250274 0.187050
O O3 0.736539 0.254733 0.279444
O O4 0.643147 0.000000 0.239528
O O5 0.500000 0.246674 0.627149
O O6 0.359205 0.500000 0.635951
O O7 0.262390 0.249494 0.594774
O O8 0.500000 0.500000 0.501092
O O9 0.500000 0.717256 0.435976
O O10 0.372551 0.761367 0.513041
O O11 0.000000 0.249132 0.437130
O O12 0.876895 0.240524 0.517043
O O13 0.000000 0.500000 0.489205
O O14 0.500000 0.500000 0.897236
O O15 0.624979 0.745739 0.860621
O O16 0.123916 0.239630 0.857470
O O17 0.000000 0.500000 0.884315
O O18 0.248118 0.500000 0.538659
O O19 0.758466 0.000000 0.332518
#
# Coordination Sequence:
#
# PCOD8177394 Si02
#       8
#     8   8   4   4   4   4   8   8
#     4   8  12  20  37  60  85 112 139 167 207 260
#     4   8  12  20  37  60  85 112 139 167 207 260
#     4  10  18  28  43  61  83 109 142 180 211 246
#     4  10  20  32  45  61  87 119 146 176 215 254
#     4  10  18  28  43  61  83 109 142 180 211 246
#     4  10  20  32  45  61  87 119 146 176 215 254
#     4   9  16  27  41  60  85 113 142 174 213 252
#     4   9  16  27  41  60  85 113 142 174 213 252
#
# _framework density 19.139127999999999
#
# number of rings (size 3 to 8) (size 9 to 14) (size 15 to 20)
#    0.000    3.000    1.667    2.000    0.000    0.000 
#    0.000    0.833    0.000    5.000    0.000    0.000 
#    0.000    8.000    0.000    0.000    0.000    0.000 
#
# Total GULP energy -297381.771915 kJ/mol
# GULP energy per Si atom -12390.907163 kJ/mol
# Density = 1.909557 g / cm^3
# Si number density = 19.139128 Si / 1000 Ang^3
#
#
#
# Elastic Constant Matrix: (Units=GPa)
#
#
# Indices 1 2 3 4 5 6 
#
# 1 166.8827 5.9926 107.3750 0.0000 0.0000 0.0000
# 2 5.9926 3.4077 1.4794 0.0000 0.0000 0.0000
# 3 107.3750 1.4794 214.6203 0.0000 0.0000 0.0000
# 4 0.0000 0.0000 0.0000 18.2344 0.0000 0.0000
# 5 0.0000 0.0000 0.0000 0.0000 39.3144 0.0000
# 6 0.0000 0.0000 0.0000 0.0000 0.0000 4.4633
#
#
#
# Elastic Compliance Matrix: (Units=1/GPa)
#
#
# Indices 1 2 3 4 5 6 
#
# 1 0.009520 -0.014717 -0.004661 0.000000 0.000000 0.000000
# 2 -0.014717 0.317083 0.005177 0.000000 0.000000 0.000000
# 3 -0.004661 0.005177 0.006956 0.000000 0.000000 0.000000
# 4 0.000000 0.000000 0.000000 0.054841 0.000000 0.000000
# 5 0.000000 0.000000 0.000000 0.000000 0.025436 0.000000
# 6 0.000000 0.000000 0.000000 0.000000 0.000000 0.224048
#
#
# Mechanical properties :
#
#
# Convention : Reuss Voigt Hill
#
# Bulk Modulus (GPa) = 3.27701 68.28939 35.78320
# Shear Modulus (GPa) = 6.51037 30.40667 18.45852
#
# Velocity S-wave (km/s) = 1.84634 3.99020 3.10891
# Velocity P-wave (km/s) = 2.50225 7.54896 5.62353
#
# Compressibility (1/GPa) = 0.30515582
#
# Stress axis : x y z
#
# Youngs Moduli (GPa) = 105.04273 3.15375 143.76468
#
# Poissons Ratio (x) = 0.04641 0.67014
# Poissons Ratio (y) = 1.54595 -0.74433
# Poissons Ratio (z) = 0.48965 -0.01633
#
# Static dielectric constant tensor:
#      x y z
#    x 3.739860 0.000000 0.000000 
#    y 0.000000 2.753450 0.000000 
#    z 0.000000 0.000000 3.994140 
# 
# 
# High freq. dielectric constant tensor:
#      x y z
#    x 1.729980 0.000000 0.000000 
#    y 0.000000 1.669550 0.000000 
#    z 0.000000 0.000000 1.768370 
# 
# From -- ./inp_files/9488.got.cif
#   From: 2010.03.12/outbox.cif.g09.slc.cpg/sg38_5_cif.got.tgz:9488.got - 2010.04.14 02:38:36.
