data_PCOD8177444
_publ_section_title
;
Structure prediction by ZEFSAII (Michael W. Deem and Ramdas Pophale) SiO2 
 PCOD8177444
Probable space group: A M M 2
;
_chemical_formula_sum "Si O2"
_cell_formula_units_Z 48
_cell_length_a 9.808569
_cell_length_b 11.599699
_cell_length_c 25.149322
_cell_angle_alpha 90.000000
_cell_angle_beta 90.000000
_cell_angle_gamma 90.000000
_cell_volume 2861.400527
_symmetry_space_group_name_H-M "A M M 2"
_symmetry_group_IT_number 38
_symmetry_cell_setting 'orthorhombic'
loop_
_space_group_symop_operation_xyz
x,y,z
-x,-y,z
-x,y,z
x,-y,z
x,1/2+y,1/2+z
-x,1/2-y,1/2+z
-x,1/2+y,1/2+z
x,1/2-y,1/2+z
loop_
_atom_site_type_symbol
_atom_site_label
_atom_site_fract_x
_atom_site_fract_y
_atom_site_fract_z
Si Si1 0.157204 0.865814 0.849400
Si Si2 0.346051 0.863490 0.652308
Si Si3 0.157024 0.249229 0.739257
Si Si4 0.338523 0.872207 0.534468
Si Si5 0.846063 0.500000 0.769363
Si Si6 0.343016 0.235746 0.428553
Si Si7 0.348446 0.000000 0.367862
O O1 0.204033 0.795222 0.797279
O O2 0.248828 0.829012 0.899445
O O3 0.000000 0.839172 0.863137
O O4 0.180694 0.000000 0.837770
O O5 0.500000 0.820227 0.663422
O O6 0.245786 0.808300 0.694257
O O7 0.297702 0.826249 0.593072
O O8 0.339446 0.000000 0.657632
O O9 0.181095 0.386339 0.734408
O O10 0.000000 0.214941 0.729830
O O11 0.500000 0.885934 0.531212
O O12 0.292341 0.779626 0.489762
O O13 0.274601 0.000000 0.524749
O O14 0.754577 0.500000 0.820390
O O15 0.000000 0.500000 0.790961
O O16 0.500000 0.277684 0.425164
O O17 0.323855 0.110918 0.403428
O O18 0.500000 0.000000 0.343637
#
# Coordination Sequence:
#
# PCOD8177444 Si02
#       7
#     8   8   8   8   4   8   4
#     4  10  21  35  50  70  99 135 167 198 242 291
#     4   9  18  32  52  76 100 128 162 201 243 288
#     4  10  20  34  52  72  97 129 164 203 245 290
#     4   8  14  28  50  75 101 127 157 197 246 291
#     4  10  20  34  52  72  96 130 166 199 242 293
#     4  10  18  30  52  78 102 128 158 197 244 292
#     4  10  18  28  48  80 106 124 152 195 244 289
#
# _framework density 16.775002000000001
#
# number of rings (size 3 to 8) (size 9 to 14) (size 15 to 20)
#    0.000    2.500    2.500    1.500    0.000    2.667 
#    0.000    0.833    1.833    1.000    0.000    0.000 
#    0.000    0.000    0.000    0.000    0.000    0.000 
#
# Total GULP energy -297524.830264 kJ/mol
# GULP energy per Si atom -12396.867928 kJ/mol
# Density = 1.673682 g / cm^3
# Si number density = 16.775002 Si / 1000 Ang^3
#
#
#
# Elastic Constant Matrix: (Units=GPa)
#
#
# Indices 1 2 3 4 5 6 
#
# 1 63.7606 30.4387 60.3907 0.0000 0.0000 0.0000
# 2 30.4387 63.5472 37.4432 0.0000 0.0000 0.0000
# 3 60.3907 37.4432 129.4935 0.0000 0.0000 0.0000
# 4 0.0000 0.0000 0.0000 23.9409 0.0000 0.0000
# 5 0.0000 0.0000 0.0000 0.0000 34.9151 0.0000
# 6 0.0000 0.0000 0.0000 0.0000 0.0000 27.4820
#
#
#
# Elastic Compliance Matrix: (Units=1/GPa)
#
#
# Indices 1 2 3 4 5 6 
#
# 1 0.030862 -0.007596 -0.012196 0.000000 0.000000 0.000000
# 2 -0.007596 0.020838 -0.002483 0.000000 0.000000 0.000000
# 3 -0.012196 -0.002483 0.014128 0.000000 0.000000 0.000000
# 4 0.000000 0.000000 0.000000 0.041770 0.000000 0.000000
# 5 0.000000 0.000000 0.000000 0.000000 0.028641 0.000000
# 6 0.000000 0.000000 0.000000 0.000000 0.000000 0.036387
#
#
# Mechanical properties :
#
#
# Convention : Reuss Voigt Hill
#
# Bulk Modulus (GPa) = 46.99865 57.03849 52.01857
# Shear Modulus (GPa) = 22.29474 25.83619 24.06547
#
# Velocity S-wave (km/s) = 3.64956 3.92874 3.79172
# Velocity P-wave (km/s) = 6.77030 7.39297 7.08847
#
# Compressibility (1/GPa) = 0.02127721
#
# Stress axis : x y z
#
# Youngs Moduli (GPa) = 32.40262 47.98981 70.78110
#
# Poissons Ratio (x) = 0.36455 0.86326
# Poissons Ratio (y) = 0.24614 0.17572
# Poissons Ratio (z) = 0.39519 0.11914
#
# Static dielectric constant tensor:
#      x y z
#    x 3.050230 0.000000 0.000000 
#    y 0.000000 3.128920 0.000000 
#    z 0.000000 0.000000 3.364880 
# 
# 
# High freq. dielectric constant tensor:
#      x y z
#    x 1.630700 0.000000 0.000000 
#    y 0.000000 1.635190 0.000000 
#    z 0.000000 0.000000 1.645730 
# 
# From -- ./inp_files/20606.got.cif
#   From: 2010.03.12/outbox.cif.g09.slc.cpg/sg38_11_cif.got.tgz:20606.got - 2010.04.14 02:38:36.
