data_PCOD8177404
_publ_section_title
;
Structure prediction by ZEFSAII (Michael W. Deem and Ramdas Pophale) SiO2 
 PCOD8177404
Probable space group: A M M 2
;
_chemical_formula_sum "Si O2"
_cell_formula_units_Z 56
_cell_length_a 9.008588
_cell_length_b 29.127339
_cell_length_c 13.903319
_cell_angle_alpha 90.000000
_cell_angle_beta 90.000000
_cell_angle_gamma 90.000000
_cell_volume 3648.178026
_symmetry_space_group_name_H-M "A M M 2"
_symmetry_group_IT_number 38
_symmetry_cell_setting 'orthorhombic'
loop_
_space_group_symop_operation_xyz
x,y,z
-x,-y,z
-x,y,z
x,-y,z
x,1/2+y,1/2+z
-x,1/2-y,1/2+z
-x,1/2+y,1/2+z
x,1/2-y,1/2+z
loop_
_atom_site_type_symbol
_atom_site_label
_atom_site_fract_x
_atom_site_fract_y
_atom_site_fract_z
Si Si1 0.825386 0.500000 0.336830
Si Si2 0.668003 0.400500 0.120048
Si Si3 0.174668 0.177866 0.936062
Si Si4 0.824152 0.230276 0.122092
Si Si5 0.824116 0.320151 0.018260
Si Si6 0.175968 0.229396 0.333675
Si Si7 0.667814 0.500000 0.142191
Si Si8 0.674979 0.407585 0.342742
O O1 0.792175 0.500000 0.223632
O O2 0.752718 0.454040 0.381592
O O3 0.000000 0.500000 0.356769
O O4 0.500000 0.383257 0.110152
O O5 0.767740 0.369241 0.052430
O O6 0.685757 0.453132 0.081073
O O7 0.718601 0.398242 0.231451
O O8 0.222882 0.219654 0.866835
O O9 0.267729 0.133600 0.908163
O O10 0.000000 0.167515 0.926577
O O11 0.219195 0.190940 0.045730
O O12 0.763757 0.280005 0.088363
O O13 0.757164 0.219005 0.227681
O O14 0.000000 0.233746 0.127536
O O15 0.000000 0.321280 0.019881
O O16 0.766437 0.308630 0.910040
O O17 0.000000 0.227211 0.331331
O O18 0.500000 0.500000 0.188972
O O19 0.500000 0.413002 0.354596
#
# Coordination Sequence:
#
# PCOD8177404 Si02
#       8
#     4   8   8   8   8   8   4   8
#     4  10  18  28  44  64  83 106 139 172 199 240
#     4   9  17  28  41  57  81 111 136 162 203 252
#     4   9  16  26  43  64  81 106 146 177 199 241
#     4   8  14  25  40  59  85 112 136 168 208 245
#     4   9  16  25  41  63  82 106 141 174 204 242
#     4   8  14  25  40  60  87 113 136 170 215 249
#     4   8  16  30  42  56  83 114 137 162 209 258
#     4  10  19  30  42  59  87 116 136 164 211 252
#
# _framework density 15.350128
#
# number of rings (size 3 to 8) (size 9 to 14) (size 15 to 20)
#    0.000    3.143    0.000    4.500    0.000    4.000 
#    0.000    2.857    0.000    2.571    0.000    1.000 
#    0.000    6.857    0.000    0.000    0.000    0.000 
#
# Total GULP energy -346961.616528 kJ/mol
# GULP energy per Si atom -12391.486305 kJ/mol
# Density = 1.531519 g / cm^3
# Si number density = 15.350128 Si / 1000 Ang^3
#
#
#
# Elastic Constant Matrix: (Units=GPa)
#
#
# Indices 1 2 3 4 5 6 
#
# 1 44.2103 37.5606 25.6879 0.0000 0.0000 0.0000
# 2 37.5606 125.5362 61.0266 0.0000 0.0000 0.0000
# 3 25.6879 61.0266 110.8111 0.0000 0.0000 0.0000
# 4 0.0000 0.0000 0.0000 22.5686 0.0000 0.0000
# 5 0.0000 0.0000 0.0000 0.0000 12.7516 0.0000
# 6 0.0000 0.0000 0.0000 0.0000 0.0000 16.3720
#
#
#
# Elastic Compliance Matrix: (Units=1/GPa)
#
#
# Indices 1 2 3 4 5 6 
#
# 1 0.030967 -0.007887 -0.002835 0.000000 0.000000 0.000000
# 2 -0.007887 0.012887 -0.005269 0.000000 0.000000 0.000000
# 3 -0.002835 -0.005269 0.012583 0.000000 0.000000 0.000000
# 4 0.000000 0.000000 0.000000 0.044309 0.000000 0.000000
# 5 0.000000 0.000000 0.000000 0.000000 0.078421 0.000000
# 6 0.000000 0.000000 0.000000 0.000000 0.000000 0.061080
#
#
# Mechanical properties :
#
#
# Convention : Reuss Voigt Hill
#
# Bulk Modulus (GPa) = 40.89078 58.78974 49.84026
# Shear Modulus (GPa) = 17.83279 20.75727 19.29503
#
# Velocity S-wave (km/s) = 3.41212 3.68129 3.54926
# Velocity P-wave (km/s) = 6.49769 7.51342 7.02394
#
# Compressibility (1/GPa) = 0.02445539
#
# Stress axis : x y z
#
# Youngs Moduli (GPa) = 32.29203 77.59744 79.47069
#
# Poissons Ratio (x) = 0.61203 0.22530
# Poissons Ratio (y) = 0.25470 0.41872
# Poissons Ratio (z) = 0.09155 0.40885
#
# Static dielectric constant tensor:
#      x y z
#    x 2.661140 0.000000 0.000000 
#    y 0.000000 3.028770 0.000000 
#    z 0.000000 0.000000 3.113770 
# 
# 
# High freq. dielectric constant tensor:
#      x y z
#    x 1.565970 0.000000 0.000000 
#    y 0.000000 1.587950 0.000000 
#    z 0.000000 0.000000 1.561030 
# 
# From -- ./inp_files/13003.got.cif
#   From: 2010.03.12/outbox.cif.g09.slc.cpg/sg38_7_cif.got.tgz:13003.got - 2010.04.14 02:38:36.
