data_PCOD8177329
_publ_section_title
;
Structure prediction by ZEFSAII (Michael W. Deem and Ramdas Pophale) SiO2 
 PCOD8177329
Probable space group: A M M 2
;
_chemical_formula_sum "Si O2"
_cell_formula_units_Z 60
_cell_length_a 25.847385
_cell_length_b 26.886877
_cell_length_c 5.330890
_cell_angle_alpha 90.000000
_cell_angle_beta 90.000000
_cell_angle_gamma 90.000000
_cell_volume 3704.731119
_symmetry_space_group_name_H-M "A M M 2"
_symmetry_group_IT_number 38
_symmetry_cell_setting 'orthorhombic'
loop_
_space_group_symop_operation_xyz
x,y,z
-x,-y,z
-x,y,z
x,-y,z
x,1/2+y,1/2+z
-x,1/2-y,1/2+z
-x,1/2+y,1/2+z
x,1/2-y,1/2+z
loop_
_atom_site_type_symbol
_atom_site_label
_atom_site_fract_x
_atom_site_fract_y
_atom_site_fract_z
Si Si1 0.887949 0.691325 0.742380
Si Si2 0.442205 0.441151 0.242993
Si Si3 0.617492 0.941176 0.242991
Si Si4 0.728519 0.312210 0.243087
Si Si5 0.306363 0.857920 0.243082
Si Si6 0.367790 0.735604 0.743070
Si Si7 0.000000 0.282535 0.733641
Si Si8 0.154555 0.198781 0.742387
O O1 0.949527 0.682133 0.743787
O O2 0.877560 0.750405 0.740814
O O3 0.861875 0.667773 0.491666
O O4 0.861709 0.667807 0.992672
O O5 0.500000 0.418319 0.242998
O O6 0.445852 0.500000 0.242999
O O7 0.413120 0.423414 0.494523
O O8 0.413123 0.423416 0.991453
O O9 0.673332 0.914515 0.243001
O O10 0.627255 0.000000 0.242988
O O11 0.725318 0.347063 0.489439
O O12 0.686221 0.267909 0.243096
O O13 0.784848 0.287376 0.242971
O O14 0.725291 0.347086 0.996824
O O15 0.356997 0.822630 0.243053
O O16 0.399832 0.750003 0.493075
O O17 0.000000 0.253447 0.472099
#
# Coordination Sequence:
#
# PCOD8177329 Si02
#       8
#     8   8   8   8   8   8   4   8
#     4  10  19  24  38  50  72 100 143 175 219 252
#     4   9  17  30  49  70  90 112 134 167 211 246
#     4  10  19  31  47  67  94 117 141 167 195 251
#     4  10  19  28  42  57  86 105 143 185 221 240
#     4  10  19  29  41  61  84 117 137 168 212 249
#     4   8  16  25  37  54  75 105 129 168 208 235
#     4  12  16  30  32  50  72 102 136 196 206 252
#     4  10  18  25  36  55  69 100 135 177 222 247
#
# _framework density 16.195508
#
# number of rings (size 3 to 8) (size 9 to 14) (size 15 to 20)
#    0.000    2.267    2.667    2.000   11.200    1.600 
#    0.000    0.000    0.000    0.000    0.000    0.000 
#    0.000   96.000    0.000    0.000    0.000    0.000 
#
# Total GULP energy -371705.559802 kJ/mol
# GULP energy per Si atom -12390.185327 kJ/mol
# Density = 1.615865 g / cm^3
# Si number density = 16.195508 Si / 1000 Ang^3
#
#
#
# Elastic Constant Matrix: (Units=GPa)
#
#
# Indices 1 2 3 4 5 6 
#
# 1 55.2692 17.9402 20.3213 0.0000 0.0000 0.0000
# 2 17.9402 29.9657 15.0460 0.0000 0.0000 0.0000
# 3 20.3213 15.0460 169.4159 0.0000 0.0000 0.0000
# 4 0.0000 0.0000 0.0000 10.3786 0.0000 0.0000
# 5 0.0000 0.0000 0.0000 0.0000 23.4452 0.0000
# 6 0.0000 0.0000 0.0000 0.0000 0.0000 6.3483
#
#
#
# Elastic Compliance Matrix: (Units=1/GPa)
#
#
# Indices 1 2 3 4 5 6 
#
# 1 0.022863 -0.012886 -0.001598 0.000000 0.000000 0.000000
# 2 -0.012886 0.042191 -0.002201 0.000000 0.000000 0.000000
# 3 -0.001598 -0.002201 0.006290 0.000000 0.000000 0.000000
# 4 0.000000 0.000000 0.000000 0.096352 0.000000 0.000000
# 5 0.000000 0.000000 0.000000 0.000000 0.042653 0.000000
# 6 0.000000 0.000000 0.000000 0.000000 0.000000 0.157523
#
#
# Mechanical properties :
#
#
# Convention : Reuss Voigt Hill
#
# Bulk Modulus (GPa) = 26.33364 40.14065 33.23714
# Shear Modulus (GPa) = 12.08019 21.45732 16.76876
#
# Velocity S-wave (km/s) = 2.73408 3.64386 3.22125
# Velocity P-wave (km/s) = 5.12465 6.52246 5.86534
#
# Compressibility (1/GPa) = 0.03797424
#
# Stress axis : x y z
#
# Youngs Moduli (GPa) = 43.73789 23.70155 158.98682
#
# Poissons Ratio (x) = 0.30541 0.25407
# Poissons Ratio (y) = 0.56359 0.35000
# Poissons Ratio (z) = 0.06990 0.05218
#
# Static dielectric constant tensor:
#      x y z
#    x 2.896920 0.000000 0.000000 
#    y 0.000000 2.473730 0.000000 
#    z 0.000000 0.000000 4.714390 
# 
# 
# High freq. dielectric constant tensor:
#      x y z
#    x 1.596130 0.000000 0.000000 
#    y 0.000000 1.540810 0.000000 
#    z 0.000000 0.000000 1.670350 
# 
# From -- ./inp_files/1999.got.cif
#   From: 2010.03.12/outbox.cif.g09.slc.cpg/sg38_1_cif.got.tgz:1999.got - 2010.04.14 02:38:36.
