data_PCOD8177556
_publ_section_title
;
Structure prediction by ZEFSAII (Michael W. Deem and Ramdas Pophale) SiO2 
 PCOD8177556
Probable space group: A M M 2
;
_chemical_formula_sum "Si O2"
_cell_formula_units_Z 64
_cell_length_a 14.169855
_cell_length_b 8.963577
_cell_length_c 30.725965
_cell_angle_alpha 90.000000
_cell_angle_beta 90.000000
_cell_angle_gamma 90.000000
_cell_volume 3902.584283
_symmetry_space_group_name_H-M "A M M 2"
_symmetry_group_IT_number 38
_symmetry_cell_setting 'orthorhombic'
loop_
_space_group_symop_operation_xyz
x,y,z
-x,-y,z
-x,y,z
x,-y,z
x,1/2+y,1/2+z
-x,1/2-y,1/2+z
-x,1/2+y,1/2+z
x,1/2-y,1/2+z
loop_
_atom_site_type_symbol
_atom_site_label
_atom_site_fract_x
_atom_site_fract_y
_atom_site_fract_z
Si Si1 0.706882 0.826293 0.841180
Si Si2 0.714357 0.675918 0.008718
Si Si3 0.893254 0.826288 0.981283
Si Si4 0.609023 0.172039 0.931549
Si Si5 0.102762 0.822995 0.882787
Si Si6 0.387804 0.168200 0.674421
Si Si7 0.388042 0.170799 0.088046
Si Si8 0.608402 0.824691 0.261623
O O1 0.639789 0.797594 0.882243
O O2 0.812864 0.768000 0.851801
O O3 0.670789 0.728081 0.801700
O O4 0.705938 0.000000 0.827975
O O5 0.712515 0.500000 0.012573
O O6 0.822028 0.733760 0.011615
O O7 0.654652 0.742488 0.047763
O O8 0.669377 0.725012 0.963110
O O9 0.000000 0.798870 0.997727
O O10 0.866754 0.000000 0.984119
O O11 0.881740 0.766027 0.931948
O O12 0.500000 0.214686 0.936321
O O13 0.627500 0.000000 0.944160
O O14 0.000000 0.767397 0.865335
O O15 0.104156 0.000000 0.884938
O O16 0.500000 0.170195 0.673848
O O17 0.349274 0.256836 0.632585
O O18 0.351353 0.247702 0.718131
O O19 0.348445 0.000000 0.673138
O O20 0.500000 0.184548 0.084821
O O21 0.355084 0.000000 0.086802
O O22 0.500000 0.777869 0.270041
O O23 0.618263 0.000000 0.255494
#
# Coordination Sequence:
#
# PCOD8177556 Si02
#       8
#     8   8   8   8   8   8   8   8
#     4  10  18  30  49  70  93 123 163 205 242 284
#     4  12  23  32  46  70 101 132 163 201 244 292
#     4   9  17  33  55  72  90 122 164 207 249 293
#     4  10  20  33  47  64  92 131 172 207 239 283
#     4   8  14  27  49  72  91 116 155 203 248 289
#     4   9  17  31  51  73  96 122 157 201 246 288
#     4  10  20  34  52  72  97 130 167 204 241 286
#     4  10  20  32  46  67  98 132 164 197 236 286
#
# _framework density 16.399388999999999
#
# number of rings (size 3 to 8) (size 9 to 14) (size 15 to 20)
#    0.000    2.250    1.250    3.750    0.000    6.000 
#    0.000    0.000    0.000    0.375    0.000    0.875 
#    0.000    5.000    0.000    0.000    0.000    0.000 
#
# Total GULP energy -396790.485169 kJ/mol
# GULP energy per Si atom -12399.702662 kJ/mol
# Density = 1.636206 g / cm^3
# Si number density = 16.399389 Si / 1000 Ang^3
#
#
#
# Elastic Constant Matrix: (Units=GPa)
#
#
# Indices 1 2 3 4 5 6 
#
# 1 64.6023 32.8546 19.3289 0.0000 0.0000 0.0000
# 2 32.8546 96.7784 42.3384 0.0000 0.0000 0.0000
# 3 19.3289 42.3384 73.1454 0.0000 0.0000 0.0000
# 4 0.0000 0.0000 0.0000 30.5704 0.0000 0.0000
# 5 0.0000 0.0000 0.0000 0.0000 5.9921 0.0000
# 6 0.0000 0.0000 0.0000 0.0000 0.0000 18.2788
#
#
#
# Elastic Compliance Matrix: (Units=1/GPa)
#
#
# Indices 1 2 3 4 5 6 
#
# 1 0.018868 -0.005657 -0.001712 0.000000 0.000000 0.000000
# 2 -0.005657 0.015532 -0.007496 0.000000 0.000000 0.000000
# 3 -0.001712 -0.007496 0.018463 0.000000 0.000000 0.000000
# 4 0.000000 0.000000 0.000000 0.032711 0.000000 0.000000
# 5 0.000000 0.000000 0.000000 0.000000 0.166887 0.000000
# 6 0.000000 0.000000 0.000000 0.000000 0.000000 0.054708
#
#
# Mechanical properties :
#
#
# Convention : Reuss Voigt Hill
#
# Bulk Modulus (GPa) = 43.22493 47.06334 45.14413
# Shear Modulus (GPa) = 14.50914 20.30185 17.40549
#
# Velocity S-wave (km/s) = 2.97768 3.52229 3.26137
# Velocity P-wave (km/s) = 6.18360 6.73072 6.46295
#
# Compressibility (1/GPa) = 0.02313480
#
# Stress axis : x y z
#
# Youngs Moduli (GPa) = 52.99909 64.38133 54.16372
#
# Poissons Ratio (x) = 0.36418 0.09272
# Poissons Ratio (y) = 0.29979 0.40600
# Poissons Ratio (z) = 0.09073 0.48259
#
# Static dielectric constant tensor:
#      x y z
#    x 3.257210 0.000000 0.000000 
#    y 0.000000 3.043800 0.000000 
#    z 0.000000 0.000000 3.043250 
# 
# 
# High freq. dielectric constant tensor:
#      x y z
#    x 1.614820 0.000000 0.000000 
#    y 0.000000 1.625230 0.000000 
#    z 0.000000 0.000000 1.619620 
# 
# From -- ./inp_files/25048.got.cif
#   From: 2010.03.12/outbox.cif.g09.slc.cpg/sg38_13_cif.got.tgz:25048.got - 2010.04.14 02:38:36.
