data_PCOD8177284
_publ_section_title
;
Structure prediction by ZEFSAII (Michael W. Deem and Ramdas Pophale) SiO2 
 PCOD8177284
Probable space group: A M M 2
;
_chemical_formula_sum "Si O2"
_cell_formula_units_Z 64
_cell_length_a 8.841467
_cell_length_b 30.231982
_cell_length_c 14.537712
_cell_angle_alpha 90.000000
_cell_angle_beta 90.000000
_cell_angle_gamma 90.000000
_cell_volume 3885.858764
_symmetry_space_group_name_H-M "A M M 2"
_symmetry_group_IT_number 38
_symmetry_cell_setting 'orthorhombic'
loop_
_space_group_symop_operation_xyz
x,y,z
-x,-y,z
-x,y,z
x,-y,z
x,1/2+y,1/2+z
-x,1/2-y,1/2+z
-x,1/2+y,1/2+z
x,1/2-y,1/2+z
loop_
_atom_site_type_symbol
_atom_site_label
_atom_site_fract_x
_atom_site_fract_y
_atom_site_fract_z
Si Si1 0.823190 0.550314 0.021920
Si Si2 0.170641 0.173737 0.620804
Si Si3 0.179857 0.703089 0.438711
Si Si4 0.820836 0.227641 0.136149
Si Si5 0.674275 0.449667 0.216784
Si Si6 0.180012 0.292026 0.837088
Si Si7 0.170294 0.125936 0.812886
Si Si8 0.323169 0.868176 0.454493
O O1 0.785297 0.500000 0.994473
O O2 0.770216 0.560392 0.125675
O O3 0.000000 0.560527 0.018985
O O4 0.739544 0.581527 0.947361
O O5 0.238654 0.222709 0.624895
O O6 0.169356 0.154754 0.721769
O O7 0.283683 0.146256 0.557789
O O8 0.000000 0.173303 0.578756
O O9 0.232696 0.700827 0.545494
O O10 0.240582 0.748025 0.389727
O O11 0.241411 0.658205 0.390979
O O12 0.000000 0.703557 0.429090
O O13 0.759173 0.207490 0.231656
O O14 0.000000 0.229022 0.141891
O O15 0.500000 0.440357 0.193565
O O16 0.699158 0.500000 0.249833
O O17 0.728800 0.417927 0.299741
O O18 0.244495 0.336276 0.881666
O O19 0.000000 0.293666 0.841757
O O20 0.000000 0.111121 0.838806
O O21 0.500000 0.867800 0.436379
#
# Coordination Sequence:
#
# PCOD8177284 Si02
#       8
#     8   8   8   8   8   8   8   8
#     4  10  20  34  52  72  94 123 160 199 239 288
#     4  10  17  28  48  70  95 129 168 202 232 278
#     4   9  16  27  47  74  98 123 164 209 242 280
#     4   9  16  28  49  73  95 125 166 209 244 272
#     4  10  20  32  46  68  99 130 159 196 243 293
#     4  10  18  31  51  70  93 128 167 202 237 284
#     4  10  18  28  47  73  98 129 167 201 237 282
#     4  12  23  32  45  70 102 134 162 194 240 288
#
# _framework density 16.469975000000002
#
# number of rings (size 3 to 8) (size 9 to 14) (size 15 to 20)
#    0.000    2.000    3.750    1.875    0.000    1.500 
#    0.000    1.250    0.000    0.000    0.000    0.875 
#    0.000    3.000    0.000    0.000    0.000    0.000 
#
# Total GULP energy -396682.698164 kJ/mol
# GULP energy per Si atom -12396.334318 kJ/mol
# Density = 1.643249 g / cm^3
# Si number density = 16.469975 Si / 1000 Ang^3
#
#
#
# Elastic Constant Matrix: (Units=GPa)
#
#
# Indices 1 2 3 4 5 6 
#
# 1 42.4532 25.7210 17.8828 0.0000 0.0000 0.0000
# 2 25.7210 108.3651 41.4981 0.0000 0.0000 0.0000
# 3 17.8828 41.4981 88.6422 0.0000 0.0000 0.0000
# 4 0.0000 0.0000 0.0000 23.6779 0.0000 0.0000
# 5 0.0000 0.0000 0.0000 0.0000 5.0652 0.0000
# 6 0.0000 0.0000 0.0000 0.0000 0.0000 15.2652
#
#
#
# Elastic Compliance Matrix: (Units=1/GPa)
#
#
# Indices 1 2 3 4 5 6 
#
# 1 0.028200 -0.005501 -0.003114 0.000000 0.000000 0.000000
# 2 -0.005501 0.012317 -0.004656 0.000000 0.000000 0.000000
# 3 -0.003114 -0.004656 0.014089 0.000000 0.000000 0.000000
# 4 0.000000 0.000000 0.000000 0.042234 0.000000 0.000000
# 5 0.000000 0.000000 0.000000 0.000000 0.197427 0.000000
# 6 0.000000 0.000000 0.000000 0.000000 0.000000 0.065509
#
#
# Mechanical properties :
#
#
# Convention : Reuss Voigt Hill
#
# Bulk Modulus (GPa) = 35.63307 45.51827 40.57567
# Shear Modulus (GPa) = 12.63673 19.09221 15.86447
#
# Velocity S-wave (km/s) = 2.77295 3.40842 3.10697
# Velocity P-wave (km/s) = 5.65106 6.57167 6.12867
#
# Compressibility (1/GPa) = 0.02806382
#
# Stress axis : x y z
#
# Youngs Moduli (GPa) = 35.46118 81.18927 70.97528
#
# Poissons Ratio (x) = 0.44662 0.22100
# Poissons Ratio (y) = 0.19507 0.33049
# Poissons Ratio (z) = 0.11042 0.37805
#
# Static dielectric constant tensor:
#      x y z
#    x 2.895570 0.000000 0.000000 
#    y 0.000000 3.279750 0.000000 
#    z 0.000000 0.000000 3.099260 
# 
# 
# High freq. dielectric constant tensor:
#      x y z
#    x 1.609630 0.000000 0.000000 
#    y 0.000000 1.635030 0.000000 
#    z 0.000000 0.000000 1.607130 
# 
# From -- ./inp_files/13049.got.cif
#   From: 2010.03.12/outbox.cif.g09.slc.cpg/sg38_7_cif.got.tgz:13049.got - 2010.04.14 02:38:36.
