data_PCOD8177283
_publ_section_title
;
Structure prediction by ZEFSAII (Michael W. Deem and Ramdas Pophale) SiO2 
 PCOD8177283
Probable space group: A M M 2
;
_chemical_formula_sum "Si O2"
_cell_formula_units_Z 64
_cell_length_a 19.494595
_cell_length_b 9.334779
_cell_length_c 20.892589
_cell_angle_alpha 90.000000
_cell_angle_beta 90.000000
_cell_angle_gamma 90.000000
_cell_volume 3801.986046
_symmetry_space_group_name_H-M "A M M 2"
_symmetry_group_IT_number 38
_symmetry_cell_setting 'orthorhombic'
loop_
_space_group_symop_operation_xyz
x,y,z
-x,-y,z
-x,y,z
x,-y,z
x,1/2+y,1/2+z
-x,1/2-y,1/2+z
-x,1/2+y,1/2+z
x,1/2-y,1/2+z
loop_
_atom_site_type_symbol
_atom_site_label
_atom_site_fract_x
_atom_site_fract_y
_atom_site_fract_z
Si Si1 0.781578 0.668034 0.788260
Si Si2 0.424728 0.329764 0.606664
Si Si3 0.713065 0.830066 0.904646
Si Si4 0.076257 0.665482 0.842107
Si Si5 0.425216 0.330366 0.462885
Si Si6 0.716952 0.670723 0.657121
Si Si7 0.211041 0.667978 0.531641
Si Si8 0.924144 0.166369 0.970339
O O1 0.766459 0.500000 0.795779
O O2 0.742502 0.749859 0.843903
O O3 0.863871 0.698559 0.790536
O O4 0.752159 0.729332 0.721540
O O5 0.500000 0.275592 0.631099
O O6 0.424493 0.500000 0.605457
O O7 0.411210 0.271637 0.534694
O O8 0.362566 0.276432 0.652353
O O9 0.633596 0.782090 0.913425
O O10 0.721680 0.000000 0.894813
O O11 0.751729 0.774592 0.968105
O O12 0.077489 0.500000 0.861463
O O13 0.000000 0.707288 0.815377
O O14 0.094056 0.751713 0.905734
O O15 0.500000 0.276114 0.438542
O O16 0.424493 0.500000 0.467622
O O17 0.721242 0.500000 0.656680
O O18 0.758547 0.736278 0.596487
O O19 0.224279 0.500000 0.535358
O O20 0.130139 0.706215 0.525831
O O21 0.000000 0.206272 0.995741
O O22 0.918219 0.000000 0.952649
#
# Coordination Sequence:
#
# PCOD8177283 Si02
#       8
#     8   8   8   8   8   8   8   8
#     4  10  20  31  44  65  93 122 149 180 220 268
#     4   8  12  20  37  61  86 110 141 181 219 256
#     4  10  17  28  48  69  89 115 147 186 225 261
#     4   9  17  29  43  60  85 118 152 179 210 261
#     4   8  13  22  40  68  93 111 142 188 227 256
#     4   9  16  27  41  61  90 119 145 178 221 263
#     4   9  15  25  43  66  87 110 143 182 222 257
#     4   9  16  26  43  68  91 109 138 183 228 263
#
# _framework density 16.833307000000001
#
# number of rings (size 3 to 8) (size 9 to 14) (size 15 to 20)
#    0.000    3.000    2.500    0.750    0.000    0.000 
#    0.000    1.250    0.000    6.375    0.000    0.000 
#    0.000    4.000    0.000    0.000    0.000    0.000 
#
# Total GULP energy -396456.725131 kJ/mol
# GULP energy per Si atom -12389.272660 kJ/mol
# Density = 1.679499 g / cm^3
# Si number density = 16.833307 Si / 1000 Ang^3
#
#
#
# Elastic Constant Matrix: (Units=GPa)
#
#
# Indices 1 2 3 4 5 6 
#
# 1 167.4053 22.3292 86.1535 0.0000 0.0000 0.0000
# 2 22.3292 15.8614 19.8575 0.0000 0.0000 0.0000
# 3 86.1535 19.8575 121.6938 0.0000 0.0000 0.0000
# 4 0.0000 0.0000 0.0000 15.3654 0.0000 0.0000
# 5 0.0000 0.0000 0.0000 0.0000 27.8518 0.0000
# 6 0.0000 0.0000 0.0000 0.0000 0.0000 12.6996
#
#
#
# Elastic Compliance Matrix: (Units=1/GPa)
#
#
# Indices 1 2 3 4 5 6 
#
# 1 0.009902 -0.006489 -0.005951 0.000000 0.000000 0.000000
# 2 -0.006489 0.083485 -0.009029 0.000000 0.000000 0.000000
# 3 -0.005951 -0.009029 0.013904 0.000000 0.000000 0.000000
# 4 0.000000 0.000000 0.000000 0.065081 0.000000 0.000000
# 5 0.000000 0.000000 0.000000 0.000000 0.035904 0.000000
# 6 0.000000 0.000000 0.000000 0.000000 0.000000 0.078743
#
#
# Mechanical properties :
#
#
# Convention : Reuss Voigt Hill
#
# Bulk Modulus (GPa) = 15.53942 62.40453 38.97197
# Shear Modulus (GPa) = 14.22850 22.95803 18.59327
#
# Velocity S-wave (km/s) = 2.91049 3.69703 3.32709
# Velocity P-wave (km/s) = 4.53277 7.44155 6.16127
#
# Compressibility (1/GPa) = 0.06435248
#
# Stress axis : x y z
#
# Youngs Moduli (GPa) = 100.99238 11.97824 71.92304
#
# Poissons Ratio (x) = 0.07773 0.42802
# Poissons Ratio (y) = 0.65533 0.64938
# Poissons Ratio (z) = 0.60102 0.10815
#
# Static dielectric constant tensor:
#      x y z
#    x 3.790460 0.000000 0.000000 
#    y 0.000000 2.669690 0.000000 
#    z 0.000000 0.000000 3.080580 
# 
# 
# High freq. dielectric constant tensor:
#      x y z
#    x 1.676060 0.000000 0.000000 
#    y 0.000000 1.590680 0.000000 
#    z 0.000000 0.000000 1.619370 
# 
# From -- ./inp_files/21511.got.cif
#   From: 2010.03.12/outbox.cif.g09.slc.cpg/sg38_11_cif.got.tgz:21511.got - 2010.04.14 02:38:36.
