data_PCOD8177613
_publ_section_title
;
Structure prediction by ZEFSAII (Michael W. Deem and Ramdas Pophale) SiO2 
 PCOD8177613
Probable space group: A M M 2
;
_chemical_formula_sum "Si O2"
_cell_formula_units_Z 64
_cell_length_a 14.558146
_cell_length_b 8.826882
_cell_length_c 24.672272
_cell_angle_alpha 90.000000
_cell_angle_beta 90.000000
_cell_angle_gamma 90.000000
_cell_volume 3170.461879
_symmetry_space_group_name_H-M "A M M 2"
_symmetry_group_IT_number 38
_symmetry_cell_setting 'orthorhombic'
loop_
_space_group_symop_operation_xyz
x,y,z
-x,-y,z
-x,y,z
x,-y,z
x,1/2+y,1/2+z
-x,1/2-y,1/2+z
-x,1/2+y,1/2+z
x,1/2-y,1/2+z
loop_
_atom_site_type_symbol
_atom_site_label
_atom_site_fract_x
_atom_site_fract_y
_atom_site_fract_z
Si Si1 0.286781 0.675355 0.449970
Si Si2 0.600651 0.328668 0.223940
Si Si3 0.101022 0.324167 0.917735
Si Si4 0.860748 0.826025 0.297091
Si Si5 0.605630 0.179125 0.546838
Si Si6 0.313319 0.669196 0.330067
Si Si7 0.723322 0.176989 0.142305
Si Si8 0.102661 0.673801 0.185813
O O1 0.288148 0.500000 0.467100
O O2 0.180036 0.727441 0.447454
O O3 0.346500 0.770479 0.491571
O O4 0.337344 0.705048 0.392362
O O5 0.500000 0.281396 0.203249
O O6 0.623498 0.500000 0.204646
O O7 0.599727 0.322093 0.289783
O O8 0.674975 0.214471 0.199371
O O9 0.127578 0.500000 0.924566
O O10 0.091464 0.283574 0.854035
O O11 0.000000 0.290150 0.943526
O O12 0.753990 0.793759 0.305517
O O13 0.899958 0.728057 0.247997
O O14 0.876620 0.000000 0.281365
O O15 0.500000 0.238652 0.549565
O O16 0.665682 0.242854 0.595700
O O17 0.606844 0.000000 0.550194
O O18 0.268840 0.500000 0.327942
O O19 0.828293 0.233913 0.146808
O O20 0.724351 0.000000 0.130856
O O21 0.134440 0.500000 0.185316
O O22 0.000000 0.692715 0.161794
#
# Coordination Sequence:
#
# PCOD8177613 Si02
#       8
#     8   8   8   8   8   8   8   8
#     4  10  21  37  60  91 123 155 199 255 303 350
#     4  10  20  35  57  85 120 162 201 238 290 360
#     4   9  18  33  54  83 123 168 208 246 293 352
#     4  10  18  30  52  83 120 161 204 249 294 342
#     4  11  25  46  70  91 114 153 201 248 302 365
#     4   9  18  33  54  82 122 165 199 238 295 356
#     4  12  25  41  63  90 120 153 195 253 306 353
#     4  11  23  38  58  85 120 162 203 243 293 357
#
# _framework density 20.186333999999999
#
# number of rings (size 3 to 8) (size 9 to 14) (size 15 to 20)
#    0.000    1.750    1.250    3.375    0.000    6.000 
#    0.000    1.875    0.000    3.750    0.000    0.000 
#    0.000    0.000    0.000    0.000    0.000    0.000 
#
# Total GULP energy -396647.992069 kJ/mol
# GULP energy per Si atom -12395.249752 kJ/mol
# Density = 2.014039 g / cm^3
# Si number density = 20.186334 Si / 1000 Ang^3
#
#
#
# Elastic Constant Matrix: (Units=GPa)
#
#
# Indices 1 2 3 4 5 6 
#
# 1 122.4446 48.3028 51.4377 0.0000 0.0000 0.0000
# 2 48.3028 88.1196 35.6521 0.0000 0.0000 0.0000
# 3 51.4377 35.6521 99.2825 0.0000 0.0000 0.0000
# 4 0.0000 0.0000 0.0000 32.6802 0.0000 0.0000
# 5 0.0000 0.0000 0.0000 0.0000 6.4732 0.0000
# 6 0.0000 0.0000 0.0000 0.0000 0.0000 20.4204
#
#
#
# Elastic Compliance Matrix: (Units=1/GPa)
#
#
# Indices 1 2 3 4 5 6 
#
# 1 0.011908 -0.004716 -0.004476 0.000000 0.000000 0.000000
# 2 -0.004716 0.015145 -0.002995 0.000000 0.000000 0.000000
# 3 -0.004476 -0.002995 0.013467 0.000000 0.000000 0.000000
# 4 0.000000 0.000000 0.000000 0.030600 0.000000 0.000000
# 5 0.000000 0.000000 0.000000 0.000000 0.154483 0.000000
# 6 0.000000 0.000000 0.000000 0.000000 0.000000 0.048971
#
#
# Mechanical properties :
#
#
# Convention : Reuss Voigt Hill
#
# Bulk Modulus (GPa) = 61.93761 64.51465 63.22613
# Shear Modulus (GPa) = 16.42958 23.54504 19.98731
#
# Velocity S-wave (km/s) = 2.85598 3.41894 3.15006
# Velocity P-wave (km/s) = 6.45175 6.90033 6.67980
#
# Compressibility (1/GPa) = 0.01614528
#
# Stress axis : x y z
#
# Youngs Moduli (GPa) = 83.97935 66.02714 74.25772
#
# Poissons Ratio (x) = 0.31141 0.33235
# Poissons Ratio (y) = 0.39608 0.22241
# Poissons Ratio (z) = 0.37586 0.19776
#
# Static dielectric constant tensor:
#      x y z
#    x 3.787250 0.000000 0.000000 
#    y 0.000000 3.685500 0.000000 
#    z 0.000000 0.000000 3.604170 
# 
# 
# High freq. dielectric constant tensor:
#      x y z
#    x 1.789240 0.000000 0.000000 
#    y 0.000000 1.788330 0.000000 
#    z 0.000000 0.000000 1.774070 
# 
# From -- ./inp_files/22921.got.cif
#   From: 2010.03.12/outbox.cif.g09.slc.cpg/sg38_12_cif.got.tgz:22921.got - 2010.04.14 02:38:36.
