data_PCOD8177544
_publ_section_title
;
Structure prediction by ZEFSAII (Michael W. Deem and Ramdas Pophale) SiO2 
 PCOD8177544
Probable space group: A M M 2
;
_chemical_formula_sum "Si O2"
_cell_formula_units_Z 64
_cell_length_a 9.546361
_cell_length_b 18.080141
_cell_length_c 21.651689
_cell_angle_alpha 90.000000
_cell_angle_beta 90.000000
_cell_angle_gamma 90.000000
_cell_volume 3737.071841
_symmetry_space_group_name_H-M "A M M 2"
_symmetry_group_IT_number 38
_symmetry_cell_setting 'orthorhombic'
loop_
_space_group_symop_operation_xyz
x,y,z
-x,-y,z
-x,y,z
x,-y,z
x,1/2+y,1/2+z
-x,1/2-y,1/2+z
-x,1/2+y,1/2+z
x,1/2-y,1/2+z
loop_
_atom_site_type_symbol
_atom_site_label
_atom_site_fract_x
_atom_site_fract_y
_atom_site_fract_z
Si Si1 0.339503 0.084234 0.053860
Si Si2 0.338087 0.838785 0.177487
Si Si3 0.661121 0.715280 0.269188
Si Si4 0.335399 0.720259 0.903320
Si Si5 0.160607 0.416595 0.310192
Si Si6 0.836175 0.142688 0.944700
Si Si7 0.853018 0.085059 0.264988
Si Si8 0.838975 0.914727 0.403139
O O1 0.500000 0.097209 0.031638
O O2 0.300085 0.145625 0.106197
O O3 0.323932 0.000000 0.079195
O O4 0.229516 0.093847 0.999056
O O5 0.500000 0.849283 0.188787
O O6 0.291097 0.759962 0.207029
O O7 0.269928 0.902897 0.217532
O O8 0.500000 0.691967 0.264919
O O9 0.687998 0.765735 0.329780
O O10 0.748728 0.639957 0.269949
O O11 0.500000 0.722601 0.919433
O O12 0.252444 0.782431 0.941102
O O13 0.271532 0.643548 0.931930
O O14 0.207587 0.500000 0.294094
O O15 0.183156 0.404411 0.382775
O O16 0.000000 0.403286 0.292092
O O17 0.000000 0.159564 0.957580
O O18 0.823215 0.114019 0.333247
O O19 0.000000 0.120645 0.240482
O O20 0.876898 0.000000 0.274587
O O21 0.000000 0.904272 0.426078
O O22 0.791779 0.000000 0.414436
#
# Coordination Sequence:
#
# PCOD8177544 Si02
#       8
#     8   8   8   8   8   8   8   8
#     4  10  21  35  50  70  98 133 170 207 245 284
#     4  10  19  32  47  66  95 130 166 201 239 285
#     4   9  18  30  45  69  97 125 158 196 239 290
#     4  10  18  30  48  71  97 126 164 206 248 296
#     4   9  18  32  50  72  96 123 155 195 245 295
#     4  10  20  34  52  71  95 128 166 208 250 294
#     4   9  17  27  40  61  90 125 163 198 231 271
#     4   9  17  28  42  64  96 130 162 197 239 287
#
# _framework density 17.125706999999998
#
# number of rings (size 3 to 8) (size 9 to 14) (size 15 to 20)
#    0.000    2.500    1.250    2.250    0.000    4.000 
#    0.000    1.250    0.000    0.000    0.000    0.875 
#    0.000    5.000    0.000    0.000    0.000    0.000 
#
# Total GULP energy -396442.164934 kJ/mol
# GULP energy per Si atom -12388.817654 kJ/mol
# Density = 1.708673 g / cm^3
# Si number density = 17.125707 Si / 1000 Ang^3
#
#
#
# Elastic Constant Matrix: (Units=GPa)
#
#
# Indices 1 2 3 4 5 6 
#
# 1 76.2530 62.9801 28.1707 0.0000 0.0000 0.0000
# 2 62.9801 105.4692 26.7261 0.0000 0.0000 0.0000
# 3 28.1707 26.7261 50.5385 0.0000 0.0000 0.0000
# 4 0.0000 0.0000 0.0000 23.5252 0.0000 0.0000
# 5 0.0000 0.0000 0.0000 0.0000 21.2995 0.0000
# 6 0.0000 0.0000 0.0000 0.0000 0.0000 33.3355
#
#
#
# Elastic Compliance Matrix: (Units=1/GPa)
#
#
# Indices 1 2 3 4 5 6 
#
# 1 0.028379 -0.014940 -0.007918 0.000000 0.000000 0.000000
# 2 -0.014940 0.018813 -0.001622 0.000000 0.000000 0.000000
# 3 -0.007918 -0.001622 0.025058 0.000000 0.000000 0.000000
# 4 0.000000 0.000000 0.000000 0.042508 0.000000 0.000000
# 5 0.000000 0.000000 0.000000 0.000000 0.046949 0.000000
# 6 0.000000 0.000000 0.000000 0.000000 0.000000 0.029998
#
#
# Mechanical properties :
#
#
# Convention : Reuss Voigt Hill
#
# Bulk Modulus (GPa) = 42.93389 52.00159 47.46774
# Shear Modulus (GPa) = 20.12660 23.25764 21.69212
#
# Velocity S-wave (km/s) = 3.43188 3.68918 3.56285
# Velocity P-wave (km/s) = 6.38968 6.96974 6.68600
#
# Compressibility (1/GPa) = 0.02329163
#
# Stress axis : x y z
#
# Youngs Moduli (GPa) = 35.23772 53.15349 39.90737
#
# Poissons Ratio (x) = 0.79409 0.31599
# Poissons Ratio (y) = 0.52644 0.06471
# Poissons Ratio (z) = 0.27902 0.08619
#
# Static dielectric constant tensor:
#      x y z
#    x 3.349720 0.000000 0.000000 
#    y 0.000000 3.201770 0.000000 
#    z 0.000000 0.000000 2.950590 
# 
# 
# High freq. dielectric constant tensor:
#      x y z
#    x 1.671380 0.000000 0.000000 
#    y 0.000000 1.660350 0.000000 
#    z 0.000000 0.000000 1.611300 
# 
# From -- ./inp_files/20029.got.cif
#   From: 2010.03.12/outbox.cif.g09.slc.cpg/sg38_11_cif.got.tgz:20029.got - 2010.04.14 02:38:36.
