data_PCOD8177608
_publ_section_title
;
Structure prediction by ZEFSAII (Michael W. Deem and Ramdas Pophale) SiO2 
 PCOD8177608
Probable space group: A M M 2
;
_chemical_formula_sum "Si O2"
_cell_formula_units_Z 64
_cell_length_a 8.819959
_cell_length_b 24.601339
_cell_length_c 15.069012
_cell_angle_alpha 90.000000
_cell_angle_beta 90.000000
_cell_angle_gamma 90.000000
_cell_volume 3269.716437
_symmetry_space_group_name_H-M "A M M 2"
_symmetry_group_IT_number 38
_symmetry_cell_setting 'orthorhombic'
loop_
_space_group_symop_operation_xyz
x,y,z
-x,-y,z
-x,y,z
x,-y,z
x,1/2+y,1/2+z
-x,1/2-y,1/2+z
-x,1/2+y,1/2+z
x,1/2-y,1/2+z
loop_
_atom_site_type_symbol
_atom_site_label
_atom_site_fract_x
_atom_site_fract_y
_atom_site_fract_z
Si Si1 0.174658 0.867730 0.858520
Si Si2 0.323816 0.247976 0.054618
Si Si3 0.177841 0.857937 0.554285
Si Si4 0.323126 0.062923 0.202178
Si Si5 0.820195 0.362673 0.558515
Si Si6 0.826342 0.631934 0.849275
Si Si7 0.172252 0.750409 0.371854
Si Si8 0.819023 0.560653 0.202057
O O1 0.194331 0.806134 0.818855
O O2 0.250943 0.909193 0.788928
O O3 0.000000 0.883345 0.865510
O O4 0.242459 0.872796 0.958085
O O5 0.500000 0.244659 0.076250
O O6 0.256775 0.303924 0.093837
O O7 0.244878 0.194348 0.095945
O O8 0.293963 0.249719 0.949864
O O9 0.221842 0.870667 0.452472
O O10 0.234047 0.908537 0.613250
O O11 0.000000 0.848462 0.563356
O O12 0.500000 0.070648 0.184873
O O13 0.233113 0.088036 0.119730
O O14 0.279985 0.092184 0.294014
O O15 0.277810 0.000000 0.210011
O O16 0.000000 0.359028 0.560410
O O17 0.804226 0.694595 0.814461
O O18 0.000000 0.613344 0.836042
O O19 0.000000 0.751964 0.412483
O O20 0.752175 0.500000 0.199210
O O21 0.000000 0.560013 0.206743
#
# Coordination Sequence:
#
# PCOD8177608 Si02
#       8
#     8   8   8   8   8   8   8   8
#     4   8  15  29  51  79 109 137 167 210 263 313
#     4  10  18  30  52  81 111 141 174 216 268 323
#     4   9  18  33  54  80 110 144 180 220 265 315
#     4  11  25  41  54  74 106 142 183 229 276 329
#     4  10  20  36  58  81 107 140 177 220 269 322
#     4   9  18  33  54  78 103 135 180 228 270 317
#     4   8  15  30  51  78 109 139 175 217 263 319
#     4   9  17  29  48  78 111 140 176 221 262 301
#
# _framework density 19.573561999999999
#
# number of rings (size 3 to 8) (size 9 to 14) (size 15 to 20)
#    0.000    2.750    0.000    3.375    0.000    5.000 
#    0.000    5.000    0.000    4.125    0.000    0.000 
#    0.000    0.000    0.000    0.000    0.000    0.000 
#
# Total GULP energy -396570.515864 kJ/mol
# GULP energy per Si atom -12392.828621 kJ/mol
# Density = 1.952901 g / cm^3
# Si number density = 19.573562 Si / 1000 Ang^3
#
#
#
# Elastic Constant Matrix: (Units=GPa)
#
#
# Indices 1 2 3 4 5 6 
#
# 1 60.5295 39.6798 24.3239 0.0000 0.0000 0.0000
# 2 39.6798 175.4426 72.4804 0.0000 0.0000 0.0000
# 3 24.3239 72.4804 96.1925 0.0000 0.0000 0.0000
# 4 0.0000 0.0000 0.0000 36.6038 0.0000 0.0000
# 5 0.0000 0.0000 0.0000 0.0000 15.2047 0.0000
# 6 0.0000 0.0000 0.0000 0.0000 0.0000 24.0523
#
#
#
# Elastic Compliance Matrix: (Units=1/GPa)
#
#
# Indices 1 2 3 4 5 6 
#
# 1 0.019761 -0.003492 -0.002366 0.000000 0.000000 0.000000
# 2 -0.003492 0.008893 -0.005818 0.000000 0.000000 0.000000
# 3 -0.002366 -0.005818 0.015378 0.000000 0.000000 0.000000
# 4 0.000000 0.000000 0.000000 0.027320 0.000000 0.000000
# 5 0.000000 0.000000 0.000000 0.000000 0.065769 0.000000
# 6 0.000000 0.000000 0.000000 0.000000 0.000000 0.041576
#
#
# Mechanical properties :
#
#
# Convention : Reuss Voigt Hill
#
# Bulk Modulus (GPa) = 48.35470 67.23698 57.79584
# Shear Modulus (GPa) = 23.93018 28.21753 26.07385
#
# Velocity S-wave (km/s) = 3.50033 3.80098 3.65375
# Velocity P-wave (km/s) = 6.41047 7.32726 6.88414
#
# Compressibility (1/GPa) = 0.02068051
#
# Stress axis : x y z
#
# Youngs Moduli (GPa) = 50.60570 112.44527 65.02869
#
# Poissons Ratio (x) = 0.39265 0.15384
# Poissons Ratio (y) = 0.17671 0.37834
# Poissons Ratio (z) = 0.11972 0.65420
#
# Static dielectric constant tensor:
#      x y z
#    x 3.166870 0.000000 0.000000 
#    y 0.000000 3.912310 0.000000 
#    z 0.000000 0.000000 3.481110 
# 
# 
# High freq. dielectric constant tensor:
#      x y z
#    x 1.725620 0.000000 0.000000 
#    y 0.000000 1.772200 0.000000 
#    z 0.000000 0.000000 1.746610 
# 
# From -- ./inp_files/12733.got.cif
#   From: 2010.03.12/outbox.cif.g09.slc.cpg/sg38_7_cif.got.tgz:12733.got - 2010.04.14 02:38:36.
