data_PCOD8177927
_publ_section_title
;
Structure prediction by ZEFSAII (Michael W. Deem and Ramdas Pophale) SiO2 
 PCOD8177927
Probable space group: A M M 2
;
_chemical_formula_sum "Si O2"
_cell_formula_units_Z 52
_cell_length_a 14.165084
_cell_length_b 7.625217
_cell_length_c 29.649706
_cell_angle_alpha 90.000000
_cell_angle_beta 90.000000
_cell_angle_gamma 90.000000
_cell_volume 3202.519280
_symmetry_space_group_name_H-M "A M M 2"
_symmetry_group_IT_number 38
_symmetry_cell_setting 'orthorhombic'
loop_
_space_group_symop_operation_xyz
x,y,z
-x,-y,z
-x,y,z
x,-y,z
x,1/2+y,1/2+z
-x,1/2-y,1/2+z
-x,1/2+y,1/2+z
x,1/2-y,1/2+z
loop_
_atom_site_type_symbol
_atom_site_label
_atom_site_fract_x
_atom_site_fract_y
_atom_site_fract_z
Si Si1 0.388856 0.704326 0.714250
Si Si2 0.105606 0.500000 0.239633
Si Si3 0.895395 0.300129 0.667931
Si Si4 0.707949 0.798042 0.122572
Si Si5 0.303463 0.500000 0.275737
Si Si6 0.387501 0.000000 0.874007
Si Si7 0.387744 0.195739 0.439015
Si Si8 0.397691 0.300167 0.036152
O O1 0.500000 0.734409 0.715253
O O2 0.362648 0.500000 0.722898
O O3 0.350287 0.769749 0.665846
O O4 0.341564 0.823743 0.752232
O O5 0.119301 0.325937 0.210060
O O6 0.188804 0.500000 0.276370
O O7 0.000000 0.500000 0.261472
O O8 0.880190 0.500000 0.685032
O O9 0.818811 0.255915 0.629461
O O10 0.000000 0.274458 0.646999
O O11 0.676114 0.707879 0.076716
O O12 0.686577 0.000000 0.115745
O O13 0.336614 0.500000 0.326533
O O14 0.351598 0.172201 0.900602
O O15 0.500000 0.000000 0.867232
O O16 0.500000 0.190478 0.438253
O O17 0.357193 0.273937 0.488519
O O18 0.346554 0.000000 0.429412
O O19 0.500000 0.213568 0.049198
O O20 0.416963 0.500000 0.024523
#
# Coordination Sequence:
#
# PCOD8177927 Si02
#       8
#     8   4   8   8   4   4   8   8
#     4  10  21  34  45  65 103 140 166 191 230 290
#     4  10  20  34  54  72  92 128 166 208 255 291
#     4   9  18  33  49  66  92 127 166 206 244 285
#     4  10  19  29  44  68  94 129 164 194 238 284
#     4  12  22  34  52  74  98 128 168 208 247 298
#     4  10  20  32  50  72  92 124 164 200 248 289
#     4   8  16  32  48  65  92 123 160 205 241 277
#     4   9  18  29  44  67  95 129 164 198 240 283
#
# _framework density 16.237217000000001
#
# number of rings (size 3 to 8) (size 9 to 14) (size 15 to 20)
#    0.000    2.462    1.538    2.077    3.231    1.538 
#    0.000    1.538    0.000    0.000    0.000    1.077 
#    0.000    1.231    0.000    0.000    0.000    0.000 
#
# Total GULP energy -322194.095669 kJ/mol
# GULP energy per Si atom -12392.080603 kJ/mol
# Density = 1.620026 g / cm^3
# Si number density = 16.237217 Si / 1000 Ang^3
#
#
#
# Elastic Constant Matrix: (Units=GPa)
#
#
# Indices 1 2 3 4 5 6 
#
# 1 99.1741 31.4341 54.0766 0.0000 0.0000 0.0000
# 2 31.4341 74.8440 47.9882 0.0000 0.0000 0.0000
# 3 54.0766 47.9882 132.2960 0.0000 0.0000 0.0000
# 4 0.0000 0.0000 0.0000 20.1802 0.0000 0.0000
# 5 0.0000 0.0000 0.0000 0.0000 12.4842 0.0000
# 6 0.0000 0.0000 0.0000 0.0000 0.0000 16.2226
#
#
#
# Elastic Compliance Matrix: (Units=1/GPa)
#
#
# Indices 1 2 3 4 5 6 
#
# 1 0.013398 -0.002757 -0.004476 0.000000 0.000000 0.000000
# 2 -0.002757 0.017978 -0.005394 0.000000 0.000000 0.000000
# 3 -0.004476 -0.005394 0.011345 0.000000 0.000000 0.000000
# 4 0.000000 0.000000 0.000000 0.049553 0.000000 0.000000
# 5 0.000000 0.000000 0.000000 0.000000 0.080102 0.000000
# 6 0.000000 0.000000 0.000000 0.000000 0.000000 0.061642
#
#
# Mechanical properties :
#
#
# Convention : Reuss Voigt Hill
#
# Bulk Modulus (GPa) = 57.25490 63.70130 60.47810
# Shear Modulus (GPa) = 18.86115 21.29842 20.07978
#
# Velocity S-wave (km/s) = 3.41192 3.62567 3.52042
# Velocity P-wave (km/s) = 7.13160 7.53951 7.33839
#
# Compressibility (1/GPa) = 0.01746575
#
# Stress axis : x y z
#
# Youngs Moduli (GPa) = 74.63818 55.62473 88.14269
#
# Poissons Ratio (x) = 0.15335 0.39457
# Poissons Ratio (y) = 0.20577 0.47546
# Poissons Ratio (z) = 0.33412 0.30005
#
# Static dielectric constant tensor:
#      x y z
#    x 3.046860 0.000000 0.000000 
#    y 0.000000 3.459150 0.000000 
#    z 0.000000 0.000000 2.957930 
# 
# 
# High freq. dielectric constant tensor:
#      x y z
#    x 1.599910 0.000000 0.000000 
#    y 0.000000 1.639160 0.000000 
#    z 0.000000 0.000000 1.599840 
# 
# From -- ./inp_files/22788.got.cif
#   From: 2010.03.12/outbox.cif.g09.slc.cpg/sg38_12_cif.got.tgz:22788.got - 2010.04.14 02:38:36.
