data_PCOD8177922
_publ_section_title
;
Structure prediction by ZEFSAII (Michael W. Deem and Ramdas Pophale) SiO2 
 PCOD8177922
Probable space group: A M M 2
;
_chemical_formula_sum "Si O2"
_cell_formula_units_Z 64
_cell_length_a 9.239615
_cell_length_b 22.312280
_cell_length_c 15.348090
_cell_angle_alpha 90.000000
_cell_angle_beta 90.000000
_cell_angle_gamma 90.000000
_cell_volume 3164.114302
_symmetry_space_group_name_H-M "A M M 2"
_symmetry_group_IT_number 38
_symmetry_cell_setting 'orthorhombic'
loop_
_space_group_symop_operation_xyz
x,y,z
-x,-y,z
-x,y,z
x,-y,z
x,1/2+y,1/2+z
-x,1/2-y,1/2+z
-x,1/2+y,1/2+z
x,1/2-y,1/2+z
loop_
_atom_site_type_symbol
_atom_site_label
_atom_site_fract_x
_atom_site_fract_y
_atom_site_fract_z
Si Si1 0.170945 0.692543 0.750000
Si Si2 0.659704 0.429708 0.311394
Si Si3 0.834089 0.565503 0.822216
Si Si4 0.662652 0.733990 0.913517
Si Si5 0.837827 0.928717 0.650954
Si Si6 0.328555 0.934584 0.002971
Si Si7 0.337629 0.601429 0.983161
Si Si8 0.329020 0.687961 0.576754
O O1 0.212384 0.621889 0.762527
O O2 0.233882 0.732928 0.828835
O O3 0.243209 0.714122 0.659630
O O4 0.000000 0.702685 0.745226
O O5 0.500000 0.399904 0.301829
O O6 0.643665 0.500000 0.296366
O O7 0.767782 0.402687 0.239584
O O8 0.728655 0.417313 0.406512
O O9 0.812794 0.500000 0.775393
O O10 0.740684 0.562635 0.909652
O O11 0.000000 0.574512 0.850532
O O12 0.500000 0.751636 0.883640
O O13 0.662042 0.670213 0.958333
O O14 0.719837 0.780270 0.986851
O O15 0.744683 0.903488 0.572976
O O16 0.000000 0.903288 0.644176
O O17 0.838020 0.000000 0.649454
O O18 0.500000 0.939199 0.994485
O O19 0.284924 0.882431 0.069864
O O20 0.267062 0.000000 0.033163
O O21 0.500000 0.576533 0.994120
O O22 0.500000 0.696899 0.592087
#
# Coordination Sequence:
#
# PCOD8177922 Si02
#       8
#     8   8   8   8   8   8   8   8
#     4  10  21  37  58  83 113 147 181 225 275 323
#     4   8  14  27  46  67  96 133 171 213 258 307
#     4   9  18  33  52  75 107 145 179 213 264 327
#     4   9  20  39  58  77 105 144 187 230 272 317
#     4  10  19  29  43  67 101 139 176 216 270 331
#     4   8  15  30  54  83 110 136 171 218 270 320
#     4  10  19  31  48  71  99 134 181 231 272 313
#     4  10  20  37  61  85 110 144 183 224 271 325
#
# _framework density 20.226828999999999
#
# number of rings (size 3 to 8) (size 9 to 14) (size 15 to 20)
#    0.000    2.750    0.000    2.250    0.000    4.500 
#    2.250    0.625    0.000    0.750    0.000    0.000 
#    0.000    0.000    0.000    0.000    0.000    0.000 
#
# Total GULP energy -396616.648824 kJ/mol
# GULP energy per Si atom -12394.270276 kJ/mol
# Density = 2.018079 g / cm^3
# Si number density = 20.226829 Si / 1000 Ang^3
#
#
#
# Elastic Constant Matrix: (Units=GPa)
#
#
# Indices 1 2 3 4 5 6 
#
# 1 94.7793 18.5214 59.2163 0.0000 0.0000 0.0000
# 2 18.5214 54.5733 33.7769 0.0000 0.0000 0.0000
# 3 59.2163 33.7769 125.2789 0.0000 0.0000 0.0000
# 4 0.0000 0.0000 0.0000 15.8331 0.0000 0.0000
# 5 0.0000 0.0000 0.0000 0.0000 0.1473 0.0000
# 6 0.0000 0.0000 0.0000 0.0000 0.0000 17.3816
#
#
#
# Elastic Compliance Matrix: (Units=1/GPa)
#
#
# Indices 1 2 3 4 5 6 
#
# 1 0.015005 -0.000843 -0.006865 0.000000 0.000000 0.000000
# 2 -0.000843 0.022042 -0.005544 0.000000 0.000000 0.000000
# 3 -0.006865 -0.005544 0.012722 0.000000 0.000000 0.000000
# 4 0.000000 0.000000 0.000000 0.063159 0.000000 0.000000
# 5 0.000000 0.000000 0.000000 0.000000 6.788009 0.000000
# 6 0.000000 0.000000 0.000000 0.000000 0.000000 0.057532
#
#
# Mechanical properties :
#
#
# Convention : Reuss Voigt Hill
#
# Bulk Modulus (GPa) = 42.98626 55.29563 49.14095
# Shear Modulus (GPa) = 0.71503 17.54686 9.13095
#
# Velocity S-wave (km/s) = 0.59521 2.94854 2.12699
# Velocity P-wave (km/s) = 4.66590 6.24411 5.51179
#
# Compressibility (1/GPa) = 0.02326325
#
# Stress axis : x y z
#
# Youngs Moduli (GPa) = 66.64549 45.36881 78.60497
#
# Poissons Ratio (x) = 0.03827 0.53962
# Poissons Ratio (y) = 0.05621 0.43579
# Poissons Ratio (z) = 0.45752 0.25153
#
# Static dielectric constant tensor:
#      x y z
#    x 3.801300 0.000000 0.000000 
#    y 0.000000 3.671200 0.000000 
#    z 0.000000 0.000000 3.636760 
# 
# 
# High freq. dielectric constant tensor:
#      x y z
#    x 1.772290 0.000000 0.000000 
#    y 0.000000 1.776390 0.000000 
#    z 0.000000 0.000000 1.785650 
# 
# From -- ./inp_files/12859.got.cif
#   From: 2010.03.12/outbox.cif.g09.slc.cpg/sg38_7_cif.got.tgz:12859.got - 2010.04.14 02:38:36.
