data_PCOD8177842
_publ_section_title
;
Structure prediction by ZEFSAII (Michael W. Deem and Ramdas Pophale) SiO2 
 PCOD8177842
Probable space group: A M M 2
;
_chemical_formula_sum "Si O2"
_cell_formula_units_Z 64
_cell_length_a 8.909012
_cell_length_b 23.624719
_cell_length_c 15.388703
_cell_angle_alpha 90.000000
_cell_angle_beta 90.000000
_cell_angle_gamma 90.000000
_cell_volume 3238.905026
_symmetry_space_group_name_H-M "A M M 2"
_symmetry_group_IT_number 38
_symmetry_cell_setting 'orthorhombic'
loop_
_space_group_symop_operation_xyz
x,y,z
-x,-y,z
-x,y,z
x,-y,z
x,1/2+y,1/2+z
-x,1/2-y,1/2+z
-x,1/2+y,1/2+z
x,1/2-y,1/2+z
loop_
_atom_site_type_symbol
_atom_site_label
_atom_site_fract_x
_atom_site_fract_y
_atom_site_fract_z
Si Si1 0.824762 0.371703 0.435320
Si Si2 0.326518 0.933896 0.584256
Si Si3 0.322569 0.863311 0.253461
Si Si4 0.171752 0.873338 0.739293
Si Si5 0.677066 0.435711 0.590017
Si Si6 0.822142 0.248906 0.995104
Si Si7 0.178036 0.131284 0.429541
Si Si8 0.826056 0.753831 0.191679
O O1 0.793285 0.392765 0.337582
O O2 0.744053 0.414357 0.499799
O O3 0.763254 0.307538 0.447401
O O4 0.000000 0.372351 0.457255
O O5 0.500000 0.920707 0.565339
O O6 0.282100 0.906068 0.675648
O O7 0.226273 0.909546 0.507126
O O8 0.294495 0.000000 0.591468
O O9 0.500000 0.866864 0.261051
O O10 0.262656 0.898597 0.170603
O O11 0.251537 0.890429 0.340165
O O12 0.269632 0.798708 0.245753
O O13 0.199039 0.806414 0.735910
O O14 0.000000 0.887102 0.713094
O O15 0.500000 0.430652 0.582915
O O16 0.728808 0.500000 0.605448
O O17 0.760642 0.305160 0.948182
O O18 0.000000 0.252506 0.994683
O O19 0.763649 0.248181 0.093814
O O20 0.000000 0.129444 0.421142
O O21 0.000000 0.772109 0.195269
#
# Coordination Sequence:
#
# PCOD8177842 Si02
#       8
#     8   8   8   8   8   8   8   8
#     4  10  20  36  60  89 118 148 189 242 291 341
#     4  11  25  43  61  84 118 158 199 247 300 354
#     4  11  23  38  58  89 122 156 196 241 296 356
#     4  10  21  38  61  89 120 155 196 241 295 355
#     4  10  23  42  59  77 111 157 198 238 288 345
#     4   9  17  33  60  89 117 149 186 233 292 346
#     4  11  22  40  65  91 118 154 197 243 295 356
#     4  10  18  35  62  88 118 156 193 236 291 352
#
# _framework density 19.759763
#
# number of rings (size 3 to 8) (size 9 to 14) (size 15 to 20)
#    0.000    1.750    2.500    1.875    0.000    5.750 
#    0.000    6.250    0.000    0.000    0.000    0.000 
#    0.000    0.000    0.000    0.000    0.000    0.000 
#
# Total GULP energy -396910.825040 kJ/mol
# GULP energy per Si atom -12403.463282 kJ/mol
# Density = 1.971479 g / cm^3
# Si number density = 19.759763 Si / 1000 Ang^3
#
#
#
# Elastic Constant Matrix: (Units=GPa)
#
#
# Indices 1 2 3 4 5 6 
#
# 1 51.4255 41.6430 33.5560 0.0000 0.0000 0.0000
# 2 41.6430 93.5184 50.4751 0.0000 0.0000 0.0000
# 3 33.5560 50.4751 129.7992 0.0000 0.0000 0.0000
# 4 0.0000 0.0000 0.0000 8.9326 0.0000 0.0000
# 5 0.0000 0.0000 0.0000 0.0000 34.2697 0.0000
# 6 0.0000 0.0000 0.0000 0.0000 0.0000 29.4296
#
#
#
# Elastic Compliance Matrix: (Units=1/GPa)
#
#
# Indices 1 2 3 4 5 6 
#
# 1 0.031560 -0.012213 -0.003410 0.000000 0.000000 0.000000
# 2 -0.012213 0.018260 -0.003943 0.000000 0.000000 0.000000
# 3 -0.003410 -0.003943 0.010119 0.000000 0.000000 0.000000
# 4 0.000000 0.000000 0.000000 0.111949 0.000000 0.000000
# 5 0.000000 0.000000 0.000000 0.000000 0.029180 0.000000
# 6 0.000000 0.000000 0.000000 0.000000 0.000000 0.033979
#
#
# Mechanical properties :
#
#
# Convention : Reuss Voigt Hill
#
# Bulk Modulus (GPa) = 48.06101 58.45457 53.25779
# Shear Modulus (GPa) = 17.78623 24.46434 21.12529
#
# Velocity S-wave (km/s) = 3.00346 3.52247 3.27327
# Velocity P-wave (km/s) = 6.03350 6.79636 6.42626
#
# Compressibility (1/GPa) = 0.02080689
#
# Stress axis : x y z
#
# Youngs Moduli (GPa) = 31.68521 54.76483 98.82266
#
# Poissons Ratio (x) = 0.66886 0.33696
# Poissons Ratio (y) = 0.38698 0.38969
# Poissons Ratio (z) = 0.10804 0.21596
#
# Static dielectric constant tensor:
#      x y z
#    x 3.379390 0.000000 0.000000 
#    y 0.000000 3.634480 0.000000 
#    z 0.000000 0.000000 3.730290 
# 
# 
# High freq. dielectric constant tensor:
#      x y z
#    x 1.750300 0.000000 0.000000 
#    y 0.000000 1.767250 0.000000 
#    z 0.000000 0.000000 1.786970 
# 
# From -- ./inp_files/12785.got.cif
#   From: 2010.03.12/outbox.cif.g09.slc.cpg/sg38_7_cif.got.tgz:12785.got - 2010.04.14 02:38:36.
