data_PCOD8177966
_publ_section_title
;
Structure prediction by ZEFSAII (Michael W. Deem and Ramdas Pophale) SiO2 
 PCOD8177966
Probable space group: A M M 2
;
_chemical_formula_sum "Si O2"
_cell_formula_units_Z 56
_cell_length_a 15.430746
_cell_length_b 8.817611
_cell_length_c 25.153074
_cell_angle_alpha 90.000000
_cell_angle_beta 90.000000
_cell_angle_gamma 90.000000
_cell_volume 3422.385495
_symmetry_space_group_name_H-M "A M M 2"
_symmetry_group_IT_number 38
_symmetry_cell_setting 'orthorhombic'
loop_
_space_group_symop_operation_xyz
x,y,z
-x,-y,z
-x,y,z
x,-y,z
x,1/2+y,1/2+z
-x,1/2-y,1/2+z
-x,1/2+y,1/2+z
x,1/2-y,1/2+z
loop_
_atom_site_type_symbol
_atom_site_label
_atom_site_fract_x
_atom_site_fract_y
_atom_site_fract_z
Si Si1 0.406389 0.323403 0.008440
Si Si2 0.234498 0.678514 0.896069
Si Si3 0.405736 0.822050 0.893685
Si Si4 0.237066 0.680403 0.512299
Si Si5 0.096953 0.678555 0.595792
Si Si6 0.897156 0.332527 0.201099
Si Si7 0.100649 0.821955 0.818637
O O1 0.500000 0.303149 0.038054
O O2 0.387840 0.500000 0.997524
O O3 0.411180 0.233948 0.953650
O O4 0.325169 0.248786 0.039335
O O5 0.237676 0.500000 0.903843
O O6 0.323972 0.735167 0.867278
O O7 0.223019 0.756943 0.953238
O O8 0.153529 0.723014 0.860243
O O9 0.500000 0.787645 0.866189
O O10 0.386107 0.000000 0.892504
O O11 0.242755 0.500000 0.510955
O O12 0.157831 0.738726 0.548598
O O13 0.093622 0.500000 0.594908
O O14 0.135651 0.726726 0.653157
O O15 0.000000 0.745715 0.587182
O O16 0.859011 0.500000 0.191056
O O17 0.867845 0.273517 0.259282
O O18 0.000000 0.339469 0.202138
O O19 0.000000 0.783556 0.827367
O O20 0.117632 0.000000 0.827695
#
# Coordination Sequence:
#
# PCOD8177966 Si02
#       7
#     8   8   8   8   8   8   8
#     4   9  16  26  41  61  85 112 143 183 227 263
#     4  11  21  30  43  66  95 123 151 185 224 265
#     4   9  16  27  44  63  84 114 150 184 219 263
#     4  10  19  30  44  63  90 124 156 181 213 263
#     4   9  18  31  46  65  89 117 148 182 220 260
#     4   8  15  29  49  69  85 107 144 187 226 260
#     4   9  18  33  50  66  88 119 152 185 222 266
#
# _framework density 16.362855
#
# number of rings (size 3 to 8) (size 9 to 14) (size 15 to 20)
#    0.000    2.714    0.000    5.143    0.000    4.286 
#    0.000    2.857    0.000    0.000    0.000    1.000 
#    0.000    5.714    0.000    0.000    0.000    0.000 
#
# Total GULP energy -346886.206594 kJ/mol
# GULP energy per Si atom -12388.793093 kJ/mol
# Density = 1.632561 g / cm^3
# Si number density = 16.362855 Si / 1000 Ang^3
#
#
#
# Elastic Constant Matrix: (Units=GPa)
#
#
# Indices 1 2 3 4 5 6 
#
# 1 109.1551 38.5803 51.0255 0.0000 0.0000 0.0000
# 2 38.5803 41.9425 25.4870 0.0000 0.0000 0.0000
# 3 51.0255 25.4870 71.7136 0.0000 0.0000 0.0000
# 4 0.0000 0.0000 0.0000 21.7233 0.0000 0.0000
# 5 0.0000 0.0000 0.0000 0.0000 1.6967 0.0000
# 6 0.0000 0.0000 0.0000 0.0000 0.0000 23.9327
#
#
#
# Elastic Compliance Matrix: (Units=1/GPa)
#
#
# Indices 1 2 3 4 5 6 
#
# 1 0.016629 -0.010339 -0.008157 0.000000 0.000000 0.000000
# 2 -0.010339 0.036838 -0.005736 0.000000 0.000000 0.000000
# 3 -0.008157 -0.005736 0.021787 0.000000 0.000000 0.000000
# 4 0.000000 0.000000 0.000000 0.046034 0.000000 0.000000
# 5 0.000000 0.000000 0.000000 0.000000 0.589388 0.000000
# 6 0.000000 0.000000 0.000000 0.000000 0.000000 0.041784
#
#
# Mechanical properties :
#
#
# Convention : Reuss Voigt Hill
#
# Bulk Modulus (GPa) = 37.32805 50.33296 43.83051
# Shear Modulus (GPa) = 6.17397 16.65175 11.41286
#
# Velocity S-wave (km/s) = 1.94457 3.19353 2.64386
# Velocity P-wave (km/s) = 5.28242 6.66524 6.01371
#
# Compressibility (1/GPa) = 0.02678951
#
# Stress axis : x y z
#
# Youngs Moduli (GPa) = 60.13737 27.14616 45.89928
#
# Poissons Ratio (x) = 0.28066 0.37441
# Poissons Ratio (y) = 0.62175 0.26327
# Poissons Ratio (z) = 0.49055 0.15571
#
# Static dielectric constant tensor:
#      x y z
#    x 3.743510 0.000000 0.000000 
#    y 0.000000 3.136040 0.000000 
#    z 0.000000 0.000000 2.902180 
# 
# 
# High freq. dielectric constant tensor:
#      x y z
#    x 1.631010 0.000000 0.000000 
#    y 0.000000 1.636560 0.000000 
#    z 0.000000 0.000000 1.585460 
# 
# From -- ./inp_files/23048.got.cif
#   From: 2010.03.12/outbox.cif.g09.slc.cpg/sg38_12_cif.got.tgz:23048.got - 2010.04.14 02:38:36.
