data_PCOD8177056
_publ_section_title
;
Structure prediction by ZEFSAII (Michael W. Deem and Ramdas Pophale) SiO2 
 PCOD8177056
Probable space group: C C C 2
;
_chemical_formula_sum "Si O2"
_cell_formula_units_Z 64
_cell_length_a 21.375844
_cell_length_b 9.391406
_cell_length_c 15.159195
_cell_angle_alpha 90.000000
_cell_angle_beta 90.000000
_cell_angle_gamma 90.000000
_cell_volume 3043.196718
_symmetry_space_group_name_H-M "C C C 2"
_symmetry_group_IT_number 37
_symmetry_cell_setting 'orthorhombic'
loop_
_space_group_symop_operation_xyz
x,y,z
-x,-y,z
-x,y,1/2+z
x,-y,1/2+z
1/2+x,1/2+y,z
1/2-x,1/2-y,z
1/2-x,1/2+y,1/2+z
1/2+x,1/2-y,1/2+z
loop_
_atom_site_type_symbol
_atom_site_label
_atom_site_fract_x
_atom_site_fract_y
_atom_site_fract_z
Si Si1 0.264909 0.477644 0.704180
Si Si2 0.203692 0.869475 0.530902
Si Si3 0.154177 0.712290 0.160565
Si Si4 0.990174 0.666755 0.691611
Si Si5 0.575309 0.789912 0.031828
Si Si6 0.985768 0.666233 0.383108
Si Si7 0.370594 0.913747 0.982558
Si Si8 0.252172 0.583139 0.896088
O O1 0.267323 0.592262 0.626056
O O2 0.196659 0.405375 0.709345
O O3 0.320461 0.366783 0.686153
O O4 0.275485 0.554247 0.797374
O O5 0.250000 0.750000 0.490289
O O6 0.133430 0.814511 0.541462
O O7 0.201762 0.003539 0.464463
O O8 0.082845 0.702157 0.189628
O O9 0.161242 0.686748 0.055896
O O10 0.000000 0.500000 0.683668
O O11 0.028236 0.741130 0.612781
O O12 0.015893 0.729234 0.784361
O O13 0.539037 0.755578 0.940824
O O14 0.595720 0.955472 0.032518
O O15 0.918739 0.685497 0.429121
O O16 0.000000 0.500000 0.376935
O O17 0.318246 0.974009 0.915554
O O18 0.250000 0.750000 0.915078
#
# Coordination Sequence:
#
# PCOD8177056 Si02
#       8
#     8   8   8   8   8   8   8   8
#     4  11  27  42  67 101 136 183 231 286 350 414
#     4  12  25  43  70 101 139 178 228 287 350 415
#     4  11  22  42  68  95 140 179 237 283 344 406
#     4  11  21  36  65 100 138 185 229 286 339 406
#     4  11  21  39  63 101 139 170 232 284 340 399
#     4   9  21  33  59 100 133 173 226 280 334 400
#     4  11  20  40  66  95 140 180 227 284 340 403
#     4  12  27  45  70 100 139 184 230 286 354 422
#
# _framework density 21.030517
#
# number of rings (size 3 to 8) (size 9 to 14) (size 15 to 20)
#    0.000    1.000    5.000    1.500    8.750    1.000 
#    0.000    0.625    0.000    0.000    0.000    0.000 
#    0.000    0.000    0.000    0.000    0.000    0.000 
#
# Total GULP energy -396845.114029 kJ/mol
# GULP energy per Si atom -12401.409813 kJ/mol
# Density = 2.098265 g / cm^3
# Si number density = 21.030517 Si / 1000 Ang^3
#
#
#
# Elastic Constant Matrix: (Units=GPa)
#
#
# Indices 1 2 3 4 5 6 
#
# 1 130.0358 39.2041 32.6064 0.0000 0.0000 0.0000
# 2 39.2041 79.3461 43.7216 0.0000 0.0000 0.0000
# 3 32.6064 43.7216 153.9238 0.0000 0.0000 0.0000
# 4 0.0000 0.0000 0.0000 21.7209 0.0000 0.0000
# 5 0.0000 0.0000 0.0000 0.0000 31.2699 0.0000
# 6 0.0000 0.0000 0.0000 0.0000 0.0000 23.6339
#
#
#
# Elastic Compliance Matrix: (Units=1/GPa)
#
#
# Indices 1 2 3 4 5 6 
#
# 1 0.009113 -0.004077 -0.000772 0.000000 0.000000 0.000000
# 2 -0.004077 0.016766 -0.003899 0.000000 0.000000 0.000000
# 3 -0.000772 -0.003899 0.007768 0.000000 0.000000 0.000000
# 4 0.000000 0.000000 0.000000 0.046039 0.000000 0.000000
# 5 0.000000 0.000000 0.000000 0.000000 0.031980 0.000000
# 6 0.000000 0.000000 0.000000 0.000000 0.000000 0.042312
#
#
# Mechanical properties :
#
#
# Convention : Reuss Voigt Hill
#
# Bulk Modulus (GPa) = 61.91801 66.04110 63.97955
# Shear Modulus (GPa) = 28.27155 31.84318 30.05736
#
# Velocity S-wave (km/s) = 3.67046 3.89542 3.78461
# Velocity P-wave (km/s) = 6.88977 7.19048 7.04173
#
# Compressibility (1/GPa) = 0.01615039
#
# Stress axis : x y z
#
# Youngs Moduli (GPa) = 109.73278 59.64572 128.73795
#
# Poissons Ratio (x) = 0.24318 0.09944
# Poissons Ratio (y) = 0.44739 0.50189
# Poissons Ratio (z) = 0.08476 0.23253
#
# Static dielectric constant tensor:
#      x y z
#    x 3.896510 0.000000 0.000000 
#    y 0.000000 3.488980 0.000000 
#    z 0.000000 0.000000 4.012610 
# 
# 
# High freq. dielectric constant tensor:
#      x y z
#    x 1.832820 0.000000 0.000000 
#    y 0.000000 1.787760 0.000000 
#    z 0.000000 0.000000 1.836030 
# 
# From -- ./inp_files/13185.got.cif
#   From: 2010.03.12/outbox.cif.g09.slc.cpg/sg37_7_cif.got.tgz:13185.got - 2010.04.14 02:25:27.
