data_PCOD8177025
_publ_section_title
;
Structure prediction by ZEFSAII (Michael W. Deem and Ramdas Pophale) SiO2 
 PCOD8177025
Probable space group: C C C 2
;
_chemical_formula_sum "Si O2"
_cell_formula_units_Z 44
_cell_length_a 16.529302
_cell_length_b 12.937703
_cell_length_c 9.049167
_cell_angle_alpha 90.000000
_cell_angle_beta 90.000000
_cell_angle_gamma 90.000000
_cell_volume 1935.175223
_symmetry_space_group_name_H-M "C C C 2"
_symmetry_group_IT_number 37
_symmetry_cell_setting 'orthorhombic'
loop_
_space_group_symop_operation_xyz
x,y,z
-x,-y,z
-x,y,1/2+z
x,-y,1/2+z
1/2+x,1/2+y,z
1/2-x,1/2-y,z
1/2-x,1/2+y,1/2+z
1/2+x,1/2-y,1/2+z
loop_
_atom_site_type_symbol
_atom_site_label
_atom_site_fract_x
_atom_site_fract_y
_atom_site_fract_z
Si Si1 0.612599 0.829160 0.753980
Si Si2 0.913329 0.888787 0.687312
Si Si3 0.253215 0.903963 0.046673
Si Si4 0.500000 0.500000 0.935562
Si Si5 0.500000 0.000000 0.166223
Si Si6 0.344503 0.115801 0.058795
Si Si7 0.250000 0.750000 0.789378
O O1 0.560581 0.727142 0.726363
O O2 0.672917 0.838899 0.614984
O O3 0.552443 0.925713 0.769615
O O4 0.659716 0.819139 0.908088
O O5 0.818720 0.902489 0.663093
O O6 0.929701 0.958703 0.830009
O O7 0.963675 0.912667 0.540539
O O8 0.280368 0.023122 0.033146
O O9 0.224759 0.847679 0.893897
O O10 0.564585 0.930147 0.076137
O O11 0.320532 0.198350 0.187688
#
# Coordination Sequence:
#
# PCOD8177025 Si02
#       7
#     8   8   8   4   4   8   4
#     4  11  24  45  73 106 141 189 235 297 371 436
#     4  11  25  47  72  98 148 184 248 294 363 437
#     4  11  24  47  72 103 147 186 234 308 365 438
#     4  10  28  46  68 106 134 200 238 298 364 434
#     4  10  24  48  74 108 156 178 244 314 374 450
#     4  11  27  44  77 113 142 197 244 304 376 446
#     4  12  26  44  72 112 144 192 256 290 380 450
#
# _framework density 22.736958000000001
#
# number of rings (size 3 to 8) (size 9 to 14) (size 15 to 20)
#    0.000    1.091    1.818    2.727   10.182    2.909 
#    0.000    0.000    0.000    0.000    0.000    0.000 
#    0.000    0.000    0.000    0.000    0.000    0.000 
#
# Total GULP energy -272661.768515 kJ/mol
# GULP energy per Si atom -12393.716751 kJ/mol
# Density = 2.268521 g / cm^3
# Si number density = 22.736958 Si / 1000 Ang^3
#
#
#
# Elastic Constant Matrix: (Units=GPa)
#
#
# Indices 1 2 3 4 5 6 
#
# 1 88.9576 57.5068 35.5815 0.0000 0.0000 0.0000
# 2 57.5068 129.9167 88.3392 0.0000 0.0000 0.0000
# 3 35.5815 88.3392 158.9021 0.0000 0.0000 0.0000
# 4 0.0000 0.0000 0.0000 33.1781 0.0000 0.0000
# 5 0.0000 0.0000 0.0000 0.0000 13.4584 0.0000
# 6 0.0000 0.0000 0.0000 0.0000 0.0000 19.3273
#
#
#
# Elastic Compliance Matrix: (Units=1/GPa)
#
#
# Indices 1 2 3 4 5 6 
#
# 1 0.015779 -0.007367 0.000562 0.000000 0.000000 0.000000
# 2 -0.007367 0.015815 -0.007142 0.000000 0.000000 0.000000
# 3 0.000562 -0.007142 0.010138 0.000000 0.000000 0.000000
# 4 0.000000 0.000000 0.000000 0.030140 0.000000 0.000000
# 5 0.000000 0.000000 0.000000 0.000000 0.074303 0.000000
# 6 0.000000 0.000000 0.000000 0.000000 0.000000 0.051740
#
#
# Mechanical properties :
#
#
# Convention : Reuss Voigt Hill
#
# Bulk Modulus (GPa) = 72.26650 82.29239 77.27944
# Shear Modulus (GPa) = 21.69944 26.28269 23.99107
#
# Velocity S-wave (km/s) = 3.09264 3.40361 3.25184
# Velocity P-wave (km/s) = 6.67872 7.19151 6.93985
#
# Compressibility (1/GPa) = 0.01383767
#
# Stress axis : x y z
#
# Youngs Moduli (GPa) = 63.37713 63.23292 98.63907
#
# Poissons Ratio (x) = 0.46581 -0.05545
# Poissons Ratio (y) = 0.46687 0.70451
# Poissons Ratio (z) = -0.03563 0.45163
#
# Static dielectric constant tensor:
#      x y z
#    x 4.070180 0.000000 0.000000 
#    y 0.000000 4.276960 0.000000 
#    z 0.000000 0.000000 4.083410 
# 
# 
# High freq. dielectric constant tensor:
#      x y z
#    x 1.886270 0.000000 0.000000 
#    y 0.000000 1.907170 0.000000 
#    z 0.000000 0.000000 1.908350 
# 
# From -- ./inp_files/3966.got.cif
#   From: 2010.03.12/outbox.cif.g09.slc.cpg/sg37_2_cif.got.tgz:3966.got - 2010.04.14 02:25:27.
