data_PCOD8177466
_publ_section_title
;
Structure prediction by ZEFSAII (Michael W. Deem and Ramdas Pophale) SiO2 
 PCOD8177466
Probable space group: A M M 2
;
_chemical_formula_sum "Si O2"
_cell_formula_units_Z 56
_cell_length_a 7.796311
_cell_length_b 32.304695
_cell_length_c 13.812775
_cell_angle_alpha 90.000000
_cell_angle_beta 90.000000
_cell_angle_gamma 90.000000
_cell_volume 3478.850275
_symmetry_space_group_name_H-M "A M M 2"
_symmetry_group_IT_number 38
_symmetry_cell_setting 'orthorhombic'
loop_
_space_group_symop_operation_xyz
x,y,z
-x,-y,z
-x,y,z
x,-y,z
x,1/2+y,1/2+z
-x,1/2-y,1/2+z
-x,1/2+y,1/2+z
x,1/2-y,1/2+z
loop_
_atom_site_type_symbol
_atom_site_label
_atom_site_fract_x
_atom_site_fract_y
_atom_site_fract_z
Si Si1 0.703299 0.269076 0.328930
Si Si2 0.801696 0.894543 0.105411
Si Si3 0.808965 0.102731 0.330110
Si Si4 0.804636 0.307856 0.519011
Si Si5 0.500000 0.453851 0.603515
Si Si6 0.500000 0.046015 0.332970
Si Si7 0.305134 0.272940 0.116632
Si Si8 0.703319 0.184750 0.427810
O O1 0.500000 0.273765 0.331206
O O2 0.781989 0.302109 0.403698
O O3 0.783267 0.277564 0.222051
O O4 0.755005 0.222456 0.357736
O O5 0.772355 0.885694 0.218812
O O6 0.674010 0.930737 0.069315
O O7 0.000000 0.906980 0.083916
O O8 0.744290 0.853663 0.047727
O O9 0.670867 0.069640 0.368917
O O10 0.799538 0.144069 0.393247
O O11 0.000000 0.083752 0.341486
O O12 0.696911 0.274169 0.578306
O O13 0.000000 0.301526 0.549954
O O14 0.500000 0.500000 0.558204
O O15 0.500000 0.456998 0.718331
O O16 0.500000 0.000000 0.378569
O O17 0.500000 0.285757 0.130887
O O18 0.226583 0.303732 0.035699
O O19 0.500000 0.177363 0.426766
#
# Coordination Sequence:
#
# PCOD8177466 Si02
#       8
#     8   8   8   8   4   4   8   8
#     4   9  18  30  44  62  86 120 156 189 222 255
#     4   9  19  30  43  67  93 117 149 185 217 261
#     4  10  18  29  46  66  90 120 150 181 219 262
#     4  10  19  29  42  63  89 119 152 185 224 261
#     4   9  18  30  48  67  85 119 149 173 222 270
#     4   9  18  32  46  65  91 115 145 181 218 266
#     4   9  18  30  44  62  86 119 156 190 222 255
#     4   9  16  27  42  62  89 119 152 189 224 257
#
# _framework density 16.097272
#
# number of rings (size 3 to 8) (size 9 to 14) (size 15 to 20)
#    0.000    2.714    0.714    2.143    2.000    3.429 
#    0.000    2.857    0.000    0.000    0.000    0.000 
#    0.000    2.286    0.000    3.143    0.000    0.286 
#
# Total GULP energy -347074.167713 kJ/mol
# GULP energy per Si atom -12395.505990 kJ/mol
# Density = 1.606063 g / cm^3
# Si number density = 16.097272 Si / 1000 Ang^3
#
#
#
# Elastic Constant Matrix: (Units=GPa)
#
#
# Indices 1 2 3 4 5 6 
#
# 1 67.3545 46.5741 21.1066 0.0000 0.0000 0.0000
# 2 46.5741 117.6402 39.8190 0.0000 0.0000 0.0000
# 3 21.1066 39.8190 87.2888 0.0000 0.0000 0.0000
# 4 0.0000 0.0000 0.0000 16.8904 0.0000 0.0000
# 5 0.0000 0.0000 0.0000 0.0000 14.0470 0.0000
# 6 0.0000 0.0000 0.0000 0.0000 0.0000 15.6439
#
#
#
# Elastic Compliance Matrix: (Units=1/GPa)
#
#
# Indices 1 2 3 4 5 6 
#
# 1 0.020606 -0.007653 -0.001491 0.000000 0.000000 0.000000
# 2 -0.007653 0.012895 -0.004032 0.000000 0.000000 0.000000
# 3 -0.001491 -0.004032 0.013656 0.000000 0.000000 0.000000
# 4 0.000000 0.000000 0.000000 0.059205 0.000000 0.000000
# 5 0.000000 0.000000 0.000000 0.000000 0.071190 0.000000
# 6 0.000000 0.000000 0.000000 0.000000 0.000000 0.063923
#
#
# Mechanical properties :
#
#
# Convention : Reuss Voigt Hill
#
# Bulk Modulus (GPa) = 48.06673 54.14254 51.10464
# Shear Modulus (GPa) = 18.19750 20.30184 19.24967
#
# Velocity S-wave (km/s) = 3.36590 3.55519 3.46184
# Velocity P-wave (km/s) = 6.71049 7.11056 6.91342
#
# Compressibility (1/GPa) = 0.02080441
#
# Stress axis : x y z
#
# Youngs Moduli (GPa) = 48.52904 77.54850 73.22740
#
# Poissons Ratio (x) = 0.59350 0.10921
# Poissons Ratio (y) = 0.37140 0.29524
# Poissons Ratio (z) = 0.07238 0.31267
#
# Static dielectric constant tensor:
#      x y z
#    x 3.074080 0.000000 0.000000 
#    y 0.000000 2.973610 0.000000 
#    z 0.000000 0.000000 3.117320 
# 
# 
# High freq. dielectric constant tensor:
#      x y z
#    x 1.625970 0.000000 0.000000 
#    y 0.000000 1.591950 0.000000 
#    z 0.000000 0.000000 1.591340 
# 
# From -- ./inp_files/13029.got.cif
#   From: 2010.03.12/outbox.cif.g09.slc.cpg/sg38_7_cif.got.tgz:13029.got - 2010.04.14 02:38:36.
