data_PCOD8177279
_publ_section_title
;
Structure prediction by ZEFSAII (Michael W. Deem and Ramdas Pophale) SiO2 
 PCOD8177279
Probable space group: A M M 2
;
_chemical_formula_sum "Si O2"
_cell_formula_units_Z 64
_cell_length_a 14.464321
_cell_length_b 9.065628
_cell_length_c 31.400170
_cell_angle_alpha 90.000000
_cell_angle_beta 90.000000
_cell_angle_gamma 90.000000
_cell_volume 4117.446310
_symmetry_space_group_name_H-M "A M M 2"
_symmetry_group_IT_number 38
_symmetry_cell_setting 'orthorhombic'
loop_
_space_group_symop_operation_xyz
x,y,z
-x,-y,z
-x,y,z
x,-y,z
x,1/2+y,1/2+z
-x,1/2-y,1/2+z
-x,1/2+y,1/2+z
x,1/2-y,1/2+z
loop_
_atom_site_type_symbol
_atom_site_label
_atom_site_fract_x
_atom_site_fract_y
_atom_site_fract_z
Si Si1 0.390942 0.671243 0.693480
Si Si2 0.292883 0.675717 0.115116
Si Si3 0.605265 0.326523 0.357113
Si Si4 0.603116 0.175672 0.532238
Si Si5 0.705614 0.324583 0.272470
Si Si6 0.100292 0.825117 0.646958
Si Si7 0.100222 0.674754 0.242660
Si Si8 0.389849 0.664078 0.939687
O O1 0.500000 0.693666 0.694320
O O2 0.363137 0.500000 0.692895
O O3 0.352552 0.749516 0.651648
O O4 0.349988 0.746848 0.735171
O O5 0.302838 0.500000 0.120243
O O6 0.329285 0.731782 0.069408
O O7 0.185763 0.728389 0.117951
O O8 0.500000 0.272614 0.350105
O O9 0.610175 0.500000 0.361124
O O10 0.665469 0.269803 0.317448
O O11 0.647855 0.262167 0.400789
O O12 0.500000 0.238158 0.541071
O O13 0.640998 0.229457 0.485896
O O14 0.598845 0.000000 0.531101
O O15 0.694591 0.500000 0.266646
O O16 0.813461 0.274030 0.271514
O O17 0.115794 0.764628 0.694811
O O18 0.000000 0.768449 0.629525
O O19 0.099390 0.000000 0.648195
O O20 0.097959 0.500000 0.241117
O O21 0.000000 0.732282 0.260161
O O22 0.500000 0.661201 0.939621
O O23 0.349910 0.500000 0.933200
#
# Coordination Sequence:
#
# PCOD8177279 Si02
#       8
#     8   8   8   8   8   8   8   8
#     4  11  23  33  39  55  88 121 144 169 204 247
#     4  10  17  28  47  65  81 110 147 177 207 243
#     4   9  17  27  40  61  85 105 133 174 209 242
#     4   8  14  24  40  63  84 102 135 178 206 236
#     4  10  18  30  47  64  81 109 146 177 207 245
#     4   8  13  22  39  64  87 104 131 175 217 245
#     4   8  13  23  41  64  85 103 131 175 217 245
#     4   8  14  26  42  58  79 107 136 168 208 249
#
# _framework density 15.543616
#
# number of rings (size 3 to 8) (size 9 to 14) (size 15 to 20)
#    0.000    3.000    1.250    2.625    0.000    2.500 
#    0.000    1.875    0.000    3.750    0.000    0.875 
#    0.000    1.000    0.000    0.000    0.000    0.000 
#
# Total GULP energy -396498.392235 kJ/mol
# GULP energy per Si atom -12390.574757 kJ/mol
# Density = 1.550824 g / cm^3
# Si number density = 15.543616 Si / 1000 Ang^3
#
#
#
# Elastic Constant Matrix: (Units=GPa)
#
#
# Indices 1 2 3 4 5 6 
#
# 1 110.5619 21.4320 72.8109 0.0000 0.0000 0.0000
# 2 21.4320 24.8252 29.2737 0.0000 0.0000 0.0000
# 3 72.8109 29.2737 148.6769 0.0000 0.0000 0.0000
# 4 0.0000 0.0000 0.0000 19.2144 0.0000 0.0000
# 5 0.0000 0.0000 0.0000 0.0000 9.0955 0.0000
# 6 0.0000 0.0000 0.0000 0.0000 0.0000 8.9025
#
#
#
# Elastic Compliance Matrix: (Units=1/GPa)
#
#
# Indices 1 2 3 4 5 6 
#
# 1 0.013838 -0.005152 -0.005763 0.000000 0.000000 0.000000
# 2 -0.005152 0.054380 -0.008184 0.000000 0.000000 0.000000
# 3 -0.005763 -0.008184 0.011160 0.000000 0.000000 0.000000
# 4 0.000000 0.000000 0.000000 0.052044 0.000000 0.000000
# 5 0.000000 0.000000 0.000000 0.000000 0.109944 0.000000
# 6 0.000000 0.000000 0.000000 0.000000 0.000000 0.112328
#
#
# Mechanical properties :
#
#
# Convention : Reuss Voigt Hill
#
# Bulk Modulus (GPa) = 24.28321 59.01081 41.64701
# Shear Modulus (GPa) = 12.32687 18.14563 15.23625
#
# Velocity S-wave (km/s) = 2.81917 3.42043 3.13425
# Velocity P-wave (km/s) = 5.12382 7.32436 6.32059
#
# Compressibility (1/GPa) = 0.04118072
#
# Stress axis : x y z
#
# Youngs Moduli (GPa) = 72.26287 18.38919 89.60923
#
# Poissons Ratio (x) = 0.09473 0.51639
# Poissons Ratio (y) = 0.37227 0.73338
# Poissons Ratio (z) = 0.41643 0.15050
#
# Static dielectric constant tensor:
#      x y z
#    x 3.271110 0.000000 0.000000 
#    y 0.000000 2.688510 0.000000 
#    z 0.000000 0.000000 3.201710 
# 
# 
# High freq. dielectric constant tensor:
#      x y z
#    x 1.584270 0.000000 0.000000 
#    y 0.000000 1.560810 0.000000 
#    z 0.000000 0.000000 1.588580 
# 
# From -- ./inp_files/25060.got.cif
#   From: 2010.03.12/outbox.cif.g09.slc.cpg/sg38_13_cif.got.tgz:25060.got - 2010.04.14 02:38:36.
