data_PCOD8177756
_publ_section_title
;
Structure prediction by ZEFSAII (Michael W. Deem and Ramdas Pophale) SiO2 
 PCOD8177756
Probable space group: A M M 2
;
_chemical_formula_sum "Si O2"
_cell_formula_units_Z 40
_cell_length_a 8.950852
_cell_length_b 11.685631
_cell_length_c 20.112426
_cell_angle_alpha 90.000000
_cell_angle_beta 90.000000
_cell_angle_gamma 90.000000
_cell_volume 2103.686422
_symmetry_space_group_name_H-M "A M M 2"
_symmetry_group_IT_number 38
_symmetry_cell_setting 'orthorhombic'
loop_
_space_group_symop_operation_xyz
x,y,z
-x,-y,z
-x,y,z
x,-y,z
x,1/2+y,1/2+z
-x,1/2-y,1/2+z
-x,1/2+y,1/2+z
x,1/2-y,1/2+z
loop_
_atom_site_type_symbol
_atom_site_label
_atom_site_fract_x
_atom_site_fract_y
_atom_site_fract_z
Si Si1 0.323337 0.780478 0.860300
Si Si2 0.676750 0.000000 0.085889
Si Si3 0.323248 0.249490 0.612027
Si Si4 0.677252 0.000000 0.939002
Si Si5 0.823814 0.368419 0.234261
Si Si6 0.677081 0.373135 0.978347
O O1 0.500000 0.781040 0.847710
O O2 0.265665 0.890470 0.899822
O O3 0.242865 0.781787 0.789143
O O4 0.272221 0.673601 0.905942
O O5 0.725274 0.882765 0.123035
O O6 0.500000 0.000000 0.078127
O O7 0.748214 0.000000 0.012366
O O8 0.500000 0.233818 0.621781
O O9 0.238685 0.169295 0.663376
O O10 0.271975 0.209733 0.538298
O O11 0.500000 0.000000 0.944254
O O12 0.774771 0.500000 0.247635
O O13 0.000000 0.356037 0.233744
O O14 0.500000 0.378045 0.979203
O O15 0.745447 0.500000 0.987890
#
# Coordination Sequence:
#
# PCOD8177756 Si02
#       6
#     8   4   8   4   8   8
#     4  10  18  32  57  82 105 136 175 219 266 319
#     4   9  16  30  55  87 113 132 167 222 273 313
#     4  10  19  34  58  84 109 139 177 220 266 318
#     4   9  14  26  53  85 107 126 163 218 273 317
#     4  11  24  39  53  74 108 146 183 224 267 313
#     4   9  17  30  53  86 114 134 167 219 271 317
#
# _framework density 19.014240999999998
#
# number of rings (size 3 to 8) (size 9 to 14) (size 15 to 20)
#    0.000    2.200    3.000    1.200    0.000    2.000 
#    1.800    1.500    0.000    2.400    0.000    0.000 
#    0.000    0.000    0.000    0.000    0.000    0.000 
#
# Total GULP energy -247908.866749 kJ/mol
# GULP energy per Si atom -12395.443337 kJ/mol
# Density = 1.897096 g / cm^3
# Si number density = 19.014241 Si / 1000 Ang^3
#
#
#
# Elastic Constant Matrix: (Units=GPa)
#
#
# Indices 1 2 3 4 5 6 
#
# 1 38.7966 27.7991 34.1309 0.0000 0.0000 0.0000
# 2 27.7991 124.8640 42.9232 0.0000 0.0000 0.0000
# 3 34.1309 42.9232 117.8141 0.0000 0.0000 0.0000
# 4 0.0000 0.0000 0.0000 33.1538 0.0000 0.0000
# 5 0.0000 0.0000 0.0000 0.0000 -2.2841 0.0000
# 6 0.0000 0.0000 0.0000 0.0000 0.0000 14.4881
#
#
#
# Elastic Compliance Matrix: (Units=1/GPa)
#
#
# Indices 1 2 3 4 5 6 
#
# 1 0.037387 -0.005259 -0.008915 0.000000 0.000000 0.000000
# 2 -0.005259 0.009895 -0.002082 0.000000 0.000000 0.000000
# 3 -0.008915 -0.002082 0.011829 0.000000 0.000000 0.000000
# 4 0.000000 0.000000 0.000000 0.030162 0.000000 0.000000
# 5 0.000000 0.000000 0.000000 0.000000 -0.437800 0.000000
# 6 0.000000 0.000000 0.000000 0.000000 0.000000 0.069022
#
#
# Mechanical properties :
#
#
# Convention : Reuss Voigt Hill
#
# Bulk Modulus (GPa) = 37.59437 54.57568 46.08503
# Shear Modulus (GPa) = -20.99721 20.84631 -0.07545
#
# Velocity S-wave (km/s) = -3.32669 3.31471 -0.19942
# Velocity P-wave (km/s) = 2.24918 6.58898 4.92308
#
# Compressibility (1/GPa) = 0.02659972
#
# Stress axis : x y z
#
# Youngs Moduli (GPa) = 26.74760 101.06021 84.53801
#
# Poissons Ratio (x) = 0.53147 0.75365
# Poissons Ratio (y) = 0.14066 0.17597
# Poissons Ratio (z) = 0.23845 0.21036
#
# Static dielectric constant tensor:
#      x y z
#    x 2.949710 0.000000 0.000000 
#    y 0.000000 3.821180 0.000000 
#    z 0.000000 0.000000 3.496610 
# 
# 
# High freq. dielectric constant tensor:
#      x y z
#    x 1.683280 0.000000 0.000000 
#    y 0.000000 1.745540 0.000000 
#    z 0.000000 0.000000 1.743250 
# 
# From -- ./inp_files/19512.got.cif
#   From: 2010.03.12/outbox.cif.g09.slc.cpg/sg38_10_cif.got.tgz:19512.got - 2010.04.14 02:38:36.
