data_PCOD8177650
_publ_section_title
;
Structure prediction by ZEFSAII (Michael W. Deem and Ramdas Pophale) SiO2 
 PCOD8177650
Probable space group: A M M 2
;
_chemical_formula_sum "Si O2"
_cell_formula_units_Z 64
_cell_length_a 9.281291
_cell_length_b 19.404577
_cell_length_c 21.002249
_cell_angle_alpha 90.000000
_cell_angle_beta 90.000000
_cell_angle_gamma 90.000000
_cell_volume 3782.495087
_symmetry_space_group_name_H-M "A M M 2"
_symmetry_group_IT_number 38
_symmetry_cell_setting 'orthorhombic'
loop_
_space_group_symop_operation_xyz
x,y,z
-x,-y,z
-x,y,z
x,-y,z
x,1/2+y,1/2+z
-x,1/2-y,1/2+z
-x,1/2+y,1/2+z
x,1/2-y,1/2+z
loop_
_atom_site_type_symbol
_atom_site_label
_atom_site_fract_x
_atom_site_fract_y
_atom_site_fract_z
Si Si1 0.331629 0.078204 0.579960
Si Si2 0.334057 0.577844 0.466871
Si Si3 0.170483 0.796497 0.916565
Si Si4 0.829348 0.794316 0.156818
Si Si5 0.333262 0.077601 0.113825
Si Si6 0.169989 0.704354 0.034560
Si Si7 0.831226 0.711460 0.276717
Si Si8 0.835056 0.076648 0.709262
O O1 0.500000 0.095362 0.581787
O O2 0.251631 0.131203 0.532985
O O3 0.268542 0.088512 0.650001
O O4 0.303882 0.000000 0.555955
O O5 0.500000 0.598308 0.457690
O O6 0.306486 0.500000 0.443229
O O7 0.236287 0.628198 0.425880
O O8 0.289550 0.584579 0.540363
O O9 0.224577 0.768829 0.847402
O O10 0.000000 0.805754 0.917849
O O11 0.221583 0.744191 0.971222
O O12 0.761878 0.870044 0.154517
O O13 0.782392 0.748399 0.096188
O O14 0.765651 0.759276 0.220987
O O15 0.000000 0.802149 0.157979
O O16 0.500000 0.095814 0.123454
O O17 0.301235 0.000000 0.137715
O O18 0.000000 0.690736 0.034178
O O19 0.792779 0.631346 0.263439
O O20 0.000000 0.722794 0.274182
O O21 0.000000 0.088635 0.685967
O O22 0.815296 0.000000 0.737815
#
# Coordination Sequence:
#
# PCOD8177650 Si02
#       8
#     8   8   8   8   8   8   8   8
#     4  10  20  32  49  75 101 125 160 205 247 285
#     4   9  18  32  48  69 101 137 166 194 236 288
#     4  10  20  33  50  73  99 128 165 205 241 284
#     4  10  18  31  51  75  99 125 162 204 243 285
#     4   9  18  32  50  73 100 129 162 200 243 289
#     4  10  19  32  51  75  98 125 163 203 242 286
#     4   9  18  32  48  70 101 131 159 198 245 289
#     4   9  16  29  49  70  97 134 167 192 230 286
#
# _framework density 16.920048999999999
#
# number of rings (size 3 to 8) (size 9 to 14) (size 15 to 20)
#    0.000    2.500    2.500    1.125    0.000    2.750 
#    0.000    3.750    0.000    2.250    0.000    5.250 
#    0.000    0.000    0.000    0.000    0.000    0.000 
#
# Total GULP energy -396713.697827 kJ/mol
# GULP energy per Si atom -12397.303057 kJ/mol
# Density = 1.688154 g / cm^3
# Si number density = 16.920049 Si / 1000 Ang^3
#
#
#
# Elastic Constant Matrix: (Units=GPa)
#
#
# Indices 1 2 3 4 5 6 
#
# 1 39.8557 40.3358 29.9871 0.0000 0.0000 0.0000
# 2 40.3358 112.7397 66.3560 0.0000 0.0000 0.0000
# 3 29.9871 66.3560 120.3671 0.0000 0.0000 0.0000
# 4 0.0000 0.0000 0.0000 22.9555 0.0000 0.0000
# 5 0.0000 0.0000 0.0000 0.0000 11.4846 0.0000
# 6 0.0000 0.0000 0.0000 0.0000 0.0000 31.2354
#
#
#
# Elastic Compliance Matrix: (Units=1/GPa)
#
#
# Indices 1 2 3 4 5 6 
#
# 1 0.040089 -0.012530 -0.003080 0.000000 0.000000 0.000000
# 2 -0.012530 0.017047 -0.006276 0.000000 0.000000 0.000000
# 3 -0.003080 -0.006276 0.012535 0.000000 0.000000 0.000000
# 4 0.000000 0.000000 0.000000 0.043563 0.000000 0.000000
# 5 0.000000 0.000000 0.000000 0.000000 0.087073 0.000000
# 6 0.000000 0.000000 0.000000 0.000000 0.000000 0.032015
#
#
# Mechanical properties :
#
#
# Convention : Reuss Voigt Hill
#
# Bulk Modulus (GPa) = 38.61163 60.70224 49.65693
# Shear Modulus (GPa) = 17.56074 22.22068 19.89071
#
# Velocity S-wave (km/s) = 3.22509 3.62785 3.43238
# Velocity P-wave (km/s) = 6.06117 7.31452 6.71714
#
# Compressibility (1/GPa) = 0.02589894
#
# Stress axis : x y z
#
# Youngs Moduli (GPa) = 24.94459 58.66160 79.77685
#
# Poissons Ratio (x) = 0.73505 0.24569
# Poissons Ratio (y) = 0.31256 0.50068
# Poissons Ratio (z) = 0.07682 0.36816
#
# Static dielectric constant tensor:
#      x y z
#    x 2.984360 0.000000 0.000000 
#    y 0.000000 3.280340 0.000000 
#    z 0.000000 0.000000 3.207310 
# 
# 
# High freq. dielectric constant tensor:
#      x y z
#    x 1.637210 0.000000 0.000000 
#    y 0.000000 1.656130 0.000000 
#    z 0.000000 0.000000 1.629250 
# 
# From -- ./inp_files/20258.got.cif
#   From: 2010.03.12/outbox.cif.g09.slc.cpg/sg38_11_cif.got.tgz:20258.got - 2010.04.14 02:38:36.
