data_PCOD8177140
_publ_section_title
;
Structure prediction by ZEFSAII (Michael W. Deem and Ramdas Pophale) SiO2 
 PCOD8177140
Probable space group: C C C 2
;
_chemical_formula_sum "Si O2"
_cell_formula_units_Z 60
_cell_length_a 5.562746
_cell_length_b 17.997886
_cell_length_c 26.441901
_cell_angle_alpha 90.000000
_cell_angle_beta 90.000000
_cell_angle_gamma 90.000000
_cell_volume 2647.301475
_symmetry_space_group_name_H-M "C C C 2"
_symmetry_group_IT_number 37
_symmetry_cell_setting 'orthorhombic'
loop_
_space_group_symop_operation_xyz
x,y,z
-x,-y,z
-x,y,1/2+z
x,-y,1/2+z
1/2+x,1/2+y,z
1/2-x,1/2-y,z
1/2-x,1/2+y,1/2+z
1/2+x,1/2-y,1/2+z
loop_
_atom_site_type_symbol
_atom_site_label
_atom_site_fract_x
_atom_site_fract_y
_atom_site_fract_z
Si Si1 0.418920 0.320468 0.548420
Si Si2 0.846407 0.425921 0.837608
Si Si3 0.230887 0.388347 0.979732
Si Si4 0.255844 0.329172 0.145716
Si Si5 0.500172 0.204846 0.400708
Si Si6 0.500000 0.500000 0.409801
Si Si7 0.965238 0.579504 0.577492
Si Si8 0.252505 0.454879 0.226213
O O1 0.250000 0.250000 0.540417
O O2 0.570413 0.326705 0.496242
O O3 0.561366 0.312586 0.600324
O O4 0.288839 0.400696 0.553165
O O5 0.620503 0.436937 0.874836
O O6 0.767838 0.413809 0.779859
O O7 0.000000 0.500000 0.842281
O O8 0.991690 0.352553 0.853712
O O9 0.016610 0.343500 0.952297
O O10 0.313353 0.455325 0.944176
O O11 0.156080 0.425064 0.032322
O O12 0.250000 0.250000 0.175028
O O13 0.319398 0.393225 0.184767
O O14 0.010423 0.355295 0.118368
O O15 0.750000 0.250000 0.393124
O O16 0.250000 0.250000 0.401807
O O17 0.000000 0.500000 0.605209
O O18 0.500000 0.500000 0.227169
O O19 0.000000 0.500000 0.215221
#
# Coordination Sequence:
#
# PCOD8177140 Si02
#       8
#     8   8   8   8   8   4   8   8
#     4  11  25  44  71  98 154 199 250 305 377 447
#     4  11  25  49  76 106 150 195 254 316 383 453
#     4  11  27  39  68 107 142 203 252 304 369 451
#     4  11  25  46  69 105 142 194 241 307 381 451
#     4  12  29  46  72 111 156 204 255 312 384 451
#     4  12  22  46  74 106 152 200 258 318 378 448
#     4  11  25  42  66 102 140 190 246 306 362 439
#     4  11  27  49  81 114 142 190 250 315 386 449
#
# _framework density 22.664588999999999
#
# number of rings (size 3 to 8) (size 9 to 14) (size 15 to 20)
#    0.000    0.800    3.333    2.000   11.200    1.600 
#    0.000    0.000    0.000    0.000    0.000    0.000 
#    0.000    0.000    0.000    0.000    0.000    0.000 
#
# Total GULP energy -371720.762337 kJ/mol
# GULP energy per Si atom -12390.692078 kJ/mol
# Density = 2.261300 g / cm^3
# Si number density = 22.664589 Si / 1000 Ang^3
#
#
#
# Elastic Constant Matrix: (Units=GPa)
#
#
# Indices 1 2 3 4 5 6 
#
# 1 110.8136 43.3090 18.4400 0.0000 0.0000 0.0000
# 2 43.3090 131.6552 38.7072 0.0000 0.0000 0.0000
# 3 18.4400 38.7072 103.4935 0.0000 0.0000 0.0000
# 4 0.0000 0.0000 0.0000 26.6853 0.0000 0.0000
# 5 0.0000 0.0000 0.0000 0.0000 -5.0042 0.0000
# 6 0.0000 0.0000 0.0000 0.0000 0.0000 42.4672
#
#
#
# Elastic Compliance Matrix: (Units=1/GPa)
#
#
# Indices 1 2 3 4 5 6 
#
# 1 0.010394 -0.003230 -0.000644 0.000000 0.000000 0.000000
# 2 -0.003230 0.009538 -0.002992 0.000000 0.000000 0.000000
# 3 -0.000644 -0.002992 0.010896 0.000000 0.000000 0.000000
# 4 0.000000 0.000000 0.000000 0.037474 0.000000 0.000000
# 5 0.000000 0.000000 0.000000 0.000000 -0.199830 0.000000
# 6 0.000000 0.000000 0.000000 0.000000 0.000000 0.023548
#
#
# Mechanical properties :
#
#
# Convention : Reuss Voigt Hill
#
# Bulk Modulus (GPa) = 58.49117 60.76384 59.62751
# Shear Modulus (GPa) = -56.46402 29.19671 -13.63366
#
# Velocity S-wave (km/s) = -4.99670 3.59306 -2.45529
# Velocity P-wave (km/s) = 2.72506 6.63940 4.28110
#
# Compressibility (1/GPa) = 0.01709660
#
# Stress axis : x y z
#
# Youngs Moduli (GPa) = 96.21319 104.84812 91.77615
#
# Poissons Ratio (x) = 0.33863 0.05910
# Poissons Ratio (y) = 0.31074 0.27456
# Poissons Ratio (z) = 0.06196 0.31367
#
# Static dielectric constant tensor:
#      x y z
#    x 4.324030 0.000000 0.000000 
#    y 0.000000 4.156630 0.000000 
#    z 0.000000 0.000000 4.216910 
# 
# 
# High freq. dielectric constant tensor:
#      x y z
#    x 1.896400 0.000000 0.000000 
#    y 0.000000 1.903610 0.000000 
#    z 0.000000 0.000000 1.892970 
# 
# From -- ./inp_files/19524.got.cif
#   From: 2010.03.12/outbox.cif.g09.slc.cpg/sg37_10_cif.got.tgz:19524.got - 2010.04.14 02:25:27.
