data_PCOD8177225
_publ_section_title
;
Structure prediction by ZEFSAII (Michael W. Deem and Ramdas Pophale) SiO2 
 PCOD8177225
Probable space group: A M M 2
;
_chemical_formula_sum "Si O2"
_cell_formula_units_Z 56
_cell_length_a 9.609182
_cell_length_b 11.923959
_cell_length_c 30.621136
_cell_angle_alpha 90.000000
_cell_angle_beta 90.000000
_cell_angle_gamma 90.000000
_cell_volume 3508.554213
_symmetry_space_group_name_H-M "A M M 2"
_symmetry_group_IT_number 38
_symmetry_cell_setting 'orthorhombic'
loop_
_space_group_symop_operation_xyz
x,y,z
-x,-y,z
-x,y,z
x,-y,z
x,1/2+y,1/2+z
-x,1/2-y,1/2+z
-x,1/2+y,1/2+z
x,1/2-y,1/2+z
loop_
_atom_site_type_symbol
_atom_site_label
_atom_site_fract_x
_atom_site_fract_y
_atom_site_fract_z
Si Si1 0.153492 0.367058 0.731880
Si Si2 0.163811 0.370306 0.633821
Si Si3 0.335734 0.000000 0.009852
Si Si4 0.339811 0.868106 0.310225
Si Si5 0.334285 0.243933 0.895659
Si Si6 0.665554 0.000000 0.913474
Si Si7 0.335644 0.779935 0.059165
Si Si8 0.334726 0.873819 0.480693
O O1 0.147807 0.500000 0.734659
O O2 0.201628 0.333614 0.683231
O O3 0.259275 0.319704 0.768093
O O4 0.000000 0.317801 0.741512
O O5 0.209200 0.500000 0.625610
O O6 0.249708 0.282070 0.604223
O O7 0.000000 0.357107 0.625034
O O8 0.284693 0.109144 0.034660
O O9 0.500000 0.000000 0.005583
O O10 0.270065 0.000000 0.961878
O O11 0.500000 0.836391 0.303268
O O12 0.278010 0.810709 0.353696
O O13 0.318687 0.000000 0.316037
O O14 0.500000 0.250367 0.897401
O O15 0.275127 0.300088 0.940297
O O16 0.282980 0.114759 0.890472
O O17 0.500000 0.000000 0.915408
O O18 0.500000 0.779004 0.069493
O O19 0.291754 0.676898 0.027835
O O20 0.500000 0.874113 0.477402
O O21 0.275062 0.000000 0.477548
#
# Coordination Sequence:
#
# PCOD8177225 Si02
#       8
#     8   8   4   8   8   4   8   8
#     4   8  15  28  43  59  82 111 139 166 204 257
#     4   9  17  28  42  62  87 112 138 171 214 260
#     4   9  14  22  35  59  89 111 137 169 201 238
#     4   9  16  25  39  62  88 109 133 170 211 245
#     4   9  15  23  37  59  87 115 140 169 206 247
#     4   9  14  22  36  57  87 117 141 167 203 246
#     4  10  17  25  41  64  88 113 141 174 208 244
#     4   9  16  25  38  59  88 119 146 171 204 247
#
# _framework density 15.960990000000001
#
# number of rings (size 3 to 8) (size 9 to 14) (size 15 to 20)
#    0.000    3.000    2.143    1.286    0.000    2.286 
#    0.000    1.429    0.000    1.286    1.857    0.500 
#    0.000    0.000    0.000    0.000    0.000    0.000 
#
# Total GULP energy -346979.226819 kJ/mol
# GULP energy per Si atom -12392.115244 kJ/mol
# Density = 1.592466 g / cm^3
# Si number density = 15.960990 Si / 1000 Ang^3
#
#
#
# Elastic Constant Matrix: (Units=GPa)
#
#
# Indices 1 2 3 4 5 6 
#
# 1 34.1434 19.7530 46.9594 0.0000 0.0000 0.0000
# 2 19.7530 83.0139 48.2853 0.0000 0.0000 0.0000
# 3 46.9594 48.2853 142.0598 0.0000 0.0000 0.0000
# 4 0.0000 0.0000 0.0000 20.1600 0.0000 0.0000
# 5 0.0000 0.0000 0.0000 0.0000 5.6745 0.0000
# 6 0.0000 0.0000 0.0000 0.0000 0.0000 8.2132
#
#
#
# Elastic Compliance Matrix: (Units=1/GPa)
#
#
# Indices 1 2 3 4 5 6 
#
# 1 0.054334 -0.003093 -0.016909 0.000000 0.000000 0.000000
# 2 -0.003093 0.015191 -0.004141 0.000000 0.000000 0.000000
# 3 -0.016909 -0.004141 0.014036 0.000000 0.000000 0.000000
# 4 0.000000 0.000000 0.000000 0.049603 0.000000 0.000000
# 5 0.000000 0.000000 0.000000 0.000000 0.176225 0.000000
# 6 0.000000 0.000000 0.000000 0.000000 0.000000 0.121756
#
#
# Mechanical properties :
#
#
# Convention : Reuss Voigt Hill
#
# Bulk Modulus (GPa) = 28.34919 54.35695 41.35307
# Shear Modulus (GPa) = 10.17935 16.42417 13.30176
#
# Velocity S-wave (km/s) = 2.52814 3.21131 2.88998
# Velocity P-wave (km/s) = 5.13051 6.91954 6.09107
#
# Compressibility (1/GPa) = 0.03527438
#
# Stress axis : x y z
#
# Youngs Moduli (GPa) = 18.40460 65.82987 71.24404
#
# Poissons Ratio (x) = 0.20363 1.20469
# Poissons Ratio (y) = 0.05693 0.29500
# Poissons Ratio (z) = 0.31121 0.27258
#
# Static dielectric constant tensor:
#      x y z
#    x 2.684760 0.000000 0.000000 
#    y 0.000000 2.994990 0.000000 
#    z 0.000000 0.000000 3.235780 
# 
# 
# High freq. dielectric constant tensor:
#      x y z
#    x 1.564880 0.000000 0.000000 
#    y 0.000000 1.585530 0.000000 
#    z 0.000000 0.000000 1.621170 
# 
# From -- ./inp_files/22551.got.cif
#   From: 2010.03.12/outbox.cif.g09.slc.cpg/sg38_12_cif.got.tgz:22551.got - 2010.04.14 02:38:36.
