data_PCOD8177679
_publ_section_title
;
Structure prediction by ZEFSAII (Michael W. Deem and Ramdas Pophale) SiO2 
 PCOD8177679
Probable space group: A M M 2
;
_chemical_formula_sum "Si O2"
_cell_formula_units_Z 64
_cell_length_a 8.840303
_cell_length_b 20.793486
_cell_length_c 19.708947
_cell_angle_alpha 90.000000
_cell_angle_beta 90.000000
_cell_angle_gamma 90.000000
_cell_volume 3622.912762
_symmetry_space_group_name_H-M "A M M 2"
_symmetry_group_IT_number 38
_symmetry_cell_setting 'orthorhombic'
loop_
_space_group_symop_operation_xyz
x,y,z
-x,-y,z
-x,y,z
x,-y,z
x,1/2+y,1/2+z
-x,1/2-y,1/2+z
-x,1/2+y,1/2+z
x,1/2-y,1/2+z
loop_
_atom_site_type_symbol
_atom_site_label
_atom_site_fract_x
_atom_site_fract_y
_atom_site_fract_z
Si Si1 0.822417 0.373868 0.048380
Si Si2 0.821885 0.229505 0.042066
Si Si3 0.180098 0.929568 0.684972
Si Si4 0.179272 0.809487 0.772008
Si Si5 0.178018 0.872860 0.399365
Si Si6 0.325505 0.427370 0.771622
Si Si7 0.822947 0.816809 0.188129
Si Si8 0.678944 0.233615 0.904629
O O1 0.759958 0.301456 0.054591
O O2 0.754253 0.417044 0.108825
O O3 0.000000 0.370175 0.059157
O O4 0.783421 0.402213 0.973809
O O5 0.782150 0.188045 0.108497
O O6 0.000000 0.229433 0.027131
O O7 0.737225 0.202561 0.975384
O O8 0.237992 0.873815 0.734631
O O9 0.000000 0.928461 0.683250
O O10 0.238319 0.000000 0.708735
O O11 0.227875 0.747568 0.727551
O O12 0.263807 0.811170 0.843721
O O13 0.000000 0.810339 0.783108
O O14 0.239488 0.920987 0.343010
O O15 0.253225 0.803692 0.390851
O O16 0.000000 0.863160 0.389618
O O17 0.500000 0.411963 0.784490
O O18 0.301027 0.500000 0.745015
O O19 0.263477 0.378730 0.715612
O O20 0.000000 0.827748 0.198880
O O21 0.500000 0.237329 0.905209
#
# Coordination Sequence:
#
# PCOD8177679 Si02
#       8
#     8   8   8   8   8   8   8   8
#     4   8  14  26  45  72 105 136 167 205 250 300
#     4   9  17  32  53  78 105 134 171 218 265 311
#     4   9  16  27  47  77 109 137 168 210 260 308
#     4  10  18  31  53  79 105 137 175 220 263 305
#     4  10  19  32  52  75 104 141 180 221 257 304
#     4  11  24  38  51  73 109 146 178 218 268 324
#     4  10  19  33  57  80 101 135 180 226 267 311
#     4  11  21  32  50  78 108 139 174 217 266 317
#
# _framework density 17.665343
#
# number of rings (size 3 to 8) (size 9 to 14) (size 15 to 20)
#    0.000    2.250    2.500    2.625    0.000    2.000 
#    0.000    1.250    0.000    1.125    0.000    1.750 
#    0.000    0.000    0.000    0.000    0.000    0.000 
#
# Total GULP energy -396685.960209 kJ/mol
# GULP energy per Si atom -12396.436257 kJ/mol
# Density = 1.762514 g / cm^3
# Si number density = 17.665343 Si / 1000 Ang^3
#
#
#
# Elastic Constant Matrix: (Units=GPa)
#
#
# Indices 1 2 3 4 5 6 
#
# 1 65.7385 36.8474 48.7652 0.0000 0.0000 0.0000
# 2 36.8474 108.6305 70.3098 0.0000 0.0000 0.0000
# 3 48.7652 70.3098 139.8553 0.0000 0.0000 0.0000
# 4 0.0000 0.0000 0.0000 23.8833 0.0000 0.0000
# 5 0.0000 0.0000 0.0000 0.0000 9.9072 0.0000
# 6 0.0000 0.0000 0.0000 0.0000 0.0000 16.3365
#
#
#
# Elastic Compliance Matrix: (Units=1/GPa)
#
#
# Indices 1 2 3 4 5 6 
#
# 1 0.021432 -0.003606 -0.005660 0.000000 0.000000 0.000000
# 2 -0.003606 0.014252 -0.005908 0.000000 0.000000 0.000000
# 3 -0.005660 -0.005908 0.012094 0.000000 0.000000 0.000000
# 4 0.000000 0.000000 0.000000 0.041870 0.000000 0.000000
# 5 0.000000 0.000000 0.000000 0.000000 0.100936 0.000000
# 6 0.000000 0.000000 0.000000 0.000000 0.000000 0.061213
#
#
# Mechanical properties :
#
#
# Convention : Reuss Voigt Hill
#
# Bulk Modulus (GPa) = 57.37198 69.56323 63.46761
# Shear Modulus (GPa) = 17.36382 20.57886 18.97134
#
# Velocity S-wave (km/s) = 3.13857 3.41681 3.28064
# Velocity P-wave (km/s) = 6.75883 7.41822 7.09619
#
# Compressibility (1/GPa) = 0.01743011
#
# Stress axis : x y z
#
# Youngs Moduli (GPa) = 46.65978 70.16317 82.68737
#
# Poissons Ratio (x) = 0.25303 0.46800
# Poissons Ratio (y) = 0.16827 0.48849
# Poissons Ratio (z) = 0.26409 0.41450
#
# Static dielectric constant tensor:
#      x y z
#    x 3.014700 0.000000 0.000000 
#    y 0.000000 3.178290 0.000000 
#    z 0.000000 0.000000 3.534010 
# 
# 
# High freq. dielectric constant tensor:
#      x y z
#    x 1.657290 0.000000 0.000000 
#    y 0.000000 1.656450 0.000000 
#    z 0.000000 0.000000 1.693570 
# 
# From -- ./inp_files/20221.got.cif
#   From: 2010.03.12/outbox.cif.g09.slc.cpg/sg38_11_cif.got.tgz:20221.got - 2010.04.14 02:38:36.
