data_PCOD8177807
_publ_section_title
;
Structure prediction by ZEFSAII (Michael W. Deem and Ramdas Pophale) SiO2 
 PCOD8177807
Probable space group: A M M 2
;
_chemical_formula_sum "Si O2"
_cell_formula_units_Z 64
_cell_length_a 8.930044
_cell_length_b 15.311784
_cell_length_c 23.731345
_cell_angle_alpha 90.000000
_cell_angle_beta 90.000000
_cell_angle_gamma 90.000000
_cell_volume 3244.903200
_symmetry_space_group_name_H-M "A M M 2"
_symmetry_group_IT_number 38
_symmetry_cell_setting 'orthorhombic'
loop_
_space_group_symop_operation_xyz
x,y,z
-x,-y,z
-x,y,z
x,-y,z
x,1/2+y,1/2+z
-x,1/2-y,1/2+z
-x,1/2+y,1/2+z
x,1/2-y,1/2+z
loop_
_atom_site_type_symbol
_atom_site_label
_atom_site_fract_x
_atom_site_fract_y
_atom_site_fract_z
Si Si1 0.175048 0.150395 0.656580
Si Si2 0.827081 0.599376 0.787292
Si Si3 0.174611 0.852520 0.162169
Si Si4 0.322455 0.254711 0.349757
Si Si5 0.177776 0.903606 0.535506
Si Si6 0.671858 0.096622 0.766389
Si Si7 0.671961 0.598982 0.550228
Si Si8 0.177925 0.736515 0.469262
O O1 0.215446 0.251244 0.663098
O O2 0.242515 0.115959 0.597661
O O3 0.246162 0.096397 0.706895
O O4 0.000000 0.133512 0.659016
O O5 0.801545 0.500000 0.807175
O O6 0.778242 0.607730 0.722270
O O7 0.729068 0.660584 0.827431
O O8 0.000000 0.627255 0.793942
O O9 0.271356 0.899221 0.114446
O O10 0.000000 0.868922 0.149399
O O11 0.500000 0.256025 0.355534
O O12 0.261767 0.330315 0.308133
O O13 0.252190 0.278156 0.409386
O O14 0.235493 0.830358 0.492234
O O15 0.000000 0.898540 0.538525
O O16 0.231166 0.000000 0.515580
O O17 0.500000 0.118512 0.754843
O O18 0.691885 0.000000 0.793334
O O19 0.500000 0.630278 0.547727
O O20 0.686788 0.500000 0.527814
O O21 0.773184 0.660802 0.511779
O O22 0.000000 0.733946 0.463638
#
# Coordination Sequence:
#
# PCOD8177807 Si02
#       8
#     8   8   8   8   8   8   8   8
#     4  10  18  33  60  90 118 148 187 236 286 343
#     4  10  21  38  61  88 119 157 199 245 298 354
#     4  10  19  35  61  91 121 153 194 244 296 351
#     4  11  24  41  60  84 116 156 199 249 302 354
#     4   9  18  34  57  86 117 148 183 229 288 346
#     4  10  22  39  58  83 117 155 191 232 290 354
#     4  11  24  40  60  88 122 159 197 241 298 359
#     4  11  23  41  63  86 114 154 202 250 296 349
#
# _framework density 19.723239
#
# number of rings (size 3 to 8) (size 9 to 14) (size 15 to 20)
#    0.000    1.750    2.500    1.875    0.000    5.000 
#    0.000    2.500    0.000    1.875    0.000    0.000 
#    0.000    0.000    0.000    0.000    0.000    0.000 
#
# Total GULP energy -396875.044911 kJ/mol
# GULP energy per Si atom -12402.345153 kJ/mol
# Density = 1.967835 g / cm^3
# Si number density = 19.723239 Si / 1000 Ang^3
#
#
#
# Elastic Constant Matrix: (Units=GPa)
#
#
# Indices 1 2 3 4 5 6 
#
# 1 54.0126 26.5571 25.4193 0.0000 0.0000 0.0000
# 2 26.5571 93.5385 20.9628 0.0000 0.0000 0.0000
# 3 25.4193 20.9628 86.8683 0.0000 0.0000 0.0000
# 4 0.0000 0.0000 0.0000 13.4882 0.0000 0.0000
# 5 0.0000 0.0000 0.0000 0.0000 15.0415 0.0000
# 6 0.0000 0.0000 0.0000 0.0000 0.0000 28.0295
#
#
#
# Elastic Compliance Matrix: (Units=1/GPa)
#
#
# Indices 1 2 3 4 5 6 
#
# 1 0.023889 -0.005514 -0.005660 0.000000 0.000000 0.000000
# 2 -0.005514 0.012575 -0.001421 0.000000 0.000000 0.000000
# 3 -0.005660 -0.001421 0.013511 0.000000 0.000000 0.000000
# 4 0.000000 0.000000 0.000000 0.074139 0.000000 0.000000
# 5 0.000000 0.000000 0.000000 0.000000 0.066483 0.000000
# 6 0.000000 0.000000 0.000000 0.000000 0.000000 0.035677
#
#
# Mechanical properties :
#
#
# Convention : Reuss Voigt Hill
#
# Bulk Modulus (GPa) = 40.34716 42.25532 41.30124
# Shear Modulus (GPa) = 19.25120 22.07717 20.66418
#
# Velocity S-wave (km/s) = 3.12760 3.34930 3.24034
# Velocity P-wave (km/s) = 5.79168 6.03554 5.91486
#
# Compressibility (1/GPa) = 0.02478489
#
# Stress axis : x y z
#
# Youngs Moduli (GPa) = 41.86036 79.52429 74.01526
#
# Poissons Ratio (x) = 0.43850 0.41891
# Poissons Ratio (y) = 0.23082 0.10517
# Poissons Ratio (z) = 0.23692 0.11300
#
# Static dielectric constant tensor:
#      x y z
#    x 3.391620 0.000000 0.000000 
#    y 0.000000 3.795010 0.000000 
#    z 0.000000 0.000000 3.577810 
# 
# 
# High freq. dielectric constant tensor:
#      x y z
#    x 1.750080 0.000000 0.000000 
#    y 0.000000 1.784580 0.000000 
#    z 0.000000 0.000000 1.766570 
# 
# From -- ./inp_files/22120.got.cif
#   From: 2010.03.12/outbox.cif.g09.slc.cpg/sg38_12_cif.got.tgz:22120.got - 2010.04.14 02:38:36.
