data_PCOD8177159
_publ_section_title
;
Structure prediction by ZEFSAII (Michael W. Deem and Ramdas Pophale) SiO2 
 PCOD8177159
Probable space group: C C C 2
;
_chemical_formula_sum "Si O2"
_cell_formula_units_Z 24
_cell_length_a 11.843112
_cell_length_b 7.198544
_cell_length_c 13.631755
_cell_angle_alpha 90.000000
_cell_angle_beta 90.000000
_cell_angle_gamma 90.000000
_cell_volume 1162.150229
_symmetry_space_group_name_H-M "C C C 2"
_symmetry_group_IT_number 37
_symmetry_cell_setting 'orthorhombic'
loop_
_space_group_symop_operation_xyz
x,y,z
-x,-y,z
-x,y,1/2+z
x,-y,1/2+z
1/2+x,1/2+y,z
1/2-x,1/2-y,z
1/2-x,1/2+y,1/2+z
1/2+x,1/2-y,1/2+z
loop_
_atom_site_type_symbol
_atom_site_label
_atom_site_fract_x
_atom_site_fract_y
_atom_site_fract_z
Si Si1 0.750000 0.750000 0.189481
Si Si2 0.000000 0.000000 0.921048
Si Si3 0.841851 0.897459 0.591458
Si Si4 0.994697 0.720732 0.256957
O O1 0.737265 0.565758 0.125796
O O2 0.861706 0.756171 0.254642
O O3 0.037799 0.177602 0.855283
O O4 0.895330 0.048102 0.988864
O O5 0.750000 0.750000 0.564734
O O6 0.937582 0.816607 0.666387
O O7 0.000000 0.500000 0.260413
#
# Coordination Sequence:
#
# PCOD8177159 Si02
#       4
#     4   4   8   8
#     4  12  22  48  72  94 142 186 232 288 348 426
#     4  12  26  46  68 116 138 172 248 294 336 424
#     4  12  26  46  73 102 143 189 232 291 359 414
#     4  12  26  46  73 103 143 188 232 290 358 416
#
# _framework density 20.651374000000001
#
# number of rings (size 3 to 8) (size 9 to 14) (size 15 to 20)
#    0.000    0.000   10.000    0.000    2.333    4.000 
#    3.000    0.000    0.000    0.000    0.000    0.000 
#    0.000    0.000    0.000    0.000    0.000    0.000 
#
# Total GULP energy -148667.641064 kJ/mol
# GULP energy per Si atom -12388.970089 kJ/mol
# Density = 2.060437 g / cm^3
# Si number density = 20.651374 Si / 1000 Ang^3
#
#
#
# Elastic Constant Matrix: (Units=GPa)
#
#
# Indices 1 2 3 4 5 6 
#
# 1 145.8446 43.5550 54.2530 0.0000 0.0000 0.0000
# 2 43.5550 179.1320 64.2855 0.0000 0.0000 0.0000
# 3 54.2530 64.2855 141.4637 0.0000 0.0000 0.0000
# 4 0.0000 0.0000 0.0000 31.4805 0.0000 0.0000
# 5 0.0000 0.0000 0.0000 0.0000 849.1863 0.0000
# 6 0.0000 0.0000 0.0000 0.0000 0.0000 44.3177
#
#
#
# Elastic Compliance Matrix: (Units=1/GPa)
#
#
# Indices 1 2 3 4 5 6 
#
# 1 0.008153 -0.001028 -0.002660 0.000000 0.000000 0.000000
# 2 -0.001028 0.006800 -0.002696 0.000000 0.000000 0.000000
# 3 -0.002660 -0.002696 0.009314 0.000000 0.000000 0.000000
# 4 0.000000 0.000000 0.000000 0.031766 0.000000 0.000000
# 5 0.000000 0.000000 0.000000 0.000000 0.001178 0.000000
# 6 0.000000 0.000000 0.000000 0.000000 0.000000 0.022564
#
#
# Mechanical properties :
#
#
# Convention : Reuss Voigt Hill
#
# Bulk Modulus (GPa) = 86.95600 87.84750 87.40175
# Shear Modulus (GPa) = 51.88084 205.28668 128.58376
#
# Velocity S-wave (km/s) = 5.01764 9.98106 7.89932
# Velocity P-wave (km/s) = 8.70443 13.24611 11.20773
#
# Compressibility (1/GPa) = 0.01150007
#
# Stress axis : x y z
#
# Youngs Moduli (GPa) = 122.65499 147.06165 107.36465
#
# Poissons Ratio (x) = 0.15116 0.28555
# Poissons Ratio (y) = 0.12607 0.28944
# Poissons Ratio (z) = 0.32622 0.39646
#
# Static dielectric constant tensor:
#      x y z
#    x 3.769390 0.000000 0.000000 
#    y 0.000000 3.853070 0.000000 
#    z 0.000000 0.000000 3.653620 
# 
# 
# High freq. dielectric constant tensor:
#      x y z
#    x 1.821530 0.000000 0.000000 
#    y 0.000000 1.837710 0.000000 
#    z 0.000000 0.000000 1.797710 
# 
# From -- ./inp_files/5795.got.cif
#   From: 2010.03.12/outbox.cif.g09.slc.cpg/sg37_3_cif.got.tgz:5795.got - 2010.04.14 02:25:27.
