data_PCOD8177555
_publ_section_title
;
Structure prediction by ZEFSAII (Michael W. Deem and Ramdas Pophale) SiO2 
 PCOD8177555
Probable space group: A M M 2
;
_chemical_formula_sum "Si O2"
_cell_formula_units_Z 64
_cell_length_a 18.821522
_cell_length_b 21.221915
_cell_length_c 8.944651
_cell_angle_alpha 90.000000
_cell_angle_beta 90.000000
_cell_angle_gamma 90.000000
_cell_volume 3572.750679
_symmetry_space_group_name_H-M "A M M 2"
_symmetry_group_IT_number 38
_symmetry_cell_setting 'orthorhombic'
loop_
_space_group_symop_operation_xyz
x,y,z
-x,-y,z
-x,y,z
x,-y,z
x,1/2+y,1/2+z
-x,1/2-y,1/2+z
-x,1/2+y,1/2+z
x,1/2-y,1/2+z
loop_
_atom_site_type_symbol
_atom_site_label
_atom_site_fract_x
_atom_site_fract_y
_atom_site_fract_z
Si Si1 0.288029 0.430775 0.599110
Si Si2 0.419612 0.573074 0.407033
Si Si3 0.665665 0.160951 0.730412
Si Si4 0.919384 0.336213 0.286079
Si Si5 0.080519 0.286271 0.612646
Si Si6 0.710669 0.746254 0.986608
Si Si7 0.791503 0.427659 0.295007
Si Si8 0.215566 0.325357 0.742283
O O1 0.297824 0.500000 0.664531
O O2 0.364726 0.406812 0.537963
O O3 0.229376 0.428126 0.468856
O O4 0.258532 0.390809 0.737401
O O5 0.500000 0.585011 0.460960
O O6 0.406837 0.500000 0.363930
O O7 0.402136 0.615650 0.260979
O O8 0.670128 0.208458 0.871948
O O9 0.655694 0.200679 0.577220
O O10 0.734997 0.116722 0.710164
O O11 0.904872 0.297588 0.438206
O O12 0.904314 0.287241 0.151378
O O13 0.868960 0.397066 0.273323
O O14 0.000000 0.361695 0.280502
O O15 0.131161 0.331249 0.713857
O O16 0.000000 0.304062 0.657017
O O17 0.769326 0.705280 0.900880
O O18 0.755275 0.784241 0.105853
O O19 0.791597 0.500000 0.233838
#
# Coordination Sequence:
#
# PCOD8177555 Si02
#       8
#     8   8   8   8   8   8   8   8
#     4   9  17  30  49  72  97 127 165 204 243 294
#     4   9  17  32  56  79 102 134 169 205 245 298
#     4  10  18  34  49  78 101 129 167 209 243 305
#     4  10  19  31  46  70  96 125 165 210 259 307
#     4  10  19  29  45  69  99 128 163 208 253 304
#     4  10  20  28  53  73 101 129 167 203 258 290
#     4  10  18  30  49  69  94 127 163 210 252 291
#     4  11  17  32  49  73  98 134 165 210 251 300
#
# _framework density 17.913368999999999
#
# number of rings (size 3 to 8) (size 9 to 14) (size 15 to 20)
#    0.000    2.125    3.750    3.375    0.000    0.250 
#    0.000    1.875    0.000    1.125    0.000    1.750 
#    0.000    5.000    0.000    0.000    0.000    0.000 
#
# Total GULP energy -396582.144151 kJ/mol
# GULP energy per Si atom -12393.192005 kJ/mol
# Density = 1.787260 g / cm^3
# Si number density = 17.913369 Si / 1000 Ang^3
#
#
#
# Elastic Constant Matrix: (Units=GPa)
#
#
# Indices 1 2 3 4 5 6 
#
# 1 85.4585 40.3314 1.7672 0.0000 0.0000 0.0000
# 2 40.3314 96.5823 24.3708 0.0000 0.0000 0.0000
# 3 1.7672 24.3708 45.7807 0.0000 0.0000 0.0000
# 4 0.0000 0.0000 0.0000 13.4070 0.0000 0.0000
# 5 0.0000 0.0000 0.0000 0.0000 13.1169 0.0000
# 6 0.0000 0.0000 0.0000 0.0000 0.0000 29.1435
#
#
#
# Elastic Compliance Matrix: (Units=1/GPa)
#
#
# Indices 1 2 3 4 5 6 
#
# 1 0.014963 -0.007049 0.003175 0.000000 0.000000 0.000000
# 2 -0.007049 0.015282 -0.007863 0.000000 0.000000 0.000000
# 3 0.003175 -0.007863 0.025906 0.000000 0.000000 0.000000
# 4 0.000000 0.000000 0.000000 0.074588 0.000000 0.000000
# 5 0.000000 0.000000 0.000000 0.000000 0.076237 0.000000
# 6 0.000000 0.000000 0.000000 0.000000 0.000000 0.034313
#
#
# Mechanical properties :
#
#
# Convention : Reuss Voigt Hill
#
# Bulk Modulus (GPa) = 30.60309 40.08447 35.34378
# Shear Modulus (GPa) = 18.13855 21.89029 20.01442
#
# Velocity S-wave (km/s) = 3.18554 3.49952 3.34621
# Velocity P-wave (km/s) = 5.53636 6.22529 5.89090
#
# Compressibility (1/GPa) = 0.03267644
#
# Stress axis : x y z
#
# Youngs Moduli (GPa) = 66.83216 65.43784 38.60051
#
# Poissons Ratio (x) = 0.46130 -0.12256
# Poissons Ratio (y) = 0.47113 0.30351
# Poissons Ratio (z) = -0.21220 0.51453
#
# Static dielectric constant tensor:
#      x y z
#    x 3.328200 0.000000 0.000000 
#    y 0.000000 3.601530 0.000000 
#    z 0.000000 0.000000 3.202450 
# 
# 
# High freq. dielectric constant tensor:
#      x y z
#    x 1.682200 0.000000 0.000000 
#    y 0.000000 1.692150 0.000000 
#    z 0.000000 0.000000 1.662960 
# 
# From -- ./inp_files/6564.got.cif
#   From: 2010.03.12/outbox.cif.g09.slc.cpg/sg38_4_cif.got.tgz:6564.got - 2010.04.14 02:38:36.
