data_PCOD8177783
_publ_section_title
;
Structure prediction by ZEFSAII (Michael W. Deem and Ramdas Pophale) SiO2 
 PCOD8177783
Probable space group: A M M 2
;
_chemical_formula_sum "Si O2"
_cell_formula_units_Z 64
_cell_length_a 8.788782
_cell_length_b 19.637478
_cell_length_c 20.907078
_cell_angle_alpha 90.000000
_cell_angle_beta 90.000000
_cell_angle_gamma 90.000000
_cell_volume 3608.342414
_symmetry_space_group_name_H-M "A M M 2"
_symmetry_group_IT_number 38
_symmetry_cell_setting 'orthorhombic'
loop_
_space_group_symop_operation_xyz
x,y,z
-x,-y,z
-x,y,z
x,-y,z
x,1/2+y,1/2+z
-x,1/2-y,1/2+z
-x,1/2+y,1/2+z
x,1/2-y,1/2+z
loop_
_atom_site_type_symbol
_atom_site_label
_atom_site_fract_x
_atom_site_fract_y
_atom_site_fract_z
Si Si1 0.823380 0.576963 0.636810
Si Si2 0.321330 0.291606 0.592233
Si Si3 0.677429 0.713894 0.827493
Si Si4 0.680732 0.926237 0.891517
Si Si5 0.326267 0.575166 0.770211
Si Si6 0.321838 0.576679 0.245557
Si Si7 0.178940 0.210072 0.707616
Si Si8 0.319470 0.209881 0.950594
O O1 0.784131 0.500000 0.614955
O O2 0.721323 0.628602 0.596083
O O3 0.786259 0.586643 0.711399
O O4 0.000000 0.593859 0.626793
O O5 0.500000 0.282674 0.603607
O O6 0.232528 0.248212 0.644105
O O7 0.269853 0.266540 0.521413
O O8 0.500000 0.731273 0.821672
O O9 0.709043 0.632884 0.822865
O O10 0.756785 0.753984 0.770483
O O11 0.740880 0.737627 0.896656
O O12 0.500000 0.927745 0.893740
O O13 0.731372 0.913433 0.818604
O O14 0.747255 0.865601 0.935204
O O15 0.743958 0.000000 0.915068
O O16 0.500000 0.582649 0.745346
O O17 0.300664 0.500000 0.800711
O O18 0.500000 0.590694 0.238085
O O19 0.282040 0.500000 0.222229
O O20 0.232517 0.631683 0.202928
O O21 0.000000 0.213654 0.710473
O O22 0.500000 0.205788 0.947905
#
# Coordination Sequence:
#
# PCOD8177783 Si02
#       8
#     8   8   8   8   8   8   8   8
#     4  10  20  33  49  72 106 142 174 213 263 317
#     4  11  22  35  52  75 104 142 185 225 258 305
#     4  10  18  33  56  78 103 134 173 224 270 314
#     4   8  13  24  46  76 105 130 161 204 254 307
#     4   9  17  29  50  79 105 132 169 212 261 317
#     4   9  17  32  57  83 106 134 170 216 266 311
#     4  12  23  34  52  78 108 142 177 217 264 314
#     4   9  18  31  50  76 103 134 175 220 267 306
#
# _framework density 17.736675000000002
#
# number of rings (size 3 to 8) (size 9 to 14) (size 15 to 20)
#    0.000    2.250    2.500    2.625    0.000    1.500 
#    0.000    2.500    0.000    0.750    0.000    3.500 
#    0.000    0.000    0.000    0.000    0.000    0.000 
#
# Total GULP energy -396651.556670 kJ/mol
# GULP energy per Si atom -12395.361146 kJ/mol
# Density = 1.769631 g / cm^3
# Si number density = 17.736675 Si / 1000 Ang^3
#
#
#
# Elastic Constant Matrix: (Units=GPa)
#
#
# Indices 1 2 3 4 5 6 
#
# 1 51.2596 32.3748 28.2668 0.0000 0.0000 0.0000
# 2 32.3748 121.6223 64.1747 0.0000 0.0000 0.0000
# 3 28.2668 64.1747 110.9763 0.0000 0.0000 0.0000
# 4 0.0000 0.0000 0.0000 25.3624 0.0000 0.0000
# 5 0.0000 0.0000 0.0000 0.0000 0.3610 0.0000
# 6 0.0000 0.0000 0.0000 0.0000 0.0000 18.6927
#
#
#
# Elastic Compliance Matrix: (Units=1/GPa)
#
#
# Indices 1 2 3 4 5 6 
#
# 1 0.024379 -0.004624 -0.003536 0.000000 0.000000 0.000000
# 2 -0.004624 0.012710 -0.006172 0.000000 0.000000 0.000000
# 3 -0.003536 -0.006172 0.013481 0.000000 0.000000 0.000000
# 4 0.000000 0.000000 0.000000 0.039428 0.000000 0.000000
# 5 0.000000 0.000000 0.000000 0.000000 2.769902 0.000000
# 6 0.000000 0.000000 0.000000 0.000000 0.000000 0.053497
#
#
# Mechanical properties :
#
#
# Convention : Reuss Voigt Hill
#
# Bulk Modulus (GPa) = 45.64950 59.27677 52.46314
# Shear Modulus (GPa) = 1.69528 19.48602 10.59065
#
# Velocity S-wave (km/s) = 0.97871 3.31815 2.44622
# Velocity P-wave (km/s) = 5.20292 6.94069 6.13366
#
# Compressibility (1/GPa) = 0.02190604
#
# Stress axis : x y z
#
# Youngs Moduli (GPa) = 41.01971 78.68046 74.18079
#
# Poissons Ratio (x) = 0.36380 0.26228
# Poissons Ratio (y) = 0.18966 0.45784
# Poissons Ratio (z) = 0.14503 0.48561
#
# Static dielectric constant tensor:
#      x y z
#    x 3.030120 0.000000 0.000000 
#    y 0.000000 3.670000 0.000000 
#    z 0.000000 0.000000 3.244360 
# 
# 
# High freq. dielectric constant tensor:
#      x y z
#    x 1.661220 0.000000 0.000000 
#    y 0.000000 1.696640 0.000000 
#    z 0.000000 0.000000 1.657840 
# 
# From -- ./inp_files/20245.got.cif
#   From: 2010.03.12/outbox.cif.g09.slc.cpg/sg38_11_cif.got.tgz:20245.got - 2010.04.14 02:38:36.
