data_PCOD8177791
_publ_section_title
;
Structure prediction by ZEFSAII (Michael W. Deem and Ramdas Pophale) SiO2 
 PCOD8177791
Probable space group: A M M 2
;
_chemical_formula_sum "Si O2"
_cell_formula_units_Z 48
_cell_length_a 8.811509
_cell_length_b 18.478157
_cell_length_c 14.991952
_cell_angle_alpha 90.000000
_cell_angle_beta 90.000000
_cell_angle_gamma 90.000000
_cell_volume 2440.996322
_symmetry_space_group_name_H-M "A M M 2"
_symmetry_group_IT_number 38
_symmetry_cell_setting 'orthorhombic'
loop_
_space_group_symop_operation_xyz
x,y,z
-x,-y,z
-x,y,z
x,-y,z
x,1/2+y,1/2+z
-x,1/2-y,1/2+z
-x,1/2+y,1/2+z
x,1/2-y,1/2+z
loop_
_atom_site_type_symbol
_atom_site_label
_atom_site_fract_x
_atom_site_fract_y
_atom_site_fract_z
Si Si1 0.676430 0.342477 0.396010
Si Si2 0.173650 0.878683 0.519752
Si Si3 0.826499 0.922389 0.323151
Si Si4 0.324295 0.000000 0.834637
Si Si5 0.179937 0.729668 0.758652
Si Si6 0.324594 0.760250 0.068030
Si Si7 0.821839 0.500000 0.147046
O O1 0.500000 0.328020 0.378745
O O2 0.717792 0.427423 0.388574
O O3 0.761454 0.293799 0.322415
O O4 0.718931 0.323970 0.498621
O O5 0.184222 0.923633 0.429468
O O6 0.286609 0.811443 0.512398
O O7 0.000000 0.852913 0.536801
O O8 0.239485 0.927818 0.599700
O O9 0.749105 0.849195 0.284956
O O10 0.000000 0.921535 0.291491
O O11 0.753722 0.000000 0.290386
O O12 0.500000 0.000000 0.806624
O O13 0.221666 0.000000 0.748454
O O14 0.222671 0.741358 0.656158
O O15 0.000000 0.729650 0.770221
O O16 0.500000 0.763579 0.096033
O O17 0.000000 0.500000 0.133248
#
# Coordination Sequence:
#
# PCOD8177791 Si02
#       7
#     8   8   8   4   8   8   4
#     4  10  22  41  62  82 113 154 194 239 287 338
#     4  10  18  33  57  84 113 145 185 230 281 340
#     4   9  17  33  57  84 115 148 181 228 285 336
#     4  10  22  40  58  77 108 152 195 234 283 338
#     4  11  22  37  62  89 115 149 192 238 285 341
#     4  11  23  38  57  83 116 153 192 235 284 340
#     4  10  20  32  54  87 116 142 179 234 291 340
#
# _framework density 19.664100999999999
#
# number of rings (size 3 to 8) (size 9 to 14) (size 15 to 20)
#    0.000    1.833    2.500    2.000    0.000    4.667 
#    1.500    0.000    0.000    3.500    0.000    0.000 
#    0.000    0.000    0.000    0.000    0.000    0.000 
#
# Total GULP energy -297445.770424 kJ/mol
# GULP energy per Si atom -12393.573768 kJ/mol
# Density = 1.961934 g / cm^3
# Si number density = 19.664101 Si / 1000 Ang^3
#
#
#
# Elastic Constant Matrix: (Units=GPa)
#
#
# Indices 1 2 3 4 5 6 
#
# 1 34.7791 31.1570 25.7940 0.0000 0.0000 0.0000
# 2 31.1570 160.8815 40.3785 0.0000 0.0000 0.0000
# 3 25.7940 40.3785 82.5370 0.0000 0.0000 0.0000
# 4 0.0000 0.0000 0.0000 33.0113 0.0000 0.0000
# 5 0.0000 0.0000 0.0000 0.0000 20.2602 0.0000
# 6 0.0000 0.0000 0.0000 0.0000 0.0000 24.0650
#
#
#
# Elastic Compliance Matrix: (Units=1/GPa)
#
#
# Indices 1 2 3 4 5 6 
#
# 1 0.041181 -0.005409 -0.010223 0.000000 0.000000 0.000000
# 2 -0.005409 0.007796 -0.002124 0.000000 0.000000 0.000000
# 3 -0.010223 -0.002124 0.016350 0.000000 0.000000 0.000000
# 4 0.000000 0.000000 0.000000 0.030293 0.000000 0.000000
# 5 0.000000 0.000000 0.000000 0.000000 0.049358 0.000000
# 6 0.000000 0.000000 0.000000 0.000000 0.000000 0.041554
#
#
# Mechanical properties :
#
#
# Convention : Reuss Voigt Hill
#
# Bulk Modulus (GPa) = 33.54078 52.53960 43.04019
# Shear Modulus (GPa) = 21.55334 27.52516 24.53925
#
# Velocity S-wave (km/s) = 3.31429 3.74540 3.53643
# Velocity P-wave (km/s) = 5.63382 6.74393 6.21372
#
# Compressibility (1/GPa) = 0.02981445
#
# Stress axis : x y z
#
# Youngs Moduli (GPa) = 24.28296 128.26517 61.16361
#
# Poissons Ratio (x) = 0.69384 0.62529
# Poissons Ratio (y) = 0.13136 0.12989
# Poissons Ratio (z) = 0.24825 0.27238
#
# Static dielectric constant tensor:
#      x y z
#    x 3.325910 0.000000 0.000000 
#    y 0.000000 4.004370 0.000000 
#    z 0.000000 0.000000 3.467020 
# 
# 
# High freq. dielectric constant tensor:
#      x y z
#    x 1.738780 0.000000 0.000000 
#    y 0.000000 1.784470 0.000000 
#    z 0.000000 0.000000 1.760150 
# 
# From -- ./inp_files/12063.got.cif
#   From: 2010.03.12/outbox.cif.g09.slc.cpg/sg38_7_cif.got.tgz:12063.got - 2010.04.14 02:38:36.
