data_PCOD8177909
_publ_section_title
;
Structure prediction by ZEFSAII (Michael W. Deem and Ramdas Pophale) SiO2 
 PCOD8177909
Probable space group: A M M 2
;
_chemical_formula_sum "Si O2"
_cell_formula_units_Z 52
_cell_length_a 7.611839
_cell_length_b 17.615482
_cell_length_c 25.058549
_cell_angle_alpha 90.000000
_cell_angle_beta 90.000000
_cell_angle_gamma 90.000000
_cell_volume 3360.005936
_symmetry_space_group_name_H-M "A M M 2"
_symmetry_group_IT_number 38
_symmetry_cell_setting 'orthorhombic'
loop_
_space_group_symop_operation_xyz
x,y,z
-x,-y,z
-x,y,z
x,-y,z
x,1/2+y,1/2+z
-x,1/2-y,1/2+z
-x,1/2+y,1/2+z
x,1/2-y,1/2+z
loop_
_atom_site_type_symbol
_atom_site_label
_atom_site_fract_x
_atom_site_fract_y
_atom_site_fract_z
Si Si1 0.202556 0.911694 0.648430
Si Si2 0.194880 0.274583 0.876928
Si Si3 0.500000 0.088074 0.730584
Si Si4 0.500000 0.589590 0.448274
Si Si5 0.500000 0.180258 0.838341
Si Si6 0.792411 0.333017 0.041707
Si Si7 0.195039 0.815197 0.987144
Si Si8 0.208825 0.416045 0.938642
O O1 0.323954 0.890045 0.698442
O O2 0.275090 0.862593 0.598706
O O3 0.000000 0.892606 0.662691
O O4 0.223392 0.000000 0.633341
O O5 0.328471 0.233676 0.837038
O O6 0.189168 0.231586 0.932830
O O7 0.260415 0.360431 0.889564
O O8 0.000000 0.274084 0.850907
O O9 0.500000 0.131501 0.785695
O O10 0.500000 0.000000 0.744739
O O11 0.500000 0.500000 0.442179
O O12 0.500000 0.625735 0.389599
O O13 0.670768 0.615055 0.481959
O O14 0.000000 0.341992 0.039603
O O15 0.741887 0.244195 0.033029
O O16 0.710893 0.384630 0.994343
O O17 0.000000 0.847546 0.999907
O O18 0.285299 0.500000 0.927391
O O19 0.000000 0.417905 0.943399
#
# Coordination Sequence:
#
# PCOD8177909 Si02
#       8
#     8   8   4   4   4   8   8   8
#     4   9  17  29  44  63  88 114 139 168 198 231
#     4   8  15  27  42  60  81 107 138 169 202 240
#     4  10  21  33  43  58  79 105 142 185 220 242
#     4  10  19  29  43  60  77 105 142 175 212 252
#     4  10  19  32  45  54  74 108 144 182 217 246
#     4   8  13  23  41  63  88 119 143 155 184 237
#     4   8  15  27  41  60  85 108 133 166 199 239
#     4   8  12  20  38  64  92 118 139 158 185 231
#
# _framework density 15.476163
#
# number of rings (size 3 to 8) (size 9 to 14) (size 15 to 20)
#    0.000    3.385    0.000    2.538    0.000    3.385 
#    0.000    1.154    0.000    2.769    0.000    0.000 
#    0.000    4.923    0.000    9.846    0.000    0.000 
#
# Total GULP energy -322198.676685 kJ/mol
# GULP energy per Si atom -12392.256796 kJ/mol
# Density = 1.544094 g / cm^3
# Si number density = 15.476163 Si / 1000 Ang^3
#
#
#
# Elastic Constant Matrix: (Units=GPa)
#
#
# Indices 1 2 3 4 5 6 
#
# 1 83.9397 46.2976 40.2917 0.0000 0.0000 0.0000
# 2 46.2976 99.9104 44.1317 0.0000 0.0000 0.0000
# 3 40.2917 44.1317 78.4868 0.0000 0.0000 0.0000
# 4 0.0000 0.0000 0.0000 28.0436 0.0000 0.0000
# 5 0.0000 0.0000 0.0000 0.0000 14.3807 0.0000
# 6 0.0000 0.0000 0.0000 0.0000 0.0000 13.6116
#
#
#
# Elastic Compliance Matrix: (Units=1/GPa)
#
#
# Indices 1 2 3 4 5 6 
#
# 1 0.017917 -0.005641 -0.006026 0.000000 0.000000 0.000000
# 2 -0.005641 0.015092 -0.005590 0.000000 0.000000 0.000000
# 3 -0.006026 -0.005590 0.018978 0.000000 0.000000 0.000000
# 4 0.000000 0.000000 0.000000 0.035659 0.000000 0.000000
# 5 0.000000 0.000000 0.000000 0.000000 0.069538 0.000000
# 6 0.000000 0.000000 0.000000 0.000000 0.000000 0.073467
#
#
# Mechanical properties :
#
#
# Convention : Reuss Voigt Hill
#
# Bulk Modulus (GPa) = 57.23229 58.19767 57.71498
# Shear Modulus (GPa) = 18.45093 19.98158 19.21625
#
# Velocity S-wave (km/s) = 3.45659 3.59711 3.52755
# Velocity P-wave (km/s) = 7.27956 7.41206 7.34611
#
# Compressibility (1/GPa) = 0.01747265
#
# Stress axis : x y z
#
# Youngs Moduli (GPa) = 55.81247 66.25938 52.69290
#
# Poissons Ratio (x) = 0.37376 0.31753
# Poissons Ratio (y) = 0.31483 0.29457
# Poissons Ratio (z) = 0.33633 0.37041
#
# Static dielectric constant tensor:
#      x y z
#    x 3.152370 0.000000 0.000000 
#    y 0.000000 2.999120 0.000000 
#    z 0.000000 0.000000 2.672740 
# 
# 
# High freq. dielectric constant tensor:
#      x y z
#    x 1.597760 0.000000 0.000000 
#    y 0.000000 1.578600 0.000000 
#    z 0.000000 0.000000 1.545750 
# 
# From -- ./inp_files/16940.got.cif
#   From: 2010.03.12/outbox.cif.g09.slc.cpg/sg38_9_cif.got.tgz:16940.got - 2010.04.14 02:38:36.
