data_PCOD8177304
_publ_section_title
;
Structure prediction by ZEFSAII (Michael W. Deem and Ramdas Pophale) SiO2 
 PCOD8177304
Probable space group: A M M 2
;
_chemical_formula_sum "Si O2"
_cell_formula_units_Z 64
_cell_length_a 8.801475
_cell_length_b 20.996131
_cell_length_c 19.830167
_cell_angle_alpha 90.000000
_cell_angle_beta 90.000000
_cell_angle_gamma 90.000000
_cell_volume 3664.553826
_symmetry_space_group_name_H-M "A M M 2"
_symmetry_group_IT_number 38
_symmetry_cell_setting 'orthorhombic'
loop_
_space_group_symop_operation_xyz
x,y,z
-x,-y,z
-x,y,z
x,-y,z
x,1/2+y,1/2+z
-x,1/2-y,1/2+z
-x,1/2+y,1/2+z
x,1/2-y,1/2+z
loop_
_atom_site_type_symbol
_atom_site_label
_atom_site_fract_x
_atom_site_fract_y
_atom_site_fract_z
Si Si1 0.179191 0.234384 0.287470
Si Si2 0.680790 0.187712 0.157438
Si Si3 0.326340 0.269645 0.926346
Si Si4 0.680375 0.870772 0.785772
Si Si5 0.672793 0.620237 0.431232
Si Si6 0.318884 0.691646 0.070692
Si Si7 0.680021 0.569717 0.148435
Si Si8 0.319191 0.429264 0.568956
O O1 0.244237 0.186657 0.231198
O O2 0.228312 0.210139 0.361594
O O3 0.245659 0.303228 0.270081
O O4 0.000000 0.236279 0.283851
O O5 0.500000 0.189158 0.164740
O O6 0.740071 0.248318 0.114184
O O7 0.739761 0.123055 0.121768
O O8 0.500000 0.288664 0.911499
O O9 0.312838 0.195311 0.942290
O O10 0.263201 0.305008 0.993159
O O11 0.500000 0.858620 0.789992
O O12 0.742693 0.897838 0.857678
O O13 0.725011 0.919006 0.726511
O O14 0.500000 0.597586 0.430191
O O15 0.752195 0.584984 0.494430
O O16 0.500000 0.692790 0.072764
O O17 0.252325 0.625812 0.101688
O O18 0.500000 0.570397 0.141440
O O19 0.744026 0.500000 0.127128
O O20 0.500000 0.423386 0.564349
O O21 0.268459 0.500000 0.591953
#
# Coordination Sequence:
#
# PCOD8177304 Si02
#       8
#     8   8   8   8   8   8   8   8
#     4  11  21  31  46  71  98 124 161 206 242 276
#     4  10  17  30  51  72  96 127 159 193 240 290
#     4   9  16  29  49  70  92 124 161 195 240 292
#     4   9  16  28  47  68  97 133 162 189 231 283
#     4   8  13  22  39  64  92 122 154 184 222 275
#     4   9  15  26  48  72  94 124 159 194 235 282
#     4   9  16  25  42  73 104 126 155 196 236 277
#     4   9  16  25  42  72 103 125 153 197 239 277
#
# _framework density 17.46461
#
# number of rings (size 3 to 8) (size 9 to 14) (size 15 to 20)
#    0.000    2.750    2.500    1.875    0.000    0.500 
#    0.000    3.125    0.000    1.500    0.000    3.500 
#    0.000    0.000    0.000    0.000    0.000    0.000 
#
# Total GULP energy -396551.468244 kJ/mol
# GULP energy per Si atom -12392.233383 kJ/mol
# Density = 1.742486 g / cm^3
# Si number density = 17.464610 Si / 1000 Ang^3
#
#
#
# Elastic Constant Matrix: (Units=GPa)
#
#
# Indices 1 2 3 4 5 6 
#
# 1 30.0564 13.1463 21.6829 0.0000 0.0000 0.0000
# 2 13.1463 113.8779 70.9069 0.0000 0.0000 0.0000
# 3 21.6829 70.9069 130.4411 0.0000 0.0000 0.0000
# 4 0.0000 0.0000 0.0000 24.7201 0.0000 0.0000
# 5 0.0000 0.0000 0.0000 0.0000 4.4370 0.0000
# 6 0.0000 0.0000 0.0000 0.0000 0.0000 2.9355
#
#
#
# Elastic Compliance Matrix: (Units=1/GPa)
#
#
# Indices 1 2 3 4 5 6 
#
# 1 0.037839 -0.000683 -0.005919 0.000000 0.000000 0.000000
# 2 -0.000683 0.013287 -0.007109 0.000000 0.000000 0.000000
# 3 -0.005919 -0.007109 0.012515 0.000000 0.000000 0.000000
# 4 0.000000 0.000000 0.000000 0.040453 0.000000 0.000000
# 5 0.000000 0.000000 0.000000 0.000000 0.225377 0.000000
# 6 0.000000 0.000000 0.000000 0.000000 0.000000 0.340654
#
#
# Mechanical properties :
#
#
# Convention : Reuss Voigt Hill
#
# Bulk Modulus (GPa) = 27.60966 53.98308 40.79637
# Shear Modulus (GPa) = 7.04603 17.66115 12.35359
#
# Velocity S-wave (km/s) = 2.01078 3.18347 2.66249
# Velocity P-wave (km/s) = 4.60806 6.67006 5.73254
#
# Compressibility (1/GPa) = 0.03621920
#
# Stress axis : x y z
#
# Youngs Moduli (GPa) = 26.42756 75.26354 79.90696
#
# Poissons Ratio (x) = 0.05140 0.47295
# Poissons Ratio (y) = 0.01805 0.56806
# Poissons Ratio (z) = 0.15642 0.53505
#
# Static dielectric constant tensor:
#      x y z
#    x 2.666580 0.000000 0.000000 
#    y 0.000000 3.257080 0.000000 
#    z 0.000000 0.000000 3.575420 
# 
# 
# High freq. dielectric constant tensor:
#      x y z
#    x 1.612210 0.000000 0.000000 
#    y 0.000000 1.651520 0.000000 
#    z 0.000000 0.000000 1.688710 
# 
# From -- ./inp_files/20231.got.cif
#   From: 2010.03.12/outbox.cif.g09.slc.cpg/sg38_11_cif.got.tgz:20231.got - 2010.04.14 02:38:36.
