data_PCOD8177654
_publ_section_title
;
Structure prediction by ZEFSAII (Michael W. Deem and Ramdas Pophale) SiO2 
 PCOD8177654
Probable space group: A M M 2
;
_chemical_formula_sum "Si O2"
_cell_formula_units_Z 64
_cell_length_a 8.961566
_cell_length_b 27.589500
_cell_length_c 14.599206
_cell_angle_alpha 90.000000
_cell_angle_beta 90.000000
_cell_angle_gamma 90.000000
_cell_volume 3609.582515
_symmetry_space_group_name_H-M "A M M 2"
_symmetry_group_IT_number 38
_symmetry_cell_setting 'orthorhombic'
loop_
_space_group_symop_operation_xyz
x,y,z
-x,-y,z
-x,y,z
x,-y,z
x,1/2+y,1/2+z
-x,1/2-y,1/2+z
-x,1/2+y,1/2+z
x,1/2-y,1/2+z
loop_
_atom_site_type_symbol
_atom_site_label
_atom_site_fract_x
_atom_site_fract_y
_atom_site_fract_z
Si Si1 0.323068 0.863535 0.399490
Si Si2 0.673704 0.724170 0.564935
Si Si3 0.326324 0.444776 0.759351
Si Si4 0.176781 0.326422 0.071431
Si Si5 0.326571 0.632288 0.451017
Si Si6 0.175253 0.555478 0.572950
Si Si7 0.325401 0.327886 0.258947
Si Si8 0.326973 0.220422 0.271652
O O1 0.500000 0.859941 0.415220
O O2 0.280299 0.912766 0.346517
O O3 0.239104 0.864042 0.496418
O O4 0.255554 0.818669 0.340197
O O5 0.500000 0.736790 0.549361
O O6 0.765470 0.772849 0.546130
O O7 0.728935 0.682402 0.496534
O O8 0.703982 0.704708 0.667187
O O9 0.500000 0.438748 0.737315
O O10 0.282902 0.500000 0.782691
O O11 0.241409 0.426076 0.669138
O O12 0.236077 0.345088 0.169663
O O13 0.000000 0.326897 0.072209
O O14 0.500000 0.624732 0.473521
O O15 0.236595 0.586828 0.488948
O O16 0.297414 0.634993 0.341982
O O17 0.223146 0.500000 0.555168
O O18 0.000000 0.561648 0.577411
O O19 0.500000 0.324199 0.233086
O O20 0.265358 0.274627 0.288888
O O21 0.500000 0.219996 0.293863
#
# Coordination Sequence:
#
# PCOD8177654 Si02
#       8
#     8   8   8   8   8   8   8   8
#     4  10  18  31  52  73  96 129 167 207 250 292
#     4   9  17  32  51  72 100 131 164 202 247 295
#     4   9  18  33  54  79 103 128 164 208 248 290
#     4  11  22  33  46  69 101 135 169 204 245 296
#     4  10  19  32  55  79  96 125 172 216 248 286
#     4  10  21  35  51  75 109 141 161 188 242 304
#     4   9  18  33  50  69  95 128 168 211 250 287
#     4   8  14  26  47  71  94 124 159 192 232 289
#
# _framework density 17.730582999999999
#
# number of rings (size 3 to 8) (size 9 to 14) (size 15 to 20)
#    0.000    2.500    0.000    3.750    0.000    6.250 
#    0.000    5.000    0.000    0.750    0.000    1.750 
#    0.000    0.000    0.000    0.000    0.000    0.000 
#
# Total GULP energy -396788.081888 kJ/mol
# GULP energy per Si atom -12399.627559 kJ/mol
# Density = 1.769023 g / cm^3
# Si number density = 17.730583 Si / 1000 Ang^3
#
#
#
# Elastic Constant Matrix: (Units=GPa)
#
#
# Indices 1 2 3 4 5 6 
#
# 1 67.9265 39.4847 49.7480 0.0000 0.0000 0.0000
# 2 39.4847 77.1634 64.7999 0.0000 0.0000 0.0000
# 3 49.7480 64.7999 124.9253 0.0000 0.0000 0.0000
# 4 0.0000 0.0000 0.0000 28.8993 0.0000 0.0000
# 5 0.0000 0.0000 0.0000 0.0000 14.0733 0.0000
# 6 0.0000 0.0000 0.0000 0.0000 0.0000 18.8111
#
#
#
# Elastic Compliance Matrix: (Units=1/GPa)
#
#
# Indices 1 2 3 4 5 6 
#
# 1 0.022821 -0.007168 -0.005370 0.000000 0.000000 0.000000
# 2 -0.007168 0.025213 -0.010224 0.000000 0.000000 0.000000
# 3 -0.005370 -0.010224 0.015446 0.000000 0.000000 0.000000
# 4 0.000000 0.000000 0.000000 0.034603 0.000000 0.000000
# 5 0.000000 0.000000 0.000000 0.000000 0.071057 0.000000
# 6 0.000000 0.000000 0.000000 0.000000 0.000000 0.053160
#
#
# Mechanical properties :
#
#
# Convention : Reuss Voigt Hill
#
# Bulk Modulus (GPa) = 55.68790 64.23115 59.95952
# Shear Modulus (GPa) = 18.26085 20.08890 19.17487
#
# Velocity S-wave (km/s) = 3.21270 3.36967 3.29212
# Velocity P-wave (km/s) = 6.72591 7.17248 6.95278
#
# Compressibility (1/GPa) = 0.01795722
#
# Stress axis : x y z
#
# Youngs Moduli (GPa) = 43.81872 39.66171 64.74094
#
# Poissons Ratio (x) = 0.28431 0.34763
# Poissons Ratio (y) = 0.31411 0.66189
# Poissons Ratio (z) = 0.23529 0.40549
#
# Static dielectric constant tensor:
#      x y z
#    x 3.030800 0.000000 0.000000 
#    y 0.000000 3.234910 0.000000 
#    z 0.000000 0.000000 3.386210 
# 
# 
# High freq. dielectric constant tensor:
#      x y z
#    x 1.661810 0.000000 0.000000 
#    y 0.000000 1.665020 0.000000 
#    z 0.000000 0.000000 1.690640 
# 
# From -- ./inp_files/12814.got.cif
#   From: 2010.03.12/outbox.cif.g09.slc.cpg/sg38_7_cif.got.tgz:12814.got - 2010.04.14 02:38:36.
