data_PCOD8177928
_publ_section_title
;
Structure prediction by ZEFSAII (Michael W. Deem and Ramdas Pophale) SiO2 
 PCOD8177928
Probable space group: A M M 2
;
_chemical_formula_sum "Si O2"
_cell_formula_units_Z 64
_cell_length_a 20.890913
_cell_length_b 9.115564
_cell_length_c 19.594823
_cell_angle_alpha 90.000000
_cell_angle_beta 90.000000
_cell_angle_gamma 90.000000
_cell_volume 3731.490239
_symmetry_space_group_name_H-M "A M M 2"
_symmetry_group_IT_number 38
_symmetry_cell_setting 'orthorhombic'
loop_
_space_group_symop_operation_xyz
x,y,z
-x,-y,z
-x,y,z
x,-y,z
x,1/2+y,1/2+z
-x,1/2-y,1/2+z
-x,1/2+y,1/2+z
x,1/2-y,1/2+z
loop_
_atom_site_type_symbol
_atom_site_label
_atom_site_fract_x
_atom_site_fract_y
_atom_site_fract_z
Si Si1 0.570580 0.828714 0.476630
Si Si2 0.178123 0.326283 0.977955
Si Si3 0.176488 0.672198 0.821598
Si Si4 0.070387 0.174056 0.220788
Si Si5 0.694477 0.166490 0.982264
Si Si6 0.074604 0.169606 0.066406
Si Si7 0.298039 0.662366 0.319704
Si Si8 0.568089 0.332022 0.336880
O O1 0.500000 0.796911 0.510260
O O2 0.629326 0.740664 0.512345
O O3 0.566518 0.782116 0.398212
O O4 0.587066 0.000000 0.480625
O O5 0.185135 0.500000 0.984351
O O6 0.242411 0.252607 0.008306
O O7 0.116054 0.272730 0.018075
O O8 0.167165 0.277311 0.899460
O O9 0.176207 0.500000 0.814362
O O10 0.120397 0.741412 0.775023
O O11 0.244690 0.726798 0.792412
O O12 0.090327 0.216413 0.144012
O O13 0.000000 0.238379 0.237764
O O14 0.067782 0.000000 0.226890
O O15 0.698337 0.000000 0.009023
O O16 0.693010 0.175295 0.900833
O O17 0.000000 0.196261 0.050275
O O18 0.092583 0.000000 0.053712
O O19 0.275693 0.500000 0.298417
O O20 0.369244 0.699886 0.289386
O O21 0.500000 0.317005 0.296373
O O22 0.575138 0.500000 0.365151
#
# Coordination Sequence:
#
# PCOD8177928 Si02
#       8
#     8   8   8   8   8   8   8   8
#     4   9  15  21  31  50  77 108 142 181 223 262
#     4  10  19  29  44  68  95 118 142 179 226 270
#     4   9  17  28  44  65  87 113 144 178 215 257
#     4   8  15  30  50  67  83 109 147 183 211 247
#     4   9  16  26  39  54  78 114 151 182 213 257
#     4   9  18  33  51  67  85 113 147 180 214 258
#     4   8  14  23  35  53  79 109 138 173 215 254
#     4   8  13  21  32  46  68 104 147 180 207 249
#
# _framework density 17.151323999999999
#
# number of rings (size 3 to 8) (size 9 to 14) (size 15 to 20)
#    0.000    3.250    0.000    2.625    0.000    5.000 
#    0.000    1.875    0.000    1.125    0.000    0.000 
#    0.000    1.000    0.000    8.000    0.000    6.375 
#
# Total GULP energy -396423.852462 kJ/mol
# GULP energy per Si atom -12388.245389 kJ/mol
# Density = 1.711229 g / cm^3
# Si number density = 17.151324 Si / 1000 Ang^3
#
#
#
# Elastic Constant Matrix: (Units=GPa)
#
#
# Indices 1 2 3 4 5 6 
#
# 1 161.0015 49.3974 50.3602 0.0000 0.0000 0.0000
# 2 49.3974 60.9014 22.0235 0.0000 0.0000 0.0000
# 3 50.3602 22.0235 38.1528 0.0000 0.0000 0.0000
# 4 0.0000 0.0000 0.0000 11.0493 0.0000 0.0000
# 5 0.0000 0.0000 0.0000 0.0000 2.0275 0.0000
# 6 0.0000 0.0000 0.0000 0.0000 0.0000 33.1301
#
#
#
# Elastic Compliance Matrix: (Units=1/GPa)
#
#
# Indices 1 2 3 4 5 6 
#
# 1 0.011634 -0.004908 -0.012524 0.000000 0.000000 0.000000
# 2 -0.004908 0.022822 -0.006696 0.000000 0.000000 0.000000
# 3 -0.012524 -0.006696 0.046607 0.000000 0.000000 0.000000
# 4 0.000000 0.000000 0.000000 0.090503 0.000000 0.000000
# 5 0.000000 0.000000 0.000000 0.000000 0.493215 0.000000
# 6 0.000000 0.000000 0.000000 0.000000 0.000000 0.030184
#
#
# Mechanical properties :
#
#
# Convention : Reuss Voigt Hill
#
# Bulk Modulus (GPa) = 30.48047 55.95754 43.21900
# Shear Modulus (GPa) = 6.62992 18.45968 12.54480
#
# Velocity S-wave (km/s) = 1.96823 3.28423 2.70741
# Velocity P-wave (km/s) = 4.79326 6.86136 5.91834
#
# Compressibility (1/GPa) = 0.03280789
#
# Stress axis : x y z
#
# Youngs Moduli (GPa) = 85.95349 43.81722 21.45620
#
# Poissons Ratio (x) = 0.21504 0.26871
# Poissons Ratio (y) = 0.42183 0.14367
# Poissons Ratio (z) = 1.07646 0.29340
#
# Static dielectric constant tensor:
#      x y z
#    x 3.898110 0.000000 0.000000 
#    y 0.000000 3.104290 0.000000 
#    z 0.000000 0.000000 2.686170 
# 
# 
# High freq. dielectric constant tensor:
#      x y z
#    x 1.691250 0.000000 0.000000 
#    y 0.000000 1.653580 0.000000 
#    z 0.000000 0.000000 1.584340 
# 
# From -- ./inp_files/23133.got.cif
#   From: 2010.03.12/outbox.cif.g09.slc.cpg/sg38_12_cif.got.tgz:23133.got - 2010.04.14 02:38:36.
