data_PCOD8177214
_publ_section_title
;
Structure prediction by ZEFSAII (Michael W. Deem and Ramdas Pophale) SiO2 
 PCOD8177214
Probable space group: A M M 2
;
_chemical_formula_sum "Si O2"
_cell_formula_units_Z 48
_cell_length_a 8.642071
_cell_length_b 16.609169
_cell_length_c 18.286209
_cell_angle_alpha 90.000000
_cell_angle_beta 90.000000
_cell_angle_gamma 90.000000
_cell_volume 2624.758878
_symmetry_space_group_name_H-M "A M M 2"
_symmetry_group_IT_number 38
_symmetry_cell_setting 'orthorhombic'
loop_
_space_group_symop_operation_xyz
x,y,z
-x,-y,z
-x,y,z
x,-y,z
x,1/2+y,1/2+z
-x,1/2-y,1/2+z
-x,1/2+y,1/2+z
x,1/2-y,1/2+z
loop_
_atom_site_type_symbol
_atom_site_label
_atom_site_fract_x
_atom_site_fract_y
_atom_site_fract_z
Si Si1 0.820604 0.163044 0.422510
Si Si2 0.318139 0.176492 0.578698
Si Si3 0.179360 0.500000 0.840688
Si Si4 0.819937 0.092859 0.717015
Si Si5 0.319147 0.500000 0.685694
Si Si6 0.682835 0.172074 0.165350
Si Si7 0.317437 0.269703 0.303884
O O1 0.774395 0.155194 0.506534
O O2 0.777756 0.077834 0.387686
O O3 0.729808 0.235963 0.383138
O O4 0.000000 0.182831 0.415756
O O5 0.500000 0.168673 0.564370
O O6 0.272562 0.116486 0.643820
O O7 0.270528 0.268026 0.600240
O O8 0.290880 0.500000 0.771759
O O9 0.000000 0.500000 0.816589
O O10 0.761749 0.144369 0.786766
O O11 0.000000 0.109223 0.703043
O O12 0.786741 0.000000 0.735202
O O13 0.500000 0.500000 0.670250
O O14 0.246472 0.417650 0.651538
O O15 0.500000 0.165702 0.171925
O O16 0.744026 0.206717 0.242673
O O17 0.500000 0.282455 0.300235
#
# Coordination Sequence:
#
# PCOD8177214 Si02
#       7
#     8   8   4   8   4   8   8
#     4  11  22  36  53  77 111 148 181 219 272 327
#     4  10  21  36  53  78 110 143 183 225 270 323
#     4  10  22  34  48  78 112 137 172 219 264 320
#     4  10  21  37  57  81 109 142 180 223 273 329
#     4  10  16  30  56  80 104 133 170 213 264 318
#     4   8  16  30  51  78 104 132 170 216 259 310
#     4  10  19  34  56  81 107 139 181 224 267 321
#
# _framework density 18.287393999999999
#
# number of rings (size 3 to 8) (size 9 to 14) (size 15 to 20)
#    0.000    2.167    1.667    3.000    1.167    2.000 
#    0.000    0.833    1.833    0.000    0.000    0.000 
#    0.000    0.000    0.000    0.000    0.000    0.000 
#
# Total GULP energy -297551.776642 kJ/mol
# GULP energy per Si atom -12397.990693 kJ/mol
# Density = 1.824577 g / cm^3
# Si number density = 18.287394 Si / 1000 Ang^3
#
#
#
# Elastic Constant Matrix: (Units=GPa)
#
#
# Indices 1 2 3 4 5 6 
#
# 1 39.7673 35.6936 10.6931 0.0000 0.0000 0.0000
# 2 35.6936 138.5767 27.0327 0.0000 0.0000 0.0000
# 3 10.6931 27.0327 54.1862 0.0000 0.0000 0.0000
# 4 0.0000 0.0000 0.0000 21.7782 0.0000 0.0000
# 5 0.0000 0.0000 0.0000 0.0000 26.3407 0.0000
# 6 0.0000 0.0000 0.0000 0.0000 0.0000 23.8678
#
#
#
# Elastic Compliance Matrix: (Units=1/GPa)
#
#
# Indices 1 2 3 4 5 6 
#
# 1 0.033015 -0.008013 -0.002518 0.000000 0.000000 0.000000
# 2 -0.008013 0.009939 -0.003377 0.000000 0.000000 0.000000
# 3 -0.002518 -0.003377 0.020637 0.000000 0.000000 0.000000
# 4 0.000000 0.000000 0.000000 0.045918 0.000000 0.000000
# 5 0.000000 0.000000 0.000000 0.000000 0.037964 0.000000
# 6 0.000000 0.000000 0.000000 0.000000 0.000000 0.041897
#
#
# Mechanical properties :
#
#
# Convention : Reuss Voigt Hill
#
# Bulk Modulus (GPa) = 27.95219 42.15213 35.05216
# Shear Modulus (GPa) = 21.82357 25.00471 23.41414
#
# Velocity S-wave (km/s) = 3.45826 3.70174 3.58207
# Velocity P-wave (km/s) = 5.59144 6.43198 6.02638
#
# Compressibility (1/GPa) = 0.03577537
#
# Stress axis : x y z
#
# Youngs Moduli (GPa) = 30.28908 100.61516 48.45771
#
# Poissons Ratio (x) = 0.80620 0.12201
# Poissons Ratio (y) = 0.24270 0.16365
# Poissons Ratio (z) = 0.07626 0.33979
#
# Static dielectric constant tensor:
#      x y z
#    x 3.279790 0.000000 0.000000 
#    y 0.000000 3.854660 0.000000 
#    z 0.000000 0.000000 3.146130 
# 
# 
# High freq. dielectric constant tensor:
#      x y z
#    x 1.703810 0.000000 0.000000 
#    y 0.000000 1.719310 0.000000 
#    z 0.000000 0.000000 1.684190 
# 
# From -- ./inp_files/16693.got.cif
#   From: 2010.03.12/outbox.cif.g09.slc.cpg/sg38_9_cif.got.tgz:16693.got - 2010.04.14 02:38:36.
