data_PCOD8177332
_publ_section_title
;
Structure prediction by ZEFSAII (Michael W. Deem and Ramdas Pophale) SiO2 
 PCOD8177332
Probable space group: A M M 2
;
_chemical_formula_sum "Si O2"
_cell_formula_units_Z 64
_cell_length_a 15.910917
_cell_length_b 21.630334
_cell_length_c 9.399235
_cell_angle_alpha 90.000000
_cell_angle_beta 90.000000
_cell_angle_gamma 90.000000
_cell_volume 3234.826139
_symmetry_space_group_name_H-M "A M M 2"
_symmetry_group_IT_number 38
_symmetry_cell_setting 'orthorhombic'
loop_
_space_group_symop_operation_xyz
x,y,z
-x,-y,z
-x,y,z
x,-y,z
x,1/2+y,1/2+z
-x,1/2-y,1/2+z
-x,1/2+y,1/2+z
x,1/2-y,1/2+z
loop_
_atom_site_type_symbol
_atom_site_label
_atom_site_fract_x
_atom_site_fract_y
_atom_site_fract_z
Si Si1 0.201564 0.651405 0.639700
Si Si2 0.594948 0.807926 0.539530
Si Si3 0.097932 0.357093 0.891924
Si Si4 0.690131 0.754126 0.786622
Si Si5 0.255720 0.611886 0.363837
Si Si6 0.906620 0.113800 0.710765
Si Si7 0.907202 0.779262 0.915496
Si Si8 0.404809 0.930825 0.680013
O O1 0.155838 0.612883 0.767373
O O2 0.261829 0.705502 0.690586
O O3 0.252911 0.604177 0.535748
O O4 0.129793 0.679631 0.540302
O O5 0.500000 0.793660 0.493525
O O6 0.611547 0.778904 0.694835
O O7 0.658141 0.780179 0.426349
O O8 0.611495 0.882038 0.552736
O O9 0.136713 0.287187 0.893178
O O10 0.000000 0.360570 0.849474
O O11 0.113656 0.389358 0.042899
O O12 0.747521 0.813328 0.830721
O O13 0.172210 0.580882 0.290939
O O14 0.340252 0.579929 0.309673
O O15 0.910158 0.184411 0.765079
O O16 0.000000 0.083420 0.739167
O O17 0.000000 0.762335 0.968672
O O18 0.500000 0.921990 0.739220
O O19 0.392371 0.000000 0.619137
#
# Coordination Sequence:
#
# PCOD8177332 Si02
#       8
#     8   8   8   8   8   8   8   8
#     4  11  19  27  41  69 108 143 178 221 265 327
#     4  10  21  36  55  79 109 144 181 225 282 346
#     4  10  18  25  38  61  96 145 187 218 257 311
#     4  11  20  32  48  79 113 146 178 222 276 343
#     4  10  20  33  52  80 110 148 186 228 278 328
#     4   9  18  29  43  68 104 145 188 226 268 325
#     4   9  16  26  38  56  94 147 193 223 253 306
#     4   9  20  40  65  87 106 138 189 242 286 337
#
# _framework density 19.784680999999999
#
# number of rings (size 3 to 8) (size 9 to 14) (size 15 to 20)
#    0.000    2.125    1.250    3.750    3.500    3.000 
#    0.000    0.000    0.000    1.125    0.000    1.750 
#    0.000    0.000    0.000    0.000    0.000    0.000 
#
# Total GULP energy -396524.374886 kJ/mol
# GULP energy per Si atom -12391.386715 kJ/mol
# Density = 1.973965 g / cm^3
# Si number density = 19.784681 Si / 1000 Ang^3
#
#
#
# Elastic Constant Matrix: (Units=GPa)
#
#
# Indices 1 2 3 4 5 6 
#
# 1 95.4567 24.6148 45.6226 0.0000 0.0000 0.0000
# 2 24.6148 48.2997 22.6007 0.0000 0.0000 0.0000
# 3 45.6226 22.6007 110.3090 0.0000 0.0000 0.0000
# 4 0.0000 0.0000 0.0000 8.8612 0.0000 0.0000
# 5 0.0000 0.0000 0.0000 0.0000 32.0114 0.0000
# 6 0.0000 0.0000 0.0000 0.0000 0.0000 10.4468
#
#
#
# Elastic Compliance Matrix: (Units=1/GPa)
#
#
# Indices 1 2 3 4 5 6 
#
# 1 0.014035 -0.004907 -0.004799 0.000000 0.000000 0.000000
# 2 -0.004907 0.024615 -0.003014 0.000000 0.000000 0.000000
# 3 -0.004799 -0.003014 0.011668 0.000000 0.000000 0.000000
# 4 0.000000 0.000000 0.000000 0.112851 0.000000 0.000000
# 5 0.000000 0.000000 0.000000 0.000000 0.031239 0.000000
# 6 0.000000 0.000000 0.000000 0.000000 0.000000 0.095723
#
#
# Mechanical properties :
#
#
# Convention : Reuss Voigt Hill
#
# Bulk Modulus (GPa) = 40.19653 48.86018 44.52836
# Shear Modulus (GPa) = 15.43858 21.01236 18.22547
#
# Velocity S-wave (km/s) = 2.79647 3.26245 3.03841
# Velocity P-wave (km/s) = 5.54870 6.24027 5.90462
#
# Compressibility (1/GPa) = 0.02487777
#
# Stress axis : x y z
#
# Youngs Moduli (GPa) = 71.25001 40.62561 85.70511
#
# Poissons Ratio (x) = 0.19935 0.41133
# Poissons Ratio (y) = 0.34962 0.25830
# Poissons Ratio (z) = 0.34196 0.12244
#
# Static dielectric constant tensor:
#      x y z
#    x 3.827880 0.000000 0.000000 
#    y 0.000000 3.144280 0.000000 
#    z 0.000000 0.000000 3.744820 
# 
# 
# High freq. dielectric constant tensor:
#      x y z
#    x 1.791390 0.000000 0.000000 
#    y 0.000000 1.707780 0.000000 
#    z 0.000000 0.000000 1.767520 
# 
# From -- ./inp_files/6552.got.cif
#   From: 2010.03.12/outbox.cif.g09.slc.cpg/sg38_4_cif.got.tgz:6552.got - 2010.04.14 02:38:36.
