data_PCOD8177336
_publ_section_title
;
Structure prediction by ZEFSAII (Michael W. Deem and Ramdas Pophale) SiO2 
 PCOD8177336
Probable space group: A M M 2
;
_chemical_formula_sum "Si O2"
_cell_formula_units_Z 64
_cell_length_a 9.145539
_cell_length_b 18.525747
_cell_length_c 26.247994
_cell_angle_alpha 90.000000
_cell_angle_beta 90.000000
_cell_angle_gamma 90.000000
_cell_volume 4447.143597
_symmetry_space_group_name_H-M "A M M 2"
_symmetry_group_IT_number 38
_symmetry_cell_setting 'orthorhombic'
loop_
_space_group_symop_operation_xyz
x,y,z
-x,-y,z
-x,y,z
x,-y,z
x,1/2+y,1/2+z
-x,1/2-y,1/2+z
-x,1/2+y,1/2+z
x,1/2-y,1/2+z
loop_
_atom_site_type_symbol
_atom_site_label
_atom_site_fract_x
_atom_site_fract_y
_atom_site_fract_z
Si Si1 0.669587 0.921434 0.331600
Si Si2 0.327181 0.168546 0.234010
Si Si3 0.829921 0.418218 0.531981
Si Si4 0.830778 0.918139 0.849238
Si Si5 0.168860 0.214907 0.788427
Si Si6 0.667790 0.152446 0.943137
Si Si7 0.830318 0.417238 0.648982
Si Si8 0.666797 0.717918 0.879280
O O1 0.500000 0.935240 0.323637
O O2 0.728292 0.882211 0.280504
O O3 0.696191 0.868960 0.380939
O O4 0.746618 0.000000 0.339436
O O5 0.500000 0.174036 0.230610
O O6 0.263294 0.249570 0.242797
O O7 0.267500 0.136466 0.181726
O O8 0.781297 0.500000 0.519310
O O9 0.743524 0.362675 0.496743
O O10 0.794628 0.399914 0.590367
O O11 0.000000 0.408982 0.520755
O O12 0.799984 0.870473 0.798092
O O13 0.735889 0.893650 0.897393
O O14 0.000000 0.910233 0.865391
O O15 0.790148 0.000000 0.835093
O O16 0.213127 0.250833 0.841570
O O17 0.000000 0.229969 0.776471
O O18 0.500000 0.129591 0.947345
O O19 0.683924 0.239179 0.932487
O O20 0.789134 0.500000 0.661526
O O21 0.000000 0.403599 0.660828
O O22 0.500000 0.729965 0.858056
#
# Coordination Sequence:
#
# PCOD8177336 Si02
#       8
#     8   8   8   8   8   8   8   8
#     4   8  13  22  37  55  74  99 129 155 181 219
#     4  10  18  27  40  58  81 106 131 160 195 234
#     4   9  18  31  43  55  75 103 133 165 198 230
#     4   9  17  28  41  57  78 105 136 167 197 231
#     4   9  16  26  40  56  75 102 134 163 192 230
#     4  10  18  26  38  57  80 105 132 162 198 237
#     4   9  18  31  44  58  77 101 131 167 201 231
#     4   8  15  26  37  53  78 102 126 161 198 229
#
# _framework density 14.391261
#
# number of rings (size 3 to 8) (size 9 to 14) (size 15 to 20)
#    0.000    3.000    0.000    3.375    0.000    4.250 
#    0.000    1.250    0.000    3.375    0.000    0.000 
#    0.000    1.000    0.000    5.750    0.000    3.500 
#
# Total GULP energy -396456.964545 kJ/mol
# GULP energy per Si atom -12389.280142 kJ/mol
# Density = 1.435851 g / cm^3
# Si number density = 14.391261 Si / 1000 Ang^3
#
#
#
# Elastic Constant Matrix: (Units=GPa)
#
#
# Indices 1 2 3 4 5 6 
#
# 1 59.2108 38.9533 40.7340 0.0000 0.0000 0.0000
# 2 38.9533 106.7799 52.2174 0.0000 0.0000 0.0000
# 3 40.7340 52.2174 73.7343 0.0000 0.0000 0.0000
# 4 0.0000 0.0000 0.0000 25.9757 0.0000 0.0000
# 5 0.0000 0.0000 0.0000 0.0000 20.4261 0.0000
# 6 0.0000 0.0000 0.0000 0.0000 0.0000 16.8813
#
#
#
# Elastic Compliance Matrix: (Units=1/GPa)
#
#
# Indices 1 2 3 4 5 6 
#
# 1 0.028373 -0.004108 -0.012765 0.000000 0.000000 0.000000
# 2 -0.004108 0.014921 -0.008298 0.000000 0.000000 0.000000
# 3 -0.012765 -0.008298 0.026491 0.000000 0.000000 0.000000
# 4 0.000000 0.000000 0.000000 0.038497 0.000000 0.000000
# 5 0.000000 0.000000 0.000000 0.000000 0.048957 0.000000
# 6 0.000000 0.000000 0.000000 0.000000 0.000000 0.059237
#
#
# Mechanical properties :
#
#
# Convention : Reuss Voigt Hill
#
# Bulk Modulus (GPa) = 51.43190 55.94827 53.69009
# Shear Modulus (GPa) = 18.29491 19.84464 19.06978
#
# Velocity S-wave (km/s) = 3.56933 3.71743 3.64413
# Velocity P-wave (km/s) = 7.26655 7.57540 7.42258
#
# Compressibility (1/GPa) = 0.01944319
#
# Stress axis : x y z
#
# Youngs Moduli (GPa) = 35.24440 67.01797 37.74928
#
# Poissons Ratio (x) = 0.27531 0.48188
# Poissons Ratio (y) = 0.14479 0.31323
# Poissons Ratio (z) = 0.44991 0.55609
#
# Static dielectric constant tensor:
#      x y z
#    x 2.783390 0.000000 0.000000 
#    y 0.000000 3.133960 0.000000 
#    z 0.000000 0.000000 2.595810 
# 
# 
# High freq. dielectric constant tensor:
#      x y z
#    x 1.551200 0.000000 0.000000 
#    y 0.000000 1.544670 0.000000 
#    z 0.000000 0.000000 1.512590 
# 
# From -- ./inp_files/20255.got.cif
#   From: 2010.03.12/outbox.cif.g09.slc.cpg/sg38_11_cif.got.tgz:20255.got - 2010.04.14 02:38:36.
