data_PCOD8177777
_publ_section_title
;
Structure prediction by ZEFSAII (Michael W. Deem and Ramdas Pophale) SiO2 
 PCOD8177777
Probable space group: A M M 2
;
_chemical_formula_sum "Si O2"
_cell_formula_units_Z 64
_cell_length_a 9.003269
_cell_length_b 19.552018
_cell_length_c 20.749850
_cell_angle_alpha 90.000000
_cell_angle_beta 90.000000
_cell_angle_gamma 90.000000
_cell_volume 3652.639204
_symmetry_space_group_name_H-M "A M M 2"
_symmetry_group_IT_number 38
_symmetry_cell_setting 'orthorhombic'
loop_
_space_group_symop_operation_xyz
x,y,z
-x,-y,z
-x,y,z
x,-y,z
x,1/2+y,1/2+z
-x,1/2-y,1/2+z
-x,1/2+y,1/2+z
x,1/2-y,1/2+z
loop_
_atom_site_type_symbol
_atom_site_label
_atom_site_fract_x
_atom_site_fract_y
_atom_site_fract_z
Si Si1 0.669894 0.576136 0.619690
Si Si2 0.326707 0.713045 0.552218
Si Si3 0.175823 0.215447 0.299777
Si Si4 0.823580 0.201530 0.921998
Si Si5 0.672449 0.421753 0.363226
Si Si6 0.830877 0.076353 0.731082
Si Si7 0.824327 0.074625 0.252662
Si Si8 0.172245 0.213543 0.668552
O O1 0.500000 0.582784 0.642561
O O2 0.700889 0.500000 0.591274
O O3 0.706603 0.632993 0.566300
O O4 0.771322 0.590935 0.680935
O O5 0.500000 0.726689 0.542194
O O6 0.239942 0.733411 0.487620
O O7 0.270451 0.760714 0.609752
O O8 0.239669 0.252297 0.363131
O O9 0.229558 0.135873 0.299500
O O10 0.231191 0.252093 0.234596
O O11 0.000000 0.220736 0.302082
O O12 0.763726 0.124708 0.912892
O O13 0.000000 0.201131 0.925227
O O14 0.500000 0.403261 0.368782
O O15 0.703467 0.500000 0.382591
O O16 0.723808 0.407527 0.290478
O O17 0.803380 0.131568 0.674735
O O18 0.000000 0.083475 0.756775
O O19 0.801534 0.000000 0.703367
O O20 0.000000 0.073746 0.249980
O O21 0.764162 0.000000 0.276223
O O22 0.000000 0.231789 0.655885
#
# Coordination Sequence:
#
# PCOD8177777 Si02
#       8
#     8   8   8   8   8   8   8   8
#     4   9  18  32  48  68  99 135 166 198 241 294
#     4  11  23  36  50  75 106 139 176 215 260 315
#     4   9  17  31  52  78 103 128 167 214 260 300
#     4  11  22  37  54  73 101 141 180 220 263 309
#     4  10  20  33  50  75 108 141 172 211 260 314
#     4   9  17  31  53  79 105 135 174 216 258 310
#     4   9  16  28  50  77 102 127 160 204 250 299
#     4  10  18  33  55  78 104 135 171 217 262 306
#
# _framework density 17.521577000000001
#
# number of rings (size 3 to 8) (size 9 to 14) (size 15 to 20)
#    0.000    2.250    2.500    1.125    0.000    2.250 
#    0.000    2.500    0.000    0.750    0.000    3.500 
#    0.000    0.000    0.000    0.000    0.000    0.000 
#
# Total GULP energy -396715.532434 kJ/mol
# GULP energy per Si atom -12397.360389 kJ/mol
# Density = 1.748170 g / cm^3
# Si number density = 17.521577 Si / 1000 Ang^3
#
#
#
# Elastic Constant Matrix: (Units=GPa)
#
#
# Indices 1 2 3 4 5 6 
#
# 1 56.2882 35.7372 38.1888 0.0000 0.0000 0.0000
# 2 35.7372 109.1739 60.0971 0.0000 0.0000 0.0000
# 3 38.1888 60.0971 110.1077 0.0000 0.0000 0.0000
# 4 0.0000 0.0000 0.0000 22.9456 0.0000 0.0000
# 5 0.0000 0.0000 0.0000 0.0000 18.8489 0.0000
# 6 0.0000 0.0000 0.0000 0.0000 0.0000 21.5795
#
#
#
# Elastic Compliance Matrix: (Units=1/GPa)
#
#
# Indices 1 2 3 4 5 6 
#
# 1 0.024914 -0.004858 -0.005989 0.000000 0.000000 0.000000
# 2 -0.004858 0.014041 -0.005979 0.000000 0.000000 0.000000
# 3 -0.005989 -0.005979 0.014422 0.000000 0.000000 0.000000
# 4 0.000000 0.000000 0.000000 0.043581 0.000000 0.000000
# 5 0.000000 0.000000 0.000000 0.000000 0.053054 0.000000
# 6 0.000000 0.000000 0.000000 0.000000 0.000000 0.046340
#
#
# Mechanical properties :
#
#
# Convention : Reuss Voigt Hill
#
# Bulk Modulus (GPa) = 50.69755 60.40177 55.54966
# Shear Modulus (GPa) = 21.13453 22.11123 21.62288
#
# Velocity S-wave (km/s) = 3.47681 3.55624 3.51675
# Velocity P-wave (km/s) = 6.71675 7.17008 6.94711
#
# Compressibility (1/GPa) = 0.01972482
#
# Stress axis : x y z
#
# Youngs Moduli (GPa) = 40.13869 71.21927 69.33671
#
# Poissons Ratio (x) = 0.34602 0.41526
# Poissons Ratio (y) = 0.19501 0.41454
# Poissons Ratio (z) = 0.24039 0.42579
#
# Static dielectric constant tensor:
#      x y z
#    x 3.167350 0.000000 0.000000 
#    y 0.000000 3.687660 0.000000 
#    z 0.000000 0.000000 3.034070 
# 
# 
# High freq. dielectric constant tensor:
#      x y z
#    x 1.668300 0.000000 0.000000 
#    y 0.000000 1.686920 0.000000 
#    z 0.000000 0.000000 1.645770 
# 
# From -- ./inp_files/17190.got.cif
#   From: 2010.03.12/outbox.cif.g09.slc.cpg/sg38_9_cif.got.tgz:17190.got - 2010.04.14 02:38:36.
