data_PCOD8177866
_publ_section_title
;
Structure prediction by ZEFSAII (Michael W. Deem and Ramdas Pophale) SiO2 
 PCOD8177866
Probable space group: A M M 2
;
_chemical_formula_sum "Si O2"
_cell_formula_units_Z 64
_cell_length_a 15.308109
_cell_length_b 9.245925
_cell_length_c 30.117277
_cell_angle_alpha 90.000000
_cell_angle_beta 90.000000
_cell_angle_gamma 90.000000
_cell_volume 4262.727940
_symmetry_space_group_name_H-M "A M M 2"
_symmetry_group_IT_number 38
_symmetry_cell_setting 'orthorhombic'
loop_
_space_group_symop_operation_xyz
x,y,z
-x,-y,z
-x,y,z
x,-y,z
x,1/2+y,1/2+z
-x,1/2-y,1/2+z
-x,1/2+y,1/2+z
x,1/2-y,1/2+z
loop_
_atom_site_type_symbol
_atom_site_label
_atom_site_fract_x
_atom_site_fract_y
_atom_site_fract_z
Si Si1 0.103759 0.662292 0.472360
Si Si2 0.239937 0.831527 0.720042
Si Si3 0.096708 0.827676 0.653065
Si Si4 0.896019 0.161182 0.555257
Si Si5 0.403352 0.336977 0.825339
Si Si6 0.234331 0.329884 0.323410
Si Si7 0.404861 0.662125 0.719895
Si Si8 0.897519 0.669328 0.885012
O O1 0.141483 0.500000 0.467080
O O2 0.141880 0.732197 0.517575
O O3 0.133894 0.760304 0.431167
O O4 0.000000 0.657784 0.474691
O O5 0.160413 0.766550 0.691156
O O6 0.224144 0.794807 0.771389
O O7 0.329151 0.763750 0.701076
O O8 0.248738 0.000000 0.712059
O O9 0.130865 0.780319 0.604138
O O10 0.000000 0.763909 0.662230
O O11 0.092228 0.000000 0.654400
O O12 0.000000 0.154145 0.552581
O O13 0.858205 0.000000 0.546982
O O14 0.500000 0.287578 0.842633
O O15 0.383537 0.500000 0.842109
O O16 0.326985 0.229865 0.842373
O O17 0.404175 0.333963 0.772679
O O18 0.229314 0.500000 0.333371
O O19 0.153884 0.247874 0.345729
O O20 0.500000 0.716370 0.702949
O O21 0.387677 0.500000 0.702928
O O22 0.874994 0.500000 0.886026
O O23 0.000000 0.695735 0.876784
#
# Coordination Sequence:
#
# PCOD8177866 Si02
#       8
#     8   8   8   8   8   8   8   8
#     4   9  16  26  41  60  80  99 123 163 212 251
#     4   9  17  27  40  59  81 108 141 173 202 232
#     4   8  14  25  40  57  79 109 142 170 195 230
#     4   8  13  23  40  58  75  99 131 163 196 238
#     4   8  14  26  43  59  76 102 135 169 206 248
#     4  10  19  28  40  60  85 111 139 174 212 244
#     4   8  14  25  40  56  75 101 131 165 208 250
#     4  10  20  32  44  57  77 109 146 176 201 238
#
# _framework density 15.013859
#
# number of rings (size 3 to 8) (size 9 to 14) (size 15 to 20)
#    0.000    3.250    0.000    2.625    0.000    3.750 
#    0.000    4.375    0.000    1.125    0.000    0.000 
#    0.000    1.000    0.000    5.250    0.000    5.125 
#
# Total GULP energy -396565.754493 kJ/mol
# GULP energy per Si atom -12392.679828 kJ/mol
# Density = 1.497969 g / cm^3
# Si number density = 15.013859 Si / 1000 Ang^3
#
#
#
# Elastic Constant Matrix: (Units=GPa)
#
#
# Indices 1 2 3 4 5 6 
#
# 1 84.6075 46.2817 48.0775 0.0000 0.0000 0.0000
# 2 46.2817 82.2437 44.9293 0.0000 0.0000 0.0000
# 3 48.0775 44.9293 70.6901 0.0000 0.0000 0.0000
# 4 0.0000 0.0000 0.0000 17.2820 0.0000 0.0000
# 5 0.0000 0.0000 0.0000 0.0000 1.6936 0.0000
# 6 0.0000 0.0000 0.0000 0.0000 0.0000 23.3957
#
#
#
# Elastic Compliance Matrix: (Units=1/GPa)
#
#
# Indices 1 2 3 4 5 6 
#
# 1 0.021140 -0.006192 -0.010442 0.000000 0.000000 0.000000
# 2 -0.006192 0.020440 -0.008780 0.000000 0.000000 0.000000
# 3 -0.010442 -0.008780 0.026829 0.000000 0.000000 0.000000
# 4 0.000000 0.000000 0.000000 0.057864 0.000000 0.000000
# 5 0.000000 0.000000 0.000000 0.000000 0.590448 0.000000
# 6 0.000000 0.000000 0.000000 0.000000 0.000000 0.042743
#
#
# Mechanical properties :
#
#
# Convention : Reuss Voigt Hill
#
# Bulk Modulus (GPa) = 56.88188 57.34647 57.11417
# Shear Modulus (GPa) = 6.12631 15.02446 10.57539
#
# Velocity S-wave (km/s) = 2.02220 3.16683 2.65689
# Velocity P-wave (km/s) = 6.58945 7.18682 6.89461
#
# Compressibility (1/GPa) = 0.01758029
#
# Stress axis : x y z
#
# Youngs Moduli (GPa) = 47.30372 48.92416 37.27356
#
# Poissons Ratio (x) = 0.30292 0.38922
# Poissons Ratio (y) = 0.29289 0.32726
# Poissons Ratio (z) = 0.49396 0.42956
#
# Static dielectric constant tensor:
#      x y z
#    x 2.995830 0.000000 0.000000 
#    y 0.000000 2.963150 0.000000 
#    z 0.000000 0.000000 2.828150 
# 
# 
# High freq. dielectric constant tensor:
#      x y z
#    x 1.549740 0.000000 0.000000 
#    y 0.000000 1.572210 0.000000 
#    z 0.000000 0.000000 1.547000 
# 
# From -- ./inp_files/25085.got.cif
#   From: 2010.03.12/outbox.cif.g09.slc.cpg/sg38_13_cif.got.tgz:25085.got - 2010.04.14 02:38:36.
