data_PCOD8177992
_publ_section_title
;
Structure prediction by ZEFSAII (Michael W. Deem and Ramdas Pophale) SiO2 
 PCOD8177992
Probable space group: A M M 2
;
_chemical_formula_sum "Si O2"
_cell_formula_units_Z 56
_cell_length_a 18.917518
_cell_length_b 13.417759
_cell_length_c 12.949665
_cell_angle_alpha 90.000000
_cell_angle_beta 90.000000
_cell_angle_gamma 90.000000
_cell_volume 3287.022498
_symmetry_space_group_name_H-M "A M M 2"
_symmetry_group_IT_number 38
_symmetry_cell_setting 'orthorhombic'
loop_
_space_group_symop_operation_xyz
x,y,z
-x,-y,z
-x,y,z
x,-y,z
x,1/2+y,1/2+z
-x,1/2-y,1/2+z
-x,1/2+y,1/2+z
x,1/2-y,1/2+z
loop_
_atom_site_type_symbol
_atom_site_label
_atom_site_fract_x
_atom_site_fract_y
_atom_site_fract_z
Si Si1 0.918624 0.616253 0.215460
Si Si2 0.808752 0.789929 0.866210
Si Si3 0.825975 0.885034 0.524930
Si Si4 0.424174 0.617676 0.443766
Si Si5 0.718582 0.289144 0.169455
Si Si6 0.721510 0.885760 0.033715
Si Si7 0.422138 0.115472 0.707598
O O1 0.906006 0.500000 0.237470
O O2 0.878746 0.677489 0.305025
O O3 0.892295 0.642482 0.099467
O O4 0.000000 0.646958 0.222357
O O5 0.742800 0.790320 0.787801
O O6 0.823897 0.684174 0.922638
O O7 0.784395 0.870647 0.951177
O O8 0.757580 0.869407 0.596798
O O9 0.829237 0.000000 0.488060
O O10 0.500000 0.653480 0.493205
O O11 0.419060 0.500000 0.452323
O O12 0.353909 0.660469 0.496906
O O13 0.424589 0.649590 0.325502
O O14 0.738681 0.177612 0.134881
O O15 0.636057 0.314818 0.154585
O O16 0.717415 0.000000 0.065656
O O17 0.500000 0.132463 0.657503
O O18 0.399653 0.000000 0.697676
#
# Coordination Sequence:
#
# PCOD8177992 Si02
#       7
#     8   8   8   8   8   8   8
#     4   9  18  33  53  76  98 121 154 194 232 274
#     4  10  19  32  50  72  97 128 156 191 236 282
#     4   9  19  33  50  72  98 128 161 196 234 280
#     4   8  14  25  42  63  86 116 154 194 235 276
#     4  10  19  30  47  71  96 122 162 201 239 280
#     4  10  19  30  46  69  96 126 159 196 237 284
#     4   9  16  27  46  69  91 119 158 203 245 284
#
# _framework density 17.036695000000002
#
# number of rings (size 3 to 8) (size 9 to 14) (size 15 to 20)
#    0.000    2.714    1.429    1.714    0.000    2.857 
#    0.000    0.000    0.000    0.000    0.000    0.000 
#    0.000    0.000    0.000    0.000    0.000    0.000 
#
# Total GULP energy -346925.813240 kJ/mol
# GULP energy per Si atom -12390.207616 kJ/mol
# Density = 1.699792 g / cm^3
# Si number density = 17.036695 Si / 1000 Ang^3
#
#
#
# Elastic Constant Matrix: (Units=GPa)
#
#
# Indices 1 2 3 4 5 6 
#
# 1 106.4642 29.8775 22.7088 0.0000 0.0000 0.0000
# 2 29.8775 71.3750 30.0968 0.0000 0.0000 0.0000
# 3 22.7088 30.0968 53.7473 0.0000 0.0000 0.0000
# 4 0.0000 0.0000 0.0000 17.4604 0.0000 0.0000
# 5 0.0000 0.0000 0.0000 0.0000 11.4568 0.0000
# 6 0.0000 0.0000 0.0000 0.0000 0.0000 20.8082
#
#
#
# Elastic Compliance Matrix: (Units=1/GPa)
#
#
# Indices 1 2 3 4 5 6 
#
# 1 0.010933 -0.003441 -0.002692 0.000000 0.000000 0.000000
# 2 -0.003441 0.019424 -0.009423 0.000000 0.000000 0.000000
# 3 -0.002692 -0.009423 0.025020 0.000000 0.000000 0.000000
# 4 0.000000 0.000000 0.000000 0.057273 0.000000 0.000000
# 5 0.000000 0.000000 0.000000 0.000000 0.087285 0.000000
# 6 0.000000 0.000000 0.000000 0.000000 0.000000 0.048058
#
#
# Mechanical properties :
#
#
# Convention : Reuss Voigt Hill
#
# Bulk Modulus (GPa) = 41.21363 44.10584 42.65973
# Shear Modulus (GPa) = 17.40987 19.87197 18.64092
#
# Velocity S-wave (km/s) = 3.20019 3.41900 3.31140
# Velocity P-wave (km/s) = 6.15618 6.44445 6.30197
#
# Compressibility (1/GPa) = 0.02426382
#
# Stress axis : x y z
#
# Youngs Moduli (GPa) = 91.46783 51.48146 39.96842
#
# Poissons Ratio (x) = 0.17716 0.10760
# Poissons Ratio (y) = 0.31476 0.37663
# Poissons Ratio (z) = 0.24625 0.48512
#
# Static dielectric constant tensor:
#      x y z
#    x 3.370120 0.000000 0.000000 
#    y 0.000000 2.936270 0.000000 
#    z 0.000000 0.000000 2.978800 
# 
# 
# High freq. dielectric constant tensor:
#      x y z
#    x 1.664560 0.000000 0.000000 
#    y 0.000000 1.637720 0.000000 
#    z 0.000000 0.000000 1.638570 
# 
# From -- ./inp_files/10737.got.cif
#   From: 2010.03.12/outbox.cif.g09.slc.cpg/sg38_6_cif.got.tgz:10737.got - 2010.04.14 02:38:36.
