data_PCOD8177094
_publ_section_title
;
Structure prediction by ZEFSAII (Michael W. Deem and Ramdas Pophale) SiO2 
 PCOD8177094
Probable space group: C C C 2
;
_chemical_formula_sum "Si O2"
_cell_formula_units_Z 64
_cell_length_a 8.626162
_cell_length_b 16.544647
_cell_length_c 23.864726
_cell_angle_alpha 90.000000
_cell_angle_beta 90.000000
_cell_angle_gamma 90.000000
_cell_volume 3405.897453
_symmetry_space_group_name_H-M "C C C 2"
_symmetry_group_IT_number 37
_symmetry_cell_setting 'orthorhombic'
loop_
_space_group_symop_operation_xyz
x,y,z
-x,-y,z
-x,y,1/2+z
x,-y,1/2+z
1/2+x,1/2+y,z
1/2-x,1/2-y,z
1/2-x,1/2+y,1/2+z
1/2+x,1/2-y,1/2+z
loop_
_atom_site_type_symbol
_atom_site_label
_atom_site_fract_x
_atom_site_fract_y
_atom_site_fract_z
Si Si1 0.567513 0.260982 0.068620
Si Si2 0.553339 0.089763 0.257981
Si Si3 0.070904 0.582403 0.383718
Si Si4 0.570904 0.417597 0.376013
Si Si5 0.857264 0.673204 0.986293
Si Si6 0.932488 0.260982 0.691111
Si Si7 0.946661 0.910237 0.001750
Si Si8 0.142736 0.826796 0.273439
O O1 0.750000 0.250000 0.069364
O O2 0.500001 0.250000 0.129866
O O3 0.531607 0.348986 0.043478
O O4 0.485334 0.190903 0.032822
O O5 0.502586 0.107424 0.322764
O O6 0.468393 0.151014 0.216253
O O7 0.740881 0.101247 0.253136
O O8 0.500000 0.000000 0.240396
O O9 0.250000 0.563904 0.379866
O O10 0.045948 0.651876 0.430126
O O11 0.000000 0.500000 0.406773
O O12 0.500000 0.500000 0.352959
O O13 0.502586 0.392576 0.436968
O O14 0.545948 0.348124 0.329606
O O15 0.750000 0.750000 0.972780
O O16 0.740881 0.601247 0.006595
O O17 0.750000 0.250000 0.690367
O O18 0.014665 0.190903 0.726909
O O19 0.000000 0.000000 0.019336
O O20 0.250000 0.750000 0.286952
#
# Coordination Sequence:
#
# PCOD8177094 Si02
#       8
#     8   8   8   8   8   8   8   8
#     4  11  23  40  58  79 107 142 186 233 276 324
#     4   9  19  37  58  82 113 147 181 220 268 326
#     4   9  18  32  54  83 116 146 177 218 268 322
#     4   9  18  32  54  83 116 146 177 218 268 322
#     4   9  19  35  56  81 111 149 183 220 272 325
#     4  11  23  40  58  79 107 142 186 233 276 324
#     4   9  19  37  58  82 113 147 181 220 268 326
#     4   9  19  35  56  81 111 149 183 220 272 325
#
# _framework density 18.790937
#
# number of rings (size 3 to 8) (size 9 to 14) (size 15 to 20)
#    0.000    2.500    0.000    2.250    0.000   17.500 
#    0.000    7.500    0.000    0.000    0.000    0.000 
#    0.000    0.000    0.000    0.000    0.000    0.000 
#
# Total GULP energy -396598.696726 kJ/mol
# GULP energy per Si atom -12393.709273 kJ/mol
# Density = 1.874817 g / cm^3
# Si number density = 18.790937 Si / 1000 Ang^3
#
#
#
# Elastic Constant Matrix: (Units=GPa)
#
#
# Indices 1 2 3 4 5 6 
#
# 1 93.1867 57.1310 74.2251 0.0000 0.0000 0.0000
# 2 57.1310 110.4202 78.9993 0.0000 0.0000 0.0000
# 3 74.2251 78.9993 157.5430 0.0000 0.0000 0.0000
# 4 0.0000 0.0000 0.0000 -30.6423 0.0000 0.0000
# 5 0.0000 0.0000 0.0000 0.0000 28.6306 0.0000
# 6 0.0000 0.0000 0.0000 0.0000 0.0000 36.0872
#
#
#
# Elastic Compliance Matrix: (Units=1/GPa)
#
#
# Indices 1 2 3 4 5 6 
#
# 1 0.019005 -0.005344 -0.006274 0.000000 0.000000 0.000000
# 2 -0.005344 0.015626 -0.005318 0.000000 0.000000 0.000000
# 3 -0.006274 -0.005318 0.011970 0.000000 0.000000 0.000000
# 4 0.000000 0.000000 0.000000 -0.032635 0.000000 0.000000
# 5 0.000000 0.000000 0.000000 0.000000 0.034928 0.000000
# 6 0.000000 0.000000 0.000000 0.000000 0.000000 0.027711
#
#
# Mechanical properties :
#
#
# Convention : Reuss Voigt Hill
#
# Bulk Modulus (GPa) = 78.56238 86.87341 82.71790
# Shear Modulus (GPa) = 43.58427 16.86805 30.22616
#
# Velocity S-wave (km/s) = 4.82127 2.99936 4.01502
# Velocity P-wave (km/s) = 8.53770 7.63720 8.09997
#
# Compressibility (1/GPa) = 0.01272874
#
# Stress axis : x y z
#
# Youngs Moduli (GPa) = 52.61701 63.99624 83.54203
#
# Poissons Ratio (x) = 0.34202 0.52416
# Poissons Ratio (y) = 0.28121 0.44424
# Poissons Ratio (z) = 0.33013 0.34031
#
# Static dielectric constant tensor:
#      x y z
#    x 3.500170 0.000000 0.000000 
#    y 0.000000 3.518650 0.000000 
#    z 0.000000 0.000000 3.718740 
# 
# 
# High freq. dielectric constant tensor:
#      x y z
#    x 1.722310 0.000000 0.000000 
#    y 0.000000 1.723170 0.000000 
#    z 0.000000 0.000000 1.731620 
# 
# From -- ./inp_files/18537.got.cif
#   From: 2010.03.12/outbox.cif.g09.slc.cpg/sg37_10_cif.got.tgz:18537.got - 2010.04.14 02:25:27.
