data_PCOD8177164
_publ_section_title
;
Structure prediction by ZEFSAII (Michael W. Deem and Ramdas Pophale) SiO2 
 PCOD8177164
Probable space group: C C C 2
;
_chemical_formula_sum "Si O2"
_cell_formula_units_Z 32
_cell_length_a 4.869434
_cell_length_b 32.213981
_cell_length_c 8.421215
_cell_angle_alpha 90.000000
_cell_angle_beta 90.000000
_cell_angle_gamma 90.000000
_cell_volume 1320.984243
_symmetry_space_group_name_H-M "C C C 2"
_symmetry_group_IT_number 37
_symmetry_cell_setting 'orthorhombic'
loop_
_space_group_symop_operation_xyz
x,y,z
-x,-y,z
-x,y,1/2+z
x,-y,1/2+z
1/2+x,1/2+y,z
1/2-x,1/2-y,z
1/2-x,1/2+y,1/2+z
1/2+x,1/2-y,1/2+z
loop_
_atom_site_type_symbol
_atom_site_label
_atom_site_fract_x
_atom_site_fract_y
_atom_site_fract_z
Si Si1 0.123763 0.454820 0.775250
Si Si2 0.819886 0.296515 0.632808
Si Si3 0.164483 0.828953 0.961519
Si Si4 0.849467 0.923786 0.452866
O O1 0.231843 0.451147 0.597023
O O2 0.364961 0.444132 0.899572
O O3 0.000000 0.500000 0.807802
O O4 0.869336 0.423816 0.808048
O O5 0.750000 0.250000 0.688124
O O6 0.630884 0.307514 0.481909
O O7 0.130967 0.304290 0.578919
O O8 0.754343 0.326562 0.779547
O O9 0.123577 0.876660 0.012298
#
# Coordination Sequence:
#
# PCOD8177164 Si02
#       4
#     8   8   8   8
#     4  12  26  45  71 102 138 179 227 286 346 411
#     4  12  24  42  66 100 139 182 231 286 342 404
#     4  12  25  44  70 100 137 184 231 284 343 409
#     4  12  25  47  71 102 138 181 231 284 344 416
#
# _framework density 24.224360999999998
#
# number of rings (size 3 to 8) (size 9 to 14) (size 15 to 20)
#    0.000    0.000    0.000   11.250    0.000    2.000 
#    0.000    1.250    0.000    0.000    0.000    0.000 
#    0.000    0.000    0.000    0.000    0.000    0.000 
#
# Total GULP energy -198502.595680 kJ/mol
# GULP energy per Si atom -12406.412230 kJ/mol
# Density = 2.416923 g / cm^3
# Si number density = 24.224361 Si / 1000 Ang^3
#
#
#
# Elastic Constant Matrix: (Units=GPa)
#
#
# Indices 1 2 3 4 5 6 
#
# 1 117.4071 58.6576 7.3929 0.0000 0.0000 0.0000
# 2 58.6576 140.6011 28.3398 0.0000 0.0000 0.0000
# 3 7.3929 28.3398 73.8316 0.0000 0.0000 0.0000
# 4 0.0000 0.0000 0.0000 33.9298 0.0000 0.0000
# 5 0.0000 0.0000 0.0000 0.0000 39.4152 0.0000
# 6 0.0000 0.0000 0.0000 0.0000 0.0000 39.0014
#
#
#
# Elastic Compliance Matrix: (Units=1/GPa)
#
#
# Indices 1 2 3 4 5 6 
#
# 1 0.010794 -0.004644 0.000702 0.000000 0.000000 0.000000
# 2 -0.004644 0.009707 -0.003261 0.000000 0.000000 0.000000
# 3 0.000702 -0.003261 0.014726 0.000000 0.000000 0.000000
# 4 0.000000 0.000000 0.000000 0.029473 0.000000 0.000000
# 5 0.000000 0.000000 0.000000 0.000000 0.025371 0.000000
# 6 0.000000 0.000000 0.000000 0.000000 0.000000 0.025640
#
#
# Mechanical properties :
#
#
# Convention : Reuss Voigt Hill
#
# Bulk Modulus (GPa) = 48.03171 57.84671 52.93921
# Shear Modulus (GPa) = 36.48111 38.29924 37.39017
#
# Velocity S-wave (km/s) = 3.88489 3.98052 3.93300
# Velocity P-wave (km/s) = 6.32409 6.71248 6.52118
#
# Compressibility (1/GPa) = 0.02081958
#
# Stress axis : x y z
#
# Youngs Moduli (GPa) = 92.64750 103.01571 67.90814
#
# Poissons Ratio (x) = 0.47846 -0.04767
# Poissons Ratio (y) = 0.43030 0.22145
# Poissons Ratio (z) = -0.06504 0.33594
#
# Static dielectric constant tensor:
#      x y z
#    x 4.640340 0.000000 0.000000 
#    y 0.000000 4.265680 0.000000 
#    z 0.000000 0.000000 4.122270 
# 
# 
# High freq. dielectric constant tensor:
#      x y z
#    x 1.982170 0.000000 0.000000 
#    y 0.000000 1.968060 0.000000 
#    z 0.000000 0.000000 1.965180 
# 
# From -- ./inp_files/1708.got.cif
#   From: 2010.03.12/outbox.cif.g09.slc.cpg/sg37_1_cif.got.tgz:1708.got - 2010.04.14 02:25:27.
