data_PCOD8177600
_publ_section_title
;
Structure prediction by ZEFSAII (Michael W. Deem and Ramdas Pophale) SiO2 
 PCOD8177600
Probable space group: A M M 2
;
_chemical_formula_sum "Si O2"
_cell_formula_units_Z 64
_cell_length_a 8.680107
_cell_length_b 25.134926
_cell_length_c 15.260016
_cell_angle_alpha 90.000000
_cell_angle_beta 90.000000
_cell_angle_gamma 90.000000
_cell_volume 3329.336398
_symmetry_space_group_name_H-M "A M M 2"
_symmetry_group_IT_number 38
_symmetry_cell_setting 'orthorhombic'
loop_
_space_group_symop_operation_xyz
x,y,z
-x,-y,z
-x,y,z
x,-y,z
x,1/2+y,1/2+z
-x,1/2-y,1/2+z
-x,1/2+y,1/2+z
x,1/2-y,1/2+z
loop_
_atom_site_type_symbol
_atom_site_label
_atom_site_fract_x
_atom_site_fract_y
_atom_site_fract_z
Si Si1 0.179499 0.671007 0.192840
Si Si2 0.321121 0.722763 0.729884
Si Si3 0.177845 0.861459 0.505585
Si Si4 0.681792 0.647587 0.376042
Si Si5 0.683402 0.440433 0.509799
Si Si6 0.679733 0.393944 0.688682
Si Si7 0.317745 0.059909 0.369829
Si Si8 0.820715 0.243477 0.410785
O O1 0.268440 0.726331 0.173881
O O2 0.240261 0.643042 0.280749
O O3 0.000000 0.684010 0.203666
O O4 0.208568 0.632371 0.109768
O O5 0.500000 0.728337 0.756417
O O6 0.290684 0.668948 0.675921
O O7 0.218121 0.719400 0.816374
O O8 0.272184 0.905804 0.454182
O O9 0.228328 0.801392 0.480481
O O10 0.000000 0.869823 0.481477
O O11 0.500000 0.645066 0.363174
O O12 0.744559 0.598583 0.433895
O O13 0.725244 0.702302 0.425638
O O14 0.500000 0.436735 0.513917
O O15 0.739546 0.500000 0.488061
O O16 0.752790 0.423228 0.604323
O O17 0.500000 0.406835 0.692028
O O18 0.752664 0.415489 0.779823
O O19 0.500000 0.060260 0.364407
O O20 0.254413 0.000000 0.381275
O O21 0.000000 0.257657 0.417115
#
# Coordination Sequence:
#
# PCOD8177600 Si02
#       8
#     8   8   8   8   8   8   8   8
#     4  10  21  37  54  74 107 147 182 221 269 323
#     4  10  18  30  51  81 111 140 173 214 263 314
#     4  10  22  37  54  77 107 147 187 220 267 323
#     4  10  20  34  55  82 107 137 179 227 274 315
#     4   9  18  33  53  78 109 142 177 218 267 324
#     4   9  17  30  50  80 113 143 172 208 262 323
#     4  10  20  35  57  83 111 143 179 223 271 317
#     4  10  19  33  52  75 106 143 177 214 264 321
#
# _framework density 19.223049
#
# number of rings (size 3 to 8) (size 9 to 14) (size 15 to 20)
#    0.000    2.250    1.250    3.375    1.750    3.250 
#    0.000    0.625    0.000    5.250    0.000    0.000 
#    0.000    0.000    0.000    0.000    0.000    0.000 
#
# Total GULP energy -396719.469769 kJ/mol
# GULP energy per Si atom -12397.483430 kJ/mol
# Density = 1.917930 g / cm^3
# Si number density = 19.223049 Si / 1000 Ang^3
#
#
#
# Elastic Constant Matrix: (Units=GPa)
#
#
# Indices 1 2 3 4 5 6 
#
# 1 29.8956 26.9199 22.0984 0.0000 0.0000 0.0000
# 2 26.9199 139.3400 81.5848 0.0000 0.0000 0.0000
# 3 22.0984 81.5848 122.1783 0.0000 0.0000 0.0000
# 4 0.0000 0.0000 0.0000 32.2411 0.0000 0.0000
# 5 0.0000 0.0000 0.0000 0.0000 21.6290 0.0000
# 6 0.0000 0.0000 0.0000 0.0000 0.0000 12.7842
#
#
#
# Elastic Compliance Matrix: (Units=1/GPa)
#
#
# Indices 1 2 3 4 5 6 
#
# 1 0.041399 -0.005934 -0.003525 0.000000 0.000000 0.000000
# 2 -0.005934 0.012634 -0.007363 0.000000 0.000000 0.000000
# 3 -0.003525 -0.007363 0.013739 0.000000 0.000000 0.000000
# 4 0.000000 0.000000 0.000000 0.031016 0.000000 0.000000
# 5 0.000000 0.000000 0.000000 0.000000 0.046234 0.000000
# 6 0.000000 0.000000 0.000000 0.000000 0.000000 0.078221
#
#
# Mechanical properties :
#
#
# Convention : Reuss Voigt Hill
#
# Bulk Modulus (GPa) = 29.30209 61.40222 45.35216
# Shear Modulus (GPa) = 18.63822 24.05159 21.34490
#
# Velocity S-wave (km/s) = 3.11718 3.54105 3.33585
# Velocity P-wave (km/s) = 5.31338 6.98069 6.20331
#
# Compressibility (1/GPa) = 0.03412725
#
# Stress axis : x y z
#
# Youngs Moduli (GPa) = 24.15515 79.14878 72.78381
#
# Poissons Ratio (x) = 0.46967 0.25659
# Poissons Ratio (y) = 0.14334 0.53594
# Poissons Ratio (z) = 0.08516 0.58280
#
# Static dielectric constant tensor:
#      x y z
#    x 3.261790 0.000000 0.000000 
#    y 0.000000 3.595130 0.000000 
#    z 0.000000 0.000000 3.565860 
# 
# 
# High freq. dielectric constant tensor:
#      x y z
#    x 1.723400 0.000000 0.000000 
#    y 0.000000 1.742570 0.000000 
#    z 0.000000 0.000000 1.748020 
# 
# From -- ./inp_files/17304.got.cif
#   From: 2010.03.12/outbox.cif.g09.slc.cpg/sg38_9_cif.got.tgz:17304.got - 2010.04.14 02:38:36.
