data_PCOD8177643
_publ_section_title
;
Structure prediction by ZEFSAII (Michael W. Deem and Ramdas Pophale) SiO2 
 PCOD8177643
Probable space group: A M M 2
;
_chemical_formula_sum "Si O2"
_cell_formula_units_Z 64
_cell_length_a 9.076650
_cell_length_b 19.587346
_cell_length_c 21.105196
_cell_angle_alpha 90.000000
_cell_angle_beta 90.000000
_cell_angle_gamma 90.000000
_cell_volume 3752.239698
_symmetry_space_group_name_H-M "A M M 2"
_symmetry_group_IT_number 38
_symmetry_cell_setting 'orthorhombic'
loop_
_space_group_symop_operation_xyz
x,y,z
-x,-y,z
-x,y,z
x,-y,z
x,1/2+y,1/2+z
-x,1/2-y,1/2+z
-x,1/2+y,1/2+z
x,1/2-y,1/2+z
loop_
_atom_site_type_symbol
_atom_site_label
_atom_site_fract_x
_atom_site_fract_y
_atom_site_fract_z
Si Si1 0.169095 0.923959 0.465090
Si Si2 0.826990 0.785689 0.016598
Si Si3 0.672826 0.922541 0.595648
Si Si4 0.830918 0.575480 0.571436
Si Si5 0.174764 0.297619 0.757119
Si Si6 0.825231 0.294777 0.140510
Si Si7 0.172497 0.209408 0.396272
Si Si8 0.329254 0.577185 0.702114
O O1 0.270901 0.908775 0.524944
O O2 0.208469 0.870093 0.410341
O O3 0.000000 0.914871 0.487570
O O4 0.197279 0.000000 0.438079
O O5 0.754954 0.756243 0.951759
O O6 0.000000 0.772455 0.014800
O O7 0.789787 0.866445 0.020203
O O8 0.766699 0.746391 0.078821
O O9 0.500000 0.909226 0.597361
O O10 0.752515 0.869745 0.642897
O O11 0.711253 0.000000 0.616841
O O12 0.808368 0.500000 0.541183
O O13 0.726987 0.585960 0.630917
O O14 0.000000 0.585462 0.594094
O O15 0.228552 0.245305 0.703200
O O16 0.231709 0.271649 0.826187
O O17 0.242203 0.372364 0.747747
O O18 0.000000 0.305959 0.755812
O O19 0.000000 0.302810 0.140380
O O20 0.000000 0.222883 0.396674
O O21 0.500000 0.596298 0.702980
O O22 0.301449 0.500000 0.725917
#
# Coordination Sequence:
#
# PCOD8177643 Si02
#       8
#     8   8   8   8   8   8   8   8
#     4   9  16  28  47  70  96 128 162 191 229 283
#     4   9  15  27  48  73  97 122 156 198 238 278
#     4  10  20  32  48  73 100 125 158 200 242 282
#     4   9  16  28  49  74  98 126 161 199 237 280
#     4  10  20  33  50  72  96 127 165 201 237 281
#     4  10  18  31  51  73  95 124 161 200 242 284
#     4   9  17  29  47  70  96 125 157 197 239 281
#     4  10  20  32  46  68 100 134 163 194 237 284
#
# _framework density 17.056479
#
# number of rings (size 3 to 8) (size 9 to 14) (size 15 to 20)
#    0.000    2.500    2.500    0.750    0.000    2.500 
#    0.000    1.875    0.000    2.250    0.000    3.500 
#    0.000    2.000    0.000    0.000    0.000    0.000 
#
# Total GULP energy -396640.457150 kJ/mol
# GULP energy per Si atom -12395.014286 kJ/mol
# Density = 1.701766 g / cm^3
# Si number density = 17.056479 Si / 1000 Ang^3
#
#
#
# Elastic Constant Matrix: (Units=GPa)
#
#
# Indices 1 2 3 4 5 6 
#
# 1 30.6392 28.1651 22.5649 0.0000 0.0000 0.0000
# 2 28.1651 123.7623 76.4594 0.0000 0.0000 0.0000
# 3 22.5649 76.4594 130.0645 0.0000 0.0000 0.0000
# 4 0.0000 0.0000 0.0000 23.9244 0.0000 0.0000
# 5 0.0000 0.0000 0.0000 0.0000 5.7223 0.0000
# 6 0.0000 0.0000 0.0000 0.0000 0.0000 20.0194
#
#
#
# Elastic Compliance Matrix: (Units=1/GPa)
#
#
# Indices 1 2 3 4 5 6 
#
# 1 0.041828 -0.007908 -0.002608 0.000000 0.000000 0.000000
# 2 -0.007908 0.014183 -0.006966 0.000000 0.000000 0.000000
# 3 -0.002608 -0.006966 0.012236 0.000000 0.000000 0.000000
# 4 0.000000 0.000000 0.000000 0.041798 0.000000 0.000000
# 5 0.000000 0.000000 0.000000 0.000000 0.174756 0.000000
# 6 0.000000 0.000000 0.000000 0.000000 0.000000 0.049952
#
#
# Mechanical properties :
#
#
# Convention : Reuss Voigt Hill
#
# Bulk Modulus (GPa) = 30.04471 59.87164 44.95817
# Shear Modulus (GPa) = 13.12990 20.41830 16.77410
#
# Velocity S-wave (km/s) = 2.77752 3.46367 3.13939
# Velocity P-wave (km/s) = 5.28576 7.15361 6.28941
#
# Compressibility (1/GPa) = 0.03328373
#
# Stress axis : x y z
#
# Youngs Moduli (GPa) = 23.90747 70.50754 81.72747
#
# Poissons Ratio (x) = 0.55755 0.21316
# Poissons Ratio (y) = 0.18905 0.56928
# Poissons Ratio (z) = 0.06236 0.49113
#
# Static dielectric constant tensor:
#      x y z
#    x 2.948930 0.000000 0.000000 
#    y 0.000000 3.459980 0.000000 
#    z 0.000000 0.000000 3.230300 
# 
# 
# High freq. dielectric constant tensor:
#      x y z
#    x 1.629890 0.000000 0.000000 
#    y 0.000000 1.666500 0.000000 
#    z 0.000000 0.000000 1.631350 
# 
# From -- ./inp_files/20212.got.cif
#   From: 2010.03.12/outbox.cif.g09.slc.cpg/sg38_11_cif.got.tgz:20212.got - 2010.04.14 02:38:36.
