data_PCOD8177035
_publ_section_title
;
Structure prediction by ZEFSAII (Michael W. Deem and Ramdas Pophale) SiO2 
 PCOD8177035
Probable space group: C C C 2
;
_chemical_formula_sum "Si O2"
_cell_formula_units_Z 48
_cell_length_a 11.024951
_cell_length_b 15.486411
_cell_length_c 12.313095
_cell_angle_alpha 90.000000
_cell_angle_beta 90.000000
_cell_angle_gamma 90.000000
_cell_volume 2102.299946
_symmetry_space_group_name_H-M "C C C 2"
_symmetry_group_IT_number 37
_symmetry_cell_setting 'orthorhombic'
loop_
_space_group_symop_operation_xyz
x,y,z
-x,-y,z
-x,y,1/2+z
x,-y,1/2+z
1/2+x,1/2+y,z
1/2-x,1/2-y,z
1/2-x,1/2+y,1/2+z
1/2+x,1/2-y,1/2+z
loop_
_atom_site_type_symbol
_atom_site_label
_atom_site_fract_x
_atom_site_fract_y
_atom_site_fract_z
Si Si1 0.750000 0.250000 0.629781
Si Si2 0.418934 0.349259 0.982536
Si Si3 0.798572 0.940252 0.782950
Si Si4 0.821167 0.382748 0.807575
Si Si5 0.624816 0.225721 0.013301
Si Si6 0.000000 0.000000 0.626392
Si Si7 0.453491 0.910815 0.174410
O O1 0.640568 0.272546 0.550496
O O2 0.770873 0.334002 0.702402
O O3 0.553240 0.308728 0.963123
O O4 0.423862 0.436813 0.050408
O O5 0.342393 0.372066 0.874398
O O6 0.683438 0.907384 0.716498
O O7 0.763031 0.033876 0.831355
O O8 0.910205 0.944890 0.700627
O O9 0.961119 0.402849 0.779975
O O10 0.819031 0.327168 0.914263
O O11 0.750000 0.250000 0.077586
O O12 0.536707 0.167253 0.088404
O O13 0.500000 0.000000 0.116288
#
# Coordination Sequence:
#
# PCOD8177035 Si02
#       7
#     4   8   8   8   8   4   8
#     4  12  24  50  70 106 146 188 236 304 370 430
#     4  12  29  45  76 106 144 197 241 303 366 439
#     4  11  27  46  74 106 143 194 247 297 366 443
#     4  11  25  46  72 102 146 192 240 301 363 433
#     4  12  27  43  74 110 146 190 245 301 366 431
#     4  12  26  48  74 102 148 186 246 298 370 440
#     4  10  25  48  71 103 146 194 242 299 358 436
#
# _framework density 22.832136999999999
#
# number of rings (size 3 to 8) (size 9 to 14) (size 15 to 20)
#    0.000    0.667    4.167    1.500   11.667    3.333 
#    0.000    0.000    0.000    0.000    0.000    0.000 
#    0.000    0.000    0.000    0.000    0.000    0.000 
#
# Total GULP energy -297510.701800 kJ/mol
# GULP energy per Si atom -12396.279242 kJ/mol
# Density = 2.278017 g / cm^3
# Si number density = 22.832137 Si / 1000 Ang^3
#
#
#
# Elastic Constant Matrix: (Units=GPa)
#
#
# Indices 1 2 3 4 5 6 
#
# 1 115.8031 30.8562 26.2384 0.0000 0.0000 0.0000
# 2 30.8562 108.0496 35.1157 0.0000 0.0000 0.0000
# 3 26.2384 35.1157 84.2499 0.0000 0.0000 0.0000
# 4 0.0000 0.0000 0.0000 53.9543 0.0000 0.0000
# 5 0.0000 0.0000 0.0000 0.0000 24.9927 0.0000
# 6 0.0000 0.0000 0.0000 0.0000 0.0000 47.0098
#
#
#
# Elastic Compliance Matrix: (Units=1/GPa)
#
#
# Indices 1 2 3 4 5 6 
#
# 1 0.009673 -0.002063 -0.002153 0.000000 0.000000 0.000000
# 2 -0.002063 0.011145 -0.004003 0.000000 0.000000 0.000000
# 3 -0.002153 -0.004003 0.014208 0.000000 0.000000 0.000000
# 4 0.000000 0.000000 0.000000 0.018534 0.000000 0.000000
# 5 0.000000 0.000000 0.000000 0.000000 0.040012 0.000000
# 6 0.000000 0.000000 0.000000 0.000000 0.000000 0.021272
#
#
# Mechanical properties :
#
#
# Convention : Reuss Voigt Hill
#
# Bulk Modulus (GPa) = 53.79384 54.72481 54.25932
# Shear Modulus (GPa) = 36.36973 39.58419 37.97696
#
# Velocity S-wave (km/s) = 3.99547 4.16830 4.08280
# Velocity P-wave (km/s) = 6.70050 6.86925 6.78540
#
# Compressibility (1/GPa) = 0.01858949
#
# Stress axis : x y z
#
# Youngs Moduli (GPa) = 103.38372 89.72656 70.38136
#
# Poissons Ratio (x) = 0.18508 0.15151
# Poissons Ratio (y) = 0.21325 0.28173
# Poissons Ratio (z) = 0.22255 0.35917
#
# Static dielectric constant tensor:
#      x y z
#    x 4.343860 0.000000 0.000000 
#    y 0.000000 4.283850 0.000000 
#    z 0.000000 0.000000 3.830950 
# 
# 
# High freq. dielectric constant tensor:
#      x y z
#    x 1.920590 0.000000 0.000000 
#    y 0.000000 1.910960 0.000000 
#    z 0.000000 0.000000 1.886970 
# 
# From -- ./inp_files/7215.got.cif
#   From: 2010.03.12/outbox.cif.g09.slc.cpg/sg37_4_cif.got.tgz:7215.got - 2010.04.14 02:25:27.
