data_PCOD8177136
_publ_section_title
;
Structure prediction by ZEFSAII (Michael W. Deem and Ramdas Pophale) SiO2 
 PCOD8177136
Probable space group: C C C 2
;
_chemical_formula_sum "Si O2"
_cell_formula_units_Z 40
_cell_length_a 10.480309
_cell_length_b 16.383454
_cell_length_c 9.139835
_cell_angle_alpha 90.000000
_cell_angle_beta 90.000000
_cell_angle_gamma 90.000000
_cell_volume 1569.343125
_symmetry_space_group_name_H-M "C C C 2"
_symmetry_group_IT_number 37
_symmetry_cell_setting 'orthorhombic'
loop_
_space_group_symop_operation_xyz
x,y,z
-x,-y,z
-x,y,1/2+z
x,-y,1/2+z
1/2+x,1/2+y,z
1/2-x,1/2-y,z
1/2-x,1/2+y,1/2+z
1/2+x,1/2-y,1/2+z
loop_
_atom_site_type_symbol
_atom_site_label
_atom_site_fract_x
_atom_site_fract_y
_atom_site_fract_z
Si Si1 0.961256 0.916716 0.508510
Si Si2 0.205234 0.039251 0.884568
Si Si3 0.392047 0.748060 0.158427
Si Si4 0.861094 0.466892 0.659456
Si Si5 0.372255 0.193415 0.342000
O O1 0.925167 0.842833 0.608409
O O2 0.084479 0.898499 0.401164
O O3 0.841148 0.944501 0.409450
O O4 0.000000 0.000000 0.602862
O O5 0.272177 0.040953 0.725012
O O6 0.308987 0.065464 0.005989
O O7 0.250000 0.750000 0.230399
O O8 0.391907 0.808224 0.017375
O O9 0.497520 0.771239 0.275399
O O10 0.857245 0.397331 0.782462
O O11 0.000000 0.500000 0.630104
O O12 0.250000 0.250000 0.301349
#
# Coordination Sequence:
#
# PCOD8177136 Si02
#       5
#     8   8   8   8   8
#     4   8  21  41  73  93 130 172 230 276 328 404
#     4   9  22  40  65  96 127 167 227 272 332 393
#     4  11  24  46  68 101 141 180 226 288 351 408
#     4  12  25  40  66  97 136 174 225 280 340 402
#     4  11  27  44  69  96 145 180 229 279 358 411
#
# _framework density 25.488371000000001
#
# number of rings (size 3 to 8) (size 9 to 14) (size 15 to 20)
#    1.200    0.400    0.000    4.200    8.400    5.600 
#    0.000    0.000    0.000    0.000    0.000    0.000 
#    0.000    0.000    0.000    0.000    0.000    0.000 
#
# Total GULP energy -247802.671619 kJ/mol
# GULP energy per Si atom -12390.133581 kJ/mol
# Density = 2.543036 g / cm^3
# Si number density = 25.488371 Si / 1000 Ang^3
#
#
#
# Elastic Constant Matrix: (Units=GPa)
#
#
# Indices 1 2 3 4 5 6 
#
# 1 183.6924 4.2950 30.1729 0.0000 0.0000 0.0000
# 2 4.2950 36.8319 -21.3006 0.0000 0.0000 0.0000
# 3 30.1729 -21.3006 61.8991 0.0000 0.0000 0.0000
# 4 0.0000 0.0000 0.0000 10.3526 0.0000 0.0000
# 5 0.0000 0.0000 0.0000 0.0000 16.0495 0.0000
# 6 0.0000 0.0000 0.0000 0.0000 0.0000 31.4862
#
#
#
# Elastic Compliance Matrix: (Units=1/GPa)
#
#
# Indices 1 2 3 4 5 6 
#
# 1 0.006185 -0.003077 -0.004074 0.000000 0.000000 0.000000
# 2 -0.003077 0.035427 0.013691 0.000000 0.000000 0.000000
# 3 -0.004074 0.013691 0.022852 0.000000 0.000000 0.000000
# 4 0.000000 0.000000 0.000000 0.096594 0.000000 0.000000
# 5 0.000000 0.000000 0.000000 0.000000 0.062307 0.000000
# 6 0.000000 0.000000 0.000000 0.000000 0.000000 0.031760
#
#
# Mechanical properties :
#
#
# Convention : Reuss Voigt Hill
#
# Bulk Modulus (GPa) = 12.89581 34.30644 23.60113
# Shear Modulus (GPa) = 18.66409 29.52806 24.09607
#
# Velocity S-wave (km/s) = 2.70896 3.40735 3.07803
# Velocity P-wave (km/s) = 3.85423 5.38228 4.68103
#
# Compressibility (1/GPa) = 0.07754455
#
# Stress axis : x y z
#
# Youngs Moduli (GPa) = 161.68185 28.22707 43.75898
#
# Poissons Ratio (x) = 0.08686 0.17827
# Poissons Ratio (y) = 0.49753 -0.59911
# Poissons Ratio (z) = 0.65866 -0.38646
#
# Static dielectric constant tensor:
#      x y z
#    x 5.260950 0.000000 0.000000 
#    y 0.000000 4.534910 0.000000 
#    z 0.000000 0.000000 4.308540 
# 
# 
# High freq. dielectric constant tensor:
#      x y z
#    x 2.050420 0.000000 0.000000 
#    y 0.000000 1.997050 0.000000 
#    z 0.000000 0.000000 1.999400 
# 
# From -- ./inp_files/2737.got.cif
#   From: 2010.03.12/outbox.cif.g09.slc.cpg/sg37_2_cif.got.tgz:2737.got - 2010.04.14 02:25:27.
