data_PCOD8177724
_publ_section_title
;
Structure prediction by ZEFSAII (Michael W. Deem and Ramdas Pophale) SiO2 
 PCOD8177724
Probable space group: A M M 2
;
_chemical_formula_sum "Si O2"
_cell_formula_units_Z 52
_cell_length_a 13.260070
_cell_length_b 17.882230
_cell_length_c 12.825203
_cell_angle_alpha 90.000000
_cell_angle_beta 90.000000
_cell_angle_gamma 90.000000
_cell_volume 3041.107282
_symmetry_space_group_name_H-M "A M M 2"
_symmetry_group_IT_number 38
_symmetry_cell_setting 'orthorhombic'
loop_
_space_group_symop_operation_xyz
x,y,z
-x,-y,z
-x,y,z
x,-y,z
x,1/2+y,1/2+z
-x,1/2-y,1/2+z
-x,1/2+y,1/2+z
x,1/2-y,1/2+z
loop_
_atom_site_type_symbol
_atom_site_label
_atom_site_fract_x
_atom_site_fract_y
_atom_site_fract_z
Si Si1 0.615439 0.212232 0.752010
Si Si2 0.719722 0.847528 0.354223
Si Si3 0.610345 0.149810 0.962026
Si Si4 0.110228 0.000000 0.073835
Si Si5 0.377921 0.000000 0.294621
Si Si6 0.887069 0.659753 0.683429
Si Si7 0.669337 0.500000 0.551632
Si Si8 0.250659 0.734413 0.064763
O O1 0.500000 0.210525 0.712359
O O2 0.636150 0.292013 0.807026
O O3 0.638851 0.149650 0.839618
O O4 0.691155 0.192982 0.658464
O O5 0.819489 0.841826 0.285717
O O6 0.757972 0.824197 0.470096
O O7 0.667620 0.928636 0.355416
O O8 0.500000 0.186552 0.973998
O O9 0.685285 0.194124 0.034055
O O10 0.607522 0.067456 0.005383
O O11 0.116043 0.076043 0.139202
O O12 0.214243 0.000000 0.007739
O O13 0.000000 0.000000 0.013883
O O14 0.500000 0.000000 0.297508
O O15 0.335544 0.000000 0.176992
O O16 0.852862 0.726336 0.603712
O O17 0.000000 0.680946 0.716564
#
# Coordination Sequence:
#
# PCOD8177724 Si02
#       8
#     8   8   8   4   4   8   4   8
#     4   9  18  32  48  69  99 135 173 211 250 301
#     4  10  20  34  50  75 103 135 173 217 260 307
#     4  10  19  29  47  74  99 131 170 206 251 305
#     4  10  18  32  54  76 100 126 160 209 261 309
#     4  12  22  32  49  76 106 137 178 221 263 312
#     4  10  19  33  53  78 105 132 168 214 263 312
#     4  12  18  32  51  74 102 133 164 214 268 307
#     4  10  19  33  52  70 102 138 172 210 258 303
#
# _framework density 17.099035000000001
#
# number of rings (size 3 to 8) (size 9 to 14) (size 15 to 20)
#    0.000    1.846    3.077    2.538    0.000    2.462 
#    0.000    0.769    0.000    0.000    0.000    0.000 
#    0.000    0.000    0.000    0.000    0.000    0.000 
#
# Total GULP energy -322162.458550 kJ/mol
# GULP energy per Si atom -12390.863790 kJ/mol
# Density = 1.706012 g / cm^3
# Si number density = 17.099035 Si / 1000 Ang^3
#
#
#
# Elastic Constant Matrix: (Units=GPa)
#
#
# Indices 1 2 3 4 5 6 
#
# 1 105.7183 21.5809 30.4877 0.0000 0.0000 0.0000
# 2 21.5809 82.3374 37.8250 0.0000 0.0000 0.0000
# 3 30.4877 37.8250 78.7443 0.0000 0.0000 0.0000
# 4 0.0000 0.0000 0.0000 20.4518 0.0000 0.0000
# 5 0.0000 0.0000 0.0000 0.0000 16.0233 0.0000
# 6 0.0000 0.0000 0.0000 0.0000 0.0000 300.4120
#
#
#
# Elastic Compliance Matrix: (Units=1/GPa)
#
#
# Indices 1 2 3 4 5 6 
#
# 1 0.010734 -0.001160 -0.003598 0.000000 0.000000 0.000000
# 2 -0.001160 0.015709 -0.007097 0.000000 0.000000 0.000000
# 3 -0.003598 -0.007097 0.017502 0.000000 0.000000 0.000000
# 4 0.000000 0.000000 0.000000 0.048895 0.000000 0.000000
# 5 0.000000 0.000000 0.000000 0.000000 0.062409 0.000000
# 6 0.000000 0.000000 0.000000 0.000000 0.000000 0.003329
#
#
# Mechanical properties :
#
#
# Convention : Reuss Voigt Hill
#
# Bulk Modulus (GPa) = 49.42281 49.62080 49.52180
# Shear Modulus (GPa) = 26.45031 79.17119 52.81075
#
# Velocity S-wave (km/s) = 3.93732 6.81191 5.56348
# Velocity P-wave (km/s) = 7.04532 9.53688 8.38417
#
# Compressibility (1/GPa) = 0.02023357
#
# Stress axis : x y z
#
# Youngs Moduli (GPa) = 93.16454 63.65584 57.13775
#
# Poissons Ratio (x) = 0.07386 0.20561
# Poissons Ratio (y) = 0.10809 0.40550
# Poissons Ratio (z) = 0.33525 0.45176
#
# Static dielectric constant tensor:
#      x y z
#    x 3.426130 0.000000 0.000000 
#    y 0.000000 3.274410 0.000000 
#    z 0.000000 0.000000 3.167160 
# 
# 
# High freq. dielectric constant tensor:
#      x y z
#    x 1.668490 0.000000 0.000000 
#    y 0.000000 1.649490 0.000000 
#    z 0.000000 0.000000 1.643470 
# 
# From -- ./inp_files/10211.got.cif
#   From: 2010.03.12/outbox.cif.g09.slc.cpg/sg38_6_cif.got.tgz:10211.got - 2010.04.14 02:38:36.
