data_PCOD8177323
_publ_section_title
;
Structure prediction by ZEFSAII (Michael W. Deem and Ramdas Pophale) SiO2 
 PCOD8177323
Probable space group: A M M 2
;
_chemical_formula_sum "Si O2"
_cell_formula_units_Z 56
_cell_length_a 21.201631
_cell_length_b 9.106584
_cell_length_c 15.457693
_cell_angle_alpha 90.000000
_cell_angle_beta 90.000000
_cell_angle_gamma 90.000000
_cell_volume 2984.485321
_symmetry_space_group_name_H-M "A M M 2"
_symmetry_group_IT_number 38
_symmetry_cell_setting 'orthorhombic'
loop_
_space_group_symop_operation_xyz
x,y,z
-x,-y,z
-x,y,z
x,-y,z
x,1/2+y,1/2+z
-x,1/2-y,1/2+z
-x,1/2+y,1/2+z
x,1/2-y,1/2+z
loop_
_atom_site_type_symbol
_atom_site_label
_atom_site_fract_x
_atom_site_fract_y
_atom_site_fract_z
Si Si1 0.346851 0.326454 0.657930
Si Si2 0.427947 0.328075 0.822019
Si Si3 0.000000 0.825841 0.558849
Si Si4 0.000000 0.835639 0.233997
Si Si5 0.571947 0.172430 0.994394
Si Si6 0.863736 0.831158 0.301182
Si Si7 0.131853 0.326121 0.993689
Si Si8 0.786798 0.674416 0.154340
O O1 0.335059 0.500000 0.657498
O O2 0.386143 0.276832 0.741580
O O3 0.385544 0.275043 0.574034
O O4 0.281623 0.242826 0.660033
O O5 0.500000 0.282362 0.802622
O O6 0.422001 0.500000 0.837760
O O7 0.402282 0.248874 0.907809
O O8 0.000000 0.782968 0.658879
O O9 0.062513 0.759766 0.513613
O O10 0.000000 0.000000 0.553710
O O11 0.938952 0.813005 0.293780
O O12 0.000000 0.000000 0.194011
O O13 0.500000 0.220319 0.013450
O O14 0.576822 0.000000 0.980720
O O15 0.845228 0.779116 0.398174
O O16 0.828303 0.726751 0.234804
O O17 0.843258 0.000000 0.284917
O O18 0.126825 0.500000 0.999018
O O19 0.181237 0.268988 0.065357
O O20 0.781914 0.500000 0.157351
#
# Coordination Sequence:
#
# PCOD8177323 Si02
#       8
#     8   8   4   4   8   8   8   8
#     4  10  21  37  56  77 107 148 184 216 264 323
#     4   9  18  34  57  83 109 139 178 221 265 318
#     4  10  17  33  59  80 106 140 175 215 269 324
#     4  10  19  31  55  86 110 132 169 223 271 316
#     4   9  18  34  57  84 112 141 176 220 270 320
#     4  10  20  37  58  80 107 141 180 219 267 325
#     4   9  19  35  57  79 102 139 180 217 262 322
#     4  11  23  38  54  78 108 142 184 228 269 312
#
# _framework density 18.763705000000002
#
# number of rings (size 3 to 8) (size 9 to 14) (size 15 to 20)
#    0.000    2.286    1.429    1.286    0.000    5.714 
#    0.000    6.429    0.000    5.143    0.000    0.000 
#    0.000    0.000    0.000    0.000    0.000    0.000 
#
# Total GULP energy -347223.019137 kJ/mol
# GULP energy per Si atom -12400.822112 kJ/mol
# Density = 1.872100 g / cm^3
# Si number density = 18.763705 Si / 1000 Ang^3
#
#
#
# Elastic Constant Matrix: (Units=GPa)
#
#
# Indices 1 2 3 4 5 6 
#
# 1 127.5792 39.3232 79.9590 0.0000 0.0000 0.0000
# 2 39.3232 31.6964 38.5747 0.0000 0.0000 0.0000
# 3 79.9590 38.5747 168.6143 0.0000 0.0000 0.0000
# 4 0.0000 0.0000 0.0000 30.9317 0.0000 0.0000
# 5 0.0000 0.0000 0.0000 0.0000 6.5951 0.0000
# 6 0.0000 0.0000 0.0000 0.0000 0.0000 24.2602
#
#
#
# Elastic Compliance Matrix: (Units=1/GPa)
#
#
# Indices 1 2 3 4 5 6 
#
# 1 0.014220 -0.013075 -0.003752 0.000000 0.000000 0.000000
# 2 -0.013075 0.055745 -0.006553 0.000000 0.000000 0.000000
# 3 -0.003752 -0.006553 0.009209 0.000000 0.000000 0.000000
# 4 0.000000 0.000000 0.000000 0.032329 0.000000 0.000000
# 5 0.000000 0.000000 0.000000 0.000000 0.151629 0.000000
# 6 0.000000 0.000000 0.000000 0.000000 0.000000 0.041220
#
#
# Mechanical properties :
#
#
# Convention : Reuss Voigt Hill
#
# Bulk Modulus (GPa) = 30.85046 71.51154 51.18100
# Shear Modulus (GPa) = 13.81532 23.69292 18.75412
#
# Velocity S-wave (km/s) = 2.71639 3.55730 3.16490
# Velocity P-wave (km/s) = 5.12987 7.42071 6.37897
#
# Compressibility (1/GPa) = 0.03241443
#
# Stress axis : x y z
#
# Youngs Moduli (GPa) = 70.32380 17.93867 108.58935
#
# Poissons Ratio (x) = 0.23455 0.40742
# Poissons Ratio (y) = 0.91951 0.71155
# Poissons Ratio (z) = 0.26385 0.11755
#
# Static dielectric constant tensor:
#      x y z
#    x 4.265210 0.000000 0.000000 
#    y 0.000000 3.227100 0.000000 
#    z 0.000000 0.000000 3.644610 
# 
# 
# High freq. dielectric constant tensor:
#      x y z
#    x 1.730100 0.000000 0.000000 
#    y 0.000000 1.705080 0.000000 
#    z 0.000000 0.000000 1.741030 
# 
# From -- ./inp_files/15548.got.cif
#   From: 2010.03.12/outbox.cif.g09.slc.cpg/sg38_8_cif.got.tgz:15548.got - 2010.04.14 02:38:36.
