data_PCOD8177641
_publ_section_title
;
Structure prediction by ZEFSAII (Michael W. Deem and Ramdas Pophale) SiO2 
 PCOD8177641
Probable space group: A M M 2
;
_chemical_formula_sum "Si O2"
_cell_formula_units_Z 64
_cell_length_a 8.812497
_cell_length_b 30.073623
_cell_length_c 14.343008
_cell_angle_alpha 90.000000
_cell_angle_beta 90.000000
_cell_angle_gamma 90.000000
_cell_volume 3801.237228
_symmetry_space_group_name_H-M "A M M 2"
_symmetry_group_IT_number 38
_symmetry_cell_setting 'orthorhombic'
loop_
_space_group_symop_operation_xyz
x,y,z
-x,-y,z
-x,y,z
x,-y,z
x,1/2+y,1/2+z
-x,1/2-y,1/2+z
-x,1/2+y,1/2+z
x,1/2-y,1/2+z
loop_
_atom_site_type_symbol
_atom_site_label
_atom_site_fract_x
_atom_site_fract_y
_atom_site_fract_z
Si Si1 0.319889 0.285161 0.125000
Si Si2 0.680190 0.048503 0.246509
Si Si3 0.328614 0.277874 0.335742
Si Si4 0.177508 0.298090 0.518339
Si Si5 0.823477 0.135830 0.514890
Si Si6 0.321797 0.050303 0.458879
Si Si7 0.331130 0.824656 0.345931
Si Si8 0.676400 0.864072 0.150075
O O1 0.500000 0.281051 0.120240
O O2 0.262247 0.283475 0.231800
O O3 0.255253 0.243998 0.067064
O O4 0.267649 0.332259 0.084348
O O5 0.500000 0.048330 0.246274
O O6 0.732052 0.058527 0.352185
O O7 0.738358 0.086593 0.176006
O O8 0.741868 0.000000 0.214262
O O9 0.500000 0.296522 0.340346
O O10 0.225084 0.303532 0.410284
O O11 0.324955 0.227002 0.367473
O O12 0.225984 0.344378 0.566039
O O13 0.000000 0.291068 0.525880
O O14 0.766652 0.084886 0.525721
O O15 0.792021 0.150627 0.408796
O O16 0.000000 0.139093 0.538013
O O17 0.500000 0.058436 0.469554
O O18 0.279770 0.000000 0.489154
O O19 0.500000 0.843642 0.369211
O O20 0.295903 0.831991 0.237834
O O21 0.500000 0.865006 0.121299
#
# Coordination Sequence:
#
# PCOD8177641 Si02
#       8
#     8   8   8   8   8   8   8   8
#     4  11  22  38  56  72  95 132 178 215 247 296
#     4   8  14  26  48  76 100 127 170 217 251 284
#     4  10  21  37  55  71  94 133 178 218 249 287
#     4  12  24  34  49  75 106 134 165 208 258 308
#     4  12  23  32  47  76 109 139 168 205 259 310
#     4   9  17  32  53  74  99 135 176 212 248 296
#     4  10  18  31  51  72  98 136 178 212 242 288
#     4  10  18  32  52  72  99 137 176 208 246 295
#
# _framework density 16.836625000000002
#
# number of rings (size 3 to 8) (size 9 to 14) (size 15 to 20)
#    0.000    1.750    3.750    3.375    0.000    1.750 
#    0.000    0.000    0.000    0.375    0.000    0.875 
#    0.000    3.000    0.000    0.000    0.000    0.000 
#
# Total GULP energy -396742.746051 kJ/mol
# GULP energy per Si atom -12398.210814 kJ/mol
# Density = 1.679830 g / cm^3
# Si number density = 16.836625 Si / 1000 Ang^3
#
#
#
# Elastic Constant Matrix: (Units=GPa)
#
#
# Indices 1 2 3 4 5 6 
#
# 1 67.0750 26.8570 31.4944 0.0000 0.0000 0.0000
# 2 26.8570 101.5770 35.8877 0.0000 0.0000 0.0000
# 3 31.4944 35.8877 77.1143 0.0000 0.0000 0.0000
# 4 0.0000 0.0000 0.0000 25.3817 0.0000 0.0000
# 5 0.0000 0.0000 0.0000 0.0000 8.0909 0.0000
# 6 0.0000 0.0000 0.0000 0.0000 0.0000 15.6023
#
#
#
# Elastic Compliance Matrix: (Units=1/GPa)
#
#
# Indices 1 2 3 4 5 6 
#
# 1 0.019063 -0.002740 -0.006510 0.000000 0.000000 0.000000
# 2 -0.002740 0.012176 -0.004547 0.000000 0.000000 0.000000
# 3 -0.006510 -0.004547 0.017743 0.000000 0.000000 0.000000
# 4 0.000000 0.000000 0.000000 0.039398 0.000000 0.000000
# 5 0.000000 0.000000 0.000000 0.000000 0.123596 0.000000
# 6 0.000000 0.000000 0.000000 0.000000 0.000000 0.064093
#
#
# Mechanical properties :
#
#
# Convention : Reuss Voigt Hill
#
# Bulk Modulus (GPa) = 46.75944 48.24937 47.50441
# Shear Modulus (GPa) = 16.08789 19.91680 18.00234
#
# Velocity S-wave (km/s) = 3.09452 3.44313 3.27347
# Velocity P-wave (km/s) = 6.37188 6.67281 6.52408
#
# Compressibility (1/GPa) = 0.02138606
#
# Stress axis : x y z
#
# Youngs Moduli (GPa) = 52.45867 82.12995 56.36064
#
# Poissons Ratio (x) = 0.22504 0.36692
# Poissons Ratio (y) = 0.14374 0.25629
# Poissons Ratio (z) = 0.34152 0.37347
#
# Static dielectric constant tensor:
#      x y z
#    x 2.969210 0.000000 0.000000 
#    y 0.000000 3.430800 0.000000 
#    z 0.000000 0.000000 3.062330 
# 
# 
# High freq. dielectric constant tensor:
#      x y z
#    x 1.632400 0.000000 0.000000 
#    y 0.000000 1.646610 0.000000 
#    z 0.000000 0.000000 1.622750 
# 
# From -- ./inp_files/13070.got.cif
#   From: 2010.03.12/outbox.cif.g09.slc.cpg/sg38_7_cif.got.tgz:13070.got - 2010.04.14 02:38:36.
