data_PCOD8177346
_publ_section_title
;
Structure prediction by ZEFSAII (Michael W. Deem and Ramdas Pophale) SiO2 
 PCOD8177346
Probable space group: A M M 2
;
_chemical_formula_sum "Si O2"
_cell_formula_units_Z 56
_cell_length_a 9.166710
_cell_length_b 13.771017
_cell_length_c 29.401397
_cell_angle_alpha 90.000000
_cell_angle_beta 90.000000
_cell_angle_gamma 90.000000
_cell_volume 3711.482976
_symmetry_space_group_name_H-M "A M M 2"
_symmetry_group_IT_number 38
_symmetry_cell_setting 'orthorhombic'
loop_
_space_group_symop_operation_xyz
x,y,z
-x,-y,z
-x,y,z
x,-y,z
x,1/2+y,1/2+z
-x,1/2-y,1/2+z
-x,1/2+y,1/2+z
x,1/2-y,1/2+z
loop_
_atom_site_type_symbol
_atom_site_label
_atom_site_fract_x
_atom_site_fract_y
_atom_site_fract_z
Si Si1 0.329713 0.110708 0.221390
Si Si2 0.667861 0.610105 0.185308
Si Si3 0.840554 0.384938 0.450142
Si Si4 0.826860 0.283167 0.263897
Si Si5 0.332943 0.209417 0.127871
Si Si6 0.174033 0.390140 0.548194
Si Si7 0.174214 0.608731 0.352922
O O1 0.500000 0.128243 0.230499
O O2 0.239024 0.176429 0.256317
O O3 0.290782 0.139741 0.169840
O O4 0.283554 0.000000 0.229605
O O5 0.500000 0.623103 0.200809
O O6 0.702985 0.500000 0.170800
O O7 0.769102 0.639986 0.227181
O O8 0.698361 0.679063 0.141983
O O9 0.859063 0.500000 0.449186
O O10 0.762523 0.357765 0.498179
O O11 0.761634 0.354962 0.402358
O O12 0.000000 0.335608 0.450721
O O13 0.774053 0.318515 0.313531
O O14 0.000000 0.278587 0.259935
O O15 0.500000 0.193483 0.113698
O O16 0.233401 0.184457 0.085145
O O17 0.225315 0.500000 0.559846
O O18 0.000000 0.385379 0.547395
O O19 0.231049 0.500000 0.341588
O O20 0.000000 0.606816 0.356256
#
# Coordination Sequence:
#
# PCOD8177346 Si02
#       7
#     8   8   8   8   8   8   8
#     4   9  18  32  45  56  77 112 146 168 192 236
#     4   9  18  32  45  56  77 111 144 168 194 237
#     4   7  11  21  36  54  78 107 134 156 184 232
#     4  10  18  26  41  66  88 104 130 169 208 240
#     4   9  17  28  42  59  77 101 134 166 198 235
#     4   9  16  25  39  60  83 106 132 161 194 234
#     4   8  13  22  37  58  84 110 132 156 191 237
#
# _framework density 15.088308
#
# number of rings (size 3 to 8) (size 9 to 14) (size 15 to 20)
#    0.000    3.286    0.000    3.857    0.000    4.286 
#    0.000    0.000    0.000    1.714    0.000    5.000 
#    0.000    5.714    0.000    0.000    0.000    0.000 
#
# Total GULP energy -346909.381698 kJ/mol
# GULP energy per Si atom -12389.620775 kJ/mol
# Density = 1.505397 g / cm^3
# Si number density = 15.088308 Si / 1000 Ang^3
#
#
#
# Elastic Constant Matrix: (Units=GPa)
#
#
# Indices 1 2 3 4 5 6 
#
# 1 33.7172 28.9750 37.4991 0.0000 0.0000 0.0000
# 2 28.9750 103.7411 63.6629 0.0000 0.0000 0.0000
# 3 37.4991 63.6629 137.4956 0.0000 0.0000 0.0000
# 4 0.0000 0.0000 0.0000 22.5225 0.0000 0.0000
# 5 0.0000 0.0000 0.0000 0.0000 1.0237 0.0000
# 6 0.0000 0.0000 0.0000 0.0000 0.0000 19.9772
#
#
#
# Elastic Compliance Matrix: (Units=1/GPa)
#
#
# Indices 1 2 3 4 5 6 
#
# 1 0.046138 -0.007214 -0.009243 0.000000 0.000000 0.000000
# 2 -0.007214 0.014594 -0.004790 0.000000 0.000000 0.000000
# 3 -0.009243 -0.004790 0.012011 0.000000 0.000000 0.000000
# 4 0.000000 0.000000 0.000000 0.044400 0.000000 0.000000
# 5 0.000000 0.000000 0.000000 0.000000 0.976870 0.000000
# 6 0.000000 0.000000 0.000000 0.000000 0.000000 0.050057
#
#
# Mechanical properties :
#
#
# Convention : Reuss Voigt Hill
#
# Bulk Modulus (GPa) = 33.05855 59.46977 46.26416
# Shear Modulus (GPa) = 4.17835 18.35914 11.26875
#
# Velocity S-wave (km/s) = 1.66592 3.49202 2.73583
# Velocity P-wave (km/s) = 5.06537 7.46719 6.38032
#
# Compressibility (1/GPa) = 0.03024936
#
# Stress axis : x y z
#
# Youngs Moduli (GPa) = 21.67434 68.52351 83.25462
#
# Poissons Ratio (x) = 0.49435 0.76950
# Poissons Ratio (y) = 0.15637 0.39875
# Poissons Ratio (z) = 0.20033 0.32819
#
# Static dielectric constant tensor:
#      x y z
#    x 2.647120 0.000000 0.000000 
#    y 0.000000 2.830290 0.000000 
#    z 0.000000 0.000000 3.169480 
# 
# 
# High freq. dielectric constant tensor:
#      x y z
#    x 1.552770 0.000000 0.000000 
#    y 0.000000 1.552470 0.000000 
#    z 0.000000 0.000000 1.579150 
# 
# From -- ./inp_files/24639.got.cif
#   From: 2010.03.12/outbox.cif.g09.slc.cpg/sg38_13_cif.got.tgz:24639.got - 2010.04.14 02:38:36.
