data_PCOD8177547
_publ_section_title
;
Structure prediction by ZEFSAII (Michael W. Deem and Ramdas Pophale) SiO2 
 PCOD8177547
Probable space group: A M M 2
;
_chemical_formula_sum "Si O2"
_cell_formula_units_Z 64
_cell_length_a 8.769886
_cell_length_b 23.347756
_cell_length_c 19.036955
_cell_angle_alpha 90.000000
_cell_angle_beta 90.000000
_cell_angle_gamma 90.000000
_cell_volume 3897.952812
_symmetry_space_group_name_H-M "A M M 2"
_symmetry_group_IT_number 38
_symmetry_cell_setting 'orthorhombic'
loop_
_space_group_symop_operation_xyz
x,y,z
-x,-y,z
-x,y,z
x,-y,z
x,1/2+y,1/2+z
-x,1/2-y,1/2+z
-x,1/2+y,1/2+z
x,1/2-y,1/2+z
loop_
_atom_site_type_symbol
_atom_site_label
_atom_site_fract_x
_atom_site_fract_y
_atom_site_fract_z
Si Si1 0.319675 0.935920 0.129960
Si Si2 0.679374 0.167201 0.505567
Si Si3 0.680515 0.936392 0.412656
Si Si4 0.680307 0.251885 0.275260
Si Si5 0.820391 0.273740 0.131968
Si Si6 0.681430 0.121098 0.271806
Si Si7 0.824459 0.838967 0.048902
Si Si8 0.821961 0.766179 0.918103
O O1 0.500000 0.937279 0.133109
O O2 0.253406 0.910335 0.202675
O O3 0.269915 0.896114 0.065113
O O4 0.254801 0.000000 0.119008
O O5 0.500000 0.173496 0.518695
O O6 0.724447 0.104023 0.478069
O O7 0.768643 0.176894 0.578101
O O8 0.727661 0.211874 0.445572
O O9 0.500000 0.938825 0.404564
O O10 0.748281 0.911134 0.340023
O O11 0.747381 0.000000 0.425866
O O12 0.500000 0.257087 0.283256
O O13 0.734360 0.284051 0.205067
O O14 0.738267 0.186452 0.272088
O O15 0.761323 0.282646 0.341135
O O16 0.770937 0.212576 0.099780
O O17 0.000000 0.277842 0.143282
O O18 0.500000 0.119793 0.271716
O O19 0.000000 0.852794 0.062102
O O20 0.793570 0.820743 0.968502
O O21 0.000000 0.750007 0.917610
#
# Coordination Sequence:
#
# PCOD8177547 Si02
#       8
#     8   8   8   8   8   8   8   8
#     4  10  19  30  47  70  96 128 164 201 238 274
#     4  10  18  30  48  72  95 124 166 206 240 281
#     4   9  16  27  45  69  97 128 163 201 238 276
#     4  11  19  30  50  75  96 126 164 200 239 286
#     4  10  20  33  48  68  96 130 160 197 249 293
#     4   9  16  27  42  67  98 127 160 194 229 271
#     4   9  19  33  47  65  91 127 164 196 237 284
#     4  10  20  33  48  68  97 129 159 198 248 294
#
# _framework density 16.418875
#
# number of rings (size 3 to 8) (size 9 to 14) (size 15 to 20)
#    0.000    2.250    2.500    2.625    0.000    4.250 
#    0.000    0.000    0.000    1.500    0.000    0.875 
#    0.000    5.000    0.000    0.000    0.000    0.000 
#
# Total GULP energy -396808.507231 kJ/mol
# GULP energy per Si atom -12400.265851 kJ/mol
# Density = 1.638150 g / cm^3
# Si number density = 16.418875 Si / 1000 Ang^3
#
#
#
# Elastic Constant Matrix: (Units=GPa)
#
#
# Indices 1 2 3 4 5 6 
#
# 1 37.0124 22.0921 22.9204 0.0000 0.0000 0.0000
# 2 22.0921 86.2750 52.2767 0.0000 0.0000 0.0000
# 3 22.9204 52.2767 120.0449 0.0000 0.0000 0.0000
# 4 0.0000 0.0000 0.0000 23.1563 0.0000 0.0000
# 5 0.0000 0.0000 0.0000 0.0000 25.7305 0.0000
# 6 0.0000 0.0000 0.0000 0.0000 0.0000 13.8387
#
#
#
# Elastic Compliance Matrix: (Units=1/GPa)
#
#
# Indices 1 2 3 4 5 6 
#
# 1 0.032974 -0.006288 -0.003558 0.000000 0.000000 0.000000
# 2 -0.006288 0.016945 -0.006178 0.000000 0.000000 0.000000
# 3 -0.003558 -0.006178 0.011700 0.000000 0.000000 0.000000
# 4 0.000000 0.000000 0.000000 0.043185 0.000000 0.000000
# 5 0.000000 0.000000 0.000000 0.000000 0.038864 0.000000
# 6 0.000000 0.000000 0.000000 0.000000 0.000000 0.072261
#
#
# Mechanical properties :
#
#
# Convention : Reuss Voigt Hill
#
# Bulk Modulus (GPa) = 33.81687 48.65674 41.23681
# Shear Modulus (GPa) = 19.39233 22.28132 20.83682
#
# Velocity S-wave (km/s) = 3.44044 3.68782 3.56628
# Velocity P-wave (km/s) = 6.03517 6.91609 6.49059
#
# Compressibility (1/GPa) = 0.02957104
#
# Stress axis : x y z
#
# Youngs Moduli (GPa) = 30.32672 59.01556 85.46986
#
# Poissons Ratio (x) = 0.37109 0.30407
# Poissons Ratio (y) = 0.19069 0.52807
# Poissons Ratio (z) = 0.10789 0.36462
#
# Static dielectric constant tensor:
#      x y z
#    x 2.884140 0.000000 0.000000 
#    y 0.000000 3.048970 0.000000 
#    z 0.000000 0.000000 3.154290 
# 
# 
# High freq. dielectric constant tensor:
#      x y z
#    x 1.619520 0.000000 0.000000 
#    y 0.000000 1.603100 0.000000 
#    z 0.000000 0.000000 1.631320 
# 
# From -- ./inp_files/17284.got.cif
#   From: 2010.03.12/outbox.cif.g09.slc.cpg/sg38_9_cif.got.tgz:17284.got - 2010.04.14 02:38:36.
