data_PCOD8177611
_publ_section_title
;
Structure prediction by ZEFSAII (Michael W. Deem and Ramdas Pophale) SiO2 
 PCOD8177611
Probable space group: A M M 2
;
_chemical_formula_sum "Si O2"
_cell_formula_units_Z 56
_cell_length_a 15.296772
_cell_length_b 8.732441
_cell_length_c 20.142688
_cell_angle_alpha 90.000000
_cell_angle_beta 90.000000
_cell_angle_gamma 90.000000
_cell_volume 2690.623180
_symmetry_space_group_name_H-M "A M M 2"
_symmetry_group_IT_number 38
_symmetry_cell_setting 'orthorhombic'
loop_
_space_group_symop_operation_xyz
x,y,z
-x,-y,z
-x,y,z
x,-y,z
x,1/2+y,1/2+z
-x,1/2-y,1/2+z
-x,1/2+y,1/2+z
x,1/2-y,1/2+z
loop_
_atom_site_type_symbol
_atom_site_label
_atom_site_fract_x
_atom_site_fract_y
_atom_site_fract_z
Si Si1 0.592182 0.324591 0.033290
Si Si2 0.228328 0.679247 0.362026
Si Si3 0.097724 0.175667 0.261747
Si Si4 0.642458 0.174374 0.678821
Si Si5 0.219455 0.817820 0.497749
Si Si6 0.815702 0.324088 0.629518
Si Si7 0.402016 0.822340 0.311914
O O1 0.500000 0.251715 0.006237
O O2 0.595252 0.500000 0.010431
O O3 0.585723 0.312480 0.112660
O O4 0.681216 0.249457 0.005871
O O5 0.225075 0.500000 0.373629
O O6 0.169577 0.721964 0.298787
O O7 0.185931 0.761751 0.426410
O O8 0.329080 0.729246 0.352493
O O9 0.104762 0.191867 0.181620
O O10 0.000000 0.227746 0.281944
O O11 0.114607 0.000000 0.282446
O O12 0.739333 0.228778 0.663401
O O13 0.599130 0.279160 0.734620
O O14 0.646354 0.000000 0.705204
O O15 0.160662 0.747655 0.557363
O O16 0.215642 0.000000 0.503574
O O17 0.787888 0.500000 0.619634
O O18 0.500000 0.788113 0.339598
O O19 0.378808 0.000000 0.319750
#
# Coordination Sequence:
#
# PCOD8177611 Si02
#       7
#     8   8   8   8   8   8   8
#     4   8  15  28  48  76 109 148 197 248 297 351
#     4  12  25  41  62  89 125 166 210 259 310 370
#     4  10  22  42  69  97 125 159 199 249 312 376
#     4  10  18  30  52  82 117 156 198 250 307 360
#     4  10  21  37  59  84 118 163 208 252 305 364
#     4  10  19  35  61  90 121 155 197 248 305 368
#     4  11  23  37  55  82 119 165 213 259 309 365
#
# _framework density 20.813023000000001
#
# number of rings (size 3 to 8) (size 9 to 14) (size 15 to 20)
#    0.000    1.857    1.429    4.286    0.000    3.143 
#    0.000    2.143    0.000   10.714    0.000    0.000 
#    0.000    0.000    0.000    0.000    0.000    0.000 
#
# Total GULP energy -347048.443771 kJ/mol
# GULP energy per Si atom -12394.587278 kJ/mol
# Density = 2.076565 g / cm^3
# Si number density = 20.813023 Si / 1000 Ang^3
#
#
#
# Elastic Constant Matrix: (Units=GPa)
#
#
# Indices 1 2 3 4 5 6 
#
# 1 70.2453 28.1928 19.1440 0.0000 0.0000 0.0000
# 2 28.1928 64.4796 32.1367 0.0000 0.0000 0.0000
# 3 19.1440 32.1367 110.6304 0.0000 0.0000 0.0000
# 4 0.0000 0.0000 0.0000 33.6749 0.0000 0.0000
# 5 0.0000 0.0000 0.0000 0.0000 -14.4141 0.0000
# 6 0.0000 0.0000 0.0000 0.0000 0.0000 15.8642
#
#
#
# Elastic Compliance Matrix: (Units=1/GPa)
#
#
# Indices 1 2 3 4 5 6 
#
# 1 0.017348 -0.007120 -0.000934 0.000000 0.000000 0.000000
# 2 -0.007120 0.021056 -0.004885 0.000000 0.000000 0.000000
# 3 -0.000934 -0.004885 0.010620 0.000000 0.000000 0.000000
# 4 0.000000 0.000000 0.000000 0.029696 0.000000 0.000000
# 5 0.000000 0.000000 0.000000 0.000000 -0.069376 0.000000
# 6 0.000000 0.000000 0.000000 0.000000 0.000000 0.063035
#
#
# Mechanical properties :
#
#
# Convention : Reuss Voigt Hill
#
# Bulk Modulus (GPa) = 43.20097 44.92245 44.06171
# Shear Modulus (GPa) = 47.18330 18.08379 32.63354
#
# Velocity S-wave (km/s) = 4.76648 2.95086 3.96402
# Velocity P-wave (km/s) = 7.14802 5.76548 6.49365
#
# Compressibility (1/GPa) = 0.02314763
#
# Stress axis : x y z
#
# Youngs Moduli (GPa) = 57.64427 47.49187 94.16565
#
# Poissons Ratio (x) = 0.33813 0.08793
# Poissons Ratio (y) = 0.41041 0.45996
# Poissons Ratio (z) = 0.05383 0.23198
#
# Static dielectric constant tensor:
#      x y z
#    x 3.735830 0.000000 0.000000 
#    y 0.000000 3.660310 0.000000 
#    z 0.000000 0.000000 3.944870 
# 
# 
# High freq. dielectric constant tensor:
#      x y z
#    x 1.793490 0.000000 0.000000 
#    y 0.000000 1.802400 0.000000 
#    z 0.000000 0.000000 1.817890 
# 
# From -- ./inp_files/21078.got.cif
#   From: 2010.03.12/outbox.cif.g09.slc.cpg/sg38_11_cif.got.tgz:21078.got - 2010.04.14 02:38:36.
