data_PCOD8177550
_publ_section_title
;
Structure prediction by ZEFSAII (Michael W. Deem and Ramdas Pophale) SiO2 
 PCOD8177550
Probable space group: A M M 2
;
_chemical_formula_sum "Si O2"
_cell_formula_units_Z 52
_cell_length_a 12.380106
_cell_length_b 25.463397
_cell_length_c 9.421316
_cell_angle_alpha 90.000000
_cell_angle_beta 90.000000
_cell_angle_gamma 90.000000
_cell_volume 2969.971454
_symmetry_space_group_name_H-M "A M M 2"
_symmetry_group_IT_number 38
_symmetry_cell_setting 'orthorhombic'
loop_
_space_group_symop_operation_xyz
x,y,z
-x,-y,z
-x,y,z
x,-y,z
x,1/2+y,1/2+z
-x,1/2-y,1/2+z
-x,1/2+y,1/2+z
x,1/2-y,1/2+z
loop_
_atom_site_type_symbol
_atom_site_label
_atom_site_fract_x
_atom_site_fract_y
_atom_site_fract_z
Si Si1 0.767242 0.126048 0.724300
Si Si2 0.233045 0.213831 0.485347
Si Si3 0.624667 0.940185 0.527958
Si Si4 0.000000 0.366188 0.229296
Si Si5 0.237673 0.335578 0.532950
Si Si6 0.000000 0.788975 0.483352
Si Si7 0.626255 0.855193 0.296676
Si Si8 0.000000 0.676029 0.527637
O O1 0.768001 0.178416 0.627423
O O2 0.690272 0.081516 0.662012
O O3 0.888443 0.100884 0.736995
O O4 0.727464 0.141582 0.880738
O O5 0.256114 0.273067 0.532489
O O6 0.325682 0.195149 0.378440
O O7 0.115968 0.210022 0.401386
O O8 0.500000 0.934856 0.569479
O O9 0.650565 0.907713 0.385922
O O10 0.658164 0.000000 0.498104
O O11 0.000000 0.339588 0.078477
O O12 0.000000 0.322905 0.355134
O O13 0.316506 0.362543 0.645798
O O14 0.112797 0.350924 0.576027
O O15 0.000000 0.736228 0.579722
O O16 0.500000 0.845356 0.274034
#
# Coordination Sequence:
#
# PCOD8177550 Si02
#       8
#     8   8   8   4   8   4   8   4
#     4   9  17  30  50  73  97 127 161 194 232 280
#     4   9  17  30  47  70 101 134 163 191 227 273
#     4   9  19  38  58  70  85 115 158 206 248 284
#     4   8  14  26  41  67 101 123 148 193 238 274
#     4  10  18  30  48  73 103 131 161 194 228 275
#     4   8  14  24  44  67  89 125 171 201 216 255
#     4  10  21  33  46  69  99 130 161 195 241 286
#     4   8  16  26  42  66  96 132 161 190 229 265
#
# _framework density 17.508586000000001
#
# number of rings (size 3 to 8) (size 9 to 14) (size 15 to 20)
#    0.000    2.923    0.000    0.923    0.000    5.538 
#    0.000    5.000    0.000    1.846    0.000    1.077 
#    0.000    0.000    0.000    0.000    0.000    0.000 
#
# Total GULP energy -322110.285417 kJ/mol
# GULP energy per Si atom -12388.857131 kJ/mol
# Density = 1.746874 g / cm^3
# Si number density = 17.508586 Si / 1000 Ang^3
#
#
#
# Elastic Constant Matrix: (Units=GPa)
#
#
# Indices 1 2 3 4 5 6 
#
# 1 128.2649 51.8208 67.7278 0.0000 0.0000 0.0000
# 2 51.8208 80.3234 35.7314 0.0000 0.0000 0.0000
# 3 67.7278 35.7314 100.1727 0.0000 0.0000 0.0000
# 4 0.0000 0.0000 0.0000 10.8171 0.0000 0.0000
# 5 0.0000 0.0000 0.0000 0.0000 30.1001 0.0000
# 6 0.0000 0.0000 0.0000 0.0000 0.0000 18.8890
#
#
#
# Elastic Compliance Matrix: (Units=1/GPa)
#
#
# Indices 1 2 3 4 5 6 
#
# 1 0.014055 -0.005753 -0.007450 0.000000 0.000000 0.000000
# 2 -0.005753 0.017153 -0.002229 0.000000 0.000000 0.000000
# 3 -0.007450 -0.002229 0.015815 0.000000 0.000000 0.000000
# 4 0.000000 0.000000 0.000000 0.092447 0.000000 0.000000
# 5 0.000000 0.000000 0.000000 0.000000 0.033223 0.000000
# 6 0.000000 0.000000 0.000000 0.000000 0.000000 0.052941
#
#
# Mechanical properties :
#
#
# Convention : Reuss Voigt Hill
#
# Bulk Modulus (GPa) = 61.88829 68.81344 65.35086
# Shear Modulus (GPa) = 19.09250 22.19329 20.64290
#
# Velocity S-wave (km/s) = 3.30580 3.56415 3.43740
# Velocity P-wave (km/s) = 7.07073 7.50504 7.29112
#
# Compressibility (1/GPa) = 0.01615815
#
# Stress axis : x y z
#
# Youngs Moduli (GPa) = 71.15014 58.29988 63.23117
#
# Poissons Ratio (x) = 0.33541 0.47110
# Poissons Ratio (y) = 0.40934 0.14091
# Poissons Ratio (z) = 0.53010 0.12992
#
# Static dielectric constant tensor:
#      x y z
#    x 3.583700 0.000000 0.000000 
#    y 0.000000 2.917050 0.000000 
#    z 0.000000 0.000000 3.125310 
# 
# 
# High freq. dielectric constant tensor:
#      x y z
#    x 1.692430 0.000000 0.000000 
#    y 0.000000 1.630550 0.000000 
#    z 0.000000 0.000000 1.668110 
# 
# From -- ./inp_files/4790.got.cif
#   From: 2010.03.12/outbox.cif.g09.slc.cpg/sg38_3_cif.got.tgz:4790.got - 2010.04.14 02:38:36.
