data_PCOD8177707
_publ_section_title
;
Structure prediction by ZEFSAII (Michael W. Deem and Ramdas Pophale) SiO2 
 PCOD8177707
Probable space group: A M M 2
;
_chemical_formula_sum "Si O2"
_cell_formula_units_Z 64
_cell_length_a 9.053223
_cell_length_b 22.957254
_cell_length_c 19.192895
_cell_angle_alpha 90.000000
_cell_angle_beta 90.000000
_cell_angle_gamma 90.000000
_cell_volume 3988.996404
_symmetry_space_group_name_H-M "A M M 2"
_symmetry_group_IT_number 38
_symmetry_cell_setting 'orthorhombic'
loop_
_space_group_symop_operation_xyz
x,y,z
-x,-y,z
-x,y,z
x,-y,z
x,1/2+y,1/2+z
-x,1/2-y,1/2+z
-x,1/2+y,1/2+z
x,1/2-y,1/2+z
loop_
_atom_site_type_symbol
_atom_site_label
_atom_site_fract_x
_atom_site_fract_y
_atom_site_fract_z
Si Si1 0.174806 0.835517 0.469580
Si Si2 0.329642 0.220987 0.346655
Si Si3 0.673770 0.754833 0.699547
Si Si4 0.329415 0.067563 0.549824
Si Si5 0.169959 0.566793 0.333306
Si Si6 0.667801 0.157336 0.921914
Si Si7 0.672715 0.267766 0.547794
Si Si8 0.325195 0.885861 0.698979
O O1 0.232162 0.823365 0.391474
O O2 0.231324 0.898443 0.493625
O O3 0.235887 0.787642 0.522790
O O4 0.000000 0.833881 0.469699
O O5 0.500000 0.201516 0.352602
O O6 0.268829 0.219300 0.266991
O O7 0.310061 0.286944 0.372769
O O8 0.500000 0.761429 0.708010
O O9 0.714168 0.720201 0.628534
O O10 0.738991 0.820163 0.697275
O O11 0.500000 0.085569 0.540276
O O12 0.277118 0.082599 0.627915
O O13 0.303664 0.000000 0.535432
O O14 0.193548 0.500000 0.354940
O O15 0.227023 0.605591 0.397603
O O16 0.256885 0.579189 0.262750
O O17 0.000000 0.581686 0.320283
O O18 0.500000 0.134965 0.917749
O O19 0.709825 0.175447 0.001396
O O20 0.500000 0.251440 0.539184
O O21 0.500000 0.887002 0.708913
#
# Coordination Sequence:
#
# PCOD8177707 Si02
#       8
#     8   8   8   8   8   8   8   8
#     4  11  21  31  45  69  98 129 159 193 236 279
#     4   9  17  31  50  70  93 122 156 193 235 282
#     4   9  15  28  52  75  94 120 154 193 237 281
#     4  10  20  34  52  70  91 126 167 202 236 276
#     4  11  23  34  44  63  96 134 165 197 237 277
#     4   9  17  30  49  71  91 120 160 199 235 275
#     4   9  17  32  52  71  94 121 155 198 242 285
#     4  10  18  32  51  70  92 124 165 199 230 274
#
# _framework density 16.044135000000001
#
# number of rings (size 3 to 8) (size 9 to 14) (size 15 to 20)
#    0.000    2.250    2.500    2.625    0.000    4.250 
#    0.000    0.625    0.000    0.000    0.000    0.875 
#    0.000    3.000    0.000    0.000    0.000    0.000 
#
# Total GULP energy -396763.880520 kJ/mol
# GULP energy per Si atom -12398.871266 kJ/mol
# Density = 1.600762 g / cm^3
# Si number density = 16.044135 Si / 1000 Ang^3
#
#
#
# Elastic Constant Matrix: (Units=GPa)
#
#
# Indices 1 2 3 4 5 6 
#
# 1 66.6965 41.5038 44.8331 0.0000 0.0000 0.0000
# 2 41.5038 75.1919 54.4875 0.0000 0.0000 0.0000
# 3 44.8331 54.4875 139.1187 0.0000 0.0000 0.0000
# 4 0.0000 0.0000 0.0000 25.1507 0.0000 0.0000
# 5 0.0000 0.0000 0.0000 0.0000 7.1555 0.0000
# 6 0.0000 0.0000 0.0000 0.0000 0.0000 18.4094
#
#
#
# Elastic Compliance Matrix: (Units=1/GPa)
#
#
# Indices 1 2 3 4 5 6 
#
# 1 0.024037 -0.010688 -0.003560 0.000000 0.000000 0.000000
# 2 -0.010688 0.023322 -0.005690 0.000000 0.000000 0.000000
# 3 -0.003560 -0.005690 0.010564 0.000000 0.000000 0.000000
# 4 0.000000 0.000000 0.000000 0.039760 0.000000 0.000000
# 5 0.000000 0.000000 0.000000 0.000000 0.139752 0.000000
# 6 0.000000 0.000000 0.000000 0.000000 0.000000 0.054320
#
#
# Mechanical properties :
#
#
# Convention : Reuss Voigt Hill
#
# Bulk Modulus (GPa) = 55.41138 62.51732 58.96435
# Shear Modulus (GPa) = 14.80832 19.48865 17.14849
#
# Velocity S-wave (km/s) = 3.04135 3.48902 3.27285
# Velocity P-wave (km/s) = 6.85163 7.43515 7.14935
#
# Compressibility (1/GPa) = 0.01804683
#
# Stress axis : x y z
#
# Youngs Moduli (GPa) = 41.60179 42.87801 94.66087
#
# Poissons Ratio (x) = 0.45828 0.33703
# Poissons Ratio (y) = 0.44464 0.53862
# Poissons Ratio (z) = 0.14812 0.24397
#
# Static dielectric constant tensor:
#      x y z
#    x 2.884410 0.000000 0.000000 
#    y 0.000000 2.863500 0.000000 
#    z 0.000000 0.000000 3.274200 
# 
# 
# High freq. dielectric constant tensor:
#      x y z
#    x 1.601450 0.000000 0.000000 
#    y 0.000000 1.587330 0.000000 
#    z 0.000000 0.000000 1.619650 
# 
# From -- ./inp_files/20252.got.cif
#   From: 2010.03.12/outbox.cif.g09.slc.cpg/sg38_11_cif.got.tgz:20252.got - 2010.04.14 02:38:36.
