data_PCOD8177380
_publ_section_title
;
Structure prediction by ZEFSAII (Michael W. Deem and Ramdas Pophale) SiO2 
 PCOD8177380
Probable space group: A M M 2
;
_chemical_formula_sum "Si O2"
_cell_formula_units_Z 64
_cell_length_a 9.077179
_cell_length_b 18.189309
_cell_length_c 26.596032
_cell_angle_alpha 90.000000
_cell_angle_beta 90.000000
_cell_angle_gamma 90.000000
_cell_volume 4391.207377
_symmetry_space_group_name_H-M "A M M 2"
_symmetry_group_IT_number 38
_symmetry_cell_setting 'orthorhombic'
loop_
_space_group_symop_operation_xyz
x,y,z
-x,-y,z
-x,y,z
x,-y,z
x,1/2+y,1/2+z
-x,1/2-y,1/2+z
-x,1/2+y,1/2+z
x,1/2-y,1/2+z
loop_
_atom_site_type_symbol
_atom_site_label
_atom_site_fract_x
_atom_site_fract_y
_atom_site_fract_z
Si Si1 0.329002 0.586176 0.767920
Si Si2 0.829157 0.085730 0.572199
Si Si3 0.324871 0.342517 0.979314
Si Si4 0.674287 0.919007 0.380063
Si Si5 0.173942 0.828858 0.181123
Si Si6 0.826947 0.417967 0.583000
Si Si7 0.336996 0.799235 0.030600
Si Si8 0.333942 0.796339 0.630767
O O1 0.500000 0.604462 0.757865
O O2 0.299244 0.500000 0.758808
O O3 0.280527 0.608531 0.824561
O O4 0.227390 0.634644 0.732337
O O5 0.755100 0.105027 0.519057
O O6 0.752760 0.128579 0.618542
O O7 0.000000 0.108490 0.569825
O O8 0.808399 0.000000 0.582989
O O9 0.500000 0.352965 0.986937
O O10 0.270232 0.363836 0.923415
O O11 0.281677 0.256546 0.987028
O O12 0.500000 0.925404 0.381795
O O13 0.741754 0.000000 0.390239
O O14 0.221431 0.882957 0.135898
O O15 0.250512 0.749412 0.174261
O O16 0.000000 0.817028 0.182718
O O17 0.760394 0.500000 0.580144
O O18 0.766978 0.369991 0.536276
O O19 0.000000 0.420029 0.577725
O O20 0.500000 0.828738 0.018519
O O21 0.336357 0.752097 0.081025
O O22 0.500000 0.814683 0.648618
#
# Coordination Sequence:
#
# PCOD8177380 Si02
#       8
#     8   8   8   8   8   8   8   8
#     4   9  17  28  41  58  80 106 138 173 204 237
#     4  10  19  28  39  59  86 111 135 165 201 239
#     4   9  16  27  43  59  77 106 142 172 200 239
#     4   8  14  25  41  59  78 103 137 174 205 232
#     4  10  18  28  42  58  79 106 134 166 205 244
#     4   9  17  27  38  53  74 102 133 159 187 230
#     4   8  15  25  37  56  77  97 125 162 199 231
#     4   9  17  29  43  58  77 103 136 168 197 235
#
# _framework density 14.574579
#
# number of rings (size 3 to 8) (size 9 to 14) (size 15 to 20)
#    0.000    3.000    0.000    3.375    0.000    6.000 
#    0.000    0.625    0.000    0.750    0.000    0.000 
#    0.000    1.000    0.000    9.250    0.000    3.125 
#
# Total GULP energy -396641.224997 kJ/mol
# GULP energy per Si atom -12395.038281 kJ/mol
# Density = 1.454141 g / cm^3
# Si number density = 14.574579 Si / 1000 Ang^3
#
#
#
# Elastic Constant Matrix: (Units=GPa)
#
#
# Indices 1 2 3 4 5 6 
#
# 1 59.0897 41.6920 31.3344 0.0000 0.0000 0.0000
# 2 41.6920 92.9005 53.2342 0.0000 0.0000 0.0000
# 3 31.3344 53.2342 83.6834 0.0000 0.0000 0.0000
# 4 0.0000 0.0000 0.0000 24.5059 0.0000 0.0000
# 5 0.0000 0.0000 0.0000 0.0000 13.9114 0.0000
# 6 0.0000 0.0000 0.0000 0.0000 0.0000 24.2068
#
#
#
# Elastic Compliance Matrix: (Units=1/GPa)
#
#
# Indices 1 2 3 4 5 6 
#
# 1 0.025421 -0.009370 -0.003558 0.000000 0.000000 0.000000
# 2 -0.009370 0.020392 -0.009464 0.000000 0.000000 0.000000
# 3 -0.003558 -0.009464 0.019303 0.000000 0.000000 0.000000
# 4 0.000000 0.000000 0.000000 0.040806 0.000000 0.000000
# 5 0.000000 0.000000 0.000000 0.000000 0.071884 0.000000
# 6 0.000000 0.000000 0.000000 0.000000 0.000000 0.041311
#
#
# Mechanical properties :
#
#
# Convention : Reuss Voigt Hill
#
# Bulk Modulus (GPa) = 49.18290 54.24387 51.71339
# Shear Modulus (GPa) = 18.47215 19.81902 19.14559
#
# Velocity S-wave (km/s) = 3.56395 3.69159 3.62833
# Velocity P-wave (km/s) = 7.12423 7.44778 7.28780
#
# Compressibility (1/GPa) = 0.02033227
#
# Stress axis : x y z
#
# Youngs Moduli (GPa) = 39.33716 49.03863 51.80664
#
# Poissons Ratio (x) = 0.45947 0.18435
# Poissons Ratio (y) = 0.36857 0.49029
# Poissons Ratio (z) = 0.13998 0.46409
#
# Static dielectric constant tensor:
#      x y z
#    x 2.813620 0.000000 0.000000 
#    y 0.000000 2.952480 0.000000 
#    z 0.000000 0.000000 2.809970 
# 
# 
# High freq. dielectric constant tensor:
#      x y z
#    x 1.554760 0.000000 0.000000 
#    y 0.000000 1.545910 0.000000 
#    z 0.000000 0.000000 1.525750 
# 
# From -- ./inp_files/23634.got.cif
#   From: 2010.03.12/outbox.cif.g09.slc.cpg/sg38_12_cif.got.tgz:23634.got - 2010.04.14 02:38:36.
