data_PCOD8177502
_publ_section_title
;
Structure prediction by ZEFSAII (Michael W. Deem and Ramdas Pophale) SiO2 
 PCOD8177502
Probable space group: A M M 2
;
_chemical_formula_sum "Si O2"
_cell_formula_units_Z 64
_cell_length_a 8.965914
_cell_length_b 14.393947
_cell_length_c 28.095321
_cell_angle_alpha 90.000000
_cell_angle_beta 90.000000
_cell_angle_gamma 90.000000
_cell_volume 3625.838587
_symmetry_space_group_name_H-M "A M M 2"
_symmetry_group_IT_number 38
_symmetry_cell_setting 'orthorhombic'
loop_
_space_group_symop_operation_xyz
x,y,z
-x,-y,z
-x,y,z
x,-y,z
x,1/2+y,1/2+z
-x,1/2-y,1/2+z
-x,1/2+y,1/2+z
x,1/2-y,1/2+z
loop_
_atom_site_type_symbol
_atom_site_label
_atom_site_fract_x
_atom_site_fract_y
_atom_site_fract_z
Si Si1 0.672916 0.896343 0.815650
Si Si2 0.173781 0.606084 0.683345
Si Si3 0.823306 0.722437 0.501975
Si Si4 0.323285 0.397799 0.856241
Si Si5 0.675086 0.393497 0.584105
Si Si6 0.326022 0.715772 0.766009
Si Si7 0.175420 0.394380 0.412055
Si Si8 0.674449 0.892611 0.462297
O O1 0.500000 0.896134 0.828795
O O2 0.702753 0.826465 0.771540
O O3 0.754823 0.859288 0.862721
O O4 0.727486 0.000000 0.801033
O O5 0.205445 0.500000 0.699518
O O6 0.265066 0.630301 0.636284
O O7 0.227448 0.676574 0.723676
O O8 0.000000 0.622047 0.673300
O O9 0.755821 0.674640 0.548095
O O10 0.765016 0.667588 0.455480
O O11 0.765789 0.828295 0.498844
O O12 0.000000 0.720319 0.506445
O O13 0.500000 0.401280 0.858493
O O14 0.260829 0.500000 0.843473
O O15 0.268465 0.328195 0.815572
O O16 0.267252 0.368737 0.908832
O O17 0.500000 0.374703 0.583068
O O18 0.713263 0.500000 0.570759
O O19 0.500000 0.692897 0.756643
O O20 0.225353 0.500000 0.422248
O O21 0.000000 0.385678 0.407090
O O22 0.500000 0.871043 0.467762
O O23 0.707639 0.000000 0.474523
#
# Coordination Sequence:
#
# PCOD8177502 Si02
#       8
#     8   8   8   8   8   8   8   8
#     4   9  18  31  47  70 100 133 170 211 248 280
#     4  10  21  36  53  75 103 129 154 194 249 302
#     4  11  21  32  50  75 104 136 167 204 252 303
#     4   8  14  25  43  68  96 127 165 207 247 286
#     4  10  21  37  57  79 101 127 161 200 244 299
#     4  10  18  29  49  73  98 131 168 204 243 292
#     4   9  18  31  46  68 101 138 170 200 242 297
#     4   9  18  33  51  71  99 136 177 217 251 286
#
# _framework density 17.651088999999999
#
# number of rings (size 3 to 8) (size 9 to 14) (size 15 to 20)
#    0.000    2.500    0.000    3.375    0.000    5.250 
#    0.000    1.875    0.000    1.500    0.000    1.750 
#    0.000    0.000    0.000    0.000    0.000    0.000 
#
# Total GULP energy -396767.886950 kJ/mol
# GULP energy per Si atom -12398.996467 kJ/mol
# Density = 1.761091 g / cm^3
# Si number density = 17.651089 Si / 1000 Ang^3
#
#
#
# Elastic Constant Matrix: (Units=GPa)
#
#
# Indices 1 2 3 4 5 6 
#
# 1 54.0711 38.6689 36.5641 0.0000 0.0000 0.0000
# 2 38.6689 100.2635 63.4874 0.0000 0.0000 0.0000
# 3 36.5641 63.4874 89.2903 0.0000 0.0000 0.0000
# 4 0.0000 0.0000 0.0000 30.2215 0.0000 0.0000
# 5 0.0000 0.0000 0.0000 0.0000 28.7885 0.0000
# 6 0.0000 0.0000 0.0000 0.0000 0.0000 23.1919
#
#
#
# Elastic Compliance Matrix: (Units=1/GPa)
#
#
# Indices 1 2 3 4 5 6 
#
# 1 0.027635 -0.006353 -0.006800 0.000000 0.000000 0.000000
# 2 -0.006353 0.019602 -0.011336 0.000000 0.000000 0.000000
# 3 -0.006800 -0.011336 0.022044 0.000000 0.000000 0.000000
# 4 0.000000 0.000000 0.000000 0.033089 0.000000 0.000000
# 5 0.000000 0.000000 0.000000 0.000000 0.034736 0.000000
# 6 0.000000 0.000000 0.000000 0.000000 0.000000 0.043119
#
#
# Mechanical properties :
#
#
# Convention : Reuss Voigt Hill
#
# Bulk Modulus (GPa) = 49.24995 57.89618 53.57307
# Shear Modulus (GPa) = 21.18919 23.43400 22.31160
#
# Velocity S-wave (km/s) = 3.46850 3.64761 3.55918
# Velocity P-wave (km/s) = 6.63349 7.11419 6.87804
#
# Compressibility (1/GPa) = 0.02030459
#
# Stress axis : x y z
#
# Youngs Moduli (GPa) = 36.18551 51.01607 45.36378
#
# Poissons Ratio (x) = 0.32408 0.30847
# Poissons Ratio (y) = 0.22987 0.51424
# Poissons Ratio (z) = 0.24606 0.57831
#
# Static dielectric constant tensor:
#      x y z
#    x 3.109250 0.000000 0.000000 
#    y 0.000000 3.430670 0.000000 
#    z 0.000000 0.000000 3.145760 
# 
# 
# High freq. dielectric constant tensor:
#      x y z
#    x 1.671800 0.000000 0.000000 
#    y 0.000000 1.685210 0.000000 
#    z 0.000000 0.000000 1.663300 
# 
# From -- ./inp_files/22175.got.cif
#   From: 2010.03.12/outbox.cif.g09.slc.cpg/sg38_12_cif.got.tgz:22175.got - 2010.04.14 02:38:36.
