data_PCOD8177090
_publ_section_title
;
Structure prediction by ZEFSAII (Michael W. Deem and Ramdas Pophale) SiO2 
 PCOD8177090
Probable space group: C C C 2
;
_chemical_formula_sum "Si O2"
_cell_formula_units_Z 60
_cell_length_a 8.419570
_cell_length_b 22.161692
_cell_length_c 14.779206
_cell_angle_alpha 90.000000
_cell_angle_beta 90.000000
_cell_angle_gamma 90.000000
_cell_volume 2757.680381
_symmetry_space_group_name_H-M "C C C 2"
_symmetry_group_IT_number 37
_symmetry_cell_setting 'orthorhombic'
loop_
_space_group_symop_operation_xyz
x,y,z
-x,-y,z
-x,y,1/2+z
x,-y,1/2+z
1/2+x,1/2+y,z
1/2-x,1/2-y,z
1/2-x,1/2+y,1/2+z
1/2+x,1/2-y,1/2+z
loop_
_atom_site_type_symbol
_atom_site_label
_atom_site_fract_x
_atom_site_fract_y
_atom_site_fract_z
Si Si1 0.735802 0.370996 0.178610
Si Si2 0.999574 0.895429 0.029185
Si Si3 0.988498 0.296157 0.617372
Si Si4 0.948929 0.805605 0.258205
Si Si5 0.240266 0.395779 0.171016
Si Si6 0.570979 0.730161 0.942482
Si Si7 0.171652 0.510291 0.277605
Si Si8 0.500000 0.500000 0.888881
O O1 0.667474 0.388370 0.080038
O O2 0.845715 0.313227 0.162123
O O3 0.605020 0.346261 0.247455
O O4 0.828659 0.425902 0.225671
O O5 0.879085 0.918874 0.105176
O O6 0.927989 0.834846 0.988145
O O7 0.021548 0.941324 0.948474
O O8 0.917781 0.240829 0.675896
O O9 0.883165 0.356192 0.614700
O O10 0.007316 0.276470 0.513206
O O11 0.804726 0.853743 0.254002
O O12 0.960131 0.770192 0.353027
O O13 0.161850 0.456489 0.205806
O O14 0.750000 0.750000 0.918121
O O15 0.335866 0.505332 0.333056
O O16 0.000000 0.500000 0.330554
#
# Coordination Sequence:
#
# PCOD8177090 Si02
#       8
#     8   8   8   8   8   8   8   4
#     4  11  23  44  70  98 136 185 234 297 358 432
#     4  11  23  43  70  97 138 183 237 291 367 424
#     4  12  22  44  66  99 145 178 233 295 347 427
#     4  11  24  41  70  99 136 190 235 280 369 422
#     4  11  22  46  70  96 137 186 237 300 355 431
#     4  12  22  40  66 102 137 183 233 290 348 425
#     4  12  25  47  73 102 140 189 243 296 368 433
#     4  12  26  48  70 108 146 186 240 312 358 442
#
# _framework density 21.757417
#
# number of rings (size 3 to 8) (size 9 to 14) (size 15 to 20)
#    0.000    0.533    5.333    5.600    0.000    0.000 
#    9.600    0.000    0.000    0.000    0.000    0.000 
#    0.000    0.000    0.000    0.000    0.000    0.000 
#
# Total GULP energy -371898.240467 kJ/mol
# GULP energy per Si atom -12396.608016 kJ/mol
# Density = 2.170790 g / cm^3
# Si number density = 21.757417 Si / 1000 Ang^3
#
#
#
# Elastic Constant Matrix: (Units=GPa)
#
#
# Indices 1 2 3 4 5 6 
#
# 1 84.4487 13.8973 14.5759 0.0000 0.0000 0.0000
# 2 13.8973 101.0165 26.0168 0.0000 0.0000 0.0000
# 3 14.5759 26.0168 109.1635 0.0000 0.0000 0.0000
# 4 0.0000 0.0000 0.0000 42.5737 0.0000 0.0000
# 5 0.0000 0.0000 0.0000 0.0000 23.3135 0.0000
# 6 0.0000 0.0000 0.0000 0.0000 0.0000 32.0109
#
#
#
# Elastic Compliance Matrix: (Units=1/GPa)
#
#
# Indices 1 2 3 4 5 6 
#
# 1 0.012292 -0.001351 -0.001319 0.000000 0.000000 0.000000
# 2 -0.001351 0.010695 -0.002369 0.000000 0.000000 0.000000
# 3 -0.001319 -0.002369 0.009901 0.000000 0.000000 0.000000
# 4 0.000000 0.000000 0.000000 0.023489 0.000000 0.000000
# 5 0.000000 0.000000 0.000000 0.000000 0.042894 0.000000
# 6 0.000000 0.000000 0.000000 0.000000 0.000000 0.031239
#
#
# Mechanical properties :
#
#
# Convention : Reuss Voigt Hill
#
# Bulk Modulus (GPa) = 43.84026 44.84541 44.34283
# Shear Modulus (GPa) = 33.74022 35.58887 34.66454
#
# Velocity S-wave (km/s) = 3.94222 4.04878 3.99586
# Velocity P-wave (km/s) = 6.39647 6.52021 6.45864
#
# Compressibility (1/GPa) = 0.02281008
#
# Stress axis : x y z
#
# Youngs Moduli (GPa) = 81.35657 93.49909 100.99775
#
# Poissons Ratio (x) = 0.12634 0.13323
# Poissons Ratio (y) = 0.10993 0.23922
# Poissons Ratio (z) = 0.10732 0.22146
#
# Static dielectric constant tensor:
#      x y z
#    x 4.093880 0.000000 0.000000 
#    y 0.000000 4.125070 0.000000 
#    z 0.000000 0.000000 3.917370 
# 
# 
# High freq. dielectric constant tensor:
#      x y z
#    x 1.861360 0.000000 0.000000 
#    y 0.000000 1.870640 0.000000 
#    z 0.000000 0.000000 1.839770 
# 
# From -- ./inp_files/10946.got.cif
#   From: 2010.03.12/outbox.cif.g09.slc.cpg/sg37_6_cif.got.tgz:10946.got - 2010.04.14 02:25:27.
