data_PCOD8177222
_publ_section_title
;
Structure prediction by ZEFSAII (Michael W. Deem and Ramdas Pophale) SiO2 
 PCOD8177222
Probable space group: A M M 2
;
_chemical_formula_sum "Si O2"
_cell_formula_units_Z 64
_cell_length_a 9.173080
_cell_length_b 18.348705
_cell_length_c 26.601037
_cell_angle_alpha 90.000000
_cell_angle_beta 90.000000
_cell_angle_gamma 90.000000
_cell_volume 4477.330635
_symmetry_space_group_name_H-M "A M M 2"
_symmetry_group_IT_number 38
_symmetry_cell_setting 'orthorhombic'
loop_
_space_group_symop_operation_xyz
x,y,z
-x,-y,z
-x,y,z
x,-y,z
x,1/2+y,1/2+z
-x,1/2-y,1/2+z
-x,1/2+y,1/2+z
x,1/2-y,1/2+z
loop_
_atom_site_type_symbol
_atom_site_label
_atom_site_fract_x
_atom_site_fract_y
_atom_site_fract_z
Si Si1 0.329850 0.583659 0.836510
Si Si2 0.664537 0.796258 0.796743
Si Si3 0.829073 0.668571 0.449255
Si Si4 0.172763 0.081252 0.154525
Si Si5 0.829243 0.083999 0.849193
Si Si6 0.826230 0.168609 0.250315
Si Si7 0.826642 0.081781 0.043395
Si Si8 0.660928 0.288499 0.901141
O O1 0.500000 0.596286 0.822289
O O2 0.294405 0.500000 0.847700
O O3 0.229573 0.610801 0.791164
O O4 0.292105 0.628570 0.887712
O O5 0.500000 0.809171 0.777218
O O6 0.743292 0.873862 0.805076
O O7 0.753992 0.748146 0.756492
O O8 0.665072 0.753458 0.848647
O O9 0.785039 0.614958 0.403810
O O10 0.762533 0.635456 0.500724
O O11 0.766796 0.749878 0.440928
O O12 0.000000 0.677416 0.453280
O O13 0.226120 0.138542 0.196146
O O14 0.224446 0.107518 0.098992
O O15 0.000000 0.076485 0.155525
O O16 0.235265 0.000000 0.165741
O O17 0.000000 0.094763 0.839593
O O18 0.782879 0.000000 0.847149
O O19 0.000000 0.175729 0.254984
O O20 0.000000 0.081751 0.039634
O O21 0.769122 0.000000 0.033136
O O22 0.500000 0.286486 0.924817
#
# Coordination Sequence:
#
# PCOD8177222 Si02
#       8
#     8   8   8   8   8   8   8   8
#     4   9  17  28  40  54  74 101 130 156 185 226
#     4   9  17  28  39  52  73 102 132 157 186 226
#     4   9  15  23  38  57  75  99 129 156 183 216
#     4   8  14  23  35  54  78 100 124 156 190 222
#     4   9  16  25  38  58  81 101 125 159 193 222
#     4  10  17  25  39  57  76  99 128 160 193 223
#     4   8  13  22  36  54  76 100 126 155 184 216
#     4   8  15  26  37  50  71  98 124 152 186 222
#
# _framework density 14.294231
#
# number of rings (size 3 to 8) (size 9 to 14) (size 15 to 20)
#    0.000    3.250    0.000    3.000    0.000    5.500 
#    0.000    0.000    0.000    2.625    0.000    3.500 
#    0.000    1.000    0.000    9.250    0.000    1.875 
#
# Total GULP energy -396568.671992 kJ/mol
# GULP energy per Si atom -12392.771000 kJ/mol
# Density = 1.426170 g / cm^3
# Si number density = 14.294231 Si / 1000 Ang^3
#
#
#
# Elastic Constant Matrix: (Units=GPa)
#
#
# Indices 1 2 3 4 5 6 
#
# 1 44.4555 37.9251 32.6797 0.0000 0.0000 0.0000
# 2 37.9251 106.7224 59.3099 0.0000 0.0000 0.0000
# 3 32.6797 59.3099 89.7523 0.0000 0.0000 0.0000
# 4 0.0000 0.0000 0.0000 26.1088 0.0000 0.0000
# 5 0.0000 0.0000 0.0000 0.0000 7.4979 0.0000
# 6 0.0000 0.0000 0.0000 0.0000 0.0000 19.6846
#
#
#
# Elastic Compliance Matrix: (Units=1/GPa)
#
#
# Indices 1 2 3 4 5 6 
#
# 1 0.034956 -0.008453 -0.007142 0.000000 0.000000 0.000000
# 2 -0.008453 0.016852 -0.008059 0.000000 0.000000 0.000000
# 3 -0.007142 -0.008059 0.019067 0.000000 0.000000 0.000000
# 4 0.000000 0.000000 0.000000 0.038301 0.000000 0.000000
# 5 0.000000 0.000000 0.000000 0.000000 0.133371 0.000000
# 6 0.000000 0.000000 0.000000 0.000000 0.000000 0.050801
#
#
# Mechanical properties :
#
#
# Convention : Reuss Voigt Hill
#
# Bulk Modulus (GPa) = 42.42899 55.63996 49.03447
# Shear Modulus (GPa) = 14.34673 18.05930 16.20301
#
# Velocity S-wave (km/s) = 3.17152 3.55829 3.37045
# Velocity P-wave (km/s) = 6.56950 7.47604 7.03738
#
# Compressibility (1/GPa) = 0.02356879
#
# Stress axis : x y z
#
# Youngs Moduli (GPa) = 28.60772 59.33867 52.44529
#
# Poissons Ratio (x) = 0.50158 0.37456
# Poissons Ratio (y) = 0.24182 0.42264
# Poissons Ratio (z) = 0.20431 0.47819
#
# Static dielectric constant tensor:
#      x y z
#    x 2.687040 0.000000 0.000000 
#    y 0.000000 2.942450 0.000000 
#    z 0.000000 0.000000 2.804720 
# 
# 
# High freq. dielectric constant tensor:
#      x y z
#    x 1.531650 0.000000 0.000000 
#    y 0.000000 1.537580 0.000000 
#    z 0.000000 0.000000 1.514530 
# 
# From -- ./inp_files/23635.got.cif
#   From: 2010.03.12/outbox.cif.g09.slc.cpg/sg38_12_cif.got.tgz:23635.got - 2010.04.14 02:38:36.
