data_PCOD8177339
_publ_section_title
;
Structure prediction by ZEFSAII (Michael W. Deem and Ramdas Pophale) SiO2 
 PCOD8177339
Probable space group: A M M 2
;
_chemical_formula_sum "Si O2"
_cell_formula_units_Z 48
_cell_length_a 8.960096
_cell_length_b 15.414414
_cell_length_c 23.965406
_cell_angle_alpha 90.000000
_cell_angle_beta 90.000000
_cell_angle_gamma 90.000000
_cell_volume 3309.973164
_symmetry_space_group_name_H-M "A M M 2"
_symmetry_group_IT_number 38
_symmetry_cell_setting 'orthorhombic'
loop_
_space_group_symop_operation_xyz
x,y,z
-x,-y,z
-x,y,z
x,-y,z
x,1/2+y,1/2+z
-x,1/2-y,1/2+z
-x,1/2+y,1/2+z
x,1/2-y,1/2+z
loop_
_atom_site_type_symbol
_atom_site_label
_atom_site_fract_x
_atom_site_fract_y
_atom_site_fract_z
Si Si1 0.174938 0.101459 0.254490
Si Si2 0.670702 0.347619 0.646544
Si Si3 0.173642 0.405766 0.545248
Si Si4 0.668130 0.102989 0.366564
Si Si5 0.668733 0.739557 0.045357
Si Si6 0.824845 0.900104 0.478466
O O1 0.252860 0.159070 0.206778
O O2 0.240756 0.135679 0.312913
O O3 0.000000 0.119126 0.254429
O O4 0.212062 0.000000 0.245183
O O5 0.500000 0.379428 0.653282
O O6 0.765101 0.415176 0.608873
O O7 0.675051 0.255081 0.612763
O O8 0.199683 0.500000 0.516008
O O9 0.262602 0.326656 0.515203
O O10 0.000000 0.381836 0.546398
O O11 0.500000 0.139727 0.364300
O O12 0.748567 0.136821 0.422400
O O13 0.668520 0.000000 0.367434
O O14 0.500000 0.726934 0.024231
O O15 0.764495 0.655000 0.030623
O O16 0.000000 0.887897 0.472103
O O17 0.782273 0.000000 0.489483
#
# Coordination Sequence:
#
# PCOD8177339 Si02
#       6
#     8   8   8   8   8   8
#     4  10  18  26  38  58  84 114 146 176 208 252
#     4   9  18  27  38  57  83 113 144 174 208 249
#     4   9  16  26  40  58  82 112 142 172 209 251
#     4   9  17  28  42  59  81 110 143 177 213 255
#     4   9  19  30  42  61  84 113 147 181 216 258
#     4  10  19  31  47  64  84 112 146 185 224 260
#
# _framework density 14.501628
#
# number of rings (size 3 to 8) (size 9 to 14) (size 15 to 20)
#    1.000    1.667    0.000    3.000    0.000    7.333 
#    0.000    0.000    0.000    0.000    0.000    0.000 
#    0.000    1.333    0.000    9.667    0.000    8.167 
#
# Total GULP energy -297333.560666 kJ/mol
# GULP energy per Si atom -12388.898361 kJ/mol
# Density = 1.446862 g / cm^3
# Si number density = 14.501628 Si / 1000 Ang^3
#
#
#
# Elastic Constant Matrix: (Units=GPa)
#
#
# Indices 1 2 3 4 5 6 
#
# 1 100.1643 34.2186 34.4752 0.0000 0.0000 0.0000
# 2 34.2186 55.5353 30.3936 0.0000 0.0000 0.0000
# 3 34.4752 30.3936 64.0255 0.0000 0.0000 0.0000
# 4 0.0000 0.0000 0.0000 16.9955 0.0000 0.0000
# 5 0.0000 0.0000 0.0000 0.0000 28.0980 0.0000
# 6 0.0000 0.0000 0.0000 0.0000 0.0000 19.6110
#
#
#
# Elastic Compliance Matrix: (Units=1/GPa)
#
#
# Indices 1 2 3 4 5 6 
#
# 1 0.013541 -0.005881 -0.004500 0.000000 0.000000 0.000000
# 2 -0.005881 0.026881 -0.009594 0.000000 0.000000 0.000000
# 3 -0.004500 -0.009594 0.022596 0.000000 0.000000 0.000000
# 4 0.000000 0.000000 0.000000 0.058839 0.000000 0.000000
# 5 0.000000 0.000000 0.000000 0.000000 0.035590 0.000000
# 6 0.000000 0.000000 0.000000 0.000000 0.000000 0.050992
#
#
# Mechanical properties :
#
#
# Convention : Reuss Voigt Hill
#
# Bulk Modulus (GPa) = 43.34835 46.43332 44.89083
# Shear Modulus (GPa) = 19.52531 20.98342 20.25436
#
# Velocity S-wave (km/s) = 3.67334 3.80803 3.74129
# Velocity P-wave (km/s) = 6.92446 7.17103 7.04883
#
# Compressibility (1/GPa) = 0.02306893
#
# Stress axis : x y z
#
# Youngs Moduli (GPa) = 73.84729 37.20121 44.25562
#
# Poissons Ratio (x) = 0.21878 0.19914
# Poissons Ratio (y) = 0.43430 0.42458
# Poissons Ratio (z) = 0.33229 0.35690
#
# Static dielectric constant tensor:
#      x y z
#    x 2.964370 0.000000 0.000000 
#    y 0.000000 2.496360 0.000000 
#    z 0.000000 0.000000 2.676020 
# 
# 
# High freq. dielectric constant tensor:
#      x y z
#    x 1.579080 0.000000 0.000000 
#    y 0.000000 1.509410 0.000000 
#    z 0.000000 0.000000 1.528380 
# 
# From -- ./inp_files/19908.got.cif
#   From: 2010.03.12/outbox.cif.g09.slc.cpg/sg38_10_cif.got.tgz:19908.got - 2010.04.14 02:38:36.
