data_PCOD8177782
_publ_section_title
;
Structure prediction by ZEFSAII (Michael W. Deem and Ramdas Pophale) SiO2 
 PCOD8177782
Probable space group: A M M 2
;
_chemical_formula_sum "Si O2"
_cell_formula_units_Z 64
_cell_length_a 8.742385
_cell_length_b 20.689924
_cell_length_c 19.757292
_cell_angle_alpha 90.000000
_cell_angle_beta 90.000000
_cell_angle_gamma 90.000000
_cell_volume 3573.684776
_symmetry_space_group_name_H-M "A M M 2"
_symmetry_group_IT_number 38
_symmetry_cell_setting 'orthorhombic'
loop_
_space_group_symop_operation_xyz
x,y,z
-x,-y,z
-x,y,z
x,-y,z
x,1/2+y,1/2+z
-x,1/2-y,1/2+z
-x,1/2+y,1/2+z
x,1/2-y,1/2+z
loop_
_atom_site_type_symbol
_atom_site_label
_atom_site_fract_x
_atom_site_fract_y
_atom_site_fract_z
Si Si1 0.321079 0.631470 0.730600
Si Si2 0.323549 0.072212 0.500135
Si Si3 0.319382 0.812165 0.594284
Si Si4 0.179623 0.879589 0.368824
Si Si5 0.180290 0.191501 0.016998
Si Si6 0.818705 0.229269 0.726762
Si Si7 0.175829 0.927606 0.106108
Si Si8 0.819868 0.232801 0.874850
O O1 0.500000 0.646590 0.733034
O O2 0.266614 0.598927 0.800683
O O3 0.229398 0.696869 0.714436
O O4 0.283134 0.581501 0.671066
O O5 0.500000 0.086580 0.483340
O O6 0.261225 0.124299 0.554287
O O7 0.228858 0.075600 0.430787
O O8 0.301975 0.000000 0.530163
O O9 0.500000 0.809845 0.597506
O O10 0.260516 0.747369 0.559363
O O11 0.255797 0.817022 0.670680
O O12 0.230712 0.806665 0.386326
O O13 0.000000 0.886065 0.355939
O O14 0.223977 0.121859 0.046850
O O15 0.000000 0.205347 0.019552
O O16 0.241246 0.192040 0.939081
O O17 0.759378 0.207323 0.801814
O O18 0.000000 0.224989 0.720262
O O19 0.000000 0.915887 0.127424
O O20 0.200220 0.000000 0.077938
O O21 0.000000 0.228788 0.871776
#
# Coordination Sequence:
#
# PCOD8177782 Si02
#       8
#     8   8   8   8   8   8   8   8
#     4  11  21  33  51  76 107 143 180 219 262 312
#     4  10  22  38  53  74 108 145 179 220 270 321
#     4  11  21  33  53  81 106 135 178 222 266 315
#     4  10  19  33  53  77 105 139 178 218 261 316
#     4  10  18  33  56  77 102 136 172 217 266 314
#     4  10  19  33  53  78 108 140 173 217 266 318
#     4  10  21  35  52  76 106 142 180 216 261 318
#     4   8  16  30  51  78 102 130 169 209 260 312
#
# _framework density 17.908685999999999
#
# number of rings (size 3 to 8) (size 9 to 14) (size 15 to 20)
#    0.000    2.000    2.500    3.000    0.000    1.500 
#    0.000    0.625    0.000    0.750    0.000    1.750 
#    0.000    0.000    0.000    0.000    0.000    0.000 
#
# Total GULP energy -396754.701448 kJ/mol
# GULP energy per Si atom -12398.584420 kJ/mol
# Density = 1.786793 g / cm^3
# Si number density = 17.908686 Si / 1000 Ang^3
#
#
#
# Elastic Constant Matrix: (Units=GPa)
#
#
# Indices 1 2 3 4 5 6 
#
# 1 55.6057 26.1298 31.9998 0.0000 0.0000 0.0000
# 2 26.1298 95.5614 63.6059 0.0000 0.0000 0.0000
# 3 31.9998 63.6059 143.7178 0.0000 0.0000 0.0000
# 4 0.0000 0.0000 0.0000 23.6929 0.0000 0.0000
# 5 0.0000 0.0000 0.0000 0.0000 23.4399 0.0000
# 6 0.0000 0.0000 0.0000 0.0000 0.0000 17.6801
#
#
#
# Elastic Compliance Matrix: (Units=1/GPa)
#
#
# Indices 1 2 3 4 5 6 
#
# 1 0.021572 -0.003830 -0.003108 0.000000 0.000000 0.000000
# 2 -0.003830 0.015514 -0.006013 0.000000 0.000000 0.000000
# 3 -0.003108 -0.006013 0.010312 0.000000 0.000000 0.000000
# 4 0.000000 0.000000 0.000000 0.042207 0.000000 0.000000
# 5 0.000000 0.000000 0.000000 0.000000 0.042662 0.000000
# 6 0.000000 0.000000 0.000000 0.000000 0.000000 0.056561
#
#
# Mechanical properties :
#
#
# Convention : Reuss Voigt Hill
#
# Bulk Modulus (GPa) = 46.52238 59.81732 53.16985
# Shear Modulus (GPa) = 22.53311 24.50587 23.51949
#
# Velocity S-wave (km/s) = 3.55099 3.70317 3.62788
# Velocity P-wave (km/s) = 6.54574 7.19434 6.87769
#
# Compressibility (1/GPa) = 0.02149503
#
# Stress axis : x y z
#
# Youngs Moduli (GPa) = 46.35608 64.45689 96.97836
#
# Poissons Ratio (x) = 0.24685 0.30143
# Poissons Ratio (y) = 0.17753 0.58318
# Poissons Ratio (z) = 0.14409 0.38761
#
# Static dielectric constant tensor:
#      x y z
#    x 3.202880 0.000000 0.000000 
#    y 0.000000 3.160140 0.000000 
#    z 0.000000 0.000000 3.794830 
# 
# 
# High freq. dielectric constant tensor:
#      x y z
#    x 1.685920 0.000000 0.000000 
#    y 0.000000 1.662830 0.000000 
#    z 0.000000 0.000000 1.701540 
# 
# From -- ./inp_files/20052.got.cif
#   From: 2010.03.12/outbox.cif.g09.slc.cpg/sg38_11_cif.got.tgz:20052.got - 2010.04.14 02:38:36.
