data_PCOD8177301
_publ_section_title
;
Structure prediction by ZEFSAII (Michael W. Deem and Ramdas Pophale) SiO2 
 PCOD8177301
Probable space group: A M M 2
;
_chemical_formula_sum "Si O2"
_cell_formula_units_Z 64
_cell_length_a 15.572438
_cell_length_b 9.160463
_cell_length_c 24.095416
_cell_angle_alpha 90.000000
_cell_angle_beta 90.000000
_cell_angle_gamma 90.000000
_cell_volume 3437.228974
_symmetry_space_group_name_H-M "A M M 2"
_symmetry_group_IT_number 38
_symmetry_cell_setting 'orthorhombic'
loop_
_space_group_symop_operation_xyz
x,y,z
-x,-y,z
-x,y,z
x,-y,z
x,1/2+y,1/2+z
-x,1/2-y,1/2+z
-x,1/2+y,1/2+z
x,1/2-y,1/2+z
loop_
_atom_site_type_symbol
_atom_site_label
_atom_site_fract_x
_atom_site_fract_y
_atom_site_fract_z
Si Si1 0.904724 0.668084 0.072990
Si Si2 0.253708 0.673288 0.999172
Si Si3 0.750215 0.174044 0.373711
Si Si4 0.905219 0.673338 0.800045
Si Si5 0.343008 0.327551 0.681952
Si Si6 0.597075 0.169890 0.063670
Si Si7 0.850946 0.826879 0.179503
Si Si8 0.595067 0.826116 0.299211
O O1 0.885914 0.500000 0.086761
O O2 0.904362 0.756946 0.129925
O O3 0.000000 0.686902 0.046303
O O4 0.832343 0.727287 0.030595
O O5 0.261725 0.500000 0.000397
O O6 0.248128 0.732506 0.936410
O O7 0.338872 0.738315 0.026168
O O8 0.833868 0.237276 0.341928
O O9 0.664562 0.233643 0.343232
O O10 0.751582 0.000000 0.372536
O O11 0.898307 0.500000 0.800003
O O12 0.888918 0.729496 0.737705
O O13 0.000000 0.724518 0.819502
O O14 0.342336 0.500000 0.688217
O O15 0.396184 0.279117 0.627814
O O16 0.246402 0.270190 0.675191
O O17 0.384831 0.261865 0.737866
O O18 0.500000 0.199060 0.043344
O O19 0.621785 0.000000 0.058616
O O20 0.857998 0.000000 0.174104
O O21 0.500000 0.773380 0.317294
O O22 0.599386 0.000000 0.297439
#
# Coordination Sequence:
#
# PCOD8177301 Si02
#       8
#     8   8   8   8   8   8   8   8
#     4  10  21  35  49  69 100 137 172 204 244 295
#     4  10  21  35  51  71  99 134 172 210 244 284
#     4   9  17  29  43  65  95 126 161 198 238 285
#     4   9  16  26  44  72 101 124 152 198 252 296
#     4   9  15  26  46  72 100 125 153 194 242 294
#     4  10  20  34  53  76 101 131 165 201 247 301
#     4  10  17  29  52  78 101 125 157 203 255 301
#     4   9  15  24  41  66  96 125 151 188 240 290
#
# _framework density 18.619651000000001
#
# number of rings (size 3 to 8) (size 9 to 14) (size 15 to 20)
#    0.000    2.500    2.500    0.750    0.000    3.500 
#    0.000    3.750    0.000    0.750    0.000    0.000 
#    0.000    1.000    0.000    0.000    0.000    0.000 
#
# Total GULP energy -396700.987048 kJ/mol
# GULP energy per Si atom -12396.905845 kJ/mol
# Density = 1.857727 g / cm^3
# Si number density = 18.619651 Si / 1000 Ang^3
#
#
#
# Elastic Constant Matrix: (Units=GPa)
#
#
# Indices 1 2 3 4 5 6 
#
# 1 158.9056 17.6402 76.6730 0.0000 0.0000 0.0000
# 2 17.6402 13.9789 20.4183 0.0000 0.0000 0.0000
# 3 76.6730 20.4183 152.3793 0.0000 0.0000 0.0000
# 4 0.0000 0.0000 0.0000 17.8810 0.0000 0.0000
# 5 0.0000 0.0000 0.0000 0.0000 16.9298 0.0000
# 6 0.0000 0.0000 0.0000 0.0000 0.0000 17.8773
#
#
#
# Elastic Compliance Matrix: (Units=1/GPa)
#
#
# Indices 1 2 3 4 5 6 
#
# 1 0.008658 -0.005673 -0.003596 0.000000 0.000000 0.000000
# 2 -0.005673 0.092662 -0.009562 0.000000 0.000000 0.000000
# 3 -0.003596 -0.009562 0.009653 0.000000 0.000000 0.000000
# 4 0.000000 0.000000 0.000000 0.055925 0.000000 0.000000
# 5 0.000000 0.000000 0.000000 0.000000 0.059067 0.000000
# 6 0.000000 0.000000 0.000000 0.000000 0.000000 0.055937
#
#
# Mechanical properties :
#
#
# Convention : Reuss Voigt Hill
#
# Bulk Modulus (GPa) = 13.64050 61.63631 37.63840
# Shear Modulus (GPa) = 14.53481 24.57312 19.55396
#
# Velocity S-wave (km/s) = 2.79698 3.63677 3.24416
# Velocity P-wave (km/s) = 4.21575 7.12807 5.85585
#
# Compressibility (1/GPa) = 0.07331112
#
# Stress axis : x y z
#
# Youngs Moduli (GPa) = 115.49953 10.79193 103.59000
#
# Poissons Ratio (x) = 0.06122 0.37255
# Poissons Ratio (y) = 0.65520 0.99053
# Poissons Ratio (z) = 0.41538 0.10319
#
# Static dielectric constant tensor:
#      x y z
#    x 3.681870 0.000000 0.000000 
#    y 0.000000 2.787690 0.000000 
#    z 0.000000 0.000000 3.547930 
# 
# 
# High freq. dielectric constant tensor:
#      x y z
#    x 1.742650 0.000000 0.000000 
#    y 0.000000 1.652250 0.000000 
#    z 0.000000 0.000000 1.723440 
# 
# From -- ./inp_files/22943.got.cif
#   From: 2010.03.12/outbox.cif.g09.slc.cpg/sg38_12_cif.got.tgz:22943.got - 2010.04.14 02:38:36.
