data_PCOD8177649
_publ_section_title
;
Structure prediction by ZEFSAII (Michael W. Deem and Ramdas Pophale) SiO2 
 PCOD8177649
Probable space group: A M M 2
;
_chemical_formula_sum "Si O2"
_cell_formula_units_Z 56
_cell_length_a 14.220063
_cell_length_b 8.898027
_cell_length_c 25.617439
_cell_angle_alpha 90.000000
_cell_angle_beta 90.000000
_cell_angle_gamma 90.000000
_cell_volume 3241.387481
_symmetry_space_group_name_H-M "A M M 2"
_symmetry_group_IT_number 38
_symmetry_cell_setting 'orthorhombic'
loop_
_space_group_symop_operation_xyz
x,y,z
-x,-y,z
-x,y,z
x,-y,z
x,1/2+y,1/2+z
-x,1/2-y,1/2+z
-x,1/2+y,1/2+z
x,1/2-y,1/2+z
loop_
_atom_site_type_symbol
_atom_site_label
_atom_site_fract_x
_atom_site_fract_y
_atom_site_fract_z
Si Si1 0.894924 0.671347 0.415470
Si Si2 0.291746 0.174371 0.968899
Si Si3 0.608298 0.824053 0.171234
Si Si4 0.718892 0.177977 0.764189
Si Si5 0.607644 0.825228 0.563015
Si Si6 0.394615 0.678406 0.364171
Si Si7 0.893003 0.675125 0.807510
O O1 0.883716 0.500000 0.395296
O O2 0.820065 0.701374 0.461436
O O3 0.872545 0.777634 0.366905
O O4 0.000000 0.700650 0.437627
O O5 0.344286 0.231964 0.916950
O O6 0.315010 0.000000 0.980123
O O7 0.324657 0.274841 0.016682
O O8 0.500000 0.784193 0.183314
O O9 0.673146 0.739342 0.211961
O O10 0.636391 0.767618 0.113988
O O11 0.627609 0.000000 0.174600
O O12 0.661315 0.240766 0.814088
O O13 0.825731 0.236041 0.767916
O O14 0.718283 0.000000 0.762116
O O15 0.500000 0.790640 0.547080
O O16 0.622837 0.000000 0.574731
O O17 0.500000 0.744675 0.362971
O O18 0.396315 0.500000 0.361905
O O19 0.872433 0.500000 0.802204
O O20 0.000000 0.715131 0.792218
#
# Coordination Sequence:
#
# PCOD8177649 Si02
#       7
#     8   8   8   8   8   8   8
#     4   9  17  31  51  75 103 135 174 215 257 311
#     4  10  18  31  51  75 103 137 172 210 258 311
#     4  10  21  37  56  78 104 137 176 217 261 311
#     4  11  20  33  53  77 106 140 175 215 261 310
#     4  10  21  36  53  75 102 135 176 219 260 304
#     4   9  17  28  44  71 105 137 167 200 248 308
#     4  10  20  33  50  74 105 139 175 217 263 311
#
# _framework density 17.276553
#
# number of rings (size 3 to 8) (size 9 to 14) (size 15 to 20)
#    0.000    2.143    1.429    2.571    0.000    4.286 
#    0.000    0.000    0.000    3.429    0.000    2.000 
#    0.000    0.000    0.000    0.000    0.000    0.000 
#
# Total GULP energy -347259.693858 kJ/mol
# GULP energy per Si atom -12402.131923 kJ/mol
# Density = 1.723723 g / cm^3
# Si number density = 17.276553 Si / 1000 Ang^3
#
#
#
# Elastic Constant Matrix: (Units=GPa)
#
#
# Indices 1 2 3 4 5 6 
#
# 1 119.5326 42.8263 61.4478 0.0000 0.0000 0.0000
# 2 42.8263 63.8105 37.4468 0.0000 0.0000 0.0000
# 3 61.4478 37.4468 95.9338 0.0000 0.0000 0.0000
# 4 0.0000 0.0000 0.0000 30.8060 0.0000 0.0000
# 5 0.0000 0.0000 0.0000 0.0000 24.8275 0.0000
# 6 0.0000 0.0000 0.0000 0.0000 0.0000 24.9657
#
#
#
# Elastic Compliance Matrix: (Units=1/GPa)
#
#
# Indices 1 2 3 4 5 6 
#
# 1 0.013707 -0.005249 -0.006730 0.000000 0.000000 0.000000
# 2 -0.005249 0.022338 -0.005357 0.000000 0.000000 0.000000
# 3 -0.006730 -0.005357 0.016826 0.000000 0.000000 0.000000
# 4 0.000000 0.000000 0.000000 0.032461 0.000000 0.000000
# 5 0.000000 0.000000 0.000000 0.000000 0.040278 0.000000
# 6 0.000000 0.000000 0.000000 0.000000 0.000000 0.040055
#
#
# Mechanical properties :
#
#
# Convention : Reuss Voigt Hill
#
# Bulk Modulus (GPa) = 54.95422 62.52432 58.73927
# Shear Modulus (GPa) = 24.22430 25.29024 24.75727
#
# Velocity S-wave (km/s) = 3.74859 3.83018 3.78960
# Velocity P-wave (km/s) = 7.11432 7.47189 7.29530
#
# Compressibility (1/GPa) = 0.01819697
#
# Stress axis : x y z
#
# Youngs Moduli (GPa) = 72.95805 44.76596 59.43235
#
# Poissons Ratio (x) = 0.23500 0.39999
# Poissons Ratio (y) = 0.38299 0.31839
# Poissons Ratio (z) = 0.49103 0.23982
#
# Static dielectric constant tensor:
#      x y z
#    x 3.441940 0.000000 0.000000 
#    y 0.000000 3.154720 0.000000 
#    z 0.000000 0.000000 3.048100 
# 
# 
# High freq. dielectric constant tensor:
#      x y z
#    x 1.671580 0.000000 0.000000 
#    y 0.000000 1.662560 0.000000 
#    z 0.000000 0.000000 1.647760 
# 
# From -- ./inp_files/21010.got.cif
#   From: 2010.03.12/outbox.cif.g09.slc.cpg/sg38_11_cif.got.tgz:21010.got - 2010.04.14 02:38:36.
