data_PCOD8177854
_publ_section_title
;
Structure prediction by ZEFSAII (Michael W. Deem and Ramdas Pophale) SiO2 
 PCOD8177854
Probable space group: A M M 2
;
_chemical_formula_sum "Si O2"
_cell_formula_units_Z 64
_cell_length_a 9.098146
_cell_length_b 26.471707
_cell_length_c 18.301170
_cell_angle_alpha 90.000000
_cell_angle_beta 90.000000
_cell_angle_gamma 90.000000
_cell_volume 4407.717016
_symmetry_space_group_name_H-M "A M M 2"
_symmetry_group_IT_number 38
_symmetry_cell_setting 'orthorhombic'
loop_
_space_group_symop_operation_xyz
x,y,z
-x,-y,z
-x,y,z
x,-y,z
x,1/2+y,1/2+z
-x,1/2-y,1/2+z
-x,1/2+y,1/2+z
x,1/2-y,1/2+z
loop_
_atom_site_type_symbol
_atom_site_label
_atom_site_fract_x
_atom_site_fract_y
_atom_site_fract_z
Si Si1 0.670163 0.801169 0.181110
Si Si2 0.167605 0.151083 0.740392
Si Si3 0.671547 0.258309 0.318013
Si Si4 0.328303 0.058417 0.975695
Si Si5 0.833811 0.740879 0.465838
Si Si6 0.828614 0.943521 0.826446
Si Si7 0.828048 0.857226 0.062911
Si Si8 0.833842 0.286750 0.109949
O O1 0.500000 0.814351 0.168907
O O2 0.705834 0.790819 0.266954
O O3 0.767832 0.845291 0.144712
O O4 0.708203 0.749058 0.141144
O O5 0.257824 0.190889 0.787332
O O6 0.215895 0.094129 0.760534
O O7 0.186213 0.159762 0.652444
O O8 0.000000 0.159279 0.764255
O O9 0.500000 0.268459 0.321267
O O10 0.727905 0.247400 0.399054
O O11 0.500000 0.070540 0.973875
O O12 0.251722 0.092175 0.036988
O O13 0.296936 0.000000 0.994536
O O14 0.261627 0.072856 0.897428
O O15 0.791640 0.689105 0.508106
O O16 0.815578 0.788418 0.522173
O O17 0.000000 0.737176 0.436491
O O18 0.000000 0.939939 0.846649
O O19 0.786204 0.000000 0.800983
O O20 0.000000 0.867681 0.067947
O O21 0.000000 0.265206 0.126124
#
# Coordination Sequence:
#
# PCOD8177854 Si02
#       8
#     8   8   8   8   8   8   8   8
#     4   9  17  28  40  56  78 102 128 161 198 235
#     4   9  16  27  42  56  75 105 136 165 198 235
#     4  10  19  27  38  58  81 104 131 162 195 233
#     4  10  20  31  42  58  81 108 136 167 201 233
#     4   9  17  27  39  56  78 103 131 162 195 234
#     4   9  17  28  41  58  80 106 137 171 203 235
#     4  10  19  30  44  60  78 105 138 167 198 235
#     4   8  15  27  40  55  75 101 133 165 196 234
#
# _framework density 14.519988
#
# number of rings (size 3 to 8) (size 9 to 14) (size 15 to 20)
#    0.000    2.750    0.000    3.000    0.000    8.250 
#    0.000    0.000    0.000    0.000    0.000    0.000 
#    0.000    1.000    0.000    4.250    0.000    1.750 
#
# Total GULP energy -396526.703895 kJ/mol
# GULP energy per Si atom -12391.459497 kJ/mol
# Density = 1.448694 g / cm^3
# Si number density = 14.519988 Si / 1000 Ang^3
#
#
#
# Elastic Constant Matrix: (Units=GPa)
#
#
# Indices 1 2 3 4 5 6 
#
# 1 59.9750 33.9712 38.9030 0.0000 0.0000 0.0000
# 2 33.9712 75.3682 50.5880 0.0000 0.0000 0.0000
# 3 38.9030 50.5880 91.1465 0.0000 0.0000 0.0000
# 4 0.0000 0.0000 0.0000 26.7179 0.0000 0.0000
# 5 0.0000 0.0000 0.0000 0.0000 20.8552 0.0000
# 6 0.0000 0.0000 0.0000 0.0000 0.0000 17.8312
#
#
#
# Elastic Compliance Matrix: (Units=1/GPa)
#
#
# Indices 1 2 3 4 5 6 
#
# 1 0.024919 -0.006523 -0.007015 0.000000 0.000000 0.000000
# 2 -0.006523 0.022853 -0.009900 0.000000 0.000000 0.000000
# 3 -0.007015 -0.009900 0.019460 0.000000 0.000000 0.000000
# 4 0.000000 0.000000 0.000000 0.037428 0.000000 0.000000
# 5 0.000000 0.000000 0.000000 0.000000 0.047950 0.000000
# 6 0.000000 0.000000 0.000000 0.000000 0.000000 0.056082
#
#
# Mechanical properties :
#
#
# Convention : Reuss Voigt Hill
#
# Bulk Modulus (GPa) = 49.12596 52.60157 50.86376
# Shear Modulus (GPa) = 19.05823 19.94936 19.50379
#
# Velocity S-wave (km/s) = 3.62685 3.71067 3.66900
# Velocity P-wave (km/s) = 7.17255 7.39354 7.28388
#
# Compressibility (1/GPa) = 0.02035584
#
# Stress axis : x y z
#
# Youngs Moduli (GPa) = 40.12997 43.75753 51.38680
#
# Poissons Ratio (x) = 0.28543 0.36050
# Poissons Ratio (y) = 0.26177 0.50872
# Poissons Ratio (z) = 0.28153 0.43319
#
# Static dielectric constant tensor:
#      x y z
#    x 2.914470 0.000000 0.000000 
#    y 0.000000 2.743790 0.000000 
#    z 0.000000 0.000000 2.963650 
# 
# 
# High freq. dielectric constant tensor:
#      x y z
#    x 1.566860 0.000000 0.000000 
#    y 0.000000 1.520730 0.000000 
#    z 0.000000 0.000000 1.543180 
# 
# From -- ./inp_files/17306.got.cif
#   From: 2010.03.12/outbox.cif.g09.slc.cpg/sg38_9_cif.got.tgz:17306.got - 2010.04.14 02:38:36.
