data_PCOD8177526
_publ_section_title
;
Structure prediction by ZEFSAII (Michael W. Deem and Ramdas Pophale) SiO2 
 PCOD8177526
Probable space group: A M M 2
;
_chemical_formula_sum "Si O2"
_cell_formula_units_Z 64
_cell_length_a 12.486203
_cell_length_b 17.772445
_cell_length_c 17.647105
_cell_angle_alpha 90.000000
_cell_angle_beta 90.000000
_cell_angle_gamma 90.000000
_cell_volume 3916.075354
_symmetry_space_group_name_H-M "A M M 2"
_symmetry_group_IT_number 38
_symmetry_cell_setting 'orthorhombic'
loop_
_space_group_symop_operation_xyz
x,y,z
-x,-y,z
-x,y,z
x,-y,z
x,1/2+y,1/2+z
-x,1/2-y,1/2+z
-x,1/2+y,1/2+z
x,1/2-y,1/2+z
loop_
_atom_site_type_symbol
_atom_site_label
_atom_site_fract_x
_atom_site_fract_y
_atom_site_fract_z
Si Si1 0.876581 0.582129 0.283640
Si Si2 0.127444 0.184424 0.649797
Si Si3 0.623687 0.089668 0.011152
Si Si4 0.802232 0.158923 0.926849
Si Si5 0.874029 0.917528 0.511154
Si Si6 0.876580 0.917872 0.238664
Si Si7 0.127442 0.684422 0.872506
Si Si8 0.197767 0.841080 0.095456
O O1 0.823225 0.500000 0.268085
O O2 0.831571 0.647956 0.228884
O O3 0.863798 0.601992 0.371861
O O4 0.000000 0.575170 0.262925
O O5 0.162178 0.126111 0.585617
O O6 0.194821 0.259598 0.634503
O O7 0.000000 0.203306 0.649717
O O8 0.500000 0.111820 0.011153
O O9 0.680495 0.127348 0.937082
O O10 0.640894 0.000000 0.011151
O O11 0.680496 0.127347 0.085222
O O12 0.805174 0.240408 0.887808
O O13 0.857293 0.161312 0.011153
O O14 0.837842 0.873902 0.436680
O O15 0.000000 0.926396 0.511167
O O16 0.819917 0.000000 0.511156
O O17 0.831572 0.852042 0.293417
O O18 0.863797 0.898014 0.150442
O O19 0.000000 0.924830 0.259380
O O20 0.823226 0.000000 0.254223
O O21 0.000000 0.703312 0.872582
#
# Coordination Sequence:
#
# PCOD8177526 Si02
#       8
#     8   8   8   8   8   8   8   8
#     4  10  20  31  45  69 103 140 170 196 227 272
#     4  10  18  30  45  67 101 136 165 194 233 276
#     4   9  19  36  55  73  93 119 154 201 256 302
#     4  10  20  31  50  72  94 122 162 198 242 295
#     4   9  15  24  40  60  87 127 173 206 223 257
#     4  10  20  31  45  69 103 140 170 196 227 272
#     4  10  18  30  45  67 101 136 165 194 233 276
#     4  10  20  31  50  72  94 122 162 198 242 295
#
# _framework density 16.342893
#
# number of rings (size 3 to 8) (size 9 to 14) (size 15 to 20)
#    0.750    1.500    1.250    3.000    0.000    6.500 
#    0.000    1.250    0.000    3.000    0.000    0.000 
#    0.000   17.000    0.000    0.000    0.000    0.000 
#
# Total GULP energy -396441.157771 kJ/mol
# GULP energy per Si atom -12388.786180 kJ/mol
# Density = 1.630570 g / cm^3
# Si number density = 16.342893 Si / 1000 Ang^3
#
#
#
# Elastic Constant Matrix: (Units=GPa)
#
#
# Indices 1 2 3 4 5 6 
#
# 1 39.5096 41.6043 19.6660 0.0000 0.0000 0.0000
# 2 41.6043 138.9532 49.8020 0.0000 0.0000 0.0000
# 3 19.6660 49.8020 111.1063 0.0000 0.0000 0.0000
# 4 0.0000 0.0000 0.0000 29.8025 0.0000 0.0000
# 5 0.0000 0.0000 0.0000 0.0000 8.4518 0.0000
# 6 0.0000 0.0000 0.0000 0.0000 0.0000 16.1733
#
#
#
# Elastic Compliance Matrix: (Units=1/GPa)
#
#
# Indices 1 2 3 4 5 6 
#
# 1 0.037299 -0.010486 -0.001902 0.000000 0.000000 0.000000
# 2 -0.010486 0.011522 -0.003309 0.000000 0.000000 0.000000
# 3 -0.001902 -0.003309 0.010820 0.000000 0.000000 0.000000
# 4 0.000000 0.000000 0.000000 0.033554 0.000000 0.000000
# 5 0.000000 0.000000 0.000000 0.000000 0.118317 0.000000
# 6 0.000000 0.000000 0.000000 0.000000 0.000000 0.061830
#
#
# Mechanical properties :
#
#
# Convention : Reuss Voigt Hill
#
# Bulk Modulus (GPa) = 35.40039 56.85707 46.12873
# Shear Modulus (GPa) = 15.91586 22.78533 19.35060
#
# Velocity S-wave (km/s) = 3.12408 3.73796 3.44472
# Velocity P-wave (km/s) = 5.89247 7.31405 6.64141
#
# Compressibility (1/GPa) = 0.02824828
#
# Stress axis : x y z
#
# Youngs Moduli (GPa) = 26.81036 86.78904 92.42124
#
# Poissons Ratio (x) = 0.91009 0.17575
# Poissons Ratio (y) = 0.28114 0.30579
# Poissons Ratio (z) = 0.05098 0.28715
#
# Static dielectric constant tensor:
#      x y z
#    x 2.488980 0.000000 0.000000 
#    y 0.000000 3.418590 0.000000 
#    z 0.000000 0.000000 3.359170 
# 
# 
# High freq. dielectric constant tensor:
#      x y z
#    x 1.543570 0.000000 0.000000 
#    y 0.000000 1.654540 0.000000 
#    z 0.000000 0.000000 1.640520 
# 
# From -- ./inp_files/17944.got.cif
#   From: 2010.03.12/outbox.cif.g09.slc.cpg/sg38_9_cif.got.tgz:17944.got - 2010.04.14 02:38:36.
