data_PCOD8177755
_publ_section_title
;
Structure prediction by ZEFSAII (Michael W. Deem and Ramdas Pophale) SiO2 
 PCOD8177755
Probable space group: A M M 2
;
_chemical_formula_sum "Si O2"
_cell_formula_units_Z 48
_cell_length_a 8.832267
_cell_length_b 18.154575
_cell_length_c 15.050059
_cell_angle_alpha 90.000000
_cell_angle_beta 90.000000
_cell_angle_gamma 90.000000
_cell_volume 2413.217568
_symmetry_space_group_name_H-M "A M M 2"
_symmetry_group_IT_number 38
_symmetry_cell_setting 'orthorhombic'
loop_
_space_group_symop_operation_xyz
x,y,z
-x,-y,z
-x,y,z
x,-y,z
x,1/2+y,1/2+z
-x,1/2-y,1/2+z
-x,1/2+y,1/2+z
x,1/2-y,1/2+z
loop_
_atom_site_type_symbol
_atom_site_label
_atom_site_fract_x
_atom_site_fract_y
_atom_site_fract_z
Si Si1 0.322047 0.418470 0.327760
Si Si2 0.679096 0.000000 0.492485
Si Si3 0.178265 0.500000 0.803775
Si Si4 0.329755 0.108093 0.636235
Si Si5 0.179926 0.657683 0.737299
Si Si6 0.179134 0.727953 0.390441
Si Si7 0.672332 0.268183 0.576753
O O1 0.500000 0.398455 0.328935
O O2 0.293960 0.500000 0.369459
O O3 0.253961 0.418719 0.227739
O O4 0.232608 0.356287 0.380653
O O5 0.738486 0.070941 0.548097
O O6 0.500000 0.000000 0.469901
O O7 0.774225 0.000000 0.404619
O O8 0.239813 0.575366 0.759467
O O9 0.000000 0.500000 0.797468
O O10 0.500000 0.078172 0.638863
O O11 0.320774 0.195220 0.635301
O O12 0.237689 0.716380 0.812621
O O13 0.245543 0.672194 0.638929
O O14 0.000000 0.661711 0.732116
O O15 0.244409 0.751627 0.485369
O O16 0.000000 0.730693 0.394363
O O17 0.500000 0.293096 0.557237
#
# Coordination Sequence:
#
# PCOD8177755 Si02
#       7
#     8   4   4   8   8   8   8
#     4  10  19  36  61  86 117 152 191 239 289 344
#     4  10  18  32  56  87 118 147 184 233 292 352
#     4  10  22  40  58  81 116 155 194 239 294 344
#     4   9  17  31  55  86 116 145 182 234 291 343
#     4  10  22  41  62  84 117 158 197 245 297 349
#     4  11  23  39  60  87 121 156 196 242 297 360
#     4  11  22  37  61  88 115 153 201 246 292 348
#
# _framework density 19.890457000000001
#
# number of rings (size 3 to 8) (size 9 to 14) (size 15 to 20)
#    0.000    1.833    2.500    2.000    0.000    1.667 
#    1.500    1.667    0.000    0.000    0.000    0.000 
#    0.000    0.000    0.000    0.000    0.000    0.000 
#
# Total GULP energy -297449.872547 kJ/mol
# GULP energy per Si atom -12393.744689 kJ/mol
# Density = 1.984519 g / cm^3
# Si number density = 19.890457 Si / 1000 Ang^3
#
#
#
# Elastic Constant Matrix: (Units=GPa)
#
#
# Indices 1 2 3 4 5 6 
#
# 1 39.2846 25.2338 20.7863 0.0000 0.0000 0.0000
# 2 25.2338 112.8723 24.1260 0.0000 0.0000 0.0000
# 3 20.7863 24.1260 80.8549 0.0000 0.0000 0.0000
# 4 0.0000 0.0000 0.0000 33.9392 0.0000 0.0000
# 5 0.0000 0.0000 0.0000 0.0000 33.0918 0.0000
# 6 0.0000 0.0000 0.0000 0.0000 0.0000 23.4488
#
#
#
# Elastic Compliance Matrix: (Units=1/GPa)
#
#
# Indices 1 2 3 4 5 6 
#
# 1 0.032773 -0.005902 -0.006664 0.000000 0.000000 0.000000
# 2 -0.005902 0.010526 -0.001623 0.000000 0.000000 0.000000
# 3 -0.006664 -0.001623 0.014565 0.000000 0.000000 0.000000
# 4 0.000000 0.000000 0.000000 0.029464 0.000000 0.000000
# 5 0.000000 0.000000 0.000000 0.000000 0.030219 0.000000
# 6 0.000000 0.000000 0.000000 0.000000 0.000000 0.042646
#
#
# Mechanical properties :
#
#
# Convention : Reuss Voigt Hill
#
# Bulk Modulus (GPa) = 33.91607 41.47822 37.69714
# Shear Modulus (GPa) = 25.20141 28.95365 27.07753
#
# Velocity S-wave (km/s) = 3.56337 3.81944 3.69363
# Velocity P-wave (km/s) = 5.83255 6.35212 6.09787
#
# Compressibility (1/GPa) = 0.02948455
#
# Stress axis : x y z
#
# Youngs Moduli (GPa) = 30.51328 95.00192 68.65550
#
# Poissons Ratio (x) = 0.56073 0.45752
# Poissons Ratio (y) = 0.18010 0.11146
# Poissons Ratio (z) = 0.20334 0.15423
#
# Static dielectric constant tensor:
#      x y z
#    x 3.365890 0.000000 0.000000 
#    y 0.000000 3.964060 0.000000 
#    z 0.000000 0.000000 3.576500 
# 
# 
# High freq. dielectric constant tensor:
#      x y z
#    x 1.747800 0.000000 0.000000 
#    y 0.000000 1.787090 0.000000 
#    z 0.000000 0.000000 1.775290 
# 
# From -- ./inp_files/12062.got.cif
#   From: 2010.03.12/outbox.cif.g09.slc.cpg/sg38_7_cif.got.tgz:12062.got - 2010.04.14 02:38:36.
