data_PCOD8177771
_publ_section_title
;
Structure prediction by ZEFSAII (Michael W. Deem and Ramdas Pophale) SiO2 
 PCOD8177771
Probable space group: A M M 2
;
_chemical_formula_sum "Si O2"
_cell_formula_units_Z 64
_cell_length_a 19.679474
_cell_length_b 9.044323
_cell_length_c 20.062435
_cell_angle_alpha 90.000000
_cell_angle_beta 90.000000
_cell_angle_gamma 90.000000
_cell_volume 3570.863037
_symmetry_space_group_name_H-M "A M M 2"
_symmetry_group_IT_number 38
_symmetry_cell_setting 'orthorhombic'
loop_
_space_group_symop_operation_xyz
x,y,z
-x,-y,z
-x,y,z
x,-y,z
x,1/2+y,1/2+z
-x,1/2-y,1/2+z
-x,1/2+y,1/2+z
x,1/2-y,1/2+z
loop_
_atom_site_type_symbol
_atom_site_label
_atom_site_fract_x
_atom_site_fract_y
_atom_site_fract_z
Si Si1 0.424370 0.324688 0.579780
Si Si2 0.922271 0.669475 0.907113
Si Si3 0.667734 0.827213 0.197968
Si Si4 0.852697 0.673648 0.290941
Si Si5 0.313594 0.173477 0.975544
Si Si6 0.299548 0.170593 0.825303
Si Si7 0.821740 0.325115 0.024225
Si Si8 0.820783 0.174018 0.160060
O O1 0.500000 0.256290 0.574386
O O2 0.428151 0.500000 0.584350
O O3 0.387821 0.263280 0.646385
O O4 0.381469 0.279132 0.514691
O O5 0.905940 0.500000 0.888490
O O6 0.908736 0.769455 0.842549
O O7 0.000000 0.690138 0.929096
O O8 0.875799 0.722084 0.968291
O O9 0.656154 0.756418 0.270481
O O10 0.741486 0.787036 0.168992
O O11 0.659192 0.000000 0.207085
O O12 0.861441 0.500000 0.279793
O O13 0.779355 0.715943 0.321246
O O14 0.863431 0.755847 0.220667
O O15 0.326887 0.211581 0.898371
O O16 0.296293 0.000000 0.985643
O O17 0.251841 0.267470 0.003612
O O18 0.308910 0.000000 0.809168
O O19 0.818923 0.500000 0.034824
O O20 0.846375 0.248154 0.092115
O O21 0.834102 0.000000 0.157645
#
# Coordination Sequence:
#
# PCOD8177771 Si02
#       8
#     8   8   8   8   8   8   8   8
#     4   9  17  31  52  76 102 138 183 223 263 319
#     4  10  22  39  56  77 109 146 181 219 269 328
#     4   9  17  30  50  74 100 132 173 216 260 312
#     4  10  19  33  54  81 109 137 174 221 269 320
#     4  10  18  33  53  76 105 139 177 222 269 319
#     4   9  18  30  49  76 106 132 165 216 267 312
#     4  11  21  33  54  82 108 139 180 227 273 320
#     4  10  19  33  54  79 108 139 176 223 271 318
#
# _framework density 17.922837999999999
#
# number of rings (size 3 to 8) (size 9 to 14) (size 15 to 20)
#    0.000    2.250    2.500    1.125    0.000    2.250 
#    0.000    1.250    0.000    4.500    0.000    0.000 
#    0.000    0.000    0.000    0.000    0.000    0.000 
#
# Total GULP energy -396855.515513 kJ/mol
# GULP energy per Si atom -12401.734860 kJ/mol
# Density = 1.788204 g / cm^3
# Si number density = 17.922838 Si / 1000 Ang^3
#
#
#
# Elastic Constant Matrix: (Units=GPa)
#
#
# Indices 1 2 3 4 5 6 
#
# 1 74.4916 24.3731 50.7526 0.0000 0.0000 0.0000
# 2 24.3731 57.5000 50.4187 0.0000 0.0000 0.0000
# 3 50.7526 50.4187 153.9914 0.0000 0.0000 0.0000
# 4 0.0000 0.0000 0.0000 35.5490 0.0000 0.0000
# 5 0.0000 0.0000 0.0000 0.0000 25.2275 0.0000
# 6 0.0000 0.0000 0.0000 0.0000 0.0000 16.8526
#
#
#
# Elastic Compliance Matrix: (Units=1/GPa)
#
#
# Indices 1 2 3 4 5 6 
#
# 1 0.017763 -0.003361 -0.004754 0.000000 0.000000 0.000000
# 2 -0.003361 0.025031 -0.007088 0.000000 0.000000 0.000000
# 3 -0.004754 -0.007088 0.010381 0.000000 0.000000 0.000000
# 4 0.000000 0.000000 0.000000 0.028130 0.000000 0.000000
# 5 0.000000 0.000000 0.000000 0.000000 0.039639 0.000000
# 6 0.000000 0.000000 0.000000 0.000000 0.000000 0.059338
#
#
# Mechanical properties :
#
#
# Convention : Reuss Voigt Hill
#
# Bulk Modulus (GPa) = 43.91758 59.67465 51.79612
# Shear Modulus (GPa) = 22.90662 26.22172 24.56417
#
# Velocity S-wave (km/s) = 3.57889 3.82911 3.70611
# Velocity P-wave (km/s) = 6.45250 7.27441 6.87575
#
# Compressibility (1/GPa) = 0.02276992
#
# Stress axis : x y z
#
# Youngs Moduli (GPa) = 56.29703 39.95092 96.32729
#
# Poissons Ratio (x) = 0.13427 0.45793
# Poissons Ratio (y) = 0.18921 0.68274
# Poissons Ratio (z) = 0.26763 0.28316
#
# Static dielectric constant tensor:
#      x y z
#    x 3.197860 0.000000 0.000000 
#    y 0.000000 3.186250 0.000000 
#    z 0.000000 0.000000 3.553490 
# 
# 
# High freq. dielectric constant tensor:
#      x y z
#    x 1.664690 0.000000 0.000000 
#    y 0.000000 1.683010 0.000000 
#    z 0.000000 0.000000 1.709090 
# 
# From -- ./inp_files/21344.got.cif
#   From: 2010.03.12/outbox.cif.g09.slc.cpg/sg38_11_cif.got.tgz:21344.got - 2010.04.14 02:38:36.
