data_PCOD8177793
_publ_section_title
;
Structure prediction by ZEFSAII (Michael W. Deem and Ramdas Pophale) SiO2 
 PCOD8177793
Probable space group: A M M 2
;
_chemical_formula_sum "Si O2"
_cell_formula_units_Z 40
_cell_length_a 8.971899
_cell_length_b 22.990449
_cell_length_c 10.319272
_cell_angle_alpha 90.000000
_cell_angle_beta 90.000000
_cell_angle_gamma 90.000000
_cell_volume 2128.535456
_symmetry_space_group_name_H-M "A M M 2"
_symmetry_group_IT_number 38
_symmetry_cell_setting 'orthorhombic'
loop_
_space_group_symop_operation_xyz
x,y,z
-x,-y,z
-x,y,z
x,-y,z
x,1/2+y,1/2+z
-x,1/2-y,1/2+z
-x,1/2+y,1/2+z
x,1/2-y,1/2+z
loop_
_atom_site_type_symbol
_atom_site_label
_atom_site_fract_x
_atom_site_fract_y
_atom_site_fract_z
Si Si1 0.327253 0.000000 0.393510
Si Si2 0.824422 0.307699 0.015627
Si Si3 0.823547 0.500000 0.168490
Si Si4 0.824201 0.826888 0.032236
Si Si5 0.324884 0.124391 0.284221
Si Si6 0.176815 0.877723 0.763226
O O1 0.234020 0.000000 0.523599
O O2 0.284622 0.057167 0.311829
O O3 0.500000 0.000000 0.431694
O O4 0.782873 0.240686 0.033543
O O5 0.762572 0.340031 0.143031
O O6 0.000000 0.316703 0.995957
O O7 0.744639 0.333088 0.890343
O O8 0.766061 0.556316 0.246131
O O9 0.000000 0.500000 0.158686
O O10 0.741601 0.860614 0.145412
O O11 0.000000 0.836589 0.048325
O O12 0.761527 0.853053 0.897899
O O13 0.500000 0.134855 0.282810
O O14 0.000000 0.873645 0.763633
#
# Coordination Sequence:
#
# PCOD8177793 Si02
#       6
#     4   8   4   8   8   8
#     4  10  22  39  56  78 112 152 192 233 278 332
#     4  10  19  36  61  84 110 148 189 231 281 335
#     4  10  18  33  58  82 106 138 186 239 282 332
#     4  10  21  37  57  84 117 149 183 229 286 339
#     4  11  23  38  57  83 116 153 193 234 277 332
#     4   9  18  32  54  83 108 137 182 233 279 326
#
# _framework density 18.792263999999999
#
# number of rings (size 3 to 8) (size 9 to 14) (size 15 to 20)
#    0.000    2.000    2.000    1.800    0.000    5.600 
#    0.000    3.000    0.000    0.000    0.000    0.000 
#    0.000    0.000    0.000    0.000    0.000    0.000 
#
# Total GULP energy -248043.483513 kJ/mol
# GULP energy per Si atom -12402.174176 kJ/mol
# Density = 1.874949 g / cm^3
# Si number density = 18.792264 Si / 1000 Ang^3
#
#
#
# Elastic Constant Matrix: (Units=GPa)
#
#
# Indices 1 2 3 4 5 6 
#
# 1 36.7402 38.4324 31.4583 0.0000 0.0000 0.0000
# 2 38.4324 150.2329 71.2458 0.0000 0.0000 0.0000
# 3 31.4583 71.2458 156.8586 0.0000 0.0000 0.0000
# 4 0.0000 0.0000 0.0000 17.3900 0.0000 0.0000
# 5 0.0000 0.0000 0.0000 0.0000 2.3461 0.0000
# 6 0.0000 0.0000 0.0000 0.0000 0.0000 12.0695
#
#
#
# Elastic Compliance Matrix: (Units=1/GPa)
#
#
# Indices 1 2 3 4 5 6 
#
# 1 0.039237 -0.008037 -0.004219 0.000000 0.000000 0.000000
# 2 -0.008037 0.010130 -0.002989 0.000000 0.000000 0.000000
# 3 -0.004219 -0.002989 0.008579 0.000000 0.000000 0.000000
# 4 0.000000 0.000000 0.000000 0.057504 0.000000 0.000000
# 5 0.000000 0.000000 0.000000 0.000000 0.426243 0.000000
# 6 0.000000 0.000000 0.000000 0.000000 0.000000 0.082853
#
#
# Mechanical properties :
#
#
# Convention : Reuss Voigt Hill
#
# Bulk Modulus (GPa) = 36.42125 69.56719 52.99422
# Shear Modulus (GPa) = 7.52798 19.87414 13.70106
#
# Velocity S-wave (km/s) = 2.00364 3.25556 2.70308
# Velocity P-wave (km/s) = 4.97753 7.15758 6.16469
#
# Compressibility (1/GPa) = 0.02745650
#
# Stress axis : x y z
#
# Youngs Moduli (GPa) = 25.48583 98.71722 116.56434
#
# Poissons Ratio (x) = 0.79339 0.49175
# Poissons Ratio (y) = 0.20483 0.34844
# Poissons Ratio (z) = 0.10752 0.29509
#
# Static dielectric constant tensor:
#      x y z
#    x 3.188710 0.000000 0.000000 
#    y 0.000000 3.796020 0.000000 
#    z 0.000000 0.000000 3.608770 
# 
# 
# High freq. dielectric constant tensor:
#      x y z
#    x 1.701530 0.000000 0.000000 
#    y 0.000000 1.748830 0.000000 
#    z 0.000000 0.000000 1.739590 
# 
# From -- ./inp_files/3492.got.cif
#   From: 2010.03.12/outbox.cif.g09.slc.cpg/sg38_2_cif.got.tgz:3492.got - 2010.04.14 02:38:36.
