data_PCOD8177914
_publ_section_title
;
Structure prediction by ZEFSAII (Michael W. Deem and Ramdas Pophale) SiO2 
 PCOD8177914
Probable space group: A M M 2
;
_chemical_formula_sum "Si O2"
_cell_formula_units_Z 64
_cell_length_a 9.389016
_cell_length_b 13.682406
_cell_length_c 33.832601
_cell_angle_alpha 90.000000
_cell_angle_beta 90.000000
_cell_angle_gamma 90.000000
_cell_volume 4346.282381
_symmetry_space_group_name_H-M "A M M 2"
_symmetry_group_IT_number 38
_symmetry_cell_setting 'orthorhombic'
loop_
_space_group_symop_operation_xyz
x,y,z
-x,-y,z
-x,y,z
x,-y,z
x,1/2+y,1/2+z
-x,1/2-y,1/2+z
-x,1/2+y,1/2+z
x,1/2-y,1/2+z
loop_
_atom_site_type_symbol
_atom_site_label
_atom_site_fract_x
_atom_site_fract_y
_atom_site_fract_z
Si Si1 0.341830 0.383818 0.611580
Si Si2 0.162401 0.292786 0.767164
Si Si3 0.836765 0.889563 0.816886
Si Si4 0.165646 0.388182 0.849276
Si Si5 0.331579 0.110525 0.199474
Si Si6 0.332767 0.715727 0.382839
Si Si7 0.664062 0.387974 0.464163
Si Si8 0.840045 0.383581 0.539229
O O1 0.500000 0.341338 0.603815
O O2 0.348879 0.500000 0.609048
O O3 0.287935 0.354413 0.655382
O O4 0.235743 0.340896 0.578490
O O5 0.191891 0.180632 0.779553
O O6 0.200995 0.363013 0.803857
O O7 0.261397 0.316227 0.730315
O O8 0.000000 0.308901 0.754074
O O9 0.734473 0.862425 0.852954
O O10 0.000000 0.876032 0.831249
O O11 0.805387 0.000000 0.803355
O O12 0.206035 0.500000 0.857545
O O13 0.260515 0.321703 0.878102
O O14 0.000000 0.366891 0.857865
O O15 0.500000 0.115061 0.204447
O O16 0.277173 0.000000 0.207137
O O17 0.500000 0.723632 0.374079
O O18 0.301477 0.679150 0.426824
O O19 0.500000 0.380165 0.476880
O O20 0.703202 0.500000 0.453765
O O21 0.757340 0.347417 0.500378
O O22 0.838818 0.500000 0.540732
O O23 0.000000 0.342244 0.537850
#
# Coordination Sequence:
#
# PCOD8177914 Si02
#       8
#     8   8   8   8   8   8   8   8
#     4   8  14  25  38  51  73 106 136 159 190 235
#     4   9  17  28  42  60  79 102 135 171 204 238
#     4   9  18  32  46  58  78 110 142 171 207 249
#     4   9  18  32  46  59  80 111 142 170 205 248
#     4   9  17  27  39  57  81 109 138 165 196 237
#     4  10  19  29  43  64  85 105 136 175 209 243
#     4   9  17  28  40  55  80 112 138 162 198 242
#     4   9  16  24  36  56  78 101 133 168 197 229
#
# _framework density 14.725228
#
# number of rings (size 3 to 8) (size 9 to 14) (size 15 to 20)
#    0.000    3.000    0.000    3.000    0.000    6.750 
#    0.000    2.500    0.000    0.000    0.000    0.000 
#    0.000    1.000    0.000    7.500    0.000    4.125 
#
# Total GULP energy -396733.669185 kJ/mol
# GULP energy per Si atom -12397.927162 kJ/mol
# Density = 1.469171 g / cm^3
# Si number density = 14.725228 Si / 1000 Ang^3
#
#
#
# Elastic Constant Matrix: (Units=GPa)
#
#
# Indices 1 2 3 4 5 6 
#
# 1 83.3171 38.7706 69.7004 0.0000 0.0000 0.0000
# 2 38.7706 78.6532 46.5488 0.0000 0.0000 0.0000
# 3 69.7004 46.5488 118.2969 0.0000 0.0000 0.0000
# 4 0.0000 0.0000 0.0000 16.2201 0.0000 0.0000
# 5 0.0000 0.0000 0.0000 0.0000 19.3159 0.0000
# 6 0.0000 0.0000 0.0000 0.0000 0.0000 18.3111
#
#
#
# Elastic Compliance Matrix: (Units=1/GPa)
#
#
# Indices 1 2 3 4 5 6 
#
# 1 0.024927 -0.004687 -0.012843 0.000000 0.000000 0.000000
# 2 -0.004687 0.017455 -0.004107 0.000000 0.000000 0.000000
# 3 -0.012843 -0.004107 0.017636 0.000000 0.000000 0.000000
# 4 0.000000 0.000000 0.000000 0.061652 0.000000 0.000000
# 5 0.000000 0.000000 0.000000 0.000000 0.051771 0.000000
# 6 0.000000 0.000000 0.000000 0.000000 0.000000 0.054612
#
#
# Mechanical properties :
#
#
# Convention : Reuss Voigt Hill
#
# Bulk Modulus (GPa) = 59.71804 65.58965 62.65385
# Shear Modulus (GPa) = 18.05657 19.11925 18.58791
#
# Velocity S-wave (km/s) = 3.50556 3.60724 3.55676
# Velocity P-wave (km/s) = 7.55170 7.87329 7.71417
#
# Compressibility (1/GPa) = 0.01674536
#
# Stress axis : x y z
#
# Youngs Moduli (GPa) = 40.11687 57.29079 56.70096
#
# Poissons Ratio (x) = 0.26850 0.72821
# Poissons Ratio (y) = 0.18801 0.23287
# Poissons Ratio (z) = 0.51522 0.23529
#
# Static dielectric constant tensor:
#      x y z
#    x 2.948850 0.000000 0.000000 
#    y 0.000000 2.647950 0.000000 
#    z 0.000000 0.000000 2.849050 
# 
# 
# High freq. dielectric constant tensor:
#      x y z
#    x 1.570260 0.000000 0.000000 
#    y 0.000000 1.521490 0.000000 
#    z 0.000000 0.000000 1.558130 
# 
# From -- ./inp_files/24792.got.cif
#   From: 2010.03.12/outbox.cif.g09.slc.cpg/sg38_13_cif.got.tgz:24792.got - 2010.04.14 02:38:36.
