data_PCOD8177700
_publ_section_title
;
Structure prediction by ZEFSAII (Michael W. Deem and Ramdas Pophale) SiO2 
 PCOD8177700
Probable space group: A M M 2
;
_chemical_formula_sum "Si O2"
_cell_formula_units_Z 48
_cell_length_a 14.061449
_cell_length_b 8.854594
_cell_length_c 20.192609
_cell_angle_alpha 90.000000
_cell_angle_beta 90.000000
_cell_angle_gamma 90.000000
_cell_volume 2514.149882
_symmetry_space_group_name_H-M "A M M 2"
_symmetry_group_IT_number 38
_symmetry_cell_setting 'orthorhombic'
loop_
_space_group_symop_operation_xyz
x,y,z
-x,-y,z
-x,y,z
x,-y,z
x,1/2+y,1/2+z
-x,1/2-y,1/2+z
-x,1/2+y,1/2+z
x,1/2-y,1/2+z
loop_
_atom_site_type_symbol
_atom_site_label
_atom_site_fract_x
_atom_site_fract_y
_atom_site_fract_z
Si Si1 0.500000 0.679334 0.406760
Si Si2 0.700128 0.820018 0.851535
Si Si3 0.000000 0.680345 0.537893
Si Si4 0.792198 0.823877 0.715939
Si Si5 0.500000 0.177038 0.551692
Si Si6 0.000000 0.327522 0.178513
Si Si7 0.318254 0.827485 0.099280
Si Si8 0.188501 0.672510 0.474434
O O1 0.500000 0.500000 0.414261
O O2 0.407500 0.736019 0.365893
O O3 0.500000 0.742549 0.480816
O O4 0.737955 0.762098 0.780934
O O5 0.702682 0.000000 0.855010
O O6 0.771097 0.751682 0.907395
O O7 0.908148 0.750534 0.500574
O O8 0.000000 0.500000 0.536994
O O9 0.000000 0.724363 0.614208
O O10 0.754394 0.731027 0.654011
O O11 0.905796 0.794950 0.722485
O O12 0.770197 0.000000 0.705176
O O13 0.411107 0.224209 0.596908
O O14 0.500000 0.000000 0.539649
O O15 0.000000 0.500000 0.153983
O O16 0.270359 0.813913 0.028230
O O17 0.346044 0.000000 0.114982
O O18 0.163227 0.500000 0.459398
#
# Coordination Sequence:
#
# PCOD8177700 Si02
#       8
#     4   8   4   8   4   4   8   8
#     4  10  18  35  60  81 107 149 197 239 286 340
#     4   9  18  33  55  82 112 149 191 238 288 340
#     4  10  18  31  55  85 109 143 196 240 275 331
#     4  10  21  36  55  83 118 155 193 236 291 345
#     4  12  24  37  58  89 119 147 185 235 288 346
#     4  10  20  33  51  79 117 155 188 234 295 347
#     4  11  21  37  60  84 112 147 191 237 281 333
#     4   9  17  30  54  84 108 139 189 239 275 322
#
# _framework density 19.091940999999998
#
# number of rings (size 3 to 8) (size 9 to 14) (size 15 to 20)
#    0.000    2.000    3.333    1.250    0.000    1.333 
#    0.000    5.833    0.000    0.000    0.000    1.167 
#    0.000    0.000    0.000    0.000    0.000    0.000 
#
# Total GULP energy -297549.230003 kJ/mol
# GULP energy per Si atom -12397.884583 kJ/mol
# Density = 1.904849 g / cm^3
# Si number density = 19.091941 Si / 1000 Ang^3
#
#
#
# Elastic Constant Matrix: (Units=GPa)
#
#
# Indices 1 2 3 4 5 6 
#
# 1 135.0125 24.6755 33.3285 0.0000 0.0000 0.0000
# 2 24.6755 40.6863 20.4501 0.0000 0.0000 0.0000
# 3 33.3285 20.4501 92.0956 0.0000 0.0000 0.0000
# 4 0.0000 0.0000 0.0000 18.6608 0.0000 0.0000
# 5 0.0000 0.0000 0.0000 0.0000 35.1991 0.0000
# 6 0.0000 0.0000 0.0000 0.0000 0.0000 18.8457
#
#
#
# Elastic Compliance Matrix: (Units=1/GPa)
#
#
# Indices 1 2 3 4 5 6 
#
# 1 0.008719 -0.004167 -0.002230 0.000000 0.000000 0.000000
# 2 -0.004167 0.029658 -0.005078 0.000000 0.000000 0.000000
# 3 -0.002230 -0.005078 0.012793 0.000000 0.000000 0.000000
# 4 0.000000 0.000000 0.000000 0.053588 0.000000 0.000000
# 5 0.000000 0.000000 0.000000 0.000000 0.028410 0.000000
# 6 0.000000 0.000000 0.000000 0.000000 0.000000 0.053063
#
#
# Mechanical properties :
#
#
# Convention : Reuss Voigt Hill
#
# Bulk Modulus (GPa) = 35.43563 47.18917 41.31240
# Shear Modulus (GPa) = 22.87434 27.16379 25.01907
#
# Velocity S-wave (km/s) = 3.46513 3.77608 3.62394
# Velocity P-wave (km/s) = 5.88306 6.61681 6.26069
#
# Compressibility (1/GPa) = 0.02822019
#
# Stress axis : x y z
#
# Youngs Moduli (GPa) = 114.69518 33.71816 78.16906
#
# Poissons Ratio (x) = 0.14050 0.17431
# Poissons Ratio (y) = 0.47793 0.39691
# Poissons Ratio (z) = 0.25577 0.17121
#
# Static dielectric constant tensor:
#      x y z
#    x 3.876120 0.000000 0.000000 
#    y 0.000000 3.135960 0.000000 
#    z 0.000000 0.000000 3.478130 
# 
# 
# High freq. dielectric constant tensor:
#      x y z
#    x 1.762790 0.000000 0.000000 
#    y 0.000000 1.700630 0.000000 
#    z 0.000000 0.000000 1.736990 
# 
# From -- ./inp_files/18243.got.cif
#   From: 2010.03.12/outbox.cif.g09.slc.cpg/sg38_10_cif.got.tgz:18243.got - 2010.04.14 02:38:36.
