data_PCOD8177318
_publ_section_title
;
Structure prediction by ZEFSAII (Michael W. Deem and Ramdas Pophale) SiO2 
 PCOD8177318
Probable space group: A M M 2
;
_chemical_formula_sum "Si O2"
_cell_formula_units_Z 56
_cell_length_a 21.416261
_cell_length_b 9.205828
_cell_length_c 15.458863
_cell_angle_alpha 90.000000
_cell_angle_beta 90.000000
_cell_angle_gamma 90.000000
_cell_volume 3047.783094
_symmetry_space_group_name_H-M "A M M 2"
_symmetry_group_IT_number 38
_symmetry_cell_setting 'orthorhombic'
loop_
_space_group_symop_operation_xyz
x,y,z
-x,-y,z
-x,y,z
x,-y,z
x,1/2+y,1/2+z
-x,1/2-y,1/2+z
-x,1/2+y,1/2+z
x,1/2-y,1/2+z
loop_
_atom_site_type_symbol
_atom_site_label
_atom_site_fract_x
_atom_site_fract_y
_atom_site_fract_z
Si Si1 0.148361 0.672577 0.588260
Si Si2 0.500000 0.827496 0.184852
Si Si3 0.930819 0.672428 0.748442
Si Si4 0.709499 0.327662 0.590127
Si Si5 0.365000 0.167095 0.442885
Si Si6 0.369472 0.672423 0.751212
Si Si7 0.072993 0.168112 0.442185
Si Si8 0.500000 0.163166 0.510688
O O1 0.143969 0.500000 0.584128
O O2 0.116844 0.732663 0.676508
O O3 0.219457 0.726989 0.587630
O O4 0.113315 0.734891 0.505735
O O5 0.561651 0.764108 0.231219
O O6 0.500000 0.000000 0.186310
O O7 0.500000 0.780005 0.085877
O O8 0.933713 0.500000 0.745479
O O9 0.909545 0.718983 0.844726
O O10 0.000000 0.734895 0.728372
O O11 0.705234 0.500000 0.584551
O O12 0.672479 0.264553 0.509437
O O13 0.679077 0.269774 0.679390
O O14 0.347169 0.221520 0.346356
O O15 0.439322 0.187170 0.451626
O O16 0.345537 0.000000 0.457317
O O17 0.373107 0.500000 0.748104
O O18 0.000000 0.194624 0.459800
O O19 0.090165 0.000000 0.456309
O O20 0.500000 0.000000 0.549753
#
# Coordination Sequence:
#
# PCOD8177318 Si02
#       8
#     8   4   8   8   8   8   8   4
#     4  10  20  33  52  76 104 137 172 210 251 298
#     4  10  17  31  57  78  98 132 169 207 257 310
#     4   8  15  30  52  76 101 131 167 206 250 300
#     4  10  21  36  51  74 105 136 174 214 248 296
#     4  10  20  35  55  77 102 133 169 212 260 306
#     4   9  18  33  54  76  98 131 174 212 251 304
#     4   9  18  33  54  80 106 131 166 212 255 300
#     4  10  19  31  51  80 108 126 157 213 265 306
#
# _framework density 18.374009999999998
#
# number of rings (size 3 to 8) (size 9 to 14) (size 15 to 20)
#    0.000    2.571    1.429    1.714    0.000    4.286 
#    0.000    5.000    0.000    1.714    0.000    0.000 
#    0.000    0.000    0.000    0.000    0.000    0.000 
#
# Total GULP energy -347141.496960 kJ/mol
# GULP energy per Si atom -12397.910606 kJ/mol
# Density = 1.833219 g / cm^3
# Si number density = 18.374010 Si / 1000 Ang^3
#
#
#
# Elastic Constant Matrix: (Units=GPa)
#
#
# Indices 1 2 3 4 5 6 
#
# 1 128.4186 24.3931 78.7011 0.0000 0.0000 0.0000
# 2 24.3931 15.7051 21.2394 0.0000 0.0000 0.0000
# 3 78.7011 21.2394 157.0836 0.0000 0.0000 0.0000
# 4 0.0000 0.0000 0.0000 28.6911 0.0000 0.0000
# 5 0.0000 0.0000 0.0000 0.0000 11.3373 0.0000
# 6 0.0000 0.0000 0.0000 0.0000 0.0000 20.1739
#
#
#
# Elastic Compliance Matrix: (Units=1/GPa)
#
#
# Indices 1 2 3 4 5 6 
#
# 1 0.013468 -0.014432 -0.004796 0.000000 0.000000 0.000000
# 2 -0.014432 0.093387 -0.005396 0.000000 0.000000 0.000000
# 3 -0.004796 -0.005396 0.009499 0.000000 0.000000 0.000000
# 4 0.000000 0.000000 0.000000 0.034854 0.000000 0.000000
# 5 0.000000 0.000000 0.000000 0.000000 0.088204 0.000000
# 6 0.000000 0.000000 0.000000 0.000000 0.000000 0.049569
#
#
# Mechanical properties :
#
#
# Convention : Reuss Voigt Hill
#
# Bulk Modulus (GPa) = 14.90214 61.09718 37.99966
# Shear Modulus (GPa) = 13.86591 23.83206 18.84898
#
# Velocity S-wave (km/s) = 2.75007 3.60537 3.20636
# Velocity P-wave (km/s) = 4.26754 7.11728 5.86803
#
# Compressibility (1/GPa) = 0.06710446
#
# Stress axis : x y z
#
# Youngs Moduli (GPa) = 74.25202 10.70818 105.27819
#
# Poissons Ratio (x) = 0.15454 0.50493
# Poissons Ratio (y) = 1.07158 0.56813
# Poissons Ratio (z) = 0.35613 0.05779
#
# Static dielectric constant tensor:
#      x y z
#    x 3.644340 0.000000 0.000000 
#    y 0.000000 3.005880 0.000000 
#    z 0.000000 0.000000 3.583140 
# 
# 
# High freq. dielectric constant tensor:
#      x y z
#    x 1.715440 0.000000 0.000000 
#    y 0.000000 1.671200 0.000000 
#    z 0.000000 0.000000 1.725860 
# 
# From -- ./inp_files/15518.got.cif
#   From: 2010.03.12/outbox.cif.g09.slc.cpg/sg38_8_cif.got.tgz:15518.got - 2010.04.14 02:38:36.
