data_PCOD8177330
_publ_section_title
;
Structure prediction by ZEFSAII (Michael W. Deem and Ramdas Pophale) SiO2 
 PCOD8177330
Probable space group: A M M 2
;
_chemical_formula_sum "Si O2"
_cell_formula_units_Z 56
_cell_length_a 9.282048
_cell_length_b 22.292870
_cell_length_c 17.571877
_cell_angle_alpha 90.000000
_cell_angle_beta 90.000000
_cell_angle_gamma 90.000000
_cell_volume 3636.034104
_symmetry_space_group_name_H-M "A M M 2"
_symmetry_group_IT_number 38
_symmetry_cell_setting 'orthorhombic'
loop_
_space_group_symop_operation_xyz
x,y,z
-x,-y,z
-x,y,z
x,-y,z
x,1/2+y,1/2+z
-x,1/2-y,1/2+z
-x,1/2+y,1/2+z
x,1/2-y,1/2+z
loop_
_atom_site_type_symbol
_atom_site_label
_atom_site_fract_x
_atom_site_fract_y
_atom_site_fract_z
Si Si1 0.829701 0.847922 0.762520
Si Si2 0.838922 0.319830 0.102226
Si Si3 0.169209 0.569287 0.396674
Si Si4 0.159217 0.682559 0.651353
Si Si5 0.332186 0.651470 0.512718
Si Si6 0.830737 0.780422 0.314044
Si Si7 0.331963 0.713521 0.962854
O O1 0.777175 0.857699 0.674918
O O2 0.782138 0.903402 0.815267
O O3 0.768987 0.786525 0.798970
O O4 0.000000 0.840590 0.757924
O O5 0.844324 0.251952 0.130354
O O6 0.000000 0.340875 0.078493
O O7 0.732681 0.327011 0.030850
O O8 0.211650 0.500000 0.395941
O O9 0.253320 0.601018 0.464277
O O10 0.000000 0.579562 0.409840
O O11 0.273424 0.647471 0.599165
O O12 0.200769 0.677558 0.740634
O O13 0.000000 0.654986 0.637618
O O14 0.500000 0.637137 0.514230
O O15 0.298601 0.716523 0.477585
O O16 0.744028 0.807254 0.385213
O O17 0.000000 0.779207 0.333696
O O18 0.500000 0.700170 0.957630
#
# Coordination Sequence:
#
# PCOD8177330 Si02
#       7
#     8   8   8   8   8   8   8
#     4   8  14  26  42  58  77 103 139 175 205 241
#     4   8  14  25  40  55  74 105 138 167 201 244
#     4  10  19  30  46  64  81 107 145 185 215 241
#     4   8  15  26  41  59  76 102 140 173 203 246
#     4  10  19  29  40  56  82 114 140 170 212 250
#     4   9  15  25  42  60  80 109 140 169 203 246
#     4  10  18  25  36  59  86 110 137 167 202 246
#
# _framework density 15.401395000000001
#
# number of rings (size 3 to 8) (size 9 to 14) (size 15 to 20)
#    0.000    3.000    1.429    2.571    0.000    2.000 
#    0.000    2.857    0.000    0.000    0.000    0.000 
#    0.000    1.143    0.000    8.857    0.000    2.143 
#
# Total GULP energy -347040.539447 kJ/mol
# GULP energy per Si atom -12394.304980 kJ/mol
# Density = 1.536634 g / cm^3
# Si number density = 15.401395 Si / 1000 Ang^3
#
#
#
# Elastic Constant Matrix: (Units=GPa)
#
#
# Indices 1 2 3 4 5 6 
#
# 1 70.0662 26.6564 65.3977 0.0000 0.0000 0.0000
# 2 26.6564 44.5529 38.3117 0.0000 0.0000 0.0000
# 3 65.3977 38.3117 151.0377 0.0000 0.0000 0.0000
# 4 0.0000 0.0000 0.0000 15.6930 0.0000 0.0000
# 5 0.0000 0.0000 0.0000 0.0000 12.2584 0.0000
# 6 0.0000 0.0000 0.0000 0.0000 0.0000 11.3875
#
#
#
# Elastic Compliance Matrix: (Units=1/GPa)
#
#
# Indices 1 2 3 4 5 6 
#
# 1 0.025747 -0.007441 -0.009261 0.000000 0.000000 0.000000
# 2 -0.007441 0.030858 -0.004605 0.000000 0.000000 0.000000
# 3 -0.009261 -0.004605 0.011799 0.000000 0.000000 0.000000
# 4 0.000000 0.000000 0.000000 0.063723 0.000000 0.000000
# 5 0.000000 0.000000 0.000000 0.000000 0.081577 0.000000
# 6 0.000000 0.000000 0.000000 0.000000 0.000000 0.087816
#
#
# Mechanical properties :
#
#
# Convention : Reuss Voigt Hill
#
# Bulk Modulus (GPa) = 38.77631 58.48759 48.63195
# Shear Modulus (GPa) = 14.17521 16.88717 15.53119
#
# Velocity S-wave (km/s) = 3.03708 3.31489 3.17902
# Velocity P-wave (km/s) = 6.12619 7.26012 6.71713
#
# Compressibility (1/GPa) = 0.02578894
#
# Stress axis : x y z
#
# Youngs Moduli (GPa) = 38.83995 32.40700 84.75499
#
# Poissons Ratio (x) = 0.24115 0.78487
# Poissons Ratio (y) = 0.28902 0.39032
# Poissons Ratio (z) = 0.35968 0.14924
#
# Static dielectric constant tensor:
#      x y z
#    x 2.842600 0.000000 0.000000 
#    y 0.000000 2.482460 0.000000 
#    z 0.000000 0.000000 3.278450 
# 
# 
# High freq. dielectric constant tensor:
#      x y z
#    x 1.579720 0.000000 0.000000 
#    y 0.000000 1.520030 0.000000 
#    z 0.000000 0.000000 1.606500 
# 
# From -- ./inp_files/17083.got.cif
#   From: 2010.03.12/outbox.cif.g09.slc.cpg/sg38_9_cif.got.tgz:17083.got - 2010.04.14 02:38:36.
