data_PCOD8177432
_publ_section_title
;
Structure prediction by ZEFSAII (Michael W. Deem and Ramdas Pophale) SiO2 
 PCOD8177432
Probable space group: A M M 2
;
_chemical_formula_sum "Si O2"
_cell_formula_units_Z 48
_cell_length_a 8.432537
_cell_length_b 23.999716
_cell_length_c 13.820900
_cell_angle_alpha 90.000000
_cell_angle_beta 90.000000
_cell_angle_gamma 90.000000
_cell_volume 2797.052916
_symmetry_space_group_name_H-M "A M M 2"
_symmetry_group_IT_number 38
_symmetry_cell_setting 'orthorhombic'
loop_
_space_group_symop_operation_xyz
x,y,z
-x,-y,z
-x,y,z
x,-y,z
x,1/2+y,1/2+z
-x,1/2-y,1/2+z
-x,1/2+y,1/2+z
x,1/2-y,1/2+z
loop_
_atom_site_type_symbol
_atom_site_label
_atom_site_fract_x
_atom_site_fract_y
_atom_site_fract_z
Si Si1 0.814520 0.166344 0.484800
Si Si2 0.814520 0.333656 0.432719
Si Si3 0.188419 0.561687 0.317040
Si Si4 0.683936 0.732760 0.598685
Si Si5 0.188419 0.561687 0.100479
Si Si6 0.683936 0.232760 0.318833
O O1 0.785889 0.214766 0.563218
O O2 0.745265 0.108358 0.527192
O O3 0.724614 0.179096 0.384474
O O4 0.000000 0.162109 0.463061
O O5 0.745265 0.391642 0.390327
O O6 0.724614 0.320904 0.533044
O O7 0.785889 0.285234 0.354300
O O8 0.000000 0.337891 0.454458
O O9 0.241996 0.500000 0.352115
O O10 0.254471 0.572871 0.208759
O O11 0.000000 0.565531 0.313930
O O12 0.500000 0.747907 0.587446
O O13 0.729215 0.718580 0.708759
O O14 0.241996 0.500000 0.065404
O O15 0.000000 0.565531 0.103589
O O16 0.500000 0.247907 0.330073
#
# Coordination Sequence:
#
# PCOD8177432 Si02
#       6
#     8   8   8   8   8   8
#     4  10  18  28  47  71  91 113 145 185 222 258
#     4  10  18  28  47  71  91 113 145 185 222 258
#     4   8  14  25  42  66  94 118 139 170 217 267
#     4  10  20  32  45  62  89 123 151 178 218 265
#     4   8  14  25  42  66  94 118 139 170 217 267
#     4  10  20  32  45  62  89 123 151 178 218 265
#
# _framework density 17.160919
#
# number of rings (size 3 to 8) (size 9 to 14) (size 15 to 20)
#    0.000    2.667    0.000    6.000    0.000    4.000 
#    0.000    0.000    0.000    5.000    0.000   18.667 
#    0.000    0.000    0.000    0.000    0.000    0.000 
#
# Total GULP energy -297514.504832 kJ/mol
# GULP energy per Si atom -12396.437701 kJ/mol
# Density = 1.712186 g / cm^3
# Si number density = 17.160919 Si / 1000 Ang^3
#
#
#
# Elastic Constant Matrix: (Units=GPa)
#
#
# Indices 1 2 3 4 5 6 
#
# 1 27.9657 2.1030 13.0123 0.0000 0.0000 0.0000
# 2 2.1030 126.4717 69.4121 0.0000 0.0000 0.0000
# 3 13.0123 69.4121 137.7017 0.0000 0.0000 0.0000
# 4 0.0000 0.0000 0.0000 30.9598 0.0000 0.0000
# 5 0.0000 0.0000 0.0000 0.0000 25.0996 0.0000
# 6 0.0000 0.0000 0.0000 0.0000 0.0000 1.5280
#
#
#
# Elastic Compliance Matrix: (Units=1/GPa)
#
#
# Indices 1 2 3 4 5 6 
#
# 1 0.037709 0.001837 -0.004489 0.000000 0.000000 0.000000
# 2 0.001837 0.011021 -0.005729 0.000000 0.000000 0.000000
# 3 -0.004489 -0.005729 0.010574 0.000000 0.000000 0.000000
# 4 0.000000 0.000000 0.000000 0.032300 0.000000 0.000000
# 5 0.000000 0.000000 0.000000 0.000000 0.039841 0.000000
# 6 0.000000 0.000000 0.000000 0.000000 0.000000 0.654464
#
#
# Mechanical properties :
#
#
# Convention : Reuss Voigt Hill
#
# Bulk Modulus (GPa) = 23.50677 51.24376 37.37527
# Shear Modulus (GPa) = 6.12106 25.35824 15.73965
#
# Velocity S-wave (km/s) = 1.89066 3.84822 3.03178
# Velocity P-wave (km/s) = 4.30043 7.04774 5.83800
#
# Compressibility (1/GPa) = 0.04254093
#
# Stress axis : x y z
#
# Youngs Moduli (GPa) = 26.51908 90.73993 94.57147
#
# Poissons Ratio (x) = -0.16667 0.42455
# Poissons Ratio (y) = -0.04871 0.54178
# Poissons Ratio (z) = 0.11905 0.51983
#
# Static dielectric constant tensor:
#      x y z
#    x 2.978780 0.000000 0.000000 
#    y 0.000000 3.416480 0.000000 
#    z 0.000000 0.000000 3.338280 
# 
# 
# High freq. dielectric constant tensor:
#      x y z
#    x 1.645190 0.000000 0.000000 
#    y 0.000000 1.652130 0.000000 
#    z 0.000000 0.000000 1.653590 
# 
# From -- ./inp_files/12535.got.cif
#   From: 2010.03.12/outbox.cif.g09.slc.cpg/sg38_7_cif.got.tgz:12535.got - 2010.04.14 02:38:36.
