data_PCOD8177121
_publ_section_title
;
Structure prediction by ZEFSAII (Michael W. Deem and Ramdas Pophale) SiO2 
 PCOD8177121
Probable space group: C C C 2
;
_chemical_formula_sum "Si O2"
_cell_formula_units_Z 32
_cell_length_a 8.949179
_cell_length_b 10.376700
_cell_length_c 15.627000
_cell_angle_alpha 90.000000
_cell_angle_beta 90.000000
_cell_angle_gamma 90.000000
_cell_volume 1451.169253
_symmetry_space_group_name_H-M "C C C 2"
_symmetry_group_IT_number 37
_symmetry_cell_setting 'orthorhombic'
loop_
_space_group_symop_operation_xyz
x,y,z
-x,-y,z
-x,y,1/2+z
x,-y,1/2+z
1/2+x,1/2+y,z
1/2-x,1/2-y,z
1/2-x,1/2+y,1/2+z
1/2+x,1/2-y,1/2+z
loop_
_atom_site_type_symbol
_atom_site_label
_atom_site_fract_x
_atom_site_fract_y
_atom_site_fract_z
Si Si1 0.086795 0.873053 0.681710
Si Si2 0.629624 0.355905 0.490048
Si Si3 0.186194 0.125129 0.434774
Si Si4 0.618391 0.114213 0.763060
O O1 0.055284 0.835970 0.583158
O O2 0.264115 0.905492 0.685858
O O3 0.040125 0.752854 0.743641
O O4 0.000000 0.000000 0.712174
O O5 0.750000 0.250000 0.463965
O O6 0.712676 0.494328 0.487552
O O7 0.493068 0.352958 0.421716
O O8 0.250000 0.250000 0.485906
O O9 0.278696 0.117988 0.346992
O O10 0.500000 0.000000 0.767947
#
# Coordination Sequence:
#
# PCOD8177121 Si02
#       4
#     8   8   8   8
#     4  11  23  49  70 100 145 185 242 304 360 431
#     4  11  25  46  71 102 146 189 234 306 368 425
#     4  11  25  45  66 105 146 185 241 299 360 439
#     4  11  26  45  71 104 141 192 246 300 358 438
#
# _framework density 22.051185
#
# number of rings (size 3 to 8) (size 9 to 14) (size 15 to 20)
#    0.000    1.000    7.500    0.000    7.000    3.000 
#    0.000    0.000    0.000    0.000    0.000    0.000 
#    0.000    0.000    0.000    0.000    0.000    0.000 
#
# Total GULP energy -198245.447992 kJ/mol
# GULP energy per Si atom -12390.340499 kJ/mol
# Density = 2.200100 g / cm^3
# Si number density = 22.051185 Si / 1000 Ang^3
#
#
#
# Elastic Constant Matrix: (Units=GPa)
#
#
# Indices 1 2 3 4 5 6 
#
# 1 114.1068 108.9200 32.4952 0.0000 0.0000 0.0000
# 2 108.9200 234.0557 46.4248 0.0000 0.0000 0.0000
# 3 32.4952 46.4248 90.0769 0.0000 0.0000 0.0000
# 4 0.0000 0.0000 0.0000 32.4216 0.0000 0.0000
# 5 0.0000 0.0000 0.0000 0.0000 26.1794 0.0000
# 6 0.0000 0.0000 0.0000 0.0000 0.0000 61.2383
#
#
#
# Elastic Compliance Matrix: (Units=1/GPa)
#
#
# Indices 1 2 3 4 5 6 
#
# 1 0.016141 -0.007080 -0.002174 0.000000 0.000000 0.000000
# 2 -0.007080 0.007865 -0.001499 0.000000 0.000000 0.000000
# 3 -0.002174 -0.001499 0.012658 0.000000 0.000000 0.000000
# 4 0.000000 0.000000 0.000000 0.030844 0.000000 0.000000
# 5 0.000000 0.000000 0.000000 0.000000 0.038198 0.000000
# 6 0.000000 0.000000 0.000000 0.000000 0.000000 0.016330
#
#
# Mechanical properties :
#
#
# Convention : Reuss Voigt Hill
#
# Bulk Modulus (GPa) = 65.97247 90.43549 78.20398
# Shear Modulus (GPa) = 33.64851 40.66115 37.15483
#
# Velocity S-wave (km/s) = 3.91055 4.29878 4.10925
# Velocity P-wave (km/s) = 7.09737 8.10802 7.61947
#
# Compressibility (1/GPa) = 0.01515784
#
# Stress axis : x y z
#
# Youngs Moduli (GPa) = 61.95314 127.14989 78.99830
#
# Poissons Ratio (x) = 0.90026 0.17173
# Poissons Ratio (y) = 0.43865 0.11843
# Poissons Ratio (z) = 0.13468 0.19062
#
# Static dielectric constant tensor:
#      x y z
#    x 4.062620 0.000000 0.000000 
#    y 0.000000 4.429610 0.000000 
#    z 0.000000 0.000000 3.799410 
# 
# 
# High freq. dielectric constant tensor:
#      x y z
#    x 1.853370 0.000000 0.000000 
#    y 0.000000 1.889420 0.000000 
#    z 0.000000 0.000000 1.854220 
# 
# From -- ./inp_files/10141.got.cif
#   From: 2010.03.12/outbox.cif.g09.slc.cpg/sg37_6_cif.got.tgz:10141.got - 2010.04.14 02:25:27.
