data_PCOD8177803
_publ_section_title
;
Structure prediction by ZEFSAII (Michael W. Deem and Ramdas Pophale) SiO2 
 PCOD8177803
Probable space group: A M M 2
;
_chemical_formula_sum "Si O2"
_cell_formula_units_Z 64
_cell_length_a 9.214638
_cell_length_b 15.357408
_cell_length_c 23.738206
_cell_angle_alpha 90.000000
_cell_angle_beta 90.000000
_cell_angle_gamma 90.000000
_cell_volume 3359.263685
_symmetry_space_group_name_H-M "A M M 2"
_symmetry_group_IT_number 38
_symmetry_cell_setting 'orthorhombic'
loop_
_space_group_symop_operation_xyz
x,y,z
-x,-y,z
-x,y,z
x,-y,z
x,1/2+y,1/2+z
-x,1/2-y,1/2+z
-x,1/2+y,1/2+z
x,1/2-y,1/2+z
loop_
_atom_site_type_symbol
_atom_site_label
_atom_site_fract_x
_atom_site_fract_y
_atom_site_fract_z
Si Si1 0.671483 0.655526 0.385310
Si Si2 0.833017 0.903758 0.488917
Si Si3 0.170301 0.253694 0.197645
Si Si4 0.668935 0.598244 0.265219
Si Si5 0.332063 0.901273 0.256044
Si Si6 0.169626 0.251843 0.567592
Si Si7 0.330083 0.901432 0.005538
Si Si8 0.329615 0.647563 0.880863
O O1 0.500000 0.652682 0.387980
O O2 0.723407 0.603721 0.329993
O O3 0.732907 0.612158 0.442304
O O4 0.728353 0.753849 0.380939
O O5 0.772541 0.831310 0.532184
O O6 0.747566 0.904123 0.430466
O O7 0.000000 0.884321 0.475419
O O8 0.813926 0.000000 0.516136
O O9 0.238745 0.336493 0.227994
O O10 0.236176 0.162954 0.218809
O O11 0.206477 0.265441 0.132264
O O12 0.000000 0.252254 0.209776
O O13 0.500000 0.625064 0.261082
O O14 0.694184 0.500000 0.243589
O O15 0.500000 0.874410 0.248866
O O16 0.287509 0.895097 0.321444
O O17 0.304813 0.000000 0.235316
O O18 0.250616 0.338828 0.548929
O O19 0.000000 0.266400 0.558124
O O20 0.500000 0.879714 0.007353
O O21 0.298947 0.000000 0.024483
O O22 0.500000 0.642318 0.891990
#
# Coordination Sequence:
#
# PCOD8177803 Si02
#       8
#     8   8   8   8   8   8   8   8
#     4   9  16  31  57  86 115 144 174 217 276 336
#     4  10  21  37  57  81 110 145 184 226 274 329
#     4  11  24  40  58  80 111 151 193 238 281 327
#     4  10  20  37  62  88 115 148 185 227 277 335
#     4  10  21  38  60  85 114 148 186 230 281 337
#     4  10  23  41  57  76 107 150 192 230 276 325
#     4  10  20  35  58  87 114 142 179 224 275 330
#     4  10  18  33  59  86 113 145 178 220 276 334
#
# _framework density 19.051794000000001
#
# number of rings (size 3 to 8) (size 9 to 14) (size 15 to 20)
#    0.000    2.000    2.500    1.125    0.000    5.500 
#    0.000    4.375    0.000    1.500    0.000    0.000 
#    0.000    0.000    0.000    0.000    0.000    0.000 
#
# Total GULP energy -396828.838007 kJ/mol
# GULP energy per Si atom -12400.901188 kJ/mol
# Density = 1.900843 g / cm^3
# Si number density = 19.051794 Si / 1000 Ang^3
#
#
#
# Elastic Constant Matrix: (Units=GPa)
#
#
# Indices 1 2 3 4 5 6 
#
# 1 54.3230 42.2594 46.4960 0.0000 0.0000 0.0000
# 2 42.2594 120.4724 44.9938 0.0000 0.0000 0.0000
# 3 46.4960 44.9938 89.9902 0.0000 0.0000 0.0000
# 4 0.0000 0.0000 0.0000 10.1812 0.0000 0.0000
# 5 0.0000 0.0000 0.0000 0.0000 28.8282 0.0000
# 6 0.0000 0.0000 0.0000 0.0000 0.0000 26.7870
#
#
#
# Elastic Compliance Matrix: (Units=1/GPa)
#
#
# Indices 1 2 3 4 5 6 
#
# 1 0.037579 -0.007292 -0.015770 0.000000 0.000000 0.000000
# 2 -0.007292 0.011622 -0.002043 0.000000 0.000000 0.000000
# 3 -0.015770 -0.002043 0.020282 0.000000 0.000000 0.000000
# 4 0.000000 0.000000 0.000000 0.098220 0.000000 0.000000
# 5 0.000000 0.000000 0.000000 0.000000 0.034688 0.000000
# 6 0.000000 0.000000 0.000000 0.000000 0.000000 0.037332
#
#
# Mechanical properties :
#
#
# Convention : Reuss Voigt Hill
#
# Bulk Modulus (GPa) = 51.88917 59.14268 55.51592
# Shear Modulus (GPa) = 16.87150 21.89506 19.38328
#
# Velocity S-wave (km/s) = 2.97906 3.39372 3.19313
# Velocity P-wave (km/s) = 6.25524 6.81667 6.54198
#
# Compressibility (1/GPa) = 0.01927185
#
# Stress axis : x y z
#
# Youngs Moduli (GPa) = 26.61033 86.04663 49.30482
#
# Poissons Ratio (x) = 0.62747 0.77756
# Poissons Ratio (y) = 0.19405 0.10073
# Poissons Ratio (z) = 0.41966 0.17579
#
# Static dielectric constant tensor:
#      x y z
#    x 3.268300 0.000000 0.000000 
#    y 0.000000 3.634730 0.000000 
#    z 0.000000 0.000000 3.525360 
# 
# 
# High freq. dielectric constant tensor:
#      x y z
#    x 1.716400 0.000000 0.000000 
#    y 0.000000 1.756230 0.000000 
#    z 0.000000 0.000000 1.738850 
# 
# From -- ./inp_files/22119.got.cif
#   From: 2010.03.12/outbox.cif.g09.slc.cpg/sg38_12_cif.got.tgz:22119.got - 2010.04.14 02:38:36.
