data_PCOD8177907
_publ_section_title
;
Structure prediction by ZEFSAII (Michael W. Deem and Ramdas Pophale) SiO2 
 PCOD8177907
Probable space group: A M M 2
;
_chemical_formula_sum "Si O2"
_cell_formula_units_Z 56
_cell_length_a 8.890095
_cell_length_b 13.738825
_cell_length_c 29.330896
_cell_angle_alpha 90.000000
_cell_angle_beta 90.000000
_cell_angle_gamma 90.000000
_cell_volume 3582.459782
_symmetry_space_group_name_H-M "A M M 2"
_symmetry_group_IT_number 38
_symmetry_cell_setting 'orthorhombic'
loop_
_space_group_symop_operation_xyz
x,y,z
-x,-y,z
-x,y,z
x,-y,z
x,1/2+y,1/2+z
-x,1/2-y,1/2+z
-x,1/2+y,1/2+z
x,1/2-y,1/2+z
loop_
_atom_site_type_symbol
_atom_site_label
_atom_site_fract_x
_atom_site_fract_y
_atom_site_fract_z
Si Si1 0.324571 0.612867 0.340500
Si Si2 0.821039 0.891554 0.650811
Si Si3 0.822299 0.106433 0.011386
Si Si4 0.177859 0.720007 0.422919
Si Si5 0.674700 0.112077 0.474021
Si Si6 0.178799 0.295169 0.059676
Si Si7 0.167292 0.384557 0.249743
O O1 0.500000 0.629483 0.347711
O O2 0.279526 0.500000 0.347845
O O3 0.233789 0.680057 0.374939
O O4 0.280037 0.647821 0.289669
O O5 0.762110 0.822681 0.610047
O O6 0.771384 0.847939 0.700219
O O7 0.000000 0.896753 0.650161
O O8 0.754744 0.000000 0.643120
O O9 0.770395 0.144098 0.961865
O O10 0.000000 0.097010 0.012035
O O11 0.749335 0.000000 0.020691
O O12 0.770136 0.183813 0.049717
O O13 0.250469 0.824561 0.433799
O O14 0.000000 0.732903 0.421664
O O15 0.500000 0.138543 0.477310
O O16 0.749827 0.132792 0.522807
O O17 0.700800 0.000000 0.461182
O O18 0.000000 0.306243 0.055249
O O19 0.157811 0.500000 0.246212
O O20 0.000000 0.342871 0.259965
#
# Coordination Sequence:
#
# PCOD8177907 Si02
#       7
#     8   8   8   8   8   8   8
#     4  10  19  29  42  63  91 117 140 173 217 262
#     4   8  13  22  38  60  83 106 138 181 219 251
#     4   8  14  24  38  59  85 109 136 171 207 242
#     4  10  19  30  46  64  82 111 149 182 210 249
#     4  10  20  32  44  61  88 116 140 173 217 262
#     4   9  16  26  43  64  84 112 148 180 211 252
#     4   8  14  25  40  57  79 109 143 177 214 257
#
# _framework density 15.631719
#
# number of rings (size 3 to 8) (size 9 to 14) (size 15 to 20)
#    0.000    3.000    0.000    3.857    0.000    3.143 
#    0.000    0.714    0.000    6.429    0.000    1.000 
#    0.000    3.429    0.000    0.000    0.000    0.000 
#
# Total GULP energy -347032.914602 kJ/mol
# GULP energy per Si atom -12394.032664 kJ/mol
# Density = 1.559614 g / cm^3
# Si number density = 15.631719 Si / 1000 Ang^3
#
#
#
# Elastic Constant Matrix: (Units=GPa)
#
#
# Indices 1 2 3 4 5 6 
#
# 1 49.7664 29.5671 30.2379 0.0000 0.0000 0.0000
# 2 29.5671 90.8563 56.2976 0.0000 0.0000 0.0000
# 3 30.2379 56.2976 128.8825 0.0000 0.0000 0.0000
# 4 0.0000 0.0000 0.0000 23.2174 0.0000 0.0000
# 5 0.0000 0.0000 0.0000 0.0000 11.9224 0.0000
# 6 0.0000 0.0000 0.0000 0.0000 0.0000 16.1797
#
#
#
# Elastic Compliance Matrix: (Units=1/GPa)
#
#
# Indices 1 2 3 4 5 6 
#
# 1 0.025884 -0.006390 -0.003282 0.000000 0.000000 0.000000
# 2 -0.006390 0.016668 -0.005782 0.000000 0.000000 0.000000
# 3 -0.003282 -0.005782 0.011054 0.000000 0.000000 0.000000
# 4 0.000000 0.000000 0.000000 0.043071 0.000000 0.000000
# 5 0.000000 0.000000 0.000000 0.000000 0.083875 0.000000
# 6 0.000000 0.000000 0.000000 0.000000 0.000000 0.061806
#
#
# Mechanical properties :
#
#
# Convention : Reuss Voigt Hill
#
# Bulk Modulus (GPa) = 44.05228 55.74561 49.89895
# Shear Modulus (GPa) = 17.80416 20.49075 19.14745
#
# Velocity S-wave (km/s) = 3.37853 3.62449 3.50367
# Velocity P-wave (km/s) = 6.59256 7.29761 6.95403
#
# Compressibility (1/GPa) = 0.02270030
#
# Stress axis : x y z
#
# Youngs Moduli (GPa) = 38.63358 59.99349 90.46097
#
# Poissons Ratio (x) = 0.38336 0.29686
# Poissons Ratio (y) = 0.24687 0.52303
# Poissons Ratio (z) = 0.12678 0.34687
#
# Static dielectric constant tensor:
#      x y z
#    x 2.804230 0.000000 0.000000 
#    y 0.000000 2.990220 0.000000 
#    z 0.000000 0.000000 3.220930 
# 
# 
# High freq. dielectric constant tensor:
#      x y z
#    x 1.582790 0.000000 0.000000 
#    y 0.000000 1.571390 0.000000 
#    z 0.000000 0.000000 1.599260 
# 
# From -- ./inp_files/24625.got.cif
#   From: 2010.03.12/outbox.cif.g09.slc.cpg/sg38_13_cif.got.tgz:24625.got - 2010.04.14 02:38:36.
