data_PCOD8177875
_publ_section_title
;
Structure prediction by ZEFSAII (Michael W. Deem and Ramdas Pophale) SiO2 
 PCOD8177875
Probable space group: A M M 2
;
_chemical_formula_sum "Si O2"
_cell_formula_units_Z 64
_cell_length_a 20.813033
_cell_length_b 9.259893
_cell_length_c 19.440300
_cell_angle_alpha 90.000000
_cell_angle_beta 90.000000
_cell_angle_gamma 90.000000
_cell_volume 3746.660173
_symmetry_space_group_name_H-M "A M M 2"
_symmetry_group_IT_number 38
_symmetry_cell_setting 'orthorhombic'
loop_
_space_group_symop_operation_xyz
x,y,z
-x,-y,z
-x,y,z
x,-y,z
x,1/2+y,1/2+z
-x,1/2-y,1/2+z
-x,1/2+y,1/2+z
x,1/2-y,1/2+z
loop_
_atom_site_type_symbol
_atom_site_label
_atom_site_fract_x
_atom_site_fract_y
_atom_site_fract_z
Si Si1 0.429303 0.667779 0.961230
Si Si2 0.174509 0.667697 0.107502
Si Si3 0.816205 0.169303 0.447641
Si Si4 0.691469 0.663668 0.449931
Si Si5 0.929172 0.671489 0.850772
Si Si6 0.704230 0.660157 0.613608
Si Si7 0.568601 0.334588 0.600441
Si Si8 0.074739 0.834472 0.196087
O O1 0.500000 0.690140 0.926397
O O2 0.409761 0.500000 0.961212
O O3 0.373404 0.757760 0.922276
O O4 0.433780 0.721295 0.039098
O O5 0.174136 0.500000 0.123186
O O6 0.241155 0.730037 0.138722
O O7 0.113437 0.737375 0.143160
O O8 0.169401 0.703366 0.027007
O O9 0.753509 0.252981 0.420579
O O10 0.876595 0.229870 0.404329
O O11 0.804876 0.000000 0.435483
O O12 0.692334 0.500000 0.422562
O O13 0.693487 0.671295 0.532088
O O14 0.932187 0.500000 0.853199
O O15 0.910745 0.719726 0.773544
O O16 0.000000 0.732738 0.870503
O O17 0.727069 0.500000 0.634968
O O18 0.633164 0.696336 0.646141
O O19 0.500000 0.320010 0.641488
O O20 0.575057 0.500000 0.571863
O O21 0.000000 0.815997 0.178893
O O22 0.096149 0.000000 0.186974
#
# Coordination Sequence:
#
# PCOD8177875 Si02
#       8
#     8   8   8   8   8   8   8   8
#     4   9  15  21  31  49  74 106 144 182 217 254
#     4  10  19  28  42  66  93 118 143 177 220 261
#     4   9  17  29  46  67  90 115 144 180 219 260
#     4   9  16  25  37  54  80 113 145 177 215 260
#     4   8  15  30  51  70  86 110 146 182 215 255
#     4   8  14  24  37  53  78 113 147 177 209 251
#     4   8  13  21  33  50  74 106 142 177 215 258
#     4   9  18  33  51  67  85 113 147 180 214 257
#
# _framework density 17.081879000000001
#
# number of rings (size 3 to 8) (size 9 to 14) (size 15 to 20)
#    0.000    3.250    0.000    2.625    0.000    5.000 
#    0.000    1.875    0.000    1.125    0.000    0.000 
#    0.000    1.000    0.000    8.000    0.000    7.375 
#
# Total GULP energy -396452.746638 kJ/mol
# GULP energy per Si atom -12389.148332 kJ/mol
# Density = 1.704300 g / cm^3
# Si number density = 17.081879 Si / 1000 Ang^3
#
#
#
# Elastic Constant Matrix: (Units=GPa)
#
#
# Indices 1 2 3 4 5 6 
#
# 1 157.9461 70.3933 45.0454 0.0000 0.0000 0.0000
# 2 70.3933 87.1265 28.5210 0.0000 0.0000 0.0000
# 3 45.0454 28.5210 31.1594 0.0000 0.0000 0.0000
# 4 0.0000 0.0000 0.0000 10.7589 0.0000 0.0000
# 5 0.0000 0.0000 0.0000 0.0000 1.9131 0.0000
# 6 0.0000 0.0000 0.0000 0.0000 0.0000 29.2000
#
#
#
# Elastic Compliance Matrix: (Units=1/GPa)
#
#
# Indices 1 2 3 4 5 6 
#
# 1 0.012676 -0.006058 -0.012780 0.000000 0.000000 0.000000
# 2 -0.006058 0.019283 -0.008893 0.000000 0.000000 0.000000
# 3 -0.012780 -0.008893 0.058708 0.000000 0.000000 0.000000
# 4 0.000000 0.000000 0.000000 0.092946 0.000000 0.000000
# 5 0.000000 0.000000 0.000000 0.000000 0.522711 0.000000
# 6 0.000000 0.000000 0.000000 0.000000 0.000000 0.034247
#
#
# Mechanical properties :
#
#
# Convention : Reuss Voigt Hill
#
# Bulk Modulus (GPa) = 28.40433 62.68349 45.54391
# Shear Modulus (GPa) = 6.18990 17.19256 11.69123
#
# Velocity S-wave (km/s) = 1.90566 3.17595 2.61899
# Velocity P-wave (km/s) = 4.63751 7.08692 5.98878
#
# Compressibility (1/GPa) = 0.03520590
#
# Stress axis : x y z
#
# Youngs Moduli (GPa) = 78.88977 51.85898 17.03346
#
# Poissons Ratio (x) = 0.31416 0.21769
# Poissons Ratio (y) = 0.47791 0.15147
# Poissons Ratio (z) = 1.00820 0.46117
#
# Static dielectric constant tensor:
#      x y z
#    x 3.848010 0.000000 0.000000 
#    y 0.000000 3.142230 0.000000 
#    z 0.000000 0.000000 2.634020 
# 
# 
# High freq. dielectric constant tensor:
#      x y z
#    x 1.687790 0.000000 0.000000 
#    y 0.000000 1.652760 0.000000 
#    z 0.000000 0.000000 1.581470 
# 
# From -- ./inp_files/21506.got.cif
#   From: 2010.03.12/outbox.cif.g09.slc.cpg/sg38_11_cif.got.tgz:21506.got - 2010.04.14 02:38:36.
