data_PCOD8177639
_publ_section_title
;
Structure prediction by ZEFSAII (Michael W. Deem and Ramdas Pophale) SiO2 
 PCOD8177639
Probable space group: A M M 2
;
_chemical_formula_sum "Si O2"
_cell_formula_units_Z 48
_cell_length_a 12.754189
_cell_length_b 9.043052
_cell_length_c 23.752244
_cell_angle_alpha 90.000000
_cell_angle_beta 90.000000
_cell_angle_gamma 90.000000
_cell_volume 2739.507681
_symmetry_space_group_name_H-M "A M M 2"
_symmetry_group_IT_number 38
_symmetry_cell_setting 'orthorhombic'
loop_
_space_group_symop_operation_xyz
x,y,z
-x,-y,z
-x,y,z
x,-y,z
x,1/2+y,1/2+z
-x,1/2-y,1/2+z
-x,1/2+y,1/2+z
x,1/2-y,1/2+z
loop_
_atom_site_type_symbol
_atom_site_label
_atom_site_fract_x
_atom_site_fract_y
_atom_site_fract_z
Si Si1 0.699273 0.175624 0.447010
Si Si2 0.382342 0.174835 0.328715
Si Si3 0.500000 0.324759 0.016058
Si Si4 0.500000 0.324307 0.144107
Si Si5 0.114942 0.675376 0.638066
Si Si6 0.688633 0.174975 0.207732
Si Si7 0.878729 0.671548 0.511971
O O1 0.679370 0.233296 0.383402
O O2 0.603988 0.236218 0.485383
O O3 0.809155 0.239117 0.467884
O O4 0.705753 0.000000 0.449379
O O5 0.500000 0.242336 0.326365
O O6 0.318175 0.221678 0.273067
O O7 0.392390 0.000000 0.332417
O O8 0.500000 0.500000 0.012199
O O9 0.500000 0.268889 0.079892
O O10 0.500000 0.500000 0.148651
O O11 0.601984 0.260584 0.173165
O O12 0.109198 0.500000 0.636106
O O13 0.199119 0.728627 0.684042
O O14 0.145354 0.730118 0.575301
O O15 0.000000 0.738071 0.655083
O O16 0.671202 0.000000 0.199872
O O17 0.850168 0.500000 0.506768
O O18 0.000000 0.699696 0.496980
#
# Coordination Sequence:
#
# PCOD8177639 Si02
#       7
#     8   8   4   4   8   8   8
#     4  10  18  31  51  71  94 127 164 197 233 284
#     4   9  16  29  49  71  96 126 158 191 235 283
#     4   9  18  30  45  67  97 129 154 191 248 292
#     4  11  21  30  43  69 101 125 154 199 244 284
#     4   8  15  29  50  74  97 123 158 199 242 285
#     4  10  18  31  52  73  94 125 162 196 237 287
#     4   9  18  33  50  69  98 131 158 194 244 287
#
# _framework density 17.521397
#
# number of rings (size 3 to 8) (size 9 to 14) (size 15 to 20)
#    0.000    2.667    1.667    2.250    0.000    0.333 
#    0.000    2.917    0.000    4.500    0.000    0.000 
#    0.000    0.000    0.000    0.000    0.000    0.000 
#
# Total GULP energy -297527.147592 kJ/mol
# GULP energy per Si atom -12396.964483 kJ/mol
# Density = 1.748152 g / cm^3
# Si number density = 17.521397 Si / 1000 Ang^3
#
#
#
# Elastic Constant Matrix: (Units=GPa)
#
#
# Indices 1 2 3 4 5 6 
#
# 1 137.4440 28.6528 95.4784 0.0000 0.0000 0.0000
# 2 28.6528 25.4124 30.7929 0.0000 0.0000 0.0000
# 3 95.4784 30.7929 174.4593 0.0000 0.0000 0.0000
# 4 0.0000 0.0000 0.0000 19.9176 0.0000 0.0000
# 5 0.0000 0.0000 0.0000 0.0000 42.6162 0.0000
# 6 0.0000 0.0000 0.0000 0.0000 0.0000 17.3180
#
#
#
# Elastic Compliance Matrix: (Units=1/GPa)
#
#
# Indices 1 2 3 4 5 6 
#
# 1 0.012784 -0.007552 -0.005664 0.000000 0.000000 0.000000
# 2 -0.007552 0.054518 -0.005490 0.000000 0.000000 0.000000
# 3 -0.005664 -0.005490 0.009801 0.000000 0.000000 0.000000
# 4 0.000000 0.000000 0.000000 0.050207 0.000000 0.000000
# 5 0.000000 0.000000 0.000000 0.000000 0.023465 0.000000
# 6 0.000000 0.000000 0.000000 0.000000 0.000000 0.057743
#
#
# Mechanical properties :
#
#
# Convention : Reuss Voigt Hill
#
# Bulk Modulus (GPa) = 25.19382 71.90711 48.55047
# Shear Modulus (GPa) = 19.29316 28.12980 23.71148
#
# Velocity S-wave (km/s) = 3.32191 4.01116 3.68270
# Velocity P-wave (km/s) = 5.39663 7.91083 6.77144
#
# Compressibility (1/GPa) = 0.03969227
#
# Stress axis : x y z
#
# Youngs Moduli (GPa) = 78.22005 18.34273 102.03396
#
# Poissons Ratio (x) = 0.13852 0.57790
# Poissons Ratio (y) = 0.59069 0.56014
# Poissons Ratio (z) = 0.44302 0.10070
#
# Static dielectric constant tensor:
#      x y z
#    x 2.715900 0.000000 0.000000 
#    y 0.000000 2.804860 0.000000 
#    z 0.000000 0.000000 3.512260 
# 
# 
# High freq. dielectric constant tensor:
#      x y z
#    x 1.681630 0.000000 0.000000 
#    y 0.000000 1.631100 0.000000 
#    z 0.000000 0.000000 1.683670 
# 
# From -- ./inp_files/20619.got.cif
#   From: 2010.03.12/outbox.cif.g09.slc.cpg/sg38_11_cif.got.tgz:20619.got - 2010.04.14 02:38:36.
