data_PCOD8177952
_publ_section_title
;
Structure prediction by ZEFSAII (Michael W. Deem and Ramdas Pophale) SiO2 
 PCOD8177952
Probable space group: A M M 2
;
_chemical_formula_sum "Si O2"
_cell_formula_units_Z 64
_cell_length_a 20.067069
_cell_length_b 9.167585
_cell_length_c 19.983675
_cell_angle_alpha 90.000000
_cell_angle_beta 90.000000
_cell_angle_gamma 90.000000
_cell_volume 3676.327961
_symmetry_space_group_name_H-M "A M M 2"
_symmetry_group_IT_number 38
_symmetry_cell_setting 'orthorhombic'
loop_
_space_group_symop_operation_xyz
x,y,z
-x,-y,z
-x,y,z
x,-y,z
x,1/2+y,1/2+z
-x,1/2-y,1/2+z
-x,1/2+y,1/2+z
x,1/2-y,1/2+z
loop_
_atom_site_type_symbol
_atom_site_label
_atom_site_fract_x
_atom_site_fract_y
_atom_site_fract_z
Si Si1 0.833837 0.669571 0.093100
Si Si2 0.684518 0.831242 0.268639
Si Si3 0.073615 0.172015 0.710238
Si Si4 0.574123 0.673389 0.870419
Si Si5 0.182807 0.173261 0.814614
Si Si6 0.300349 0.332143 0.617831
Si Si7 0.807686 0.166015 0.446821
Si Si8 0.658437 0.331606 0.993897
O O1 0.814506 0.500000 0.102490
O O2 0.898144 0.712884 0.136738
O O3 0.772099 0.760851 0.120154
O O4 0.848344 0.701743 0.014935
O O5 0.621183 0.771664 0.310173
O O6 0.748600 0.738925 0.288400
O O7 0.666577 0.812423 0.190634
O O8 0.699570 0.000000 0.286483
O O9 0.122979 0.231187 0.767549
O O10 0.000000 0.242738 0.717962
O O11 0.067965 0.000000 0.717368
O O12 0.500000 0.739146 0.861215
O O13 0.571767 0.500000 0.869456
O O14 0.603213 0.725974 0.941824
O O15 0.166451 0.226397 0.889489
O O16 0.188545 0.000000 0.813181
O O17 0.291896 0.500000 0.598406
O O18 0.347965 0.257792 0.562748
O O19 0.729871 0.193714 0.459852
O O20 0.819909 0.000000 0.423851
O O21 0.647828 0.500000 0.011992
#
# Coordination Sequence:
#
# PCOD8177952 Si02
#       8
#     8   8   8   8   8   8   8   8
#     4   9  17  32  52  72  96 130 169 207 247 294
#     4  10  19  33  51  74 103 133 167 211 254 295
#     4   9  18  33  52  74 100 132 173 213 251 301
#     4   9  17  32  54  75  96 132 179 213 245 299
#     4  11  20  30  51  78 101 131 169 209 253 301
#     4  10  19  29  48  76 104 129 159 206 258 297
#     4   9  17  30  49  73 101 127 159 207 256 293
#     4   9  17  31  51  73  98 129 166 208 248 294
#
# _framework density 17.408674000000001
#
# number of rings (size 3 to 8) (size 9 to 14) (size 15 to 20)
#    0.000    2.500    2.500    1.500    0.000    2.500 
#    0.000    1.250    0.000    6.375    0.000    0.000 
#    0.000    0.000    0.000    0.000    0.000    0.000 
#
# Total GULP energy -396731.725695 kJ/mol
# GULP energy per Si atom -12397.866428 kJ/mol
# Density = 1.736905 g / cm^3
# Si number density = 17.408674 Si / 1000 Ang^3
#
#
#
# Elastic Constant Matrix: (Units=GPa)
#
#
# Indices 1 2 3 4 5 6 
#
# 1 125.5699 33.2679 78.5660 0.0000 0.0000 0.0000
# 2 33.2679 56.3669 48.2699 0.0000 0.0000 0.0000
# 3 78.5660 48.2699 148.6332 0.0000 0.0000 0.0000
# 4 0.0000 0.0000 0.0000 29.0512 0.0000 0.0000
# 5 0.0000 0.0000 0.0000 0.0000 26.9713 0.0000
# 6 0.0000 0.0000 0.0000 0.0000 0.0000 14.4561
#
#
#
# Elastic Compliance Matrix: (Units=1/GPa)
#
#
# Indices 1 2 3 4 5 6 
#
# 1 0.012112 -0.002308 -0.005653 0.000000 0.000000 0.000000
# 2 -0.002308 0.025015 -0.006904 0.000000 0.000000 0.000000
# 3 -0.005653 -0.006904 0.011958 0.000000 0.000000 0.000000
# 4 0.000000 0.000000 0.000000 0.034422 0.000000 0.000000
# 5 0.000000 0.000000 0.000000 0.000000 0.037077 0.000000
# 6 0.000000 0.000000 0.000000 0.000000 0.000000 0.069175
#
#
# Mechanical properties :
#
#
# Convention : Reuss Voigt Hill
#
# Bulk Modulus (GPa) = 51.66324 72.30864 61.98594
# Shear Modulus (GPa) = 22.12979 25.46012 23.79496
#
# Velocity S-wave (km/s) = 3.56925 3.82841 3.70110
# Velocity P-wave (km/s) = 6.83573 7.82103 7.34492
#
# Compressibility (1/GPa) = 0.01935612
#
# Stress axis : x y z
#
# Youngs Moduli (GPa) = 82.56350 39.97563 83.62512
#
# Poissons Ratio (x) = 0.09225 0.47271
# Poissons Ratio (y) = 0.19053 0.57735
# Poissons Ratio (z) = 0.46671 0.27600
#
# Static dielectric constant tensor:
#      x y z
#    x 3.264910 0.000000 0.000000 
#    y 0.000000 3.035500 0.000000 
#    z 0.000000 0.000000 3.538300 
# 
# 
# High freq. dielectric constant tensor:
#      x y z
#    x 1.645520 0.000000 0.000000 
#    y 0.000000 1.647760 0.000000 
#    z 0.000000 0.000000 1.689470 
# 
# From -- ./inp_files/21516.got.cif
#   From: 2010.03.12/outbox.cif.g09.slc.cpg/sg38_11_cif.got.tgz:21516.got - 2010.04.14 02:38:36.
