data_PCOD8177761
_publ_section_title
;
Structure prediction by ZEFSAII (Michael W. Deem and Ramdas Pophale) SiO2 
 PCOD8177761
Probable space group: A M M 2
;
_chemical_formula_sum "Si O2"
_cell_formula_units_Z 56
_cell_length_a 9.362459
_cell_length_b 20.915280
_cell_length_c 14.289250
_cell_angle_alpha 90.000000
_cell_angle_beta 90.000000
_cell_angle_gamma 90.000000
_cell_volume 2798.098808
_symmetry_space_group_name_H-M "A M M 2"
_symmetry_group_IT_number 38
_symmetry_cell_setting 'orthorhombic'
loop_
_space_group_symop_operation_xyz
x,y,z
-x,-y,z
-x,y,z
x,-y,z
x,1/2+y,1/2+z
-x,1/2-y,1/2+z
-x,1/2+y,1/2+z
x,1/2-y,1/2+z
loop_
_atom_site_type_symbol
_atom_site_label
_atom_site_fract_x
_atom_site_fract_y
_atom_site_fract_z
Si Si1 0.339820 0.426582 0.746720
Si Si2 0.835909 0.205947 0.757034
Si Si3 0.168580 0.500000 0.103455
Si Si4 0.338176 0.626004 0.399481
Si Si5 0.161806 0.163582 0.358676
Si Si6 0.833860 0.858292 0.565180
Si Si7 0.834625 0.426229 0.562467
Si Si8 0.655193 0.000000 0.781819
O O1 0.500000 0.402787 0.722485
O O2 0.342796 0.500000 0.774852
O O3 0.276409 0.390449 0.835565
O O4 0.233798 0.413053 0.662144
O O5 0.731769 0.177641 0.833496
O O6 0.823541 0.280955 0.780849
O O7 0.778035 0.184877 0.653552
O O8 0.000000 0.183355 0.771269
O O9 0.228797 0.567955 0.061345
O O10 0.213485 0.500000 0.211519
O O11 0.000000 0.500000 0.095553
O O12 0.500000 0.646238 0.424573
O O13 0.245072 0.621311 0.492803
O O14 0.332588 0.559324 0.348722
O O15 0.197815 0.179999 0.468193
O O16 0.000000 0.136460 0.355543
O O17 0.000000 0.865685 0.582538
O O18 0.814061 0.500000 0.532470
O O19 0.000000 0.407099 0.566688
O O20 0.500000 0.000000 0.729938
#
# Coordination Sequence:
#
# PCOD8177761 Si02
#       8
#     8   8   4   8   8   8   8   4
#     4  10  22  40  60  84 116 151 191 245 304 362
#     4  10  21  38  58  83 117 156 201 248 293 354
#     4  10  18  32  58  83 112 151 196 251 298 350
#     4  11  21  34  54  83 120 158 195 245 304 359
#     4  10  22  39  61  86 115 153 197 248 299 358
#     4   9  19  35  57  87 116 150 196 244 297 346
#     4  10  20  34  56  85 115 151 195 239 287 350
#     4  10  20  32  50  81 118 151 188 243 306 358
#
# _framework density 20.013587999999999
#
# number of rings (size 3 to 8) (size 9 to 14) (size 15 to 20)
#    0.000    2.000    2.143    1.286    1.000    3.714 
#    0.000    4.286    0.000    0.000    0.000    0.000 
#    0.000    0.000    0.000    0.000    0.000    0.000 
#
# Total GULP energy -346960.286784 kJ/mol
# GULP energy per Si atom -12391.438814 kJ/mol
# Density = 1.996804 g / cm^3
# Si number density = 20.013588 Si / 1000 Ang^3
#
#
#
# Elastic Constant Matrix: (Units=GPa)
#
#
# Indices 1 2 3 4 5 6 
#
# 1 110.9630 30.7708 49.0260 0.0000 0.0000 0.0000
# 2 30.7708 64.4468 47.1258 0.0000 0.0000 0.0000
# 3 49.0260 47.1258 111.9652 0.0000 0.0000 0.0000
# 4 0.0000 0.0000 0.0000 22.7119 0.0000 0.0000
# 5 0.0000 0.0000 0.0000 0.0000 15.9641 0.0000
# 6 0.0000 0.0000 0.0000 0.0000 0.0000 22.7767
#
#
#
# Elastic Compliance Matrix: (Units=1/GPa)
#
#
# Indices 1 2 3 4 5 6 
#
# 1 0.011469 -0.002606 -0.003925 0.000000 0.000000 0.000000
# 2 -0.002606 0.023008 -0.008543 0.000000 0.000000 0.000000
# 3 -0.003925 -0.008543 0.014246 0.000000 0.000000 0.000000
# 4 0.000000 0.000000 0.000000 0.044030 0.000000 0.000000
# 5 0.000000 0.000000 0.000000 0.000000 0.062641 0.000000
# 6 0.000000 0.000000 0.000000 0.000000 0.000000 0.043905
#
#
# Mechanical properties :
#
#
# Convention : Reuss Voigt Hill
#
# Bulk Modulus (GPa) = 53.83652 60.13559 56.98606
# Shear Modulus (GPa) = 21.21915 22.98735 22.10325
#
# Velocity S-wave (km/s) = 3.25966 3.39276 3.32687
# Velocity P-wave (km/s) = 6.41292 6.74243 6.57974
#
# Compressibility (1/GPa) = 0.01857475
#
# Stress axis : x y z
#
# Youngs Moduli (GPa) = 87.19310 43.46373 70.19662
#
# Poissons Ratio (x) = 0.11325 0.27553
# Poissons Ratio (y) = 0.22720 0.59968
# Poissons Ratio (z) = 0.34224 0.37131
#
# Static dielectric constant tensor:
#      x y z
#    x 3.722360 0.000000 0.000000 
#    y 0.000000 3.562620 0.000000 
#    z 0.000000 0.000000 3.603710 
# 
# 
# High freq. dielectric constant tensor:
#      x y z
#    x 1.769010 0.000000 0.000000 
#    y 0.000000 1.769040 0.000000 
#    z 0.000000 0.000000 1.781690 
# 
# From -- ./inp_files/12506.got.cif
#   From: 2010.03.12/outbox.cif.g09.slc.cpg/sg38_7_cif.got.tgz:12506.got - 2010.04.14 02:38:36.
