data_PCOD8177768
_publ_section_title
;
Structure prediction by ZEFSAII (Michael W. Deem and Ramdas Pophale) SiO2 
 PCOD8177768
Probable space group: A M M 2
;
_chemical_formula_sum "Si O2"
_cell_formula_units_Z 48
_cell_length_a 15.269845
_cell_length_b 9.042473
_cell_length_c 19.100639
_cell_angle_alpha 90.000000
_cell_angle_beta 90.000000
_cell_angle_gamma 90.000000
_cell_volume 2637.362009
_symmetry_space_group_name_H-M "A M M 2"
_symmetry_group_IT_number 38
_symmetry_cell_setting 'orthorhombic'
loop_
_space_group_symop_operation_xyz
x,y,z
-x,-y,z
-x,y,z
x,-y,z
x,1/2+y,1/2+z
-x,1/2-y,1/2+z
-x,1/2+y,1/2+z
x,1/2-y,1/2+z
loop_
_atom_site_type_symbol
_atom_site_label
_atom_site_fract_x
_atom_site_fract_y
_atom_site_fract_z
Si Si1 0.207285 0.837008 0.654400
Si Si2 0.500000 0.674671 0.045000
Si Si3 0.247218 0.328078 0.869210
Si Si4 0.693419 0.826779 0.520122
Si Si5 0.356730 0.337300 0.266566
Si Si6 0.500000 0.328735 0.690447
Si Si7 0.901887 0.826856 0.262458
O O1 0.252971 0.759177 0.586448
O O2 0.277601 0.855272 0.714361
O O3 0.129808 0.740724 0.688320
O O4 0.170478 0.000000 0.634100
O O5 0.500000 0.500000 0.038190
O O6 0.407400 0.736271 0.012379
O O7 0.500000 0.719637 0.125361
O O8 0.269295 0.500000 0.855307
O O9 0.324045 0.224173 0.840627
O O10 0.156187 0.284372 0.830859
O O11 0.246895 0.294661 0.952140
O O12 0.683611 0.000000 0.535291
O O13 0.401158 0.500000 0.276759
O O14 0.417646 0.208775 0.237765
O O15 0.500000 0.500000 0.667850
O O16 0.000000 0.769980 0.278117
O O17 0.899498 0.000000 0.250524
#
# Coordination Sequence:
#
# PCOD8177768 Si02
#       7
#     8   4   8   8   8   4   8
#     4   9  17  31  52  75  98 129 169 210 254 307
#     4  10  18  33  52  71 101 141 175 209 258 310
#     4   9  18  33  52  76 104 134 174 213 255 314
#     4   9  17  31  52  76 104 139 173 208 258 308
#     4  10  19  33  51  71 100 134 170 210 259 305
#     4  12  22  31  48  75 101 131 179 225 256 294
#     4   9  18  33  52  74 102 135 169 213 268 315
#
# _framework density 18.200005000000001
#
# number of rings (size 3 to 8) (size 9 to 14) (size 15 to 20)
#    0.000    2.500    1.667    1.250    0.000    1.667 
#    0.000    4.167    0.000    3.000    0.000    0.000 
#    0.000    0.000    0.000    0.000    0.000    0.000 
#
# Total GULP energy -297325.662553 kJ/mol
# GULP energy per Si atom -12388.569273 kJ/mol
# Density = 1.815858 g / cm^3
# Si number density = 18.200005 Si / 1000 Ang^3
#
#
#
# Elastic Constant Matrix: (Units=GPa)
#
#
# Indices 1 2 3 4 5 6 
#
# 1 107.2658 18.6119 49.4232 0.0000 0.0000 0.0000
# 2 18.6119 27.2654 13.3218 0.0000 0.0000 0.0000
# 3 49.4232 13.3218 114.5801 0.0000 0.0000 0.0000
# 4 0.0000 0.0000 0.0000 22.5729 0.0000 0.0000
# 5 0.0000 0.0000 0.0000 0.0000 31.0565 0.0000
# 6 0.0000 0.0000 0.0000 0.0000 0.0000 21.6541
#
#
#
# Elastic Compliance Matrix: (Units=1/GPa)
#
#
# Indices 1 2 3 4 5 6 
#
# 1 0.012577 -0.006292 -0.004693 0.000000 0.000000 0.000000
# 2 -0.006292 0.042033 -0.002173 0.000000 0.000000 0.000000
# 3 -0.004693 -0.002173 0.011005 0.000000 0.000000 0.000000
# 4 0.000000 0.000000 0.000000 0.044301 0.000000 0.000000
# 5 0.000000 0.000000 0.000000 0.000000 0.032199 0.000000
# 6 0.000000 0.000000 0.000000 0.000000 0.000000 0.046181
#
#
# Mechanical properties :
#
#
# Convention : Reuss Voigt Hill
#
# Bulk Modulus (GPa) = 25.44668 45.75837 35.60252
# Shear Modulus (GPa) = 21.95757 26.24033 24.09895
#
# Velocity S-wave (km/s) = 3.47718 3.80119 3.64279
# Velocity P-wave (km/s) = 5.48936 6.66798 6.10717
#
# Compressibility (1/GPa) = 0.03929785
#
# Stress axis : x y z
#
# Youngs Moduli (GPa) = 79.51100 23.79066 90.87088
#
# Poissons Ratio (x) = 0.14969 0.42649
# Poissons Ratio (y) = 0.50029 0.19747
# Poissons Ratio (z) = 0.37318 0.05170
#
# Static dielectric constant tensor:
#      x y z
#    x 3.505570 0.000000 0.000000 
#    y 0.000000 3.451610 0.000000 
#    z 0.000000 0.000000 3.302320 
# 
# 
# High freq. dielectric constant tensor:
#      x y z
#    x 1.693420 0.000000 0.000000 
#    y 0.000000 1.683200 0.000000 
#    z 0.000000 0.000000 1.697860 
# 
# From -- ./inp_files/18172.got.cif
#   From: 2010.03.12/outbox.cif.g09.slc.cpg/sg38_10_cif.got.tgz:18172.got - 2010.04.14 02:38:36.
