data_PCOD8177303
_publ_section_title
;
Structure prediction by ZEFSAII (Michael W. Deem and Ramdas Pophale) SiO2 
 PCOD8177303
Probable space group: A M M 2
;
_chemical_formula_sum "Si O2"
_cell_formula_units_Z 64
_cell_length_a 19.470669
_cell_length_b 18.651611
_cell_length_c 10.099353
_cell_angle_alpha 90.000000
_cell_angle_beta 90.000000
_cell_angle_gamma 90.000000
_cell_volume 3667.674411
_symmetry_space_group_name_H-M "A M M 2"
_symmetry_group_IT_number 38
_symmetry_cell_setting 'orthorhombic'
loop_
_space_group_symop_operation_xyz
x,y,z
-x,-y,z
-x,y,z
x,-y,z
x,1/2+y,1/2+z
-x,1/2-y,1/2+z
-x,1/2+y,1/2+z
x,1/2-y,1/2+z
loop_
_atom_site_type_symbol
_atom_site_label
_atom_site_fract_x
_atom_site_fract_y
_atom_site_fract_z
Si Si1 0.285821 0.166049 0.126520
Si Si2 0.425371 0.680564 0.024689
Si Si3 0.805804 0.671121 0.866958
Si Si4 0.207969 0.340818 0.369102
Si Si5 0.283571 0.336754 0.109369
Si Si6 0.574202 0.185173 0.217868
Si Si7 0.921178 0.418519 0.763158
Si Si8 0.923395 0.915707 0.959084
O O1 0.235791 0.141159 0.242247
O O2 0.290607 0.251465 0.117534
O O3 0.362825 0.136916 0.161003
O O4 0.255158 0.134412 0.991809
O O5 0.500000 0.639936 0.029585
O O6 0.360091 0.632475 0.073496
O O7 0.430775 0.745596 0.126225
O O8 0.410970 0.706340 0.872415
O O9 0.808756 0.756800 0.867741
O O10 0.881153 0.636535 0.858268
O O11 0.770137 0.640676 0.997559
O O12 0.252995 0.367294 0.245084
O O13 0.134058 0.378791 0.368404
O O14 0.500000 0.144720 0.209091
O O15 0.894562 0.500000 0.781952
O O16 0.911593 0.393855 0.611434
O O17 0.000000 0.413532 0.805691
O O18 0.000000 0.890814 0.914527
O O19 0.916858 0.000000 0.941855
#
# Coordination Sequence:
#
# PCOD8177303 Si02
#       8
#     8   8   8   8   8   8   8   8
#     4   9  16  27  42  63  91 126 161 195 234 277
#     4   9  16  25  37  57  89 129 164 193 234 287
#     4  10  17  30  48  69  98 125 158 194 239 285
#     4  10  19  30  48  71  97 128 160 196 238 287
#     4   9  18  27  40  66  95 127 156 195 242 279
#     4   9  16  24  36  57  89 129 164 195 237 286
#     4   9  18  33  53  74  95 123 160 201 241 284
#     4   9  18  34  54  73  94 123 161 201 239 283
#
# _framework density 17.449749000000001
#
# number of rings (size 3 to 8) (size 9 to 14) (size 15 to 20)
#    0.000    2.750    2.500    0.750    5.250    0.500 
#    0.000    1.250    0.000    1.500    0.000    0.000 
#    0.000    6.000    0.000    0.000    0.000    0.000 
#
# Total GULP energy -396421.466347 kJ/mol
# GULP energy per Si atom -12388.170823 kJ/mol
# Density = 1.741003 g / cm^3
# Si number density = 17.449749 Si / 1000 Ang^3
#
#
#
# Elastic Constant Matrix: (Units=GPa)
#
#
# Indices 1 2 3 4 5 6 
#
# 1 161.5749 26.9192 68.7320 0.0000 0.0000 0.0000
# 2 26.9192 17.4621 16.1888 0.0000 0.0000 0.0000
# 3 68.7320 16.1888 124.5621 0.0000 0.0000 0.0000
# 4 0.0000 0.0000 0.0000 10.8420 0.0000 0.0000
# 5 0.0000 0.0000 0.0000 0.0000 33.4883 0.0000
# 6 0.0000 0.0000 0.0000 0.0000 0.0000 2.4380
#
#
#
# Elastic Compliance Matrix: (Units=1/GPa)
#
#
# Indices 1 2 3 4 5 6 
#
# 1 0.009748 -0.011416 -0.003895 0.000000 0.000000 0.000000
# 2 -0.011416 0.078482 -0.003901 0.000000 0.000000 0.000000
# 3 -0.003895 -0.003901 0.010684 0.000000 0.000000 0.000000
# 4 0.000000 0.000000 0.000000 0.092234 0.000000 0.000000
# 5 0.000000 0.000000 0.000000 0.000000 0.029861 0.000000
# 6 0.000000 0.000000 0.000000 0.000000 0.000000 0.410167
#
#
# Mechanical properties :
#
#
# Convention : Reuss Voigt Hill
#
# Bulk Modulus (GPa) = 16.53149 58.58656 37.55903
# Shear Modulus (GPa) = 7.24886 22.13760 14.69323
#
# Velocity S-wave (km/s) = 2.04038 3.56567 2.90493
# Velocity P-wave (km/s) = 3.87881 7.11332 5.72907
#
# Compressibility (1/GPa) = 0.06049060
#
# Stress axis : x y z
#
# Youngs Moduli (GPa) = 102.58470 12.74173 93.59468
#
# Poissons Ratio (x) = 0.14546 0.36456
# Poissons Ratio (y) = 1.17114 0.36508
# Poissons Ratio (z) = 0.39958 0.04970
#
# Static dielectric constant tensor:
#      x y z
#    x 3.848290 0.000000 0.000000 
#    y 0.000000 2.558270 0.000000 
#    z 0.000000 0.000000 3.389110 
# 
# 
# High freq. dielectric constant tensor:
#      x y z
#    x 1.702740 0.000000 0.000000 
#    y 0.000000 1.593030 0.000000 
#    z 0.000000 0.000000 1.678850 
# 
# From -- ./inp_files/6566.got.cif
#   From: 2010.03.12/outbox.cif.g09.slc.cpg/sg38_4_cif.got.tgz:6566.got - 2010.04.14 02:38:36.
