data_PCOD8177049
_publ_section_title
;
Structure prediction by ZEFSAII (Michael W. Deem and Ramdas Pophale) SiO2 
 PCOD8177049
Probable space group: C C C 2
;
_chemical_formula_sum "Si O2"
_cell_formula_units_Z 64
_cell_length_a 27.089577
_cell_length_b 11.629253
_cell_length_c 9.111949
_cell_angle_alpha 90.000000
_cell_angle_beta 90.000000
_cell_angle_gamma 90.000000
_cell_volume 2870.551368
_symmetry_space_group_name_H-M "C C C 2"
_symmetry_group_IT_number 37
_symmetry_cell_setting 'orthorhombic'
loop_
_space_group_symop_operation_xyz
x,y,z
-x,-y,z
-x,y,1/2+z
x,-y,1/2+z
1/2+x,1/2+y,z
1/2-x,1/2-y,z
1/2-x,1/2+y,1/2+z
1/2+x,1/2-y,1/2+z
loop_
_atom_site_type_symbol
_atom_site_label
_atom_site_fract_x
_atom_site_fract_y
_atom_site_fract_z
Si Si1 0.369025 0.313723 0.342520
Si Si2 0.943122 0.025309 0.707092
Si Si3 0.237221 0.536078 0.133744
Si Si4 0.636689 0.114372 0.061910
Si Si5 0.095888 0.140717 0.925576
Si Si6 0.694684 0.537329 0.887676
Si Si7 0.622599 0.882755 0.899794
Si Si8 0.197903 0.687930 0.615675
O O1 0.422381 0.366393 0.300102
O O2 0.379498 0.229802 0.478616
O O3 0.330502 0.413150 0.380596
O O4 0.345845 0.251396 0.201917
O O5 0.932987 0.056054 0.537078
O O6 0.915143 0.909141 0.761492
O O7 0.000000 0.000000 0.734678
O O8 0.196783 0.625781 0.073316
O O9 0.281058 0.583873 0.235892
O O10 0.206354 0.430794 0.209837
O O11 0.260785 0.468693 0.998415
O O12 0.616310 0.108127 0.226078
O O13 0.612141 0.005000 0.977872
O O14 0.084424 0.277139 0.942861
O O15 0.155343 0.129845 0.947118
O O16 0.677465 0.845623 0.953207
O O17 0.250000 0.750000 0.601524
#
# Coordination Sequence:
#
# PCOD8177049 Si02
#       8
#     8   8   8   8   8   8   8   8
#     4  11  23  41  67  95 140 190 241 304 372 429
#     4  11  25  47  76 108 139 174 232 306 392 453
#     4  11  21  34  54  87 137 190 243 285 330 408
#     4  11  25  40  62  97 140 197 255 287 352 431
#     4  11  24  43  71 105 138 183 232 304 372 450
#     4  11  22  37  57  94 136 183 239 297 353 410
#     4  11  24  42  64  96 138 190 242 292 353 429
#     4  11  19  37  59  89 134 194 235 295 343 412
#
# _framework density 22.295369000000001
#
# number of rings (size 3 to 8) (size 9 to 14) (size 15 to 20)
#    0.000    1.000    2.500    6.375    5.250    0.000 
#    0.000    0.000    0.000    0.750    0.000    0.000 
#    0.000    0.000    0.000    0.000    0.000    0.000 
#
# Total GULP energy -396450.383878 kJ/mol
# GULP energy per Si atom -12389.074496 kJ/mol
# Density = 2.224462 g / cm^3
# Si number density = 22.295369 Si / 1000 Ang^3
#
#
#
# Elastic Constant Matrix: (Units=GPa)
#
#
# Indices 1 2 3 4 5 6 
#
# 1 89.4043 36.3939 21.3863 0.0000 0.0000 0.0000
# 2 36.3939 98.5823 42.3363 0.0000 0.0000 0.0000
# 3 21.3863 42.3363 115.6437 0.0000 0.0000 0.0000
# 4 0.0000 0.0000 0.0000 38.6120 0.0000 0.0000
# 5 0.0000 0.0000 0.0000 0.0000 24.2935 0.0000
# 6 0.0000 0.0000 0.0000 0.0000 0.0000 20.1421
#
#
#
# Elastic Compliance Matrix: (Units=1/GPa)
#
#
# Indices 1 2 3 4 5 6 
#
# 1 0.013223 -0.004546 -0.000781 0.000000 0.000000 0.000000
# 2 -0.004546 0.013599 -0.004138 0.000000 0.000000 0.000000
# 3 -0.000781 -0.004138 0.010307 0.000000 0.000000 0.000000
# 4 0.000000 0.000000 0.000000 0.025899 0.000000 0.000000
# 5 0.000000 0.000000 0.000000 0.000000 0.041163 0.000000
# 6 0.000000 0.000000 0.000000 0.000000 0.000000 0.049647
#
#
# Mechanical properties :
#
#
# Convention : Reuss Voigt Hill
#
# Bulk Modulus (GPa) = 54.94978 55.98481 55.46729
# Shear Modulus (GPa) = 27.95902 30.17711 29.06807
#
# Velocity S-wave (km/s) = 3.54507 3.68301 3.61469
# Velocity P-wave (km/s) = 6.43867 6.57655 6.50798
#
# Compressibility (1/GPa) = 0.01819844
#
# Stress axis : x y z
#
# Youngs Moduli (GPa) = 75.62861 73.53454 97.02611
#
# Poissons Ratio (x) = 0.33429 0.07578
# Poissons Ratio (y) = 0.34381 0.40148
# Poissons Ratio (z) = 0.05907 0.30427
#
# Static dielectric constant tensor:
#      x y z
#    x 3.618070 0.000000 0.000000 
#    y 0.000000 4.365970 0.000000 
#    z 0.000000 0.000000 4.108780 
# 
# 
# High freq. dielectric constant tensor:
#      x y z
#    x 1.826600 0.000000 0.000000 
#    y 0.000000 1.891890 0.000000 
#    z 0.000000 0.000000 1.888570 
# 
# From -- ./inp_files/5003.got.cif
#   From: 2010.03.12/outbox.cif.g09.slc.cpg/sg37_3_cif.got.tgz:5003.got - 2010.04.14 02:25:27.
