data_PCOD8177880
_publ_section_title
;
Structure prediction by ZEFSAII (Michael W. Deem and Ramdas Pophale) SiO2 
 PCOD8177880
Probable space group: A M M 2
;
_chemical_formula_sum "Si O2"
_cell_formula_units_Z 48
_cell_length_a 15.361150
_cell_length_b 9.481048
_cell_length_c 19.320786
_cell_angle_alpha 90.000000
_cell_angle_beta 90.000000
_cell_angle_gamma 90.000000
_cell_volume 2813.875418
_symmetry_space_group_name_H-M "A M M 2"
_symmetry_group_IT_number 38
_symmetry_cell_setting 'orthorhombic'
loop_
_space_group_symop_operation_xyz
x,y,z
-x,-y,z
-x,y,z
x,-y,z
x,1/2+y,1/2+z
-x,1/2-y,1/2+z
-x,1/2+y,1/2+z
x,1/2-y,1/2+z
loop_
_atom_site_type_symbol
_atom_site_label
_atom_site_fract_x
_atom_site_fract_y
_atom_site_fract_z
Si Si1 0.898262 0.337395 0.335950
Si Si2 0.239936 0.334956 0.919165
Si Si3 0.404564 0.657825 0.580866
Si Si4 0.095436 0.666793 0.179208
Si Si5 0.596490 0.341188 0.416461
Si Si6 0.245094 0.336421 0.081221
O O1 0.872900 0.500000 0.350310
O O2 0.843904 0.235128 0.384940
O O3 0.876099 0.294852 0.257084
O O4 0.000000 0.313531 0.351275
O O5 0.242845 0.500000 0.901701
O O6 0.328794 0.264879 0.889325
O O7 0.229862 0.306889 0.000675
O O8 0.500000 0.705847 0.607751
O O9 0.384127 0.500000 0.606832
O O10 0.404120 0.662136 0.498604
O O11 0.331708 0.761970 0.610398
O O12 0.089315 0.500000 0.171866
O O13 0.163983 0.727888 0.123929
O O14 0.000000 0.731802 0.163004
O O15 0.500000 0.294746 0.389584
O O16 0.617352 0.500000 0.390514
O O17 0.257341 0.500000 0.097016
#
# Coordination Sequence:
#
# PCOD8177880 Si02
#       6
#     8   8   8   8   8   8
#     4   9  18  33  51  66  83 116 159 194 222 260
#     4  10  19  28  43  71 101 122 141 178 233 279
#     4   8  14  25  41  62  90 122 150 177 215 262
#     4   8  15  30  50  67  84 113 154 191 220 257
#     4   8  14  26  44  64  88 121 157 187 215 255
#     4   9  17  28  45  70  94 116 145 183 225 264
#
# _framework density 17.058325
#
# number of rings (size 3 to 8) (size 9 to 14) (size 15 to 20)
#    0.000    3.333    0.000    2.500    0.000    2.333 
#    0.000    5.833    0.000    2.500    0.000    2.333 
#    0.000    0.000    0.000    0.000    0.000    0.000 
#
# Total GULP energy -297443.355666 kJ/mol
# GULP energy per Si atom -12393.473153 kJ/mol
# Density = 1.701950 g / cm^3
# Si number density = 17.058325 Si / 1000 Ang^3
#
#
#
# Elastic Constant Matrix: (Units=GPa)
#
#
# Indices 1 2 3 4 5 6 
#
# 1 148.0757 74.4072 54.6156 0.0000 0.0000 0.0000
# 2 74.4072 82.3603 37.0496 0.0000 0.0000 0.0000
# 3 54.6156 37.0496 43.5849 0.0000 0.0000 0.0000
# 4 0.0000 0.0000 0.0000 14.7038 0.0000 0.0000
# 5 0.0000 0.0000 0.0000 0.0000 5.3785 0.0000
# 6 0.0000 0.0000 0.0000 0.0000 0.0000 32.7075
#
#
#
# Elastic Compliance Matrix: (Units=1/GPa)
#
#
# Indices 1 2 3 4 5 6 
#
# 1 0.015565 -0.008562 -0.012226 0.000000 0.000000 0.000000
# 2 -0.008562 0.024369 -0.009986 0.000000 0.000000 0.000000
# 3 -0.012226 -0.009986 0.046753 0.000000 0.000000 0.000000
# 4 0.000000 0.000000 0.000000 0.068009 0.000000 0.000000
# 5 0.000000 0.000000 0.000000 0.000000 0.185924 0.000000
# 6 0.000000 0.000000 0.000000 0.000000 0.000000 0.030574
#
#
# Mechanical properties :
#
#
# Convention : Reuss Voigt Hill
#
# Bulk Modulus (GPa) = 39.77967 67.35173 53.56570
# Shear Modulus (GPa) = 11.33467 17.75454 14.54460
#
# Velocity S-wave (km/s) = 2.58052 3.22966 2.92317
# Velocity P-wave (km/s) = 5.67884 7.31277 6.54697
#
# Compressibility (1/GPa) = 0.02513847
#
# Stress axis : x y z
#
# Youngs Moduli (GPa) = 64.24585 41.03491 21.38898
#
# Poissons Ratio (x) = 0.35135 0.26150
# Poissons Ratio (y) = 0.55009 0.21360
# Poissons Ratio (z) = 0.78548 0.40979
#
# Static dielectric constant tensor:
#      x y z
#    x 3.736980 0.000000 0.000000 
#    y 0.000000 3.093480 0.000000 
#    z 0.000000 0.000000 2.878850 
# 
# 
# High freq. dielectric constant tensor:
#      x y z
#    x 1.673470 0.000000 0.000000 
#    y 0.000000 1.640830 0.000000 
#    z 0.000000 0.000000 1.616360 
# 
# From -- ./inp_files/18162.got.cif
#   From: 2010.03.12/outbox.cif.g09.slc.cpg/sg38_10_cif.got.tgz:18162.got - 2010.04.14 02:38:36.
