data_PCOD8177845
_publ_section_title
;
Structure prediction by ZEFSAII (Michael W. Deem and Ramdas Pophale) SiO2 
 PCOD8177845
Probable space group: A M M 2
;
_chemical_formula_sum "Si O2"
_cell_formula_units_Z 56
_cell_length_a 16.585035
_cell_length_b 8.719038
_cell_length_c 20.586916
_cell_angle_alpha 90.000000
_cell_angle_beta 90.000000
_cell_angle_gamma 90.000000
_cell_volume 2976.982319
_symmetry_space_group_name_H-M "A M M 2"
_symmetry_group_IT_number 38
_symmetry_cell_setting 'orthorhombic'
loop_
_space_group_symop_operation_xyz
x,y,z
-x,-y,z
-x,y,z
x,-y,z
x,1/2+y,1/2+z
-x,1/2-y,1/2+z
-x,1/2+y,1/2+z
x,1/2-y,1/2+z
loop_
_atom_site_type_symbol
_atom_site_label
_atom_site_fract_x
_atom_site_fract_y
_atom_site_fract_z
Si Si1 0.736617 0.819460 0.021960
Si Si2 0.168291 0.818633 0.899605
Si Si3 0.591439 0.681074 0.816790
Si Si4 0.164404 0.682315 0.644307
Si Si5 0.250192 0.181889 0.768394
Si Si6 0.000000 0.180968 0.953537
Si Si7 0.591330 0.823606 0.464812
Si Si8 0.000000 0.818102 0.597115
O O1 0.778203 0.755474 0.086665
O O2 0.743605 0.000000 0.022303
O O3 0.781453 0.748020 0.959349
O O4 0.643775 0.769921 0.016910
O O5 0.203686 0.755926 0.832250
O O6 0.075884 0.768506 0.909965
O O7 0.176582 0.000000 0.900035
O O8 0.500000 0.722908 0.794701
O O9 0.605041 0.500000 0.810560
O O10 0.655739 0.769353 0.771785
O O11 0.604180 0.735651 0.891156
O O12 0.155033 0.500000 0.643092
O O13 0.205813 0.734918 0.710097
O O14 0.077066 0.756950 0.636182
O O15 0.244215 0.000000 0.759995
O O16 0.000000 0.262208 0.022993
O O17 0.000000 0.000000 0.968377
O O18 0.500000 0.797526 0.486567
O O19 0.615837 0.000000 0.468743
O O20 0.000000 0.000000 0.598457
#
# Coordination Sequence:
#
# PCOD8177845 Si02
#       8
#     8   8   8   8   8   4   8   4
#     4  10  19  35  58  84 110 146 194 235 279 340
#     4   9  18  33  57  85 112 145 186 234 286 338
#     4   9  18  34  56  82 113 152 194 233 285 353
#     4  11  24  42  62  82 115 160 196 229 283 352
#     4  11  22  37  57  88 122 149 190 243 293 340
#     4  10  18  37  62  83 113 153 191 229 282 346
#     4   9  18  32  53  84 119 151 186 236 293 340
#     4  12  24  39  60  89 117 145 191 243 288 334
#
# _framework density 18.810994999999998
#
# number of rings (size 3 to 8) (size 9 to 14) (size 15 to 20)
#    0.000    2.000    2.857    2.357    0.000    2.286 
#    0.000    5.000    0.000    0.857    0.000    0.000 
#    0.000    0.000    0.000    0.000    0.000    0.000 
#
# Total GULP energy -347185.044277 kJ/mol
# GULP energy per Si atom -12399.465867 kJ/mol
# Density = 1.876818 g / cm^3
# Si number density = 18.810995 Si / 1000 Ang^3
#
#
#
# Elastic Constant Matrix: (Units=GPa)
#
#
# Indices 1 2 3 4 5 6 
#
# 1 142.9517 38.5542 69.5033 0.0000 0.0000 0.0000
# 2 38.5542 55.2722 32.4170 0.0000 0.0000 0.0000
# 3 69.5033 32.4170 124.1217 0.0000 0.0000 0.0000
# 4 0.0000 0.0000 0.0000 27.0926 0.0000 0.0000
# 5 0.0000 0.0000 0.0000 0.0000 27.5320 0.0000
# 6 0.0000 0.0000 0.0000 0.0000 0.0000 29.9576
#
#
#
# Elastic Compliance Matrix: (Units=1/GPa)
#
#
# Indices 1 2 3 4 5 6 
#
# 1 0.010511 -0.004582 -0.004689 0.000000 0.000000 0.000000
# 2 -0.004582 0.023362 -0.003536 0.000000 0.000000 0.000000
# 3 -0.004689 -0.003536 0.011606 0.000000 0.000000 0.000000
# 4 0.000000 0.000000 0.000000 0.036910 0.000000 0.000000
# 5 0.000000 0.000000 0.000000 0.000000 0.036321 0.000000
# 6 0.000000 0.000000 0.000000 0.000000 0.000000 0.033380
#
#
# Mechanical properties :
#
#
# Convention : Reuss Voigt Hill
#
# Bulk Modulus (GPa) = 50.33888 67.03274 58.68581
# Shear Modulus (GPa) = 27.12588 29.04119 28.08354
#
# Velocity S-wave (km/s) = 3.80152 3.93344 3.86804
# Velocity P-wave (km/s) = 6.78875 7.50610 7.15642
#
# Compressibility (1/GPa) = 0.01986536
#
# Stress axis : x y z
#
# Youngs Moduli (GPa) = 95.13963 42.80472 86.16367
#
# Poissons Ratio (x) = 0.19611 0.40403
# Poissons Ratio (y) = 0.43589 0.30467
# Poissons Ratio (z) = 0.44612 0.15136
#
# Static dielectric constant tensor:
#      x y z
#    x 3.688010 0.000000 0.000000 
#    y 0.000000 3.219470 0.000000 
#    z 0.000000 0.000000 3.432280 
# 
# 
# High freq. dielectric constant tensor:
#      x y z
#    x 1.747390 0.000000 0.000000 
#    y 0.000000 1.714270 0.000000 
#    z 0.000000 0.000000 1.716020 
# 
# From -- ./inp_files/21126.got.cif
#   From: 2010.03.12/outbox.cif.g09.slc.cpg/sg38_11_cif.got.tgz:21126.got - 2010.04.14 02:38:36.
