data_PCOD8177145
_publ_section_title
;
Structure prediction by ZEFSAII (Michael W. Deem and Ramdas Pophale) SiO2 
 PCOD8177145
Probable space group: C C C 2
;
_chemical_formula_sum "Si O2"
_cell_formula_units_Z 64
_cell_length_a 10.955436
_cell_length_b 28.780542
_cell_length_c 9.045695
_cell_angle_alpha 90.000000
_cell_angle_beta 90.000000
_cell_angle_gamma 90.000000
_cell_volume 2852.138262
_symmetry_space_group_name_H-M "C C C 2"
_symmetry_group_IT_number 37
_symmetry_cell_setting 'orthorhombic'
loop_
_space_group_symop_operation_xyz
x,y,z
-x,-y,z
-x,y,1/2+z
x,-y,1/2+z
1/2+x,1/2+y,z
1/2-x,1/2-y,z
1/2-x,1/2+y,1/2+z
1/2+x,1/2-y,1/2+z
loop_
_atom_site_type_symbol
_atom_site_label
_atom_site_fract_x
_atom_site_fract_y
_atom_site_fract_z
Si Si1 0.632275 0.045428 0.204860
Si Si2 0.884638 0.547119 0.365758
Si Si3 0.231797 0.695345 0.091014
Si Si4 0.113670 0.758621 0.451586
Si Si5 0.522020 0.202838 0.707141
Si Si6 0.273808 0.140637 0.307470
Si Si7 0.078500 0.139647 0.054362
Si Si8 0.149701 0.882177 0.244785
O O1 0.513323 0.063299 0.293858
O O2 0.742971 0.082142 0.204994
O O3 0.672590 0.997154 0.281077
O O4 0.593363 0.035199 0.036908
O O5 0.784208 0.587289 0.353973
O O6 0.250000 0.750000 0.081523
O O7 0.303205 0.671696 0.229077
O O8 0.089590 0.683597 0.109539
O O9 0.282315 0.670498 0.942732
O O10 0.250000 0.750000 0.385668
O O11 0.115747 0.730386 0.604258
O O12 0.058071 0.809204 0.486779
O O13 0.020105 0.737471 0.334906
O O14 0.590962 0.158818 0.772860
O O15 0.189901 0.144295 0.165584
O O16 0.964878 0.114400 0.133442
O O17 0.111611 0.107594 0.913390
#
# Coordination Sequence:
#
# PCOD8177145 Si02
#       8
#     8   8   8   8   8   8   8   8
#     4  11  25  48  84 112 149 186 238 312 384 446
#     4  11  25  47  78 117 145 183 241 308 390 446
#     4  12  25  45  67 102 150 194 246 306 367 440
#     4  12  24  44  65 101 143 200 252 299 372 430
#     4  12  25  42  67 101 139 191 245 312 356 436
#     4  12  27  43  73 102 147 191 251 302 371 439
#     4  12  27  45  71 101 148 198 252 302 363 431
#     4  12  27  48  75 105 149 196 247 302 372 445
#
# _framework density 22.439305000000001
#
# number of rings (size 3 to 8) (size 9 to 14) (size 15 to 20)
#    0.000    0.250    3.750    6.375    5.250    0.000 
#    0.000    0.625    0.000    0.000    0.000    0.000 
#    0.000    0.000    0.000    0.000    0.000    0.000 
#
# Total GULP energy -396822.610078 kJ/mol
# GULP energy per Si atom -12400.706565 kJ/mol
# Density = 2.238823 g / cm^3
# Si number density = 22.439305 Si / 1000 Ang^3
#
#
#
# Elastic Constant Matrix: (Units=GPa)
#
#
# Indices 1 2 3 4 5 6 
#
# 1 102.7091 37.1437 50.2618 0.0000 0.0000 0.0000
# 2 37.1437 108.4492 48.2738 0.0000 0.0000 0.0000
# 3 50.2618 48.2738 169.8265 0.0000 0.0000 0.0000
# 4 0.0000 0.0000 0.0000 25.1818 0.0000 0.0000
# 5 0.0000 0.0000 0.0000 0.0000 36.4891 0.0000
# 6 0.0000 0.0000 0.0000 0.0000 0.0000 38.4775
#
#
#
# Elastic Compliance Matrix: (Units=1/GPa)
#
#
# Indices 1 2 3 4 5 6 
#
# 1 0.012148 -0.002931 -0.002762 0.000000 0.000000 0.000000
# 2 -0.002931 0.011264 -0.002334 0.000000 0.000000 0.000000
# 3 -0.002762 -0.002334 0.007369 0.000000 0.000000 0.000000
# 4 0.000000 0.000000 0.000000 0.039711 0.000000 0.000000
# 5 0.000000 0.000000 0.000000 0.000000 0.027405 0.000000
# 6 0.000000 0.000000 0.000000 0.000000 0.000000 0.025989
#
#
# Mechanical properties :
#
#
# Convention : Reuss Voigt Hill
#
# Bulk Modulus (GPa) = 67.90682 72.48260 70.19471
# Shear Modulus (GPa) = 34.51825 36.38337 35.45081
#
# Velocity S-wave (km/s) = 3.92636 4.03104 3.97905
# Velocity P-wave (km/s) = 7.13325 7.35102 7.24295
#
# Compressibility (1/GPa) = 0.01472606
#
# Stress axis : x y z
#
# Youngs Moduli (GPa) = 82.31862 88.77933 135.69688
#
# Poissons Ratio (x) = 0.26023 0.37481
# Poissons Ratio (y) = 0.24129 0.31676
# Poissons Ratio (z) = 0.22737 0.20724
#
# Static dielectric constant tensor:
#      x y z
#    x 3.994770 0.000000 0.000000 
#    y 0.000000 3.869480 0.000000 
#    z 0.000000 0.000000 4.393720 
# 
# 
# High freq. dielectric constant tensor:
#      x y z
#    x 1.881490 0.000000 0.000000 
#    y 0.000000 1.867940 0.000000 
#    z 0.000000 0.000000 1.914500 
# 
# From -- ./inp_files/3128.got.cif
#   From: 2010.03.12/outbox.cif.g09.slc.cpg/sg37_2_cif.got.tgz:3128.got - 2010.04.14 02:25:27.
