data_PCOD8177758
_publ_section_title
;
Structure prediction by ZEFSAII (Michael W. Deem and Ramdas Pophale) SiO2 
 PCOD8177758
Probable space group: A M M 2
;
_chemical_formula_sum "Si O2"
_cell_formula_units_Z 64
_cell_length_a 15.375210
_cell_length_b 9.152522
_cell_length_c 23.910074
_cell_angle_alpha 90.000000
_cell_angle_beta 90.000000
_cell_angle_gamma 90.000000
_cell_volume 3364.672185
_symmetry_space_group_name_H-M "A M M 2"
_symmetry_group_IT_number 38
_symmetry_cell_setting 'orthorhombic'
loop_
_space_group_symop_operation_xyz
x,y,z
-x,-y,z
-x,y,z
x,-y,z
x,1/2+y,1/2+z
-x,1/2-y,1/2+z
-x,1/2+y,1/2+z
x,1/2-y,1/2+z
loop_
_atom_site_type_symbol
_atom_site_label
_atom_site_fract_x
_atom_site_fract_y
_atom_site_fract_z
Si Si1 0.599536 0.331484 0.111880
Si Si2 0.903179 0.668961 0.337857
Si Si3 0.095759 0.673459 0.608291
Si Si4 0.741009 0.825858 0.038485
Si Si5 0.255582 0.672999 0.411431
Si Si6 0.401990 0.833391 0.344790
Si Si7 0.351482 0.831357 0.221875
Si Si8 0.149813 0.670381 0.729123
O O1 0.500000 0.314550 0.092311
O O2 0.628418 0.500000 0.112066
O O3 0.658078 0.242771 0.068549
O O4 0.608757 0.269341 0.174156
O O5 0.884011 0.500000 0.326350
O O6 0.832244 0.731607 0.381564
O O7 0.898550 0.749882 0.279084
O O8 0.000000 0.691901 0.363164
O O9 0.101016 0.500000 0.608922
O O10 0.170296 0.733175 0.567085
O O11 0.112152 0.731742 0.670891
O O12 0.000000 0.725836 0.587970
O O13 0.733410 0.000000 0.043247
O O14 0.743465 0.770203 0.974881
O O15 0.258185 0.500000 0.410478
O O16 0.340301 0.729681 0.380026
O O17 0.500000 0.811457 0.366801
O O18 0.400327 0.793643 0.279287
O O19 0.370488 0.000000 0.352977
O O20 0.251205 0.794058 0.231087
O O21 0.364358 0.000000 0.204205
O O22 0.130735 0.500000 0.735759
#
# Coordination Sequence:
#
# PCOD8177758 Si02
#       8
#     8   8   8   8   8   8   8   8
#     4  11  24  39  57  84 115 147 182 225 281 338
#     4  10  21  36  54  81 117 152 183 222 278 335
#     4   9  17  31  54  83 110 136 175 227 274 318
#     4  10  21  39  59  80 107 146 193 235 276 324
#     4  10  22  38  57  80 109 146 191 237 277 323
#     4  10  21  37  58  83 111 145 183 225 278 336
#     4  10  19  35  60  86 112 144 183 225 273 331
#     4  10  18  32  57  85 111 142 182 226 273 327
#
# _framework density 19.021169
#
# number of rings (size 3 to 8) (size 9 to 14) (size 15 to 20)
#    0.000    2.000    2.500    1.125    0.000    5.000 
#    0.000    5.000    0.000    0.375    0.000    1.750 
#    0.000    0.000    0.000    0.000    0.000    0.000 
#
# Total GULP energy -396840.253841 kJ/mol
# GULP energy per Si atom -12401.257933 kJ/mol
# Density = 1.897788 g / cm^3
# Si number density = 19.021169 Si / 1000 Ang^3
#
#
#
# Elastic Constant Matrix: (Units=GPa)
#
#
# Indices 1 2 3 4 5 6 
#
# 1 121.0739 26.7831 55.5270 0.0000 0.0000 0.0000
# 2 26.7831 31.1701 25.9203 0.0000 0.0000 0.0000
# 3 55.5270 25.9203 120.0205 0.0000 0.0000 0.0000
# 4 0.0000 0.0000 0.0000 25.9397 0.0000 0.0000
# 5 0.0000 0.0000 0.0000 0.0000 18.5638 0.0000
# 6 0.0000 0.0000 0.0000 0.0000 0.0000 23.7007
#
#
#
# Elastic Compliance Matrix: (Units=1/GPa)
#
#
# Indices 1 2 3 4 5 6 
#
# 1 0.011517 -0.006661 -0.003890 0.000000 0.000000 0.000000
# 2 -0.006661 0.042958 -0.006196 0.000000 0.000000 0.000000
# 3 -0.003890 -0.006196 0.011469 0.000000 0.000000 0.000000
# 4 0.000000 0.000000 0.000000 0.038551 0.000000 0.000000
# 5 0.000000 0.000000 0.000000 0.000000 0.053868 0.000000
# 6 0.000000 0.000000 0.000000 0.000000 0.000000 0.042193
#
#
# Mechanical properties :
#
#
# Convention : Reuss Voigt Hill
#
# Bulk Modulus (GPa) = 30.81560 54.30281 42.55921
# Shear Modulus (GPa) = 20.41929 24.57644 22.49787
#
# Velocity S-wave (km/s) = 3.27999 3.59842 3.44289
# Velocity P-wave (km/s) = 5.52995 6.77314 6.18287
#
# Compressibility (1/GPa) = 0.03245110
#
# Stress axis : x y z
#
# Youngs Moduli (GPa) = 86.82916 23.27857 87.18826
#
# Poissons Ratio (x) = 0.15507 0.33913
# Poissons Ratio (y) = 0.57841 0.54018
# Poissons Ratio (z) = 0.33773 0.14422
#
# Static dielectric constant tensor:
#      x y z
#    x 3.671960 0.000000 0.000000 
#    y 0.000000 3.243820 0.000000 
#    z 0.000000 0.000000 3.539580 
# 
# 
# High freq. dielectric constant tensor:
#      x y z
#    x 1.756760 0.000000 0.000000 
#    y 0.000000 1.713070 0.000000 
#    z 0.000000 0.000000 1.737220 
# 
# From -- ./inp_files/22899.got.cif
#   From: 2010.03.12/outbox.cif.g09.slc.cpg/sg38_12_cif.got.tgz:22899.got - 2010.04.14 02:38:36.
