data_PCOD8177632
_publ_section_title
;
Structure prediction by ZEFSAII (Michael W. Deem and Ramdas Pophale) SiO2 
 PCOD8177632
Probable space group: A M M 2
;
_chemical_formula_sum "Si O2"
_cell_formula_units_Z 56
_cell_length_a 11.917708
_cell_length_b 23.004655
_cell_length_c 11.550342
_cell_angle_alpha 90.000000
_cell_angle_beta 90.000000
_cell_angle_gamma 90.000000
_cell_volume 3166.673652
_symmetry_space_group_name_H-M "A M M 2"
_symmetry_group_IT_number 38
_symmetry_cell_setting 'orthorhombic'
loop_
_space_group_symop_operation_xyz
x,y,z
-x,-y,z
-x,y,z
x,-y,z
x,1/2+y,1/2+z
-x,1/2-y,1/2+z
-x,1/2+y,1/2+z
x,1/2-y,1/2+z
loop_
_atom_site_type_symbol
_atom_site_label
_atom_site_fract_x
_atom_site_fract_y
_atom_site_fract_z
Si Si1 0.500000 0.938482 0.132350
Si Si2 0.630332 0.068149 0.453846
Si Si3 0.291161 0.637671 0.380549
Si Si4 0.868382 0.932529 0.038811
Si Si5 0.629655 0.713503 0.590706
Si Si6 0.500000 0.561413 0.366767
Si Si7 0.718317 0.881788 0.224777
Si Si8 0.369830 0.158849 0.650342
O O1 0.612987 0.904753 0.153432
O O2 0.500000 0.000000 0.203241
O O3 0.500000 0.952951 0.000101
O O4 0.500000 0.076098 0.415799
O O5 0.710292 0.098212 0.357399
O O6 0.655687 0.102358 0.571711
O O7 0.660424 0.000000 0.468724
O O8 0.185701 0.602779 0.431731
O O9 0.332561 0.686091 0.469324
O O10 0.387153 0.594165 0.336128
O O11 0.275493 0.665849 0.252939
O O12 0.828725 0.908358 0.163969
O O13 0.000000 0.923035 0.030609
O O14 0.834612 0.000000 0.028251
O O15 0.500000 0.697857 0.614308
O O16 0.705697 0.687484 0.697944
O O17 0.646792 0.782300 0.576458
O O18 0.500000 0.500000 0.297456
O O19 0.500000 0.155899 0.694414
#
# Coordination Sequence:
#
# PCOD8177632 Si02
#       8
#     4   8   8   8   8   4   8   8
#     4  11  16  24  44  76 106 133 166 207 262 321
#     4  10  20  32  46  74 113 149 180 208 256 322
#     4  11  19  35  51  75 106 142 178 218 269 325
#     4  10  21  35  55  82 106 135 180 233 279 313
#     4  10  18  31  49  75 106 134 181 218 261 317
#     4  11  18  26  46  78 106 135 168 209 264 327
#     4  11  18  31  52  78 107 140 173 217 268 319
#     4  10  22  33  48  77 113 149 175 214 263 326
#
# _framework density 17.684172
#
# number of rings (size 3 to 8) (size 9 to 14) (size 15 to 20)
#    0.000    1.571    5.714    1.714    2.000    1.143 
#    0.000    0.000    0.000    4.286    0.000    2.000 
#    0.000    0.000    0.000    0.000    0.000    0.000 
#
# Total GULP energy -346898.800774 kJ/mol
# GULP energy per Si atom -12389.242885 kJ/mol
# Density = 1.764392 g / cm^3
# Si number density = 17.684172 Si / 1000 Ang^3
#
#
#
# Elastic Constant Matrix: (Units=GPa)
#
#
# Indices 1 2 3 4 5 6 
#
# 1 58.2750 25.3549 23.7656 0.0000 0.0000 0.0000
# 2 25.3549 99.1911 46.9922 0.0000 0.0000 0.0000
# 3 23.7656 46.9922 105.0530 0.0000 0.0000 0.0000
# 4 0.0000 0.0000 0.0000 20.2457 0.0000 0.0000
# 5 0.0000 0.0000 0.0000 0.0000 16.1530 0.0000
# 6 0.0000 0.0000 0.0000 0.0000 0.0000 18.2061
#
#
#
# Elastic Compliance Matrix: (Units=1/GPa)
#
#
# Indices 1 2 3 4 5 6 
#
# 1 0.019950 -0.003758 -0.002832 0.000000 0.000000 0.000000
# 2 -0.003758 0.013500 -0.005189 0.000000 0.000000 0.000000
# 3 -0.002832 -0.005189 0.012481 0.000000 0.000000 0.000000
# 4 0.000000 0.000000 0.000000 0.049393 0.000000 0.000000
# 5 0.000000 0.000000 0.000000 0.000000 0.061908 0.000000
# 6 0.000000 0.000000 0.000000 0.000000 0.000000 0.054927
#
#
# Mechanical properties :
#
#
# Convention : Reuss Voigt Hill
#
# Bulk Modulus (GPa) = 44.69595 50.52717 47.61156
# Shear Modulus (GPa) = 20.56136 22.01473 21.28805
#
# Velocity S-wave (km/s) = 3.41354 3.53212 3.47333
# Velocity P-wave (km/s) = 6.39263 6.72819 6.56255
#
# Compressibility (1/GPa) = 0.02237339
#
# Stress axis : x y z
#
# Youngs Moduli (GPa) = 50.12522 74.07226 80.12304
#
# Poissons Ratio (x) = 0.27835 0.22693
# Poissons Ratio (y) = 0.18836 0.41575
# Poissons Ratio (z) = 0.14197 0.38435
#
# Static dielectric constant tensor:
#      x y z
#    x 2.864090 0.000000 0.000000 
#    y 0.000000 3.797430 0.000000 
#    z 0.000000 0.000000 3.223930 
# 
# 
# High freq. dielectric constant tensor:
#      x y z
#    x 1.623020 0.000000 0.000000 
#    y 0.000000 1.703590 0.000000 
#    z 0.000000 0.000000 1.682350 
# 
# From -- ./inp_files/9537.got.cif
#   From: 2010.03.12/outbox.cif.g09.slc.cpg/sg38_5_cif.got.tgz:9537.got - 2010.04.14 02:38:36.
