data_PCOD8177781
_publ_section_title
;
Structure prediction by ZEFSAII (Michael W. Deem and Ramdas Pophale) SiO2 
 PCOD8177781
Probable space group: A M M 2
;
_chemical_formula_sum "Si O2"
_cell_formula_units_Z 40
_cell_length_a 9.292096
_cell_length_b 10.328578
_cell_length_c 22.842290
_cell_angle_alpha 90.000000
_cell_angle_beta 90.000000
_cell_angle_gamma 90.000000
_cell_volume 2192.269100
_symmetry_space_group_name_H-M "A M M 2"
_symmetry_group_IT_number 38
_symmetry_cell_setting 'orthorhombic'
loop_
_space_group_symop_operation_xyz
x,y,z
-x,-y,z
-x,y,z
x,-y,z
x,1/2+y,1/2+z
-x,1/2-y,1/2+z
-x,1/2+y,1/2+z
x,1/2-y,1/2+z
loop_
_atom_site_type_symbol
_atom_site_label
_atom_site_fract_x
_atom_site_fract_y
_atom_site_fract_z
Si Si1 0.670621 0.736780 0.932870
Si Si2 0.165528 0.000000 0.235403
Si Si3 0.670170 0.649405 0.058727
Si Si4 0.168454 0.500000 0.251974
Si Si5 0.328749 0.000000 0.355466
Si Si6 0.833347 0.263310 0.169896
Si Si7 0.328932 0.500000 0.374032
O O1 0.500000 0.729638 0.933774
O O2 0.729382 0.626110 0.889515
O O3 0.725021 0.875421 0.910169
O O4 0.727983 0.711587 0.998324
O O5 0.201951 0.124909 0.197134
O O6 0.266329 0.000000 0.291123
O O7 0.000000 0.000000 0.255914
O O8 0.500000 0.663899 0.064500
O O9 0.717199 0.500000 0.060796
O O10 0.742679 0.727216 0.110983
O O11 0.213776 0.626255 0.215478
O O12 0.258505 0.500000 0.310852
O O13 0.000000 0.500000 0.267391
O O14 0.500000 0.000000 0.351122
O O15 0.000000 0.279347 0.153685
O O16 0.500000 0.500000 0.365804
#
# Coordination Sequence:
#
# PCOD8177781 Si02
#       7
#     8   4   8   4   4   8   4
#     4   9  18  33  53  78 106 135 166 211 264 303
#     4  10  22  37  52  76 110 141 171 214 265 308
#     4  10  19  34  57  80 103 134 176 219 258 308
#     4  10  20  35  54  74 104 141 173 212 259 304
#     4  10  18  33  56  76 102 139 175 210 253 308
#     4  10  21  37  55  76 106 141 174 214 263 308
#     4  10  20  33  52  78 106 135 171 210 253 310
#
# _framework density 18.245934999999999
#
# number of rings (size 3 to 8) (size 9 to 14) (size 15 to 20)
#    0.000    2.200    2.000    1.200    0.000    2.400 
#    0.000    3.000    0.000    0.000    0.000    0.000 
#    0.000    0.000    0.000    0.000    0.000    0.000 
#
# Total GULP energy -248055.958809 kJ/mol
# GULP energy per Si atom -12402.797940 kJ/mol
# Density = 1.820441 g / cm^3
# Si number density = 18.245935 Si / 1000 Ang^3
#
#
#
# Elastic Constant Matrix: (Units=GPa)
#
#
# Indices 1 2 3 4 5 6 
#
# 1 29.9738 33.9320 46.8894 0.0000 0.0000 0.0000
# 2 33.9320 171.9101 86.1437 0.0000 0.0000 0.0000
# 3 46.8894 86.1437 163.9006 0.0000 0.0000 0.0000
# 4 0.0000 0.0000 0.0000 21.5287 0.0000 0.0000
# 5 0.0000 0.0000 0.0000 0.0000 -24.1388 0.0000
# 6 0.0000 0.0000 0.0000 0.0000 0.0000 -1.4558
#
#
#
# Elastic Compliance Matrix: (Units=1/GPa)
#
#
# Indices 1 2 3 4 5 6 
#
# 1 0.062979 -0.004619 -0.015590 0.000000 0.000000 0.000000
# 2 -0.004619 0.008236 -0.003007 0.000000 0.000000 0.000000
# 3 -0.015590 -0.003007 0.012142 0.000000 0.000000 0.000000
# 4 0.000000 0.000000 0.000000 0.046450 0.000000 0.000000
# 5 0.000000 0.000000 0.000000 0.000000 -0.041427 0.000000
# 6 0.000000 0.000000 0.000000 0.000000 0.000000 -0.686896
#
#
# Mechanical properties :
#
#
# Convention : Reuss Voigt Hill
#
# Bulk Modulus (GPa) = 27.08198 77.74606 52.41402
# Shear Modulus (GPa) = -9.26307 12.44144 1.58918
#
# Velocity S-wave (km/s) = -2.25562 2.61411 0.93427
# Velocity P-wave (km/s) = 2.84451 7.19819 5.47290
#
# Compressibility (1/GPa) = 0.03692492
#
# Stress axis : x y z
#
# Youngs Moduli (GPa) = 15.87826 121.42517 82.36086
#
# Poissons Ratio (x) = 0.56086 1.28398
# Poissons Ratio (y) = 0.07334 0.24766
# Poissons Ratio (z) = 0.24754 0.36513
#
# Static dielectric constant tensor:
#      x y z
#    x 3.057450 0.000000 0.000000 
#    y 0.000000 3.728540 0.000000 
#    z 0.000000 0.000000 3.392030 
# 
# 
# High freq. dielectric constant tensor:
#      x y z
#    x 1.677380 0.000000 0.000000 
#    y 0.000000 1.721900 0.000000 
#    z 0.000000 0.000000 1.718600 
# 
# From -- ./inp_files/19537.got.cif
#   From: 2010.03.12/outbox.cif.g09.slc.cpg/sg38_10_cif.got.tgz:19537.got - 2010.04.14 02:38:36.
