data_PCOD8177160
_publ_section_title
;
Structure prediction by ZEFSAII (Michael W. Deem and Ramdas Pophale) SiO2 
 PCOD8177160
Probable space group: C C C 2
;
_chemical_formula_sum "Si O2"
_cell_formula_units_Z 48
_cell_length_a 4.881077
_cell_length_b 31.096054
_cell_length_c 14.174947
_cell_angle_alpha 90.000000
_cell_angle_beta 90.000000
_cell_angle_gamma 90.000000
_cell_volume 2151.505122
_symmetry_space_group_name_H-M "C C C 2"
_symmetry_group_IT_number 37
_symmetry_cell_setting 'orthorhombic'
loop_
_space_group_symop_operation_xyz
x,y,z
-x,-y,z
-x,y,1/2+z
x,-y,1/2+z
1/2+x,1/2+y,z
1/2-x,1/2-y,z
1/2-x,1/2+y,1/2+z
1/2+x,1/2-y,1/2+z
loop_
_atom_site_type_symbol
_atom_site_label
_atom_site_fract_x
_atom_site_fract_y
_atom_site_fract_z
Si Si1 0.020613 0.852639 0.163400
Si Si2 0.507759 0.721699 0.303688
Si Si3 0.143457 0.601154 0.413767
Si Si4 0.264548 0.029438 0.061271
Si Si5 0.875137 0.155735 0.951706
Si Si6 0.480746 0.091758 0.210544
O O1 0.105918 0.812271 0.227129
O O2 0.725422 0.868454 0.199254
O O3 0.229698 0.892854 0.168246
O O4 0.000839 0.837013 0.055439
O O5 0.750000 0.750000 0.256854
O O6 0.650714 0.700636 0.396530
O O7 0.250000 0.750000 0.335871
O O8 0.276266 0.567567 0.487086
O O9 0.404803 0.630054 0.386691
O O10 0.021735 0.579235 0.320180
O O11 0.911389 0.630606 0.461735
O O12 0.500000 0.000000 0.017521
O O13 0.366973 0.049038 0.160469
O O14 0.000000 0.000000 0.077507
#
# Coordination Sequence:
#
# PCOD8177160 Si02
#       6
#     8   8   8   8   8   8
#     4  12  23  43  72 100 133 187 239 280 342 425
#     4  12  26  42  66 104 147 174 229 306 354 394
#     4  12  23  44  73 101 133 188 237 277 340 428
#     4  12  26  44  70 106 146 172 222 302 354 392
#     4  12  23  43  72 100 133 187 239 280 342 425
#     4  12  23  44  73 101 133 188 237 277 340 428
#
# _framework density 22.309961000000001
#
# number of rings (size 3 to 8) (size 9 to 14) (size 15 to 20)
#    0.000    0.000    6.667    4.000    0.000    2.000 
#    0.000    1.667    0.000    0.000    0.000    0.000 
#    0.000    0.000    0.000    0.000    0.000    0.000 
#
# Total GULP energy -297698.583153 kJ/mol
# GULP energy per Si atom -12404.107631 kJ/mol
# Density = 2.225918 g / cm^3
# Si number density = 22.309961 Si / 1000 Ang^3
#
#
#
# Elastic Constant Matrix: (Units=GPa)
#
#
# Indices 1 2 3 4 5 6 
#
# 1 109.6819 35.0191 13.4268 0.0000 0.0000 0.0000
# 2 35.0191 98.8422 37.1924 0.0000 0.0000 0.0000
# 3 13.4268 37.1924 113.7794 0.0000 0.0000 0.0000
# 4 0.0000 0.0000 0.0000 52.8978 0.0000 0.0000
# 5 0.0000 0.0000 0.0000 0.0000 32.3714 0.0000
# 6 0.0000 0.0000 0.0000 0.0000 0.0000 51.1199
#
#
#
# Elastic Compliance Matrix: (Units=1/GPa)
#
#
# Indices 1 2 3 4 5 6 
#
# 1 0.010280 -0.003633 -0.000026 0.000000 0.000000 0.000000
# 2 -0.003633 0.012820 -0.003762 0.000000 0.000000 0.000000
# 3 -0.000026 -0.003762 0.010022 0.000000 0.000000 0.000000
# 4 0.000000 0.000000 0.000000 0.018904 0.000000 0.000000
# 5 0.000000 0.000000 0.000000 0.000000 0.030891 0.000000
# 6 0.000000 0.000000 0.000000 0.000000 0.000000 0.019562
#
#
# Mechanical properties :
#
#
# Convention : Reuss Voigt Hill
#
# Bulk Modulus (GPa) = 54.70071 54.84223 54.77147
# Shear Modulus (GPa) = 40.51434 43.05550 41.78492
#
# Velocity S-wave (km/s) = 4.26605 4.39780 4.33243
# Velocity P-wave (km/s) = 6.98837 7.10091 7.04486
#
# Compressibility (1/GPa) = 0.01828130
#
# Stress axis : x y z
#
# Youngs Moduli (GPa) = 97.27426 78.00545 99.78395
#
# Poissons Ratio (x) = 0.28336 0.00257
# Poissons Ratio (y) = 0.35335 0.37537
# Poissons Ratio (z) = 0.00250 0.29344
#
# Static dielectric constant tensor:
#      x y z
#    x 4.012150 0.000000 0.000000 
#    y 0.000000 4.004360 0.000000 
#    z 0.000000 0.000000 3.916750 
# 
# 
# High freq. dielectric constant tensor:
#      x y z
#    x 1.895010 0.000000 0.000000 
#    y 0.000000 1.868780 0.000000 
#    z 0.000000 0.000000 1.882660 
# 
# From -- ./inp_files/9857.got.cif
#   From: 2010.03.12/outbox.cif.g09.slc.cpg/sg37_5_cif.got.tgz:9857.got - 2010.04.14 02:25:27.
