data_PCOD8177982
_publ_section_title
;
Structure prediction by ZEFSAII (Michael W. Deem and Ramdas Pophale) SiO2 
 PCOD8177982
Probable space group: A M M 2
;
_chemical_formula_sum "Si O2"
_cell_formula_units_Z 64
_cell_length_a 9.542858
_cell_length_b 14.463921
_cell_length_c 28.276934
_cell_angle_alpha 90.000000
_cell_angle_beta 90.000000
_cell_angle_gamma 90.000000
_cell_volume 3902.984447
_symmetry_space_group_name_H-M "A M M 2"
_symmetry_group_IT_number 38
_symmetry_cell_setting 'orthorhombic'
loop_
_space_group_symop_operation_xyz
x,y,z
-x,-y,z
-x,y,z
x,-y,z
x,1/2+y,1/2+z
-x,1/2-y,1/2+z
-x,1/2+y,1/2+z
x,1/2-y,1/2+z
loop_
_atom_site_type_symbol
_atom_site_label
_atom_site_fract_x
_atom_site_fract_y
_atom_site_fract_z
Si Si1 0.338901 0.107340 0.793310
Si Si2 0.335403 0.284269 0.202706
Si Si3 0.839528 0.893383 0.340846
Si Si4 0.666633 0.102862 0.615797
Si Si5 0.161969 0.785416 0.433995
Si Si6 0.336744 0.603424 0.750143
Si Si7 0.161388 0.604052 0.384273
Si Si8 0.664446 0.893444 0.509691
O O1 0.500000 0.134063 0.803110
O O2 0.276183 0.162531 0.748570
O O3 0.251789 0.135217 0.839412
O O4 0.322264 0.000000 0.781402
O O5 0.500000 0.302708 0.200818
O O6 0.269716 0.324763 0.154096
O O7 0.301050 0.174844 0.207703
O O8 0.790789 0.835100 0.385833
O O9 0.745125 0.864220 0.296604
O O10 0.000000 0.872365 0.327450
O O11 0.816398 0.000000 0.353796
O O12 0.500000 0.103578 0.616315
O O13 0.715665 0.129229 0.562995
O O14 0.720107 0.000000 0.629007
O O15 0.188916 0.675354 0.427343
O O16 0.254254 0.822563 0.476623
O O17 0.000000 0.806952 0.445208
O O18 0.500000 0.607802 0.763044
O O19 0.292354 0.500000 0.734045
O O20 0.201006 0.500000 0.401094
O O21 0.000000 0.609666 0.368394
O O22 0.500000 0.875552 0.503648
O O23 0.700172 0.000000 0.497063
#
# Coordination Sequence:
#
# PCOD8177982 Si02
#       8
#     8   8   8   8   8   8   8   8
#     4   9  16  25  40  64  88 109 139 177 212 247
#     4   9  15  24  41  62  84 111 140 170 205 246
#     4   9  17  28  41  59  84 113 143 172 205 250
#     4   8  14  26  44  65  87 109 134 166 207 255
#     4  10  19  30  46  65  85 114 149 180 213 256
#     4   9  17  27  39  59  86 113 141 172 204 238
#     4   9  18  31  44  60  86 119 150 178 211 252
#     4   9  18  31  47  68  90 110 136 174 219 263
#
# _framework density 16.397708000000002
#
# number of rings (size 3 to 8) (size 9 to 14) (size 15 to 20)
#    0.000    3.000    0.000    2.250    0.000    3.250 
#    0.000    1.250    0.000    2.250    0.000    3.500 
#    0.000    0.000    0.000    0.000    0.000    0.000 
#
# Total GULP energy -396663.698914 kJ/mol
# GULP energy per Si atom -12395.740591 kJ/mol
# Density = 1.636039 g / cm^3
# Si number density = 16.397708 Si / 1000 Ang^3
#
#
#
# Elastic Constant Matrix: (Units=GPa)
#
#
# Indices 1 2 3 4 5 6 
#
# 1 35.8449 30.9353 39.4490 0.0000 0.0000 0.0000
# 2 30.9353 102.8642 78.2299 0.0000 0.0000 0.0000
# 3 39.4490 78.2299 114.6942 0.0000 0.0000 0.0000
# 4 0.0000 0.0000 0.0000 29.5535 0.0000 0.0000
# 5 0.0000 0.0000 0.0000 0.0000 0.7446 0.0000
# 6 0.0000 0.0000 0.0000 0.0000 0.0000 17.8307
#
#
#
# Elastic Compliance Matrix: (Units=1/GPa)
#
#
# Indices 1 2 3 4 5 6 
#
# 1 0.045561 -0.003707 -0.013142 0.000000 0.000000 0.000000
# 2 -0.003707 0.020501 -0.012708 0.000000 0.000000 0.000000
# 3 -0.013142 -0.012708 0.021907 0.000000 0.000000 0.000000
# 4 0.000000 0.000000 0.000000 0.033837 0.000000 0.000000
# 5 0.000000 0.000000 0.000000 0.000000 1.343078 0.000000
# 6 0.000000 0.000000 0.000000 0.000000 0.000000 0.056083
#
#
# Mechanical properties :
#
#
# Convention : Reuss Voigt Hill
#
# Bulk Modulus (GPa) = 34.65717 61.18129 47.91923
# Shear Modulus (GPa) = 3.14525 16.61171 9.87848
#
# Velocity S-wave (km/s) = 1.38646 3.18630 2.45711
# Velocity P-wave (km/s) = 4.87281 7.13642 6.11035
#
# Compressibility (1/GPa) = 0.02885406
#
# Stress axis : x y z
#
# Youngs Moduli (GPa) = 21.94872 48.77732 45.64738
#
# Poissons Ratio (x) = 0.18083 0.59990
# Poissons Ratio (y) = 0.08137 0.58010
# Poissons Ratio (z) = 0.28845 0.61988
#
# Static dielectric constant tensor:
#      x y z
#    x 2.869090 0.000000 0.000000 
#    y 0.000000 3.300120 0.000000 
#    z 0.000000 0.000000 3.069600 
# 
# 
# High freq. dielectric constant tensor:
#      x y z
#    x 1.603390 0.000000 0.000000 
#    y 0.000000 1.638800 0.000000 
#    z 0.000000 0.000000 1.610230 
# 
# From -- ./inp_files/24703.got.cif
#   From: 2010.03.12/outbox.cif.g09.slc.cpg/sg38_13_cif.got.tgz:24703.got - 2010.04.14 02:38:36.
