data_PCOD8177264
_publ_section_title
;
Structure prediction by ZEFSAII (Michael W. Deem and Ramdas Pophale) SiO2 
 PCOD8177264
Probable space group: A M M 2
;
_chemical_formula_sum "Si O2"
_cell_formula_units_Z 64
_cell_length_a 14.208121
_cell_length_b 9.300978
_cell_length_c 31.429763
_cell_angle_alpha 90.000000
_cell_angle_beta 90.000000
_cell_angle_gamma 90.000000
_cell_volume 4153.424978
_symmetry_space_group_name_H-M "A M M 2"
_symmetry_group_IT_number 38
_symmetry_cell_setting 'orthorhombic'
loop_
_space_group_symop_operation_xyz
x,y,z
-x,-y,z
-x,y,z
x,-y,z
x,1/2+y,1/2+z
-x,1/2-y,1/2+z
-x,1/2+y,1/2+z
x,1/2-y,1/2+z
loop_
_atom_site_type_symbol
_atom_site_label
_atom_site_fract_x
_atom_site_fract_y
_atom_site_fract_z
Si Si1 0.207364 0.668425 0.453560
Si Si2 0.772275 0.170763 0.789600
Si Si3 0.392343 0.833035 0.326084
Si Si4 0.605033 0.665221 0.412287
Si Si5 0.104943 0.671129 0.211029
Si Si6 0.109471 0.331917 0.537265
Si Si7 0.111927 0.340406 0.117906
Si Si8 0.105553 0.329005 0.369906
O O1 0.186717 0.500000 0.455040
O O2 0.319023 0.701476 0.449011
O O3 0.167315 0.734451 0.497373
O O4 0.152750 0.733507 0.412830
O O5 0.672093 0.250728 0.791852
O O6 0.823509 0.226050 0.746920
O O7 0.834974 0.222358 0.829398
O O8 0.756391 0.000000 0.789393
O O9 0.500000 0.811210 0.311718
O O10 0.375091 0.765775 0.372348
O O11 0.365110 0.000000 0.328125
O O12 0.500000 0.690576 0.430760
O O13 0.618296 0.500000 0.397059
O O14 0.098994 0.500000 0.211771
O O15 0.142345 0.720671 0.164367
O O16 0.000000 0.732960 0.220115
O O17 0.126723 0.500000 0.542404
O O18 0.149756 0.260334 0.580191
O O19 0.000000 0.296180 0.529787
O O20 0.153360 0.500000 0.110711
O O21 0.000000 0.346017 0.117204
O O22 0.103815 0.500000 0.371098
O O23 0.000000 0.267426 0.366135
#
# Coordination Sequence:
#
# PCOD8177264 Si02
#       8
#     8   8   8   8   8   8   8   8
#     4   9  15  24  38  61  86 108 136 173 213 246
#     4  10  17  27  45  67  85 107 143 180 208 243
#     4  10  20  32  44  59  83 114 143 174 215 257
#     4   9  16  28  46  64  80 102 139 184 220 249
#     4   8  14  25  43  67  90 111 139 176 213 249
#     4   9  16  25  39  59  83 110 141 174 204 242
#     4   8  14  26  42  59  83 112 139 170 208 245
#     4   9  15  22  36  60  87 112 137 166 202 244
#
# _framework density 15.408969000000001
#
# number of rings (size 3 to 8) (size 9 to 14) (size 15 to 20)
#    0.000    3.000    1.250    1.875    0.000    3.750 
#    0.000    1.250    0.000    2.250    0.000    0.875 
#    0.000    3.000    0.000    0.000    0.000    0.000 
#
# Total GULP energy -396622.390514 kJ/mol
# GULP energy per Si atom -12394.449704 kJ/mol
# Density = 1.537390 g / cm^3
# Si number density = 15.408969 Si / 1000 Ang^3
#
#
#
# Elastic Constant Matrix: (Units=GPa)
#
#
# Indices 1 2 3 4 5 6 
#
# 1 94.4503 31.5368 62.5127 0.0000 0.0000 0.0000
# 2 31.5368 37.6697 35.5605 0.0000 0.0000 0.0000
# 3 62.5127 35.5605 142.8815 0.0000 0.0000 0.0000
# 4 0.0000 0.0000 0.0000 18.2308 0.0000 0.0000
# 5 0.0000 0.0000 0.0000 0.0000 15.1625 0.0000
# 6 0.0000 0.0000 0.0000 0.0000 0.0000 12.7433
#
#
#
# Elastic Compliance Matrix: (Units=1/GPa)
#
#
# Indices 1 2 3 4 5 6 
#
# 1 0.017170 -0.009520 -0.005143 0.000000 0.000000 0.000000
# 2 -0.009520 0.039977 -0.005785 0.000000 0.000000 0.000000
# 3 -0.005143 -0.005785 0.010689 0.000000 0.000000 0.000000
# 4 0.000000 0.000000 0.000000 0.054852 0.000000 0.000000
# 5 0.000000 0.000000 0.000000 0.000000 0.065952 0.000000
# 6 0.000000 0.000000 0.000000 0.000000 0.000000 0.078473
#
#
# Mechanical properties :
#
#
# Convention : Reuss Voigt Hill
#
# Bulk Modulus (GPa) = 37.11757 59.35794 48.23775
# Shear Modulus (GPa) = 15.77349 18.92008 17.34678
#
# Velocity S-wave (km/s) = 3.20293 3.50789 3.35887
# Velocity P-wave (km/s) = 6.14971 7.41703 6.81290
#
# Compressibility (1/GPa) = 0.02694142
#
# Stress axis : x y z
#
# Youngs Moduli (GPa) = 58.24097 25.01435 93.55820
#
# Poissons Ratio (x) = 0.23813 0.48116
# Poissons Ratio (y) = 0.55444 0.54119
# Poissons Ratio (z) = 0.29952 0.14470
#
# Static dielectric constant tensor:
#      x y z
#    x 2.995790 0.000000 0.000000 
#    y 0.000000 2.681670 0.000000 
#    z 0.000000 0.000000 3.155990 
# 
# 
# High freq. dielectric constant tensor:
#      x y z
#    x 1.575980 0.000000 0.000000 
#    y 0.000000 1.554340 0.000000 
#    z 0.000000 0.000000 1.582870 
# 
# From -- ./inp_files/25031.got.cif
#   From: 2010.03.12/outbox.cif.g09.slc.cpg/sg38_13_cif.got.tgz:25031.got - 2010.04.14 02:38:36.
