data_PCOD8177142
_publ_section_title
;
Structure prediction by ZEFSAII (Michael W. Deem and Ramdas Pophale) SiO2 
 PCOD8177142
Probable space group: C C C 2
;
_chemical_formula_sum "Si O2"
_cell_formula_units_Z 48
_cell_length_a 17.474535
_cell_length_b 7.924276
_cell_length_c 14.126794
_cell_angle_alpha 90.000000
_cell_angle_beta 90.000000
_cell_angle_gamma 90.000000
_cell_volume 1956.180087
_symmetry_space_group_name_H-M "C C C 2"
_symmetry_group_IT_number 37
_symmetry_cell_setting 'orthorhombic'
loop_
_space_group_symop_operation_xyz
x,y,z
-x,-y,z
-x,y,1/2+z
x,-y,1/2+z
1/2+x,1/2+y,z
1/2-x,1/2-y,z
1/2-x,1/2+y,1/2+z
1/2+x,1/2-y,1/2+z
loop_
_atom_site_type_symbol
_atom_site_label
_atom_site_fract_x
_atom_site_fract_y
_atom_site_fract_z
Si Si1 0.831080 0.652319 0.085180
Si Si2 0.329682 0.557226 0.840552
Si Si3 0.913493 0.456626 0.238031
Si Si4 0.168920 0.152319 0.662097
Si Si5 0.670318 0.942774 0.406725
Si Si6 0.413493 0.543374 0.509246
O O1 0.750000 0.750000 0.087259
O O2 0.854100 0.589108 0.189305
O O3 0.897988 0.769454 0.045594
O O4 0.833012 0.482326 0.019141
O O5 0.333012 0.517674 0.728135
O O6 0.333924 0.750000 0.873638
O O7 0.250000 0.474553 0.873639
O O8 0.398384 0.463620 0.896520
O O9 0.897988 0.269454 0.201683
O O10 0.898384 0.463619 0.350757
O O11 0.000000 0.500000 0.212776
O O12 0.250000 0.250000 0.660018
O O13 0.145900 0.089108 0.557971
O O14 0.500000 0.500000 0.534501
#
# Coordination Sequence:
#
# PCOD8177142 Si02
#       6
#     8   8   8   8   8   8
#     4  12  25  47  76 103 144 194 244 293 359 437
#     4  11  25  44  72 105 140 187 249 300 357 427
#     4  12  27  44  71 109 147 187 238 302 368 418
#     4  12  25  47  76 103 144 194 244 293 359 437
#     4  11  25  44  72 105 140 187 249 300 357 427
#     4  12  27  44  71 109 147 187 238 302 368 418
#
# _framework density 24.537617999999998
#
# number of rings (size 3 to 8) (size 9 to 14) (size 15 to 20)
#    0.000    0.333    3.333    5.000    4.667    4.000 
#    0.000    0.000    0.000    0.000    0.000    0.000 
#    0.000    0.000    0.000    0.000    0.000    0.000 
#
# Total GULP energy -297532.591798 kJ/mol
# GULP energy per Si atom -12397.191325 kJ/mol
# Density = 2.448177 g / cm^3
# Si number density = 24.537618 Si / 1000 Ang^3
#
#
#
# Elastic Constant Matrix: (Units=GPa)
#
#
# Indices 1 2 3 4 5 6 
#
# 1 124.9440 47.3096 40.0321 0.0000 0.0000 0.0000
# 2 47.3096 79.7207 -4.6371 0.0000 0.0000 0.0000
# 3 40.0321 -4.6371 95.8922 0.0000 0.0000 0.0000
# 4 0.0000 0.0000 0.0000 39.3966 0.0000 0.0000
# 5 0.0000 0.0000 0.0000 0.0000 31.3677 0.0000
# 6 0.0000 0.0000 0.0000 0.0000 0.0000 37.7687
#
#
#
# Elastic Compliance Matrix: (Units=1/GPa)
#
#
# Indices 1 2 3 4 5 6 
#
# 1 0.012866 -0.007970 -0.005756 0.000000 0.000000 0.000000
# 2 -0.007970 0.017516 0.004174 0.000000 0.000000 0.000000
# 3 -0.005756 0.004174 0.013033 0.000000 0.000000 0.000000
# 4 0.000000 0.000000 0.000000 0.025383 0.000000 0.000000
# 5 0.000000 0.000000 0.000000 0.000000 0.031880 0.000000
# 6 0.000000 0.000000 0.000000 0.000000 0.000000 0.026477
#
#
# Mechanical properties :
#
#
# Convention : Reuss Voigt Hill
#
# Bulk Modulus (GPa) = 41.13342 51.77403 46.45373
# Shear Modulus (GPa) = 32.39116 36.23009 34.31063
#
# Velocity S-wave (km/s) = 3.63721 3.84671 3.74342
# Velocity P-wave (km/s) = 5.86846 6.39337 6.13653
#
# Compressibility (1/GPa) = 0.02431113
#
# Stress axis : x y z
#
# Youngs Moduli (GPa) = 77.72585 57.08977 76.72605
#
# Poissons Ratio (x) = 0.45500 0.44167
# Poissons Ratio (y) = 0.61947 -0.32027
# Poissons Ratio (z) = 0.44743 -0.23831
#
# Static dielectric constant tensor:
#      x y z
#    x 4.228600 0.000000 0.000000 
#    y 0.000000 4.457270 0.000000 
#    z 0.000000 0.000000 4.472780 
# 
# 
# High freq. dielectric constant tensor:
#      x y z
#    x 1.959990 0.000000 0.000000 
#    y 0.000000 1.983390 0.000000 
#    z 0.000000 0.000000 1.987150 
# 
# From -- ./inp_files/12558.got.cif
#   From: 2010.03.12/outbox.cif.g09.slc.cpg/sg37_7_cif.got.tgz:12558.got - 2010.04.14 02:25:27.
