data_PCOD8177405
_publ_section_title
;
Structure prediction by ZEFSAII (Michael W. Deem and Ramdas Pophale) SiO2 
 PCOD8177405
Probable space group: A M M 2
;
_chemical_formula_sum "Si O2"
_cell_formula_units_Z 64
_cell_length_a 14.221466
_cell_length_b 9.438103
_cell_length_c 30.971995
_cell_angle_alpha 90.000000
_cell_angle_beta 90.000000
_cell_angle_gamma 90.000000
_cell_volume 4157.174555
_symmetry_space_group_name_H-M "A M M 2"
_symmetry_group_IT_number 38
_symmetry_cell_setting 'orthorhombic'
loop_
_space_group_symop_operation_xyz
x,y,z
-x,-y,z
-x,y,z
x,-y,z
x,1/2+y,1/2+z
-x,1/2-y,1/2+z
-x,1/2+y,1/2+z
x,1/2-y,1/2+z
loop_
_atom_site_type_symbol
_atom_site_label
_atom_site_fract_x
_atom_site_fract_y
_atom_site_fract_z
Si Si1 0.111802 0.341999 0.356610
Si Si2 0.890579 0.837201 0.102724
Si Si3 0.395541 0.162122 0.052434
Si Si4 0.104819 0.331578 0.262312
Si Si5 0.205442 0.836959 0.012825
Si Si6 0.889574 0.335149 0.937657
Si Si7 0.604173 0.835976 0.637202
Si Si8 0.206391 0.666278 0.177933
O O1 0.152157 0.500000 0.365743
O O2 0.144242 0.284048 0.309411
O O3 0.147848 0.235656 0.393467
O O4 0.000000 0.349062 0.356142
O O5 0.839109 0.795233 0.058584
O O6 0.853371 0.741014 0.141111
O O7 0.000000 0.807521 0.095955
O O8 0.870285 0.000000 0.114617
O O9 0.500000 0.199583 0.034526
O O10 0.318125 0.189054 0.015331
O O11 0.369993 0.253397 0.094011
O O12 0.390324 0.000000 0.067822
O O13 0.099645 0.500000 0.262470
O O14 0.173902 0.275884 0.224721
O O15 0.000000 0.269835 0.253936
O O16 0.181704 0.000000 0.000980
O O17 0.164700 0.733989 0.977136
O O18 0.865206 0.500000 0.935685
O O19 0.000000 0.307909 0.944015
O O20 0.500000 0.793765 0.654541
O O21 0.682353 0.799868 0.673289
O O22 0.607724 0.000000 0.624757
O O23 0.185864 0.500000 0.173748
#
# Coordination Sequence:
#
# PCOD8177405 Si02
#       8
#     8   8   8   8   8   8   8   8
#     4   8  14  27  46  63  81 109 144 181 221 262
#     4  10  20  31  41  58  88 121 150 178 209 251
#     4   9  17  30  48  66  83 108 145 187 222 252
#     4   8  14  25  42  64  86 109 143 183 217 255
#     4  10  19  31  46  63  86 117 149 178 214 261
#     4  10  20  31  44  65  91 115 144 183 220 256
#     4   9  17  28  42  62  88 116 145 181 224 261
#     4  10  18  28  44  64  87 117 151 183 214 253
#
# _framework density 15.395071
#
# number of rings (size 3 to 8) (size 9 to 14) (size 15 to 20)
#    0.000    2.750    1.250    1.875    0.000    3.000 
#    0.000    0.625    0.000    2.250    0.000    0.875 
#    0.000    5.000    0.000    0.000    0.000    0.000 
#
# Total GULP energy -396657.371059 kJ/mol
# GULP energy per Si atom -12395.542846 kJ/mol
# Density = 1.536003 g / cm^3
# Si number density = 15.395071 Si / 1000 Ang^3
#
#
#
# Elastic Constant Matrix: (Units=GPa)
#
#
# Indices 1 2 3 4 5 6 
#
# 1 79.9328 36.7512 52.9456 0.0000 0.0000 0.0000
# 2 36.7512 57.5565 54.8411 0.0000 0.0000 0.0000
# 3 52.9456 54.8411 121.9040 0.0000 0.0000 0.0000
# 4 0.0000 0.0000 0.0000 20.2657 0.0000 0.0000
# 5 0.0000 0.0000 0.0000 0.0000 8.6378 0.0000
# 6 0.0000 0.0000 0.0000 0.0000 0.0000 17.5630
#
#
#
# Elastic Compliance Matrix: (Units=1/GPa)
#
#
# Indices 1 2 3 4 5 6 
#
# 1 0.019286 -0.007584 -0.004964 0.000000 0.000000 0.000000
# 2 -0.007584 0.033392 -0.011728 0.000000 0.000000 0.000000
# 3 -0.004964 -0.011728 0.015635 0.000000 0.000000 0.000000
# 4 0.000000 0.000000 0.000000 0.049344 0.000000 0.000000
# 5 0.000000 0.000000 0.000000 0.000000 0.115771 0.000000
# 6 0.000000 0.000000 0.000000 0.000000 0.000000 0.056938
#
#
# Mechanical properties :
#
#
# Convention : Reuss Voigt Hill
#
# Bulk Modulus (GPa) = 50.60807 60.94101 55.77454
# Shear Modulus (GPa) = 14.47155 16.95031 15.71093
#
# Velocity S-wave (km/s) = 3.06929 3.32176 3.19802
# Velocity P-wave (km/s) = 6.74574 7.37447 7.06710
#
# Compressibility (1/GPa) = 0.01975970
#
# Stress axis : x y z
#
# Youngs Moduli (GPa) = 51.85151 29.94761 63.95791
#
# Poissons Ratio (x) = 0.22714 0.31750
# Poissons Ratio (y) = 0.39326 0.75009
# Poissons Ratio (z) = 0.25740 0.35122
#
# Static dielectric constant tensor:
#      x y z
#    x 3.086760 0.000000 0.000000 
#    y 0.000000 2.902500 0.000000 
#    z 0.000000 0.000000 3.082040 
# 
# 
# High freq. dielectric constant tensor:
#      x y z
#    x 1.576660 0.000000 0.000000 
#    y 0.000000 1.581770 0.000000 
#    z 0.000000 0.000000 1.577100 
# 
# From -- ./inp_files/25044.got.cif
#   From: 2010.03.12/outbox.cif.g09.slc.cpg/sg38_13_cif.got.tgz:25044.got - 2010.04.14 02:38:36.
