data_PCOD8177751
_publ_section_title
;
Structure prediction by ZEFSAII (Michael W. Deem and Ramdas Pophale) SiO2 
 PCOD8177751
Probable space group: A M M 2
;
_chemical_formula_sum "Si O2"
_cell_formula_units_Z 48
_cell_length_a 9.552290
_cell_length_b 17.912496
_cell_length_c 14.922289
_cell_angle_alpha 90.000000
_cell_angle_beta 90.000000
_cell_angle_gamma 90.000000
_cell_volume 2553.283578
_symmetry_space_group_name_H-M "A M M 2"
_symmetry_group_IT_number 38
_symmetry_cell_setting 'orthorhombic'
loop_
_space_group_symop_operation_xyz
x,y,z
-x,-y,z
-x,y,z
x,-y,z
x,1/2+y,1/2+z
-x,1/2-y,1/2+z
-x,1/2+y,1/2+z
x,1/2-y,1/2+z
loop_
_atom_site_type_symbol
_atom_site_label
_atom_site_fract_x
_atom_site_fract_y
_atom_site_fract_z
Si Si1 0.832424 0.500000 0.700930
Si Si2 0.157222 0.417374 0.170954
Si Si3 0.664742 0.722111 0.112048
Si Si4 0.843005 0.376021 0.368520
Si Si5 0.165443 0.000000 0.995955
Si Si6 0.660235 0.856176 0.245256
Si Si7 0.341898 0.244350 0.408444
O O1 0.788532 0.500000 0.597682
O O2 0.764851 0.425946 0.742277
O O3 0.000000 0.500000 0.715904
O O4 0.200032 0.500000 0.134643
O O5 0.263298 0.354834 0.138798
O O6 0.159340 0.423156 0.278044
O O7 0.000000 0.397145 0.138104
O O8 0.500000 0.709004 0.120276
O O9 0.710262 0.791441 0.175521
O O10 0.712649 0.735324 0.009727
O O11 0.775689 0.425868 0.448080
O O12 0.750236 0.303420 0.355433
O O13 0.000000 0.350435 0.393135
O O14 0.000000 0.000000 0.981251
O O15 0.500000 0.879478 0.221978
O O16 0.668839 0.830275 0.348759
O O17 0.500000 0.274030 0.410241
#
# Coordination Sequence:
#
# PCOD8177751 Si02
#       7
#     4   8   8   8   4   8   8
#     4  11  23  37  57  84 111 144 190 233 271 326
#     4  10  20  35  56  83 116 149 180 222 278 333
#     4  10  21  38  60  84 110 145 189 232 275 331
#     4  10  18  32  56  82 111 145 179 219 275 336
#     4   9  18  33  53  82 115 142 174 225 283 330
#     4  10  21  39  59  79 113 150 180 227 283 328
#     4  10  21  37  57  82 109 144 187 228 277 329
#
# _framework density 18.799322
#
# number of rings (size 3 to 8) (size 9 to 14) (size 15 to 20)
#    0.000    2.000    2.500    1.250    0.000    2.333 
#    1.500    1.250    0.000    0.000    0.000    0.000 
#    0.000    0.000    0.000    0.000    0.000    0.000 
#
# Total GULP energy -297532.011861 kJ/mol
# GULP energy per Si atom -12397.167161 kJ/mol
# Density = 1.875653 g / cm^3
# Si number density = 18.799322 Si / 1000 Ang^3
#
#
#
# Elastic Constant Matrix: (Units=GPa)
#
#
# Indices 1 2 3 4 5 6 
#
# 1 66.8017 58.8946 22.3115 0.0000 0.0000 0.0000
# 2 58.8946 124.4594 29.5971 0.0000 0.0000 0.0000
# 3 22.3115 29.5971 84.7098 0.0000 0.0000 0.0000
# 4 0.0000 0.0000 0.0000 26.6313 0.0000 0.0000
# 5 0.0000 0.0000 0.0000 0.0000 24.6809 0.0000
# 6 0.0000 0.0000 0.0000 0.0000 0.0000 35.4399
#
#
#
# Elastic Compliance Matrix: (Units=1/GPa)
#
#
# Indices 1 2 3 4 5 6 
#
# 1 0.026285 -0.011770 -0.002811 0.000000 0.000000 0.000000
# 2 -0.011770 0.014033 -0.001803 0.000000 0.000000 0.000000
# 3 -0.002811 -0.001803 0.013175 0.000000 0.000000 0.000000
# 4 0.000000 0.000000 0.000000 0.037550 0.000000 0.000000
# 5 0.000000 0.000000 0.000000 0.000000 0.040517 0.000000
# 6 0.000000 0.000000 0.000000 0.000000 0.000000 0.028217
#
#
# Mechanical properties :
#
#
# Convention : Reuss Voigt Hill
#
# Bulk Modulus (GPa) = 48.24840 55.28638 51.76739
# Shear Modulus (GPa) = 25.06851 28.36158 26.71505
#
# Velocity S-wave (km/s) = 3.65565 3.88835 3.77379
# Velocity P-wave (km/s) = 6.59841 7.04497 6.82534
#
# Compressibility (1/GPa) = 0.02072608
#
# Stress axis : x y z
#
# Youngs Moduli (GPa) = 38.04434 71.26050 75.89941
#
# Poissons Ratio (x) = 0.83872 0.21334
# Poissons Ratio (y) = 0.44777 0.13685
# Poissons Ratio (z) = 0.10694 0.12849
#
# Static dielectric constant tensor:
#      x y z
#    x 3.316920 0.000000 0.000000 
#    y 0.000000 3.310030 0.000000 
#    z 0.000000 0.000000 3.538850 
# 
# 
# High freq. dielectric constant tensor:
#      x y z
#    x 1.719590 0.000000 0.000000 
#    y 0.000000 1.728700 0.000000 
#    z 0.000000 0.000000 1.730050 
# 
# From -- ./inp_files/12084.got.cif
#   From: 2010.03.12/outbox.cif.g09.slc.cpg/sg38_7_cif.got.tgz:12084.got - 2010.04.14 02:38:36.
