data_PCOD8177996
_publ_section_title
;
Structure prediction by ZEFSAII (Michael W. Deem and Ramdas Pophale) SiO2 
 PCOD8177996
Probable space group: A M M 2
;
_chemical_formula_sum "Si O2"
_cell_formula_units_Z 64
_cell_length_a 8.996337
_cell_length_b 22.085641
_cell_length_c 15.356739
_cell_angle_alpha 90.000000
_cell_angle_beta 90.000000
_cell_angle_gamma 90.000000
_cell_volume 3051.228465
_symmetry_space_group_name_H-M "A M M 2"
_symmetry_group_IT_number 38
_symmetry_cell_setting 'orthorhombic'
loop_
_space_group_symop_operation_xyz
x,y,z
-x,-y,z
-x,y,z
x,-y,z
x,1/2+y,1/2+z
-x,1/2-y,1/2+z
-x,1/2+y,1/2+z
x,1/2-y,1/2+z
loop_
_atom_site_type_symbol
_atom_site_label
_atom_site_fract_x
_atom_site_fract_y
_atom_site_fract_z
Si Si1 0.829719 0.933599 0.197150
Si Si2 0.665428 0.571456 0.197333
Si Si3 0.825223 0.693083 0.618579
Si Si4 0.825151 0.069660 0.872174
Si Si5 0.323592 0.320208 0.443738
Si Si6 0.333143 0.738773 0.783523
Si Si7 0.829595 0.071432 0.528461
Si Si8 0.666356 0.606455 0.859690
O O1 0.782615 0.877744 0.135560
O O2 0.731346 0.935481 0.283867
O O3 0.000000 0.923835 0.225841
O O4 0.809966 0.000000 0.151066
O O5 0.500000 0.598910 0.210541
O O6 0.656112 0.500000 0.189206
O O7 0.769423 0.589942 0.277208
O O8 0.738231 0.598036 0.110086
O O9 0.744749 0.712457 0.528991
O O10 0.769305 0.736091 0.697401
O O11 0.000000 0.702541 0.608151
O O12 0.741300 0.111524 0.941953
O O13 0.000000 0.080463 0.878735
O O14 0.783721 0.000000 0.891818
O O15 0.500000 0.320865 0.452912
O O16 0.272343 0.286453 0.355020
O O17 0.500000 0.756397 0.754256
O O18 0.333591 0.675058 0.830541
O O19 0.769453 0.103534 0.443355
O O20 0.000000 0.089130 0.542474
O O21 0.808310 0.000000 0.519016
O O22 0.500000 0.583926 0.881934
#
# Coordination Sequence:
#
# PCOD8177996 Si02
#       8
#     8   8   8   8   8   8   8   8
#     4   9  18  33  53  79 114 153 188 227 286 353
#     4   9  17  31  51  75 106 145 188 233 282 339
#     4  10  21  38  62  90 120 155 196 247 298 352
#     4  10  21  38  60  87 120 153 187 235 295 355
#     4  11  23  41  65  90 118 157 201 245 295 356
#     4   9  21  42  62  82 113 155 197 245 299 349
#     4  10  19  30  46  72 109 151 193 239 293 349
#     4  10  19  32  51  76 107 145 193 244 292 344
#
# _framework density 20.975159000000001
#
# number of rings (size 3 to 8) (size 9 to 14) (size 15 to 20)
#    0.000    2.250    0.000    2.625    0.000    7.250 
#    2.250    1.250    0.000    0.000    0.000    0.000 
#    0.000    0.000    0.000    0.000    0.000    0.000 
#
# Total GULP energy -396770.406167 kJ/mol
# GULP energy per Si atom -12399.075193 kJ/mol
# Density = 2.092742 g / cm^3
# Si number density = 20.975159 Si / 1000 Ang^3
#
#
#
# Elastic Constant Matrix: (Units=GPa)
#
#
# Indices 1 2 3 4 5 6 
#
# 1 104.4231 28.9613 58.2445 0.0000 0.0000 0.0000
# 2 28.9613 55.0940 34.7899 0.0000 0.0000 0.0000
# 3 58.2445 34.7899 125.8866 0.0000 0.0000 0.0000
# 4 0.0000 0.0000 0.0000 18.1694 0.0000 0.0000
# 5 0.0000 0.0000 0.0000 0.0000 42.2323 0.0000
# 6 0.0000 0.0000 0.0000 0.0000 0.0000 23.3792
#
#
#
# Elastic Compliance Matrix: (Units=1/GPa)
#
#
# Indices 1 2 3 4 5 6 
#
# 1 0.013544 -0.003831 -0.005208 0.000000 0.000000 0.000000
# 2 -0.003831 0.023072 -0.004604 0.000000 0.000000 0.000000
# 3 -0.005208 -0.004604 0.011625 0.000000 0.000000 0.000000
# 4 0.000000 0.000000 0.000000 0.055037 0.000000 0.000000
# 5 0.000000 0.000000 0.000000 0.000000 0.023679 0.000000
# 6 0.000000 0.000000 0.000000 0.000000 0.000000 0.042773
#
#
# Mechanical properties :
#
#
# Convention : Reuss Voigt Hill
#
# Bulk Modulus (GPa) = 47.71848 58.82169 53.27008
# Shear Modulus (GPa) = 24.50988 27.65003 26.07995
#
# Velocity S-wave (km/s) = 3.42207 3.63468 3.52998
# Velocity P-wave (km/s) = 6.19786 6.76158 6.48584
#
# Compressibility (1/GPa) = 0.02095624
#
# Stress axis : x y z
#
# Youngs Moduli (GPa) = 73.83572 43.34323 86.01955
#
# Poissons Ratio (x) = 0.16605 0.44795
# Poissons Ratio (y) = 0.28287 0.39599
# Poissons Ratio (z) = 0.38450 0.19953
#
# Static dielectric constant tensor:
#      x y z
#    x 3.918030 0.000000 0.000000 
#    y 0.000000 3.684230 0.000000 
#    z 0.000000 0.000000 3.772700 
# 
# 
# High freq. dielectric constant tensor:
#      x y z
#    x 1.827140 0.000000 0.000000 
#    y 0.000000 1.806270 0.000000 
#    z 0.000000 0.000000 1.819820 
# 
# From -- ./inp_files/12743.got.cif
#   From: 2010.03.12/outbox.cif.g09.slc.cpg/sg38_7_cif.got.tgz:12743.got - 2010.04.14 02:38:36.
