data_PCOD8177439
_publ_section_title
;
Structure prediction by ZEFSAII (Michael W. Deem and Ramdas Pophale) SiO2 
 PCOD8177439
Probable space group: A M M 2
;
_chemical_formula_sum "Si O2"
_cell_formula_units_Z 32
_cell_length_a 10.517785
_cell_length_b 8.822213
_cell_length_c 18.781576
_cell_angle_alpha 90.000000
_cell_angle_beta 90.000000
_cell_angle_gamma 90.000000
_cell_volume 1742.745058
_symmetry_space_group_name_H-M "A M M 2"
_symmetry_group_IT_number 38
_symmetry_cell_setting 'orthorhombic'
loop_
_space_group_symop_operation_xyz
x,y,z
-x,-y,z
-x,y,z
x,-y,z
x,1/2+y,1/2+z
-x,1/2-y,1/2+z
-x,1/2+y,1/2+z
x,1/2-y,1/2+z
loop_
_atom_site_type_symbol
_atom_site_label
_atom_site_fract_x
_atom_site_fract_y
_atom_site_fract_z
Si Si1 0.000000 0.826085 0.745050
Si Si2 0.742071 0.179754 0.893883
Si Si3 0.500000 0.819043 0.638071
Si Si4 0.500000 0.820777 0.983640
Si Si5 0.274025 0.675068 0.232775
Si Si6 0.000000 0.823075 0.393560
O O1 0.130541 0.799472 0.700825
O O2 0.000000 0.710059 0.809817
O O3 0.000000 0.000000 0.774998
O O4 0.624338 0.234771 0.941324
O O5 0.718704 0.240490 0.813148
O O6 0.871395 0.250890 0.926613
O O7 0.756942 0.000000 0.894140
O O8 0.500000 0.754767 0.559803
O O9 0.623159 0.751618 0.679768
O O10 0.500000 0.000000 0.633195
O O11 0.500000 0.000000 0.992087
O O12 0.309699 0.500000 0.237497
O O13 0.000000 0.000000 0.409551
#
# Coordination Sequence:
#
# PCOD8177439 Si02
#       6
#     4   8   4   4   8   4
#     4   8  14  28  49  70  93 123 163 203 235 278
#     4   9  17  33  55  74  95 128 170 206 235 283
#     4  10  19  31  47  69  99 128 158 202 248 286
#     4  10  21  35  51  71  97 132 170 204 242 290
#     4   8  14  27  50  73  89 117 161 201 235 276
#     4  10  18  28  47  78 107 125 151 199 257 300
#
# _framework density 18.361837999999999
#
# number of rings (size 3 to 8) (size 9 to 14) (size 15 to 20)
#    0.000    3.000    0.000    3.375    0.000    4.000 
#    0.000    6.250    0.000    3.000    0.000    0.000 
#    0.000    0.000    0.000    0.000    0.000    0.000 
#
# Total GULP energy -198242.903852 kJ/mol
# GULP energy per Si atom -12390.181491 kJ/mol
# Density = 1.832005 g / cm^3
# Si number density = 18.361838 Si / 1000 Ang^3
#
#
#
# Elastic Constant Matrix: (Units=GPa)
#
#
# Indices 1 2 3 4 5 6 
#
# 1 222.3296 36.9085 88.2752 0.0000 0.0000 0.0000
# 2 36.9085 33.1752 20.1313 0.0000 0.0000 0.0000
# 3 88.2752 20.1313 97.2924 0.0000 0.0000 0.0000
# 4 0.0000 0.0000 0.0000 22.0895 0.0000 0.0000
# 5 0.0000 0.0000 0.0000 0.0000 8.2525 0.0000
# 6 0.0000 0.0000 0.0000 0.0000 0.0000 16.0134
#
#
#
# Elastic Compliance Matrix: (Units=1/GPa)
#
#
# Indices 1 2 3 4 5 6 
#
# 1 0.007677 -0.004934 -0.005945 0.000000 0.000000 0.000000
# 2 -0.004934 0.037642 -0.003312 0.000000 0.000000 0.000000
# 3 -0.005945 -0.003312 0.016358 0.000000 0.000000 0.000000
# 4 0.000000 0.000000 0.000000 0.045270 0.000000 0.000000
# 5 0.000000 0.000000 0.000000 0.000000 0.121176 0.000000
# 6 0.000000 0.000000 0.000000 0.000000 0.000000 0.062448
#
#
# Mechanical properties :
#
#
# Convention : Reuss Voigt Hill
#
# Bulk Modulus (GPa) = 30.03446 71.49190 50.76318
# Shear Modulus (GPa) = 15.14918 23.10322 19.12620
#
# Velocity S-wave (km/s) = 2.87546 3.55099 3.23093
# Velocity P-wave (km/s) = 5.23611 7.47210 6.45171
#
# Compressibility (1/GPa) = 0.03329508
#
# Stress axis : x y z
#
# Youngs Moduli (GPa) = 130.25495 26.56614 61.13401
#
# Poissons Ratio (x) = 0.13107 0.36343
# Poissons Ratio (y) = 0.64265 0.20249
# Poissons Ratio (z) = 0.77435 0.08799
#
# Static dielectric constant tensor:
#      x y z
#    x 4.017070 0.000000 0.000000 
#    y 0.000000 2.967720 0.000000 
#    z 0.000000 0.000000 3.099870 
# 
# 
# High freq. dielectric constant tensor:
#      x y z
#    x 1.743580 0.000000 0.000000 
#    y 0.000000 1.671750 0.000000 
#    z 0.000000 0.000000 1.668270 
# 
# From -- ./inp_files/13339.got.cif
#   From: 2010.03.12/outbox.cif.g09.slc.cpg/sg38_7_cif.got.tgz:13339.got - 2010.04.14 02:38:36.
