data_PCOD8177442
_publ_section_title
;
Structure prediction by ZEFSAII (Michael W. Deem and Ramdas Pophale) SiO2 
 PCOD8177442
Probable space group: A M M 2
;
_chemical_formula_sum "Si O2"
_cell_formula_units_Z 48
_cell_length_a 17.471176
_cell_length_b 8.334331
_cell_length_c 15.639448
_cell_angle_alpha 90.000000
_cell_angle_beta 90.000000
_cell_angle_gamma 90.000000
_cell_volume 2277.268840
_symmetry_space_group_name_H-M "A M M 2"
_symmetry_group_IT_number 38
_symmetry_cell_setting 'orthorhombic'
loop_
_space_group_symop_operation_xyz
x,y,z
-x,-y,z
-x,y,z
x,-y,z
x,1/2+y,1/2+z
-x,1/2-y,1/2+z
-x,1/2+y,1/2+z
x,1/2-y,1/2+z
loop_
_atom_site_type_symbol
_atom_site_label
_atom_site_fract_x
_atom_site_fract_y
_atom_site_fract_z
Si Si1 0.157215 0.310845 0.903910
Si Si2 0.683948 0.186550 0.854515
Si Si3 0.584729 0.811889 0.507275
Si Si4 0.162153 0.309507 0.101027
Si Si5 0.000000 0.312604 0.421607
Si Si6 0.320302 0.189891 0.665195
Si Si7 0.000000 0.814910 0.607356
O O1 0.156755 0.500000 0.889374
O O2 0.227016 0.233031 0.852139
O O3 0.077315 0.233655 0.869477
O O4 0.170427 0.260947 0.002195
O O5 0.650668 0.231924 0.760435
O O6 0.673971 0.000000 0.873738
O O7 0.636403 0.282509 0.924569
O O8 0.500000 0.735701 0.495610
O O9 0.622911 0.737540 0.593243
O O10 0.577226 0.000000 0.519690
O O11 0.158668 0.500000 0.108559
O O12 0.234827 0.237477 0.151129
O O13 0.081086 0.238081 0.139305
O O14 0.000000 0.500000 0.444901
O O15 0.000000 0.199460 0.504684
O O16 0.314617 0.000000 0.652451
O O17 0.000000 0.000000 0.632923
#
# Coordination Sequence:
#
# PCOD8177442 Si02
#       7
#     8   8   8   8   4   8   4
#     4  10  18  33  56  78 110 156 202 235 276 343
#     4  11  22  35  57  89 121 147 183 241 298 337
#     4  10  21  40  64  84 108 150 197 233 277 352
#     4   8  13  26  50  75 101 139 189 230 263 322
#     4  10  18  28  47  80 117 148 192 248 295 327
#     4   9  18  34  56  83 112 147 190 232 278 344
#     4   8  14  24  45  76 103 140 190 234 277 333
#
# _framework density 21.077878999999999
#
# number of rings (size 3 to 8) (size 9 to 14) (size 15 to 20)
#    0.000    2.500    1.667    2.750    0.000    1.000 
#    0.000    4.167    0.000    3.000    0.000    0.000 
#    0.000    0.000    0.000    0.000    0.000    0.000 
#
# Total GULP energy -297369.603303 kJ/mol
# GULP energy per Si atom -12390.400138 kJ/mol
# Density = 2.102991 g / cm^3
# Si number density = 21.077879 Si / 1000 Ang^3
#
#
#
# Elastic Constant Matrix: (Units=GPa)
#
#
# Indices 1 2 3 4 5 6 
#
# 1 168.0790 2.8116 56.4309 0.0000 0.0000 0.0000
# 2 2.8116 22.7254 9.4120 0.0000 0.0000 0.0000
# 3 56.4309 9.4120 99.9156 0.0000 0.0000 0.0000
# 4 0.0000 0.0000 0.0000 17.2079 0.0000 0.0000
# 5 0.0000 0.0000 0.0000 0.0000 9.5181 0.0000
# 6 0.0000 0.0000 0.0000 0.0000 0.0000 19.4162
#
#
#
# Elastic Compliance Matrix: (Units=1/GPa)
#
#
# Indices 1 2 3 4 5 6 
#
# 1 0.007357 0.000844 -0.004235 0.000000 0.000000 0.000000
# 2 0.000844 0.045887 -0.004799 0.000000 0.000000 0.000000
# 3 -0.004235 -0.004799 0.012852 0.000000 0.000000 0.000000
# 4 0.000000 0.000000 0.000000 0.058113 0.000000 0.000000
# 5 0.000000 0.000000 0.000000 0.000000 0.105063 0.000000
# 6 0.000000 0.000000 0.000000 0.000000 0.000000 0.051503
#
#
# Mechanical properties :
#
#
# Convention : Reuss Voigt Hill
#
# Bulk Modulus (GPa) = 20.11421 47.55877 33.83649
# Shear Modulus (GPa) = 15.93740 24.03281 19.98510
#
# Velocity S-wave (km/s) = 2.75275 3.38033 3.08255
# Velocity P-wave (km/s) = 4.43475 6.15206 5.36260
#
# Compressibility (1/GPa) = 0.04971608
#
# Stress axis : x y z
#
# Youngs Moduli (GPa) = 135.92045 21.79276 77.80747
#
# Poissons Ratio (x) = -0.01839 0.32949
# Poissons Ratio (y) = -0.11467 0.37340
# Poissons Ratio (z) = 0.57559 0.10458
#
# Static dielectric constant tensor:
#      x y z
#    x 4.452370 0.000000 0.000000 
#    y 0.000000 3.294280 0.000000 
#    z 0.000000 0.000000 3.589530 
# 
# 
# High freq. dielectric constant tensor:
#      x y z
#    x 1.843320 0.000000 0.000000 
#    y 0.000000 1.782330 0.000000 
#    z 0.000000 0.000000 1.801920 
# 
# From -- ./inp_files/15056.got.cif
#   From: 2010.03.12/outbox.cif.g09.slc.cpg/sg38_8_cif.got.tgz:15056.got - 2010.04.14 02:38:36.
