data_PCOD8177115
_publ_section_title
;
Structure prediction by ZEFSAII (Michael W. Deem and Ramdas Pophale) SiO2 
 PCOD8177115
Probable space group: C C C 2
;
_chemical_formula_sum "Si O2"
_cell_formula_units_Z 60
_cell_length_a 11.238455
_cell_length_b 8.422570
_cell_length_c 27.171082
_cell_angle_alpha 90.000000
_cell_angle_beta 90.000000
_cell_angle_gamma 90.000000
_cell_volume 2571.924249
_symmetry_space_group_name_H-M "C C C 2"
_symmetry_group_IT_number 37
_symmetry_cell_setting 'orthorhombic'
loop_
_space_group_symop_operation_xyz
x,y,z
-x,-y,z
-x,y,1/2+z
x,-y,1/2+z
1/2+x,1/2+y,z
1/2-x,1/2-y,z
1/2-x,1/2+y,1/2+z
1/2+x,1/2-y,1/2+z
loop_
_atom_site_type_symbol
_atom_site_label
_atom_site_fract_x
_atom_site_fract_y
_atom_site_fract_z
Si Si1 0.337502 0.897080 0.610240
Si Si2 0.000000 0.500000 0.855661
Si Si3 0.516170 0.749035 0.188807
Si Si4 0.368122 0.043736 0.998439
Si Si5 0.339166 0.106166 0.271169
Si Si6 0.575257 0.283219 0.426534
Si Si7 0.694716 0.455819 0.191614
Si Si8 0.818912 0.894988 0.431801
O O1 0.250000 0.750000 0.604241
O O2 0.458428 0.844306 0.638283
O O3 0.367457 0.962564 0.556939
O O4 0.277542 0.032876 0.643596
O O5 0.112893 0.552953 0.823737
O O6 0.053244 0.352373 0.885960
O O7 0.547619 0.848261 0.237409
O O8 0.598764 0.595367 0.189256
O O9 0.375250 0.711283 0.190761
O O10 0.500000 0.000000 0.979036
O O11 0.350023 0.216873 0.973285
O O12 0.267100 0.923601 0.978718
O O13 0.250000 0.250000 0.280359
O O14 0.268656 0.967905 0.242241
O O15 0.448342 0.337437 0.448395
O O16 0.653791 0.433756 0.404616
O O17 0.750000 0.750000 0.401730
#
# Coordination Sequence:
#
# PCOD8177115 Si02
#       8
#     8   4   8   8   8   8   8   8
#     4   9  18  32  58  93 128 174 221 271 325 388
#     4  12  24  46  70 106 132 166 228 288 360 422
#     4   8  15  34  61  89 132 175 225 267 323 399
#     4  12  23  42  65  97 139 178 227 284 342 404
#     4   9  20  39  66  94 134 174 217 282 337 403
#     4  11  25  44  70  98 130 180 224 283 355 413
#     4   8  15  34  60  91 128 181 221 267 329 390
#     4  11  23  46  71  92 131 175 225 279 342 417
#
# _framework density 23.328837
#
# number of rings (size 3 to 8) (size 9 to 14) (size 15 to 20)
#    0.000    2.133    2.000    2.800    0.000    2.667 
#    4.800   14.000    0.000    0.000    0.000    0.000 
#    0.000    0.000    0.000    0.000    0.000    0.000 
#
# Total GULP energy -371666.181175 kJ/mol
# GULP energy per Si atom -12388.872706 kJ/mol
# Density = 2.327574 g / cm^3
# Si number density = 23.328837 Si / 1000 Ang^3
#
#
#
# Elastic Constant Matrix: (Units=GPa)
#
#
# Indices 1 2 3 4 5 6 
#
# 1 147.6530 58.5613 57.4739 0.0000 0.0000 0.0000
# 2 58.5613 137.3858 59.2298 0.0000 0.0000 0.0000
# 3 57.4739 59.2298 137.8034 0.0000 0.0000 0.0000
# 4 0.0000 0.0000 0.0000 15.4739 0.0000 0.0000
# 5 0.0000 0.0000 0.0000 0.0000 24.6468 0.0000
# 6 0.0000 0.0000 0.0000 0.0000 0.0000 45.7953
#
#
#
# Elastic Compliance Matrix: (Units=1/GPa)
#
#
# Indices 1 2 3 4 5 6 
#
# 1 0.008815 -0.002667 -0.002530 0.000000 0.000000 0.000000
# 2 -0.002667 0.009741 -0.003075 0.000000 0.000000 0.000000
# 3 -0.002530 -0.003075 0.009634 0.000000 0.000000 0.000000
# 4 0.000000 0.000000 0.000000 0.064625 0.000000 0.000000
# 5 0.000000 0.000000 0.000000 0.000000 0.040573 0.000000
# 6 0.000000 0.000000 0.000000 0.000000 0.000000 0.021836
#
#
# Mechanical properties :
#
#
# Convention : Reuss Voigt Hill
#
# Bulk Modulus (GPa) = 85.86316 85.93027 85.89671
# Shear Modulus (GPa) = 28.46575 33.68835 31.07705
#
# Velocity S-wave (km/s) = 3.49692 3.80421 3.65380
# Velocity P-wave (km/s) = 7.29315 7.49735 7.39596
#
# Compressibility (1/GPa) = 0.01164644
#
# Stress axis : x y z
#
# Youngs Moduli (GPa) = 113.44010 102.65922 103.80326
#
# Poissons Ratio (x) = 0.27375 0.26267
# Poissons Ratio (y) = 0.30250 0.31916
# Poissons Ratio (z) = 0.28705 0.31564
#
# Static dielectric constant tensor:
#      x y z
#    x 4.541720 0.000000 0.000000 
#    y 0.000000 4.668850 0.000000 
#    z 0.000000 0.000000 3.852320 
# 
# 
# High freq. dielectric constant tensor:
#      x y z
#    x 1.951950 0.000000 0.000000 
#    y 0.000000 1.937050 0.000000 
#    z 0.000000 0.000000 1.884790 
# 
# From -- ./inp_files/19789.got.cif
#   From: 2010.03.12/outbox.cif.g09.slc.cpg/sg37_10_cif.got.tgz:19789.got - 2010.04.14 02:25:27.
