data_PCOD8177678
_publ_section_title
;
Structure prediction by ZEFSAII (Michael W. Deem and Ramdas Pophale) SiO2 
 PCOD8177678
Probable space group: A M M 2
;
_chemical_formula_sum "Si O2"
_cell_formula_units_Z 64
_cell_length_a 8.806471
_cell_length_b 29.058480
_cell_length_c 12.771741
_cell_angle_alpha 90.000000
_cell_angle_beta 90.000000
_cell_angle_gamma 90.000000
_cell_volume 3268.322513
_symmetry_space_group_name_H-M "A M M 2"
_symmetry_group_IT_number 38
_symmetry_cell_setting 'orthorhombic'
loop_
_space_group_symop_operation_xyz
x,y,z
-x,-y,z
-x,y,z
x,-y,z
x,1/2+y,1/2+z
-x,1/2-y,1/2+z
-x,1/2+y,1/2+z
x,1/2-y,1/2+z
loop_
_atom_site_type_symbol
_atom_site_label
_atom_site_fract_x
_atom_site_fract_y
_atom_site_fract_z
Si Si1 0.675268 0.079896 0.446510
Si Si2 0.820531 0.398962 0.152312
Si Si3 0.678866 0.049233 0.230835
Si Si4 0.180135 0.446331 0.367148
Si Si5 0.820914 0.799148 0.142989
Si Si6 0.319010 0.886119 0.052126
Si Si7 0.170836 0.166970 0.370859
Si Si8 0.170952 0.799330 0.591470
O O1 0.500000 0.071002 0.470941
O O2 0.765175 0.070478 0.553772
O O3 0.738513 0.048779 0.350731
O O4 0.701250 0.130772 0.401950
O O5 0.765004 0.424167 0.257275
O O6 0.754046 0.346512 0.139094
O O7 0.000000 0.396928 0.146195
O O8 0.500000 0.056854 0.235536
O O9 0.746527 0.088846 0.156839
O O10 0.721339 0.000000 0.180109
O O11 0.232561 0.500000 0.373967
O O12 0.256888 0.414770 0.454453
O O13 0.000000 0.443090 0.378737
O O14 0.743197 0.834168 0.060069
O O15 0.780348 0.810530 0.262289
O O16 0.749669 0.748044 0.127992
O O17 0.000000 0.800199 0.120004
O O18 0.500000 0.885939 0.045264
O O19 0.172785 0.203542 0.465224
O O20 0.000000 0.145440 0.362973
O O21 0.000000 0.798735 0.634972
#
# Coordination Sequence:
#
# PCOD8177678 Si02
#       8
#     8   8   8   8   8   8   8   8
#     4  10  18  31  53  78 105 138 177 223 273 327
#     4   9  19  37  58  79 110 147 184 228 281 339
#     4   9  18  32  50  74 104 138 174 214 264 323
#     4  10  22  40  61  85 115 152 193 239 289 341
#     4  10  19  32  54  80 107 143 191 240 284 333
#     4  11  22  37  56  79 111 149 190 233 282 340
#     4   9  17  31  51  74 106 142 178 224 278 333
#     4   8  16  31  52  79 106 143 190 232 278 337
#
# _framework density 19.581911000000002
#
# number of rings (size 3 to 8) (size 9 to 14) (size 15 to 20)
#    0.000    2.500    1.250    1.875    0.000    2.750 
#    0.000    6.250    0.000    4.875    0.000    0.000 
#    0.000    0.000    0.000    0.000    0.000    0.000 
#
# Total GULP energy -396457.152693 kJ/mol
# GULP energy per Si atom -12389.286022 kJ/mol
# Density = 1.953734 g / cm^3
# Si number density = 19.581911 Si / 1000 Ang^3
#
#
#
# Elastic Constant Matrix: (Units=GPa)
#
#
# Indices 1 2 3 4 5 6 
#
# 1 23.7608 16.2300 26.5895 0.0000 0.0000 0.0000
# 2 16.2300 99.5595 49.9155 0.0000 0.0000 0.0000
# 3 26.5895 49.9155 122.1303 0.0000 0.0000 0.0000
# 4 0.0000 0.0000 0.0000 28.0776 0.0000 0.0000
# 5 0.0000 0.0000 0.0000 0.0000 24.2357 0.0000
# 6 0.0000 0.0000 0.0000 0.0000 0.0000 16.2967
#
#
#
# Elastic Compliance Matrix: (Units=1/GPa)
#
#
# Indices 1 2 3 4 5 6 
#
# 1 0.056791 -0.003847 -0.010792 0.000000 0.000000 0.000000
# 2 -0.003847 0.012893 -0.004432 0.000000 0.000000 0.000000
# 3 -0.010792 -0.004432 0.012349 0.000000 0.000000 0.000000
# 4 0.000000 0.000000 0.000000 0.035616 0.000000 0.000000
# 5 0.000000 0.000000 0.000000 0.000000 0.041261 0.000000
# 6 0.000000 0.000000 0.000000 0.000000 0.000000 0.061362
#
#
# Mechanical properties :
#
#
# Convention : Reuss Voigt Hill
#
# Bulk Modulus (GPa) = 22.78378 47.88007 35.33193
# Shear Modulus (GPa) = 18.31202 23.90304 21.10753
#
# Velocity S-wave (km/s) = 3.06134 3.49760 3.28672
# Velocity P-wave (km/s) = 4.91489 6.38868 5.69962
#
# Compressibility (1/GPa) = 0.04389087
#
# Stress axis : x y z
#
# Youngs Moduli (GPa) = 17.60853 77.55853 80.97891
#
# Poissons Ratio (x) = 0.29839 0.87390
# Poissons Ratio (y) = 0.06775 0.35890
# Poissons Ratio (z) = 0.19003 0.34374
#
# Static dielectric constant tensor:
#      x y z
#    x 3.230020 0.000000 0.000000 
#    y 0.000000 3.772670 0.000000 
#    z 0.000000 0.000000 3.816760 
# 
# 
# High freq. dielectric constant tensor:
#      x y z
#    x 1.726650 0.000000 0.000000 
#    y 0.000000 1.762510 0.000000 
#    z 0.000000 0.000000 1.770280 
# 
# From -- ./inp_files/8526.got.cif
#   From: 2010.03.12/outbox.cif.g09.slc.cpg/sg38_5_cif.got.tgz:8526.got - 2010.04.14 02:38:36.
