data_PCOD8177767
_publ_section_title
;
Structure prediction by ZEFSAII (Michael W. Deem and Ramdas Pophale) SiO2 
 PCOD8177767
Probable space group: A M M 2
;
_chemical_formula_sum "Si O2"
_cell_formula_units_Z 56
_cell_length_a 17.109910
_cell_length_b 18.990583
_cell_length_c 9.489288
_cell_angle_alpha 90.000000
_cell_angle_beta 90.000000
_cell_angle_gamma 90.000000
_cell_volume 3083.327457
_symmetry_space_group_name_H-M "A M M 2"
_symmetry_group_IT_number 38
_symmetry_cell_setting 'orthorhombic'
loop_
_space_group_symop_operation_xyz
x,y,z
-x,-y,z
-x,y,z
x,-y,z
x,1/2+y,1/2+z
-x,1/2-y,1/2+z
-x,1/2+y,1/2+z
x,1/2-y,1/2+z
loop_
_atom_site_type_symbol
_atom_site_label
_atom_site_fract_x
_atom_site_fract_y
_atom_site_fract_z
Si Si1 0.589620 0.696997 0.511100
Si Si2 0.908061 0.193183 0.912950
Si Si3 0.711546 0.356187 0.716284
Si Si4 0.821391 0.228900 0.642596
Si Si5 0.322189 0.657357 0.021550
Si Si6 0.645489 0.083646 0.795405
Si Si7 0.206597 0.423062 0.473297
O O1 0.500000 0.714415 0.542832
O O2 0.628301 0.667432 0.652874
O O3 0.633584 0.770504 0.475625
O O4 0.593565 0.638087 0.387298
O O5 0.870306 0.255667 0.002270
O O6 0.871159 0.122454 0.974737
O O7 0.000000 0.191099 0.932084
O O8 0.885297 0.200296 0.750689
O O9 0.774540 0.293437 0.712130
O O10 0.746279 0.418621 0.620804
O O11 0.695725 0.382930 0.875030
O O12 0.759127 0.170519 0.599993
O O13 0.367751 0.606317 0.131446
O O14 0.622931 0.000000 0.814967
O O15 0.734502 0.097328 0.846264
O O16 0.173884 0.500000 0.452152
#
# Coordination Sequence:
#
# PCOD8177767 Si02
#       7
#     8   8   8   8   8   8   8
#     4  10  21  36  55  82 114 150 187 226 278 338
#     4  11  20  31  52  79 108 141 179 229 283 330
#     4   9  19  32  54  75 104 143 179 223 269 319
#     4  10  18  33  49  78 110 141 178 224 278 328
#     4  11  19  33  58  83 110 147 186 237 277 329
#     4  10  21  37  58  83 112 148 187 231 284 336
#     4   9  19  36  53  73 102 141 185 219 264 336
#
# _framework density 18.162196000000002
#
# number of rings (size 3 to 8) (size 9 to 14) (size 15 to 20)
#    0.000    2.000    2.857    3.000    0.000    3.429 
#    0.000    0.000    0.000    0.000    0.000    2.000 
#    0.000    0.000    0.000    0.000    0.000    0.000 
#
# Total GULP energy -346988.897624 kJ/mol
# GULP energy per Si atom -12392.460629 kJ/mol
# Density = 1.812086 g / cm^3
# Si number density = 18.162196 Si / 1000 Ang^3
#
#
#
# Elastic Constant Matrix: (Units=GPa)
#
#
# Indices 1 2 3 4 5 6 
#
# 1 89.7464 17.7160 12.7155 0.0000 0.0000 0.0000
# 2 17.7160 61.7498 25.6082 0.0000 0.0000 0.0000
# 3 12.7155 25.6082 115.2405 0.0000 0.0000 0.0000
# 4 0.0000 0.0000 0.0000 19.5581 0.0000 0.0000
# 5 0.0000 0.0000 0.0000 0.0000 18.7177 0.0000
# 6 0.0000 0.0000 0.0000 0.0000 0.0000 12.0408
#
#
#
# Elastic Compliance Matrix: (Units=1/GPa)
#
#
# Indices 1 2 3 4 5 6 
#
# 1 0.011850 -0.003148 -0.000608 0.000000 0.000000 0.000000
# 2 -0.003148 0.018674 -0.003802 0.000000 0.000000 0.000000
# 3 -0.000608 -0.003802 0.009590 0.000000 0.000000 0.000000
# 4 0.000000 0.000000 0.000000 0.051130 0.000000 0.000000
# 5 0.000000 0.000000 0.000000 0.000000 0.053425 0.000000
# 6 0.000000 0.000000 0.000000 0.000000 0.000000 0.083051
#
#
# Mechanical properties :
#
#
# Convention : Reuss Voigt Hill
#
# Bulk Modulus (GPa) = 40.00365 42.09068 41.04716
# Shear Modulus (GPa) = 19.90692 24.10978 22.00835
#
# Velocity S-wave (km/s) = 3.31428 3.64740 3.48482
# Velocity P-wave (km/s) = 6.05966 6.40025 6.23228
#
# Compressibility (1/GPa) = 0.02499772
#
# Stress axis : x y z
#
# Youngs Moduli (GPa) = 84.38822 53.54940 104.28012
#
# Poissons Ratio (x) = 0.16855 0.06341
# Poissons Ratio (y) = 0.26562 0.39652
# Poissons Ratio (z) = 0.05131 0.20362
#
# Static dielectric constant tensor:
#      x y z
#    x 3.115000 0.000000 0.000000 
#    y 0.000000 3.178230 0.000000 
#    z 0.000000 0.000000 3.414810 
# 
# 
# High freq. dielectric constant tensor:
#      x y z
#    x 1.686360 0.000000 0.000000 
#    y 0.000000 1.681230 0.000000 
#    z 0.000000 0.000000 1.712660 
# 
# From -- ./inp_files/5742.got.cif
#   From: 2010.03.12/outbox.cif.g09.slc.cpg/sg38_3_cif.got.tgz:5742.got - 2010.04.14 02:38:36.
