data_PCOD8177698
_publ_section_title
;
Structure prediction by ZEFSAII (Michael W. Deem and Ramdas Pophale) SiO2 
 PCOD8177698
Probable space group: A M M 2
;
_chemical_formula_sum "Si O2"
_cell_formula_units_Z 48
_cell_length_a 18.908938
_cell_length_b 7.816512
_cell_length_c 15.374414
_cell_angle_alpha 90.000000
_cell_angle_beta 90.000000
_cell_angle_gamma 90.000000
_cell_volume 2272.368228
_symmetry_space_group_name_H-M "A M M 2"
_symmetry_group_IT_number 38
_symmetry_cell_setting 'orthorhombic'
loop_
_space_group_symop_operation_xyz
x,y,z
-x,-y,z
-x,y,z
x,-y,z
x,1/2+y,1/2+z
-x,1/2-y,1/2+z
-x,1/2+y,1/2+z
x,1/2-y,1/2+z
loop_
_atom_site_type_symbol
_atom_site_label
_atom_site_fract_x
_atom_site_fract_y
_atom_site_fract_z
Si Si1 0.579058 0.000000 0.300520
Si Si2 0.673315 0.189260 0.799152
Si Si3 0.822422 0.699744 0.848894
Si Si4 0.420587 0.000000 0.093261
Si Si5 0.922246 0.304731 0.699824
Si Si6 0.678025 0.195688 0.595133
Si Si7 0.833496 0.803663 0.542925
O O1 0.618718 0.169671 0.335314
O O2 0.500000 0.000000 0.339023
O O3 0.576839 0.000000 0.196932
O O4 0.747861 0.204405 0.847405
O O5 0.687300 0.217438 0.697680
O O6 0.641686 0.000000 0.816969
O O7 0.807565 0.500000 0.831276
O O8 0.874263 0.780238 0.775630
O O9 0.857285 0.729488 0.943574
O O10 0.381170 0.172230 0.059994
O O11 0.500000 0.000000 0.055037
O O12 0.932563 0.500000 0.726411
O O13 0.884852 0.299596 0.606168
O O14 0.000000 0.216251 0.695914
O O15 0.751984 0.251691 0.552624
O O16 0.656909 0.000000 0.570202
O O17 0.841292 0.000000 0.570103
#
# Coordination Sequence:
#
# PCOD8177698 Si02
#       7
#     4   8   8   4   8   8   8
#     4   9  18  32  52  82 118 155 192 243 307 356
#     4  10  18  31  55  83 113 151 198 248 293 351
#     4  10  20  36  59  84 115 155 203 246 290 355
#     4   9  18  30  52  84 114 155 194 233 305 360
#     4  10  22  38  58  85 119 155 191 241 304 357
#     4   9  18  32  53  82 114 147 195 250 289 345
#     4  10  21  36  58  87 112 152 203 244 292 351
#
# _framework density 21.123338
#
# number of rings (size 3 to 8) (size 9 to 14) (size 15 to 20)
#    0.000    2.333    2.500    0.000    1.167    2.333 
#    0.000    5.000    0.000    1.000    0.000    0.000 
#    0.000    0.000    0.000    0.000    0.000    0.000 
#
# Total GULP energy -297574.172703 kJ/mol
# GULP energy per Si atom -12398.923863 kJ/mol
# Density = 2.107526 g / cm^3
# Si number density = 21.123338 Si / 1000 Ang^3
#
#
#
# Elastic Constant Matrix: (Units=GPa)
#
#
# Indices 1 2 3 4 5 6 
#
# 1 158.8503 54.7880 45.5588 0.0000 0.0000 0.0000
# 2 54.7880 98.3318 24.9716 0.0000 0.0000 0.0000
# 3 45.5588 24.9716 77.9580 0.0000 0.0000 0.0000
# 4 0.0000 0.0000 0.0000 17.4428 0.0000 0.0000
# 5 0.0000 0.0000 0.0000 0.0000 7.9188 0.0000
# 6 0.0000 0.0000 0.0000 0.0000 0.0000 15.6137
#
#
#
# Elastic Compliance Matrix: (Units=1/GPa)
#
#
# Indices 1 2 3 4 5 6 
#
# 1 0.008746 -0.003892 -0.003865 0.000000 0.000000 0.000000
# 2 -0.003892 0.012802 -0.001826 0.000000 0.000000 0.000000
# 3 -0.003865 -0.001826 0.015671 0.000000 0.000000 0.000000
# 4 0.000000 0.000000 0.000000 0.057330 0.000000 0.000000
# 5 0.000000 0.000000 0.000000 0.000000 0.126281 0.000000
# 6 0.000000 0.000000 0.000000 0.000000 0.000000 0.064046
#
#
# Mechanical properties :
#
#
# Convention : Reuss Voigt Hill
#
# Bulk Modulus (GPa) = 55.39111 65.08633 60.23872
# Shear Modulus (GPa) = 16.12596 22.18318 19.15457
#
# Velocity S-wave (km/s) = 2.76600 3.24415 3.01457
# Velocity P-wave (km/s) = 6.03992 6.70165 6.37937
#
# Compressibility (1/GPa) = 0.01805344
#
# Stress axis : x y z
#
# Youngs Moduli (GPa) = 114.34068 78.11432 63.81247
#
# Poissons Ratio (x) = 0.30398 0.24660
# Poissons Ratio (y) = 0.44496 0.11655
# Poissons Ratio (z) = 0.44187 0.14267
#
# Static dielectric constant tensor:
#      x y z
#    x 3.905390 0.000000 0.000000 
#    y 0.000000 3.804220 0.000000 
#    z 0.000000 0.000000 3.546180 
# 
# 
# High freq. dielectric constant tensor:
#      x y z
#    x 1.815250 0.000000 0.000000 
#    y 0.000000 1.821960 0.000000 
#    z 0.000000 0.000000 1.810410 
# 
# From -- ./inp_files/15022.got.cif
#   From: 2010.03.12/outbox.cif.g09.slc.cpg/sg38_8_cif.got.tgz:15022.got - 2010.04.14 02:38:36.
