data_PCOD8177204
_publ_section_title
;
Structure prediction by ZEFSAII (Michael W. Deem and Ramdas Pophale) SiO2 
 PCOD8177204
Probable space group: A M M 2
;
_chemical_formula_sum "Si O2"
_cell_formula_units_Z 64
_cell_length_a 8.652567
_cell_length_b 30.343902
_cell_length_c 14.806475
_cell_angle_alpha 90.000000
_cell_angle_beta 90.000000
_cell_angle_gamma 90.000000
_cell_volume 3887.479176
_symmetry_space_group_name_H-M "A M M 2"
_symmetry_group_IT_number 38
_symmetry_cell_setting 'orthorhombic'
loop_
_space_group_symop_operation_xyz
x,y,z
-x,-y,z
-x,y,z
x,-y,z
x,1/2+y,1/2+z
-x,1/2-y,1/2+z
-x,1/2+y,1/2+z
x,1/2-y,1/2+z
loop_
_atom_site_type_symbol
_atom_site_label
_atom_site_fract_x
_atom_site_fract_y
_atom_site_fract_z
Si Si1 0.682788 0.364997 0.443350
Si Si2 0.673487 0.675149 0.257323
Si Si3 0.683778 0.048062 0.859949
Si Si4 0.326837 0.222250 0.274507
Si Si5 0.316358 0.789460 0.472762
Si Si6 0.318264 0.450136 0.153939
Si Si7 0.685701 0.295739 0.582552
Si Si8 0.178812 0.364965 0.088022
O O1 0.500000 0.366909 0.451761
O O2 0.731501 0.336726 0.356708
O O3 0.748055 0.414866 0.429696
O O4 0.748737 0.339393 0.530661
O O5 0.500000 0.656195 0.239087
O O6 0.671440 0.726953 0.248446
O O7 0.791452 0.654758 0.186603
O O8 0.500000 0.046390 0.863664
O O9 0.731964 0.060107 0.757444
O O10 0.751126 0.000000 0.887335
O O11 0.500000 0.203912 0.283806
O O12 0.244030 0.213071 0.370721
O O13 0.248875 0.200055 0.185427
O O14 0.500000 0.785281 0.467829
O O15 0.252123 0.748528 0.532396
O O16 0.270327 0.836345 0.514245
O O17 0.500000 0.444447 0.142129
O O18 0.268210 0.500000 0.128396
O O19 0.234231 0.415878 0.086876
O O20 0.500000 0.293859 0.583439
O O21 0.000000 0.362788 0.063700
#
# Coordination Sequence:
#
# PCOD8177204 Si02
#       8
#     8   8   8   8   8   8   8   8
#     4   9  14  21  39  66  91 115 147 188 232 270
#     4  10  16  27  47  66  88 120 157 194 226 265
#     4   8  13  21  37  63  91 117 146 179 217 266
#     4   9  16  26  44  68  87 110 153 202 238 267
#     4  10  18  30  48  65  85 116 156 197 234 276
#     4   9  17  31  51  70  88 116 155 194 230 272
#     4   9  15  23  41  68  89 109 150 200 238 271
#     4  12  23  31  42  66  98 129 155 183 228 278
#
# _framework density 16.46311
#
# number of rings (size 3 to 8) (size 9 to 14) (size 15 to 20)
#    0.000    2.500    3.750    1.875    0.000    0.250 
#    0.000    0.625    0.000    0.000    0.000    0.875 
#    0.000    5.000    0.000    0.000    0.000    0.000 
#
# Total GULP energy -396464.720113 kJ/mol
# GULP energy per Si atom -12389.522504 kJ/mol
# Density = 1.642564 g / cm^3
# Si number density = 16.463110 Si / 1000 Ang^3
#
#
#
# Elastic Constant Matrix: (Units=GPa)
#
#
# Indices 1 2 3 4 5 6 
#
# 1 14.9972 6.4707 7.6960 0.0000 0.0000 0.0000
# 2 6.4707 105.2684 47.9048 0.0000 0.0000 0.0000
# 3 7.6960 47.9048 94.5337 0.0000 0.0000 0.0000
# 4 0.0000 0.0000 0.0000 26.6993 0.0000 0.0000
# 5 0.0000 0.0000 0.0000 0.0000 3.9014 0.0000
# 6 0.0000 0.0000 0.0000 0.0000 0.0000 6.2326
#
#
#
# Elastic Compliance Matrix: (Units=1/GPa)
#
#
# Indices 1 2 3 4 5 6 
#
# 1 0.069984 -0.002221 -0.004572 0.000000 0.000000 0.000000
# 2 -0.002221 0.012417 -0.006112 0.000000 0.000000 0.000000
# 3 -0.004572 -0.006112 0.014047 0.000000 0.000000 0.000000
# 4 0.000000 0.000000 0.000000 0.037454 0.000000 0.000000
# 5 0.000000 0.000000 0.000000 0.000000 0.256319 0.000000
# 6 0.000000 0.000000 0.000000 0.000000 0.000000 0.160446
#
#
# Mechanical properties :
#
#
# Convention : Reuss Voigt Hill
#
# Bulk Modulus (GPa) = 14.15647 37.66024 25.90836
# Shear Modulus (GPa) = 8.33300 17.54851 12.94076
#
# Velocity S-wave (km/s) = 2.25225 3.26840 2.80669
# Velocity P-wave (km/s) = 3.92187 6.09659 5.12589
#
# Compressibility (1/GPa) = 0.07063910
#
# Stress axis : x y z
#
# Youngs Moduli (GPa) = 14.28905 80.53293 71.18717
#
# Poissons Ratio (x) = 0.17889 0.32545
# Poissons Ratio (y) = 0.03174 0.43507
# Poissons Ratio (z) = 0.06533 0.49218
#
# Static dielectric constant tensor:
#      x y z
#    x 2.558920 0.000000 0.000000 
#    y 0.000000 3.401830 0.000000 
#    z 0.000000 0.000000 3.206770 
# 
# 
# High freq. dielectric constant tensor:
#      x y z
#    x 1.577100 0.000000 0.000000 
#    y 0.000000 1.632730 0.000000 
#    z 0.000000 0.000000 1.614470 
# 
# From -- ./inp_files/13131.got.cif
#   From: 2010.03.12/outbox.cif.g09.slc.cpg/sg38_7_cif.got.tgz:13131.got - 2010.04.14 02:38:36.
