data_PCOD8177110
_publ_section_title
;
Structure prediction by ZEFSAII (Michael W. Deem and Ramdas Pophale) SiO2 
 PCOD8177110
Probable space group: C C C 2
;
_chemical_formula_sum "Si O2"
_cell_formula_units_Z 48
_cell_length_a 25.515646
_cell_length_b 8.431251
_cell_length_c 9.928507
_cell_angle_alpha 90.000000
_cell_angle_beta 90.000000
_cell_angle_gamma 90.000000
_cell_volume 2135.907954
_symmetry_space_group_name_H-M "C C C 2"
_symmetry_group_IT_number 37
_symmetry_cell_setting 'orthorhombic'
loop_
_space_group_symop_operation_xyz
x,y,z
-x,-y,z
-x,y,1/2+z
x,-y,1/2+z
1/2+x,1/2+y,z
1/2-x,1/2-y,z
1/2-x,1/2+y,1/2+z
1/2+x,1/2-y,1/2+z
loop_
_atom_site_type_symbol
_atom_site_label
_atom_site_fract_x
_atom_site_fract_y
_atom_site_fract_z
Si Si1 0.055549 0.952451 0.576300
Si Si2 0.726468 0.581949 0.378677
Si Si3 0.947155 0.402628 0.478509
Si Si4 0.770930 0.423355 0.141194
Si Si5 0.613640 0.986632 0.237341
Si Si6 0.389984 0.630819 0.842084
O O1 0.045642 0.779501 0.514693
O O2 0.097378 0.953924 0.698977
O O3 0.069581 0.078290 0.458425
O O4 0.000000 0.000000 0.640388
O O5 0.750000 0.750000 0.334041
O O6 0.728721 0.473902 0.248543
O O7 0.760349 0.493027 0.496582
O O8 0.665055 0.585908 0.409849
O O9 0.911390 0.393857 0.344688
O O10 0.919323 0.492884 0.601094
O O11 0.000000 0.500000 0.445335
O O12 0.750000 0.250000 0.099879
O O13 0.828739 0.451606 0.197604
O O14 0.611557 0.817938 0.312570
#
# Coordination Sequence:
#
# PCOD8177110 Si02
#       6
#     8   8   8   8   8   8
#     4  11  25  44  68 103 136 179 232 283 344 407
#     4  11  23  44  66  99 138 179 223 278 342 397
#     4  11  25  43  69 101 136 183 227 284 344 409
#     4  11  25  42  68 100 133 182 224 281 334 409
#     4  11  24  44  69  99 140 179 229 280 344 406
#     4  11  24  44  70 100 138 182 225 288 338 409
#
# _framework density 22.472878999999999
#
# number of rings (size 3 to 8) (size 9 to 14) (size 15 to 20)
#    0.000    1.000    1.667    4.000    4.667    6.000 
#    0.000    0.000    0.000    0.000    0.000    0.000 
#    0.000    0.000    0.000    0.000    0.000    0.000 
#
# Total GULP energy -297439.727236 kJ/mol
# GULP energy per Si atom -12393.321968 kJ/mol
# Density = 2.242173 g / cm^3
# Si number density = 22.472879 Si / 1000 Ang^3
#
#
#
# Elastic Constant Matrix: (Units=GPa)
#
#
# Indices 1 2 3 4 5 6 
#
# 1 137.4295 34.7686 41.9816 0.0000 0.0000 0.0000
# 2 34.7686 53.5058 29.1203 0.0000 0.0000 0.0000
# 3 41.9816 29.1203 128.1741 0.0000 0.0000 0.0000
# 4 0.0000 0.0000 0.0000 27.5901 0.0000 0.0000
# 5 0.0000 0.0000 0.0000 0.0000 50.7605 0.0000
# 6 0.0000 0.0000 0.0000 0.0000 0.0000 35.4967
#
#
#
# Elastic Compliance Matrix: (Units=1/GPa)
#
#
# Indices 1 2 3 4 5 6 
#
# 1 0.009082 -0.004887 -0.001865 0.000000 0.000000 0.000000
# 2 -0.004887 0.023956 -0.003842 0.000000 0.000000 0.000000
# 3 -0.001865 -0.003842 0.009285 0.000000 0.000000 0.000000
# 4 0.000000 0.000000 0.000000 0.036245 0.000000 0.000000
# 5 0.000000 0.000000 0.000000 0.000000 0.019700 0.000000
# 6 0.000000 0.000000 0.000000 0.000000 0.000000 0.028172
#
#
# Mechanical properties :
#
#
# Convention : Reuss Voigt Hill
#
# Bulk Modulus (GPa) = 47.31061 58.98340 53.14700
# Shear Modulus (GPa) = 32.32608 36.98537 34.65573
#
# Velocity S-wave (km/s) = 3.79680 4.06122 3.93124
# Velocity P-wave (km/s) = 6.34972 6.94945 6.65634
#
# Compressibility (1/GPa) = 0.02113691
#
# Stress axis : x y z
#
# Youngs Moduli (GPa) = 110.10282 41.74279 107.69529
#
# Poissons Ratio (x) = 0.20400 0.20080
# Poissons Ratio (y) = 0.53808 0.41377
# Poissons Ratio (z) = 0.20529 0.16038
#
# Static dielectric constant tensor:
#      x y z
#    x 4.007940 0.000000 0.000000 
#    y 0.000000 3.958700 0.000000 
#    z 0.000000 0.000000 4.284920 
# 
# 
# High freq. dielectric constant tensor:
#      x y z
#    x 1.894710 0.000000 0.000000 
#    y 0.000000 1.873370 0.000000 
#    z 0.000000 0.000000 1.910400 
# 
# From -- ./inp_files/4953.got.cif
#   From: 2010.03.12/outbox.cif.g09.slc.cpg/sg37_3_cif.got.tgz:4953.got - 2010.04.14 02:25:27.
