data_PCOD8177640
_publ_section_title
;
Structure prediction by ZEFSAII (Michael W. Deem and Ramdas Pophale) SiO2 
 PCOD8177640
Probable space group: A M M 2
;
_chemical_formula_sum "Si O2"
_cell_formula_units_Z 56
_cell_length_a 17.822847
_cell_length_b 9.177905
_cell_length_c 19.039346
_cell_angle_alpha 90.000000
_cell_angle_beta 90.000000
_cell_angle_gamma 90.000000
_cell_volume 3114.387612
_symmetry_space_group_name_H-M "A M M 2"
_symmetry_group_IT_number 38
_symmetry_cell_setting 'orthorhombic'
loop_
_space_group_symop_operation_xyz
x,y,z
-x,-y,z
-x,y,z
x,-y,z
x,1/2+y,1/2+z
-x,1/2-y,1/2+z
-x,1/2+y,1/2+z
x,1/2-y,1/2+z
loop_
_atom_site_type_symbol
_atom_site_label
_atom_site_fract_x
_atom_site_fract_y
_atom_site_fract_z
Si Si1 0.309050 0.161497 0.728470
Si Si2 0.415027 0.172460 0.988707
Si Si3 0.414570 0.842095 0.148050
Si Si4 0.266354 0.829529 0.464223
Si Si5 0.803219 0.669173 0.818178
Si Si6 0.194528 0.161022 0.603968
Si Si7 0.086621 0.173318 0.720005
O O1 0.388210 0.228416 0.706717
O O2 0.271816 0.267269 0.784402
O O3 0.262997 0.155527 0.656996
O O4 0.319156 0.000000 0.760734
O O5 0.500000 0.219491 0.963944
O O6 0.403842 0.218841 0.069551
O O7 0.406848 0.000000 0.978630
O O8 0.346739 0.252242 0.947792
O O9 0.500000 0.867825 0.164604
O O10 0.373227 0.000000 0.155081
O O11 0.207180 0.806196 0.401206
O O12 0.223493 0.759978 0.532716
O O13 0.284096 0.000000 0.475801
O O14 0.811691 0.500000 0.799076
O O15 0.876040 0.753639 0.788626
O O16 0.124820 0.233446 0.647360
O O17 0.168376 0.000000 0.581168
O O18 0.000000 0.216101 0.718643
O O19 0.100287 0.000000 0.725976
#
# Coordination Sequence:
#
# PCOD8177640 Si02
#       7
#     8   8   8   8   8   8   8
#     4  10  18  31  51  72  96 129 171 216 253 299
#     4   9  18  31  48  73 104 137 172 214 264 310
#     4   9  17  29  46  71 102 132 165 211 267 315
#     4  10  19  33  51  75 105 137 174 216 257 303
#     4  10  21  34  51  75 106 139 170 208 257 309
#     4   8  15  29  50  75  98 122 161 208 250 294
#     4   9  18  35  58  80 103 133 169 210 255 308
#
# _framework density 17.981062999999999
#
# number of rings (size 3 to 8) (size 9 to 14) (size 15 to 20)
#    0.000    2.714    1.429    2.571    0.000    2.000 
#    0.000    2.857    0.000    3.429    0.000    0.000 
#    0.000    0.000    0.000    0.000    0.000    0.000 
#
# Total GULP energy -346896.653419 kJ/mol
# GULP energy per Si atom -12389.166194 kJ/mol
# Density = 1.794014 g / cm^3
# Si number density = 17.981063 Si / 1000 Ang^3
#
#
#
# Elastic Constant Matrix: (Units=GPa)
#
#
# Indices 1 2 3 4 5 6 
#
# 1 99.0049 35.4474 39.0567 0.0000 0.0000 0.0000
# 2 35.4474 58.6521 28.3530 0.0000 0.0000 0.0000
# 3 39.0567 28.3530 78.8180 0.0000 0.0000 0.0000
# 4 0.0000 0.0000 0.0000 21.4135 0.0000 0.0000
# 5 0.0000 0.0000 0.0000 0.0000 20.4727 0.0000
# 6 0.0000 0.0000 0.0000 0.0000 0.0000 27.4094
#
#
#
# Elastic Compliance Matrix: (Units=1/GPa)
#
#
# Indices 1 2 3 4 5 6 
#
# 1 0.014245 -0.006291 -0.004796 0.000000 0.000000 0.000000
# 2 -0.006291 0.023417 -0.005306 0.000000 0.000000 0.000000
# 3 -0.004796 -0.005306 0.016973 0.000000 0.000000 0.000000
# 4 0.000000 0.000000 0.000000 0.046699 0.000000 0.000000
# 5 0.000000 0.000000 0.000000 0.000000 0.048846 0.000000
# 6 0.000000 0.000000 0.000000 0.000000 0.000000 0.036484
#
#
# Mechanical properties :
#
#
# Convention : Reuss Voigt Hill
#
# Bulk Modulus (GPa) = 45.76978 49.13214 47.45096
# Shear Modulus (GPa) = 22.05250 22.76699 22.40974
#
# Velocity S-wave (km/s) = 3.50584 3.56218 3.53412
# Velocity P-wave (km/s) = 6.47283 6.65602 6.56506
#
# Compressibility (1/GPa) = 0.02184848
#
# Stress axis : x y z
#
# Youngs Moduli (GPa) = 70.20149 42.70441 58.91802
#
# Poissons Ratio (x) = 0.26864 0.28255
# Poissons Ratio (y) = 0.44162 0.31264
# Poissons Ratio (z) = 0.33667 0.22661
#
# Static dielectric constant tensor:
#      x y z
#    x 3.273720 0.000000 0.000000 
#    y 0.000000 3.359510 0.000000 
#    z 0.000000 0.000000 3.265190 
# 
# 
# High freq. dielectric constant tensor:
#      x y z
#    x 1.684690 0.000000 0.000000 
#    y 0.000000 1.682780 0.000000 
#    z 0.000000 0.000000 1.680120 
# 
# From -- ./inp_files/18803.got.cif
#   From: 2010.03.12/outbox.cif.g09.slc.cpg/sg38_10_cif.got.tgz:18803.got - 2010.04.14 02:38:36.
