data_PCOD8177063
_publ_section_title
;
Structure prediction by ZEFSAII (Michael W. Deem and Ramdas Pophale) SiO2 
 PCOD8177063
Probable space group: C C C 2
;
_chemical_formula_sum "Si O2"
_cell_formula_units_Z 40
_cell_length_a 4.931649
_cell_length_b 25.069941
_cell_length_c 13.730277
_cell_angle_alpha 90.000000
_cell_angle_beta 90.000000
_cell_angle_gamma 90.000000
_cell_volume 1697.558579
_symmetry_space_group_name_H-M "C C C 2"
_symmetry_group_IT_number 37
_symmetry_cell_setting 'orthorhombic'
loop_
_space_group_symop_operation_xyz
x,y,z
-x,-y,z
-x,y,1/2+z
x,-y,1/2+z
1/2+x,1/2+y,z
1/2-x,1/2-y,z
1/2-x,1/2+y,1/2+z
1/2+x,1/2-y,1/2+z
loop_
_atom_site_type_symbol
_atom_site_label
_atom_site_fract_x
_atom_site_fract_y
_atom_site_fract_z
Si Si1 0.840026 0.808768 0.420340
Si Si2 0.180739 0.652019 0.529492
Si Si3 0.840159 0.879150 0.235192
Si Si4 0.153930 0.450309 0.755562
Si Si5 0.751843 0.031619 0.472115
O O1 0.750000 0.750000 0.389947
O O2 0.622068 0.836702 0.492018
O O3 0.922468 0.840075 0.322508
O O4 0.117557 0.805540 0.480843
O O5 0.224849 0.655887 0.645482
O O6 0.262723 0.592243 0.503366
O O7 0.583574 0.909373 0.279225
O O8 0.091103 0.919112 0.204453
O O9 0.268874 0.473419 0.855751
O O10 0.000000 0.500000 0.698102
O O11 0.500000 0.000000 0.516082
O O12 0.000000 0.000000 0.519298
#
# Coordination Sequence:
#
# PCOD8177063 Si02
#       5
#     8   8   8   8   8
#     4  12  26  48  71  97 136 180 233 299 355 399
#     4  12  26  45  71 104 137 179 234 282 347 417
#     4  12  24  45  70 103 138 180 229 285 342 415
#     4  11  22  40  69 102 141 184 223 270 338 413
#     4  11  21  38  65  98 138 180 217 263 327 406
#
# _framework density 23.563251999999999
#
# number of rings (size 3 to 8) (size 9 to 14) (size 15 to 20)
#    0.000    0.400    4.000    6.000    0.000    4.000 
#    0.000    0.000    0.000    0.000    0.000    0.000 
#    0.000    0.000    0.000    0.000    0.000    0.000 
#
# Total GULP energy -247866.941918 kJ/mol
# GULP energy per Si atom -12393.347096 kJ/mol
# Density = 2.350962 g / cm^3
# Si number density = 23.563252 Si / 1000 Ang^3
#
#
#
# Elastic Constant Matrix: (Units=GPa)
#
#
# Indices 1 2 3 4 5 6 
#
# 1 127.6843 29.7142 16.2821 0.0000 0.0000 0.0000
# 2 29.7142 89.6115 14.4095 0.0000 0.0000 0.0000
# 3 16.2821 14.4095 107.6946 0.0000 0.0000 0.0000
# 4 0.0000 0.0000 0.0000 7.9052 0.0000 0.0000
# 5 0.0000 0.0000 0.0000 0.0000 9.0328 0.0000
# 6 0.0000 0.0000 0.0000 0.0000 0.0000 44.8150
#
#
#
# Elastic Compliance Matrix: (Units=1/GPa)
#
#
# Indices 1 2 3 4 5 6 
#
# 1 0.008578 -0.002694 -0.000936 0.000000 0.000000 0.000000
# 2 -0.002694 0.012251 -0.001232 0.000000 0.000000 0.000000
# 3 -0.000936 -0.001232 0.009592 0.000000 0.000000 0.000000
# 4 0.000000 0.000000 0.000000 0.126498 0.000000 0.000000
# 5 0.000000 0.000000 0.000000 0.000000 0.110708 0.000000
# 6 0.000000 0.000000 0.000000 0.000000 0.000000 0.022314
#
#
# Mechanical properties :
#
#
# Convention : Reuss Voigt Hill
#
# Bulk Modulus (GPa) = 48.31769 49.53354 48.92562
# Shear Modulus (GPa) = 16.30979 29.98956 23.14968
#
# Velocity S-wave (km/s) = 2.63377 3.57140 3.13780
# Velocity P-wave (km/s) = 5.45885 6.17039 5.82549
#
# Compressibility (1/GPa) = 0.02069635
#
# Stress axis : x y z
#
# Youngs Moduli (GPa) = 116.57543 81.62858 104.25437
#
# Poissons Ratio (x) = 0.21989 0.09763
# Poissons Ratio (y) = 0.31404 0.12843
# Poissons Ratio (z) = 0.10917 0.10055
#
# Static dielectric constant tensor:
#      x y z
#    x 4.522110 0.000000 0.000000 
#    y 0.000000 4.114840 0.000000 
#    z 0.000000 0.000000 4.232630 
# 
# 
# High freq. dielectric constant tensor:
#      x y z
#    x 1.953950 0.000000 0.000000 
#    y 0.000000 1.923630 0.000000 
#    z 0.000000 0.000000 1.922420 
# 
# From -- ./inp_files/9619.got.cif
#   From: 2010.03.12/outbox.cif.g09.slc.cpg/sg37_5_cif.got.tgz:9619.got - 2010.04.14 02:25:27.
