data_PCOD8177489
_publ_section_title
;
Structure prediction by ZEFSAII (Michael W. Deem and Ramdas Pophale) SiO2 
 PCOD8177489
Probable space group: A M M 2
;
_chemical_formula_sum "Si O2"
_cell_formula_units_Z 64
_cell_length_a 14.765516
_cell_length_b 9.154268
_cell_length_c 24.825110
_cell_angle_alpha 90.000000
_cell_angle_beta 90.000000
_cell_angle_gamma 90.000000
_cell_volume 3355.547823
_symmetry_space_group_name_H-M "A M M 2"
_symmetry_group_IT_number 38
_symmetry_cell_setting 'orthorhombic'
loop_
_space_group_symop_operation_xyz
x,y,z
-x,-y,z
-x,y,z
x,-y,z
x,1/2+y,1/2+z
-x,1/2-y,1/2+z
-x,1/2+y,1/2+z
x,1/2-y,1/2+z
loop_
_atom_site_type_symbol
_atom_site_label
_atom_site_fract_x
_atom_site_fract_y
_atom_site_fract_z
Si Si1 0.768036 0.327460 0.169960
Si Si2 0.601967 0.830331 0.127288
Si Si3 0.641350 0.828747 0.006682
Si Si4 0.790067 0.333105 0.860718
Si Si5 0.597916 0.830623 0.401344
Si Si6 0.186984 0.336559 0.980732
Si Si7 0.904662 0.168159 0.584722
Si Si8 0.104445 0.672769 0.268380
O O1 0.751856 0.500000 0.170944
O O2 0.669487 0.252661 0.168359
O O3 0.819406 0.266371 0.116604
O O4 0.831242 0.276152 0.219407
O O5 0.500000 0.801706 0.148111
O O6 0.627396 0.000000 0.129553
O O7 0.608284 0.774623 0.065425
O O8 0.588263 0.748951 0.958677
O O9 0.745801 0.789072 0.000017
O O10 0.624718 0.000000 0.000268
O O11 0.791625 0.500000 0.840091
O O12 0.684720 0.276272 0.866150
O O13 0.839593 0.316909 0.918522
O O14 0.849097 0.234829 0.821671
O O15 0.500000 0.807439 0.371488
O O16 0.615772 0.000000 0.413601
O O17 0.229180 0.500000 0.988699
O O18 0.101622 0.317526 0.020025
O O19 0.000000 0.242971 0.601746
O O20 0.908868 0.000000 0.602800
O O21 0.103382 0.500000 0.273051
O O22 0.000000 0.729133 0.261611
#
# Coordination Sequence:
#
# PCOD8177489 Si02
#       8
#     8   8   8   8   8   8   8   8
#     4  10  20  36  58  80 104 136 181 229 268 314
#     4  10  21  35  51  76 112 149 180 213 263 324
#     4  10  18  29  48  75 111 149 182 214 256 314
#     4   9  19  34  54  81 110 140 180 225 266 314
#     4   9  18  33  53  78 109 144 183 224 263 309
#     4   9  17  31  51  77 109 142 179 219 262 313
#     4   9  16  28  51  80 106 134 170 216 269 318
#     4  10  22  40  60  81 105 137 179 226 275 325
#
# _framework density 19.072892
#
# number of rings (size 3 to 8) (size 9 to 14) (size 15 to 20)
#    0.000    2.500    1.250    1.875    0.000    6.250 
#    0.000    1.875    0.000    4.500    0.000    0.000 
#    0.000    0.000    0.000    0.000    0.000    0.000 
#
# Total GULP energy -396431.512827 kJ/mol
# GULP energy per Si atom -12388.484776 kJ/mol
# Density = 1.902948 g / cm^3
# Si number density = 19.072892 Si / 1000 Ang^3
#
#
#
# Elastic Constant Matrix: (Units=GPa)
#
#
# Indices 1 2 3 4 5 6 
#
# 1 137.9913 31.6301 57.2707 0.0000 0.0000 0.0000
# 2 31.6301 33.4496 27.2751 0.0000 0.0000 0.0000
# 3 57.2707 27.2751 95.0780 0.0000 0.0000 0.0000
# 4 0.0000 0.0000 0.0000 27.6417 0.0000 0.0000
# 5 0.0000 0.0000 0.0000 0.0000 19.7062 0.0000
# 6 0.0000 0.0000 0.0000 0.0000 0.0000 21.8813
#
#
#
# Elastic Compliance Matrix: (Units=1/GPa)
#
#
# Indices 1 2 3 4 5 6 
#
# 1 0.010585 -0.006279 -0.004575 0.000000 0.000000 0.000000
# 2 -0.006279 0.042749 -0.008481 0.000000 0.000000 0.000000
# 3 -0.004575 -0.008481 0.015706 0.000000 0.000000 0.000000
# 4 0.000000 0.000000 0.000000 0.036177 0.000000 0.000000
# 5 0.000000 0.000000 0.000000 0.000000 0.050745 0.000000
# 6 0.000000 0.000000 0.000000 0.000000 0.000000 0.045701
#
#
# Mechanical properties :
#
#
# Convention : Reuss Voigt Hill
#
# Bulk Modulus (GPa) = 32.92685 55.43007 44.17846
# Shear Modulus (GPa) = 19.96360 23.86871 21.91615
#
# Velocity S-wave (km/s) = 3.23878 3.54142 3.39348
# Velocity P-wave (km/s) = 5.59352 6.77108 6.21027
#
# Compressibility (1/GPa) = 0.03037035
#
# Stress axis : x y z
#
# Youngs Moduli (GPa) = 94.47688 23.39253 63.66911
#
# Poissons Ratio (x) = 0.14688 0.29125
# Poissons Ratio (y) = 0.59320 0.54000
# Poissons Ratio (z) = 0.43218 0.19840
#
# Static dielectric constant tensor:
#      x y z
#    x 3.695190 0.000000 0.000000 
#    y 0.000000 3.224580 0.000000 
#    z 0.000000 0.000000 3.370360 
# 
# 
# High freq. dielectric constant tensor:
#      x y z
#    x 1.751020 0.000000 0.000000 
#    y 0.000000 1.713170 0.000000 
#    z 0.000000 0.000000 1.724200 
# 
# From -- ./inp_files/22955.got.cif
#   From: 2010.03.12/outbox.cif.g09.slc.cpg/sg38_12_cif.got.tgz:22955.got - 2010.04.14 02:38:36.
