data_PCOD8177307
_publ_section_title
;
Structure prediction by ZEFSAII (Michael W. Deem and Ramdas Pophale) SiO2 
 PCOD8177307
Probable space group: A M M 2
;
_chemical_formula_sum "Si O2"
_cell_formula_units_Z 48
_cell_length_a 9.103924
_cell_length_b 18.403102
_cell_length_c 15.449308
_cell_angle_alpha 90.000000
_cell_angle_beta 90.000000
_cell_angle_gamma 90.000000
_cell_volume 2588.383890
_symmetry_space_group_name_H-M "A M M 2"
_symmetry_group_IT_number 38
_symmetry_cell_setting 'orthorhombic'
loop_
_space_group_symop_operation_xyz
x,y,z
-x,-y,z
-x,y,z
x,-y,z
x,1/2+y,1/2+z
-x,1/2-y,1/2+z
-x,1/2+y,1/2+z
x,1/2-y,1/2+z
loop_
_atom_site_type_symbol
_atom_site_label
_atom_site_fract_x
_atom_site_fract_y
_atom_site_fract_z
Si Si1 0.666303 0.730765 0.759240
Si Si2 0.666473 0.395885 0.295181
Si Si3 0.673237 0.842937 0.427678
Si Si4 0.173088 0.000000 0.674640
Si Si5 0.671324 0.000000 0.495127
Si Si6 0.676071 0.774519 0.066889
Si Si7 0.326328 0.578260 0.485165
O O1 0.500000 0.704325 0.744770
O O2 0.673996 0.810053 0.799137
O O3 0.740248 0.679410 0.833255
O O4 0.742280 0.731415 0.664414
O O5 0.500000 0.422393 0.278112
O O6 0.767525 0.427380 0.219862
O O7 0.728318 0.424101 0.386353
O O8 0.500000 0.829420 0.424259
O O9 0.711115 0.927553 0.441339
O O10 0.735362 0.791333 0.505587
O O11 0.226401 0.000000 0.577353
O O12 0.000000 0.000000 0.677224
O O13 0.500000 0.000000 0.522096
O O14 0.500000 0.770901 0.068494
O O15 0.739508 0.852205 0.034383
O O16 0.500000 0.587970 0.484861
O O17 0.281681 0.500000 0.528017
#
# Coordination Sequence:
#
# PCOD8177307 Si02
#       7
#     8   8   8   4   4   8   8
#     4   9  16  26  45  73 101 132 167 207 253 295
#     4  10  17  30  52  73  97 131 168 203 250 309
#     4   9  16  28  45  70 102 132 167 211 251 296
#     4  12  24  34  48  75 106 130 164 217 264 303
#     4  10  20  34  52  73 100 136 174 207 250 307
#     4   9  15  24  38  62  98 131 159 200 251 293
#     4   9  15  24  40  64  93 124 160 199 240 297
#
# _framework density 18.544388000000001
#
# number of rings (size 3 to 8) (size 9 to 14) (size 15 to 20)
#    0.000    2.500    2.500    1.750    0.000    2.667 
#    1.500    0.000    0.000    1.000    0.000    0.000 
#    0.000    1.333    0.000    0.000    0.000    0.000 
#
# Total GULP energy -297360.772730 kJ/mol
# GULP energy per Si atom -12390.032197 kJ/mol
# Density = 1.850218 g / cm^3
# Si number density = 18.544388 Si / 1000 Ang^3
#
#
#
# Elastic Constant Matrix: (Units=GPa)
#
#
# Indices 1 2 3 4 5 6 
#
# 1 31.1905 10.5489 14.8952 0.0000 0.0000 0.0000
# 2 10.5489 145.1056 70.8575 0.0000 0.0000 0.0000
# 3 14.8952 70.8575 137.1757 0.0000 0.0000 0.0000
# 4 0.0000 0.0000 0.0000 28.8875 0.0000 0.0000
# 5 0.0000 0.0000 0.0000 0.0000 1.6941 0.0000
# 6 0.0000 0.0000 0.0000 0.0000 0.0000 -4.4563
#
#
#
# Elastic Compliance Matrix: (Units=1/GPa)
#
#
# Indices 1 2 3 4 5 6 
#
# 1 0.033901 -0.000892 -0.003220 0.000000 0.000000 0.000000
# 2 -0.000892 0.009240 -0.004676 0.000000 0.000000 0.000000
# 3 -0.003220 -0.004676 0.010055 0.000000 0.000000 0.000000
# 4 0.000000 0.000000 0.000000 0.034617 0.000000 0.000000
# 5 0.000000 0.000000 0.000000 0.000000 0.590277 0.000000
# 6 0.000000 0.000000 0.000000 0.000000 0.000000 -0.224401
#
#
# Mechanical properties :
#
#
# Convention : Reuss Voigt Hill
#
# Bulk Modulus (GPa) = 28.07502 56.23057 42.15280
# Shear Modulus (GPa) = 10.34903 19.70308 15.02605
#
# Velocity S-wave (km/s) = 2.36491 3.26311 2.84962
# Velocity P-wave (km/s) = 4.75702 6.67721 5.79717
#
# Compressibility (1/GPa) = 0.03561885
#
# Stress axis : x y z
#
# Youngs Moduli (GPa) = 29.49798 108.22887 99.45402
#
# Poissons Ratio (x) = 0.09654 0.32028
# Poissons Ratio (y) = 0.02631 0.46503
# Poissons Ratio (z) = 0.09499 0.50606
#
# Static dielectric constant tensor:
#      x y z
#    x 2.596730 0.000000 0.000000 
#    y 0.000000 3.651070 0.000000 
#    z 0.000000 0.000000 3.647200 
# 
# 
# High freq. dielectric constant tensor:
#      x y z
#    x 1.622380 0.000000 0.000000 
#    y 0.000000 1.736420 0.000000 
#    z 0.000000 0.000000 1.726040 
# 
# From -- ./inp_files/12155.got.cif
#   From: 2010.03.12/outbox.cif.g09.slc.cpg/sg38_7_cif.got.tgz:12155.got - 2010.04.14 02:38:36.
