data_PCOD8177194
_publ_section_title
;
Structure prediction by ZEFSAII (Michael W. Deem and Ramdas Pophale) SiO2 
 PCOD8177194
Probable space group: A M M 2
;
_chemical_formula_sum "Si O2"
_cell_formula_units_Z 52
_cell_length_a 29.494171
_cell_length_b 18.199265
_cell_length_c 5.264259
_cell_angle_alpha 90.000000
_cell_angle_beta 90.000000
_cell_angle_gamma 90.000000
_cell_volume 2825.708064
_symmetry_space_group_name_H-M "A M M 2"
_symmetry_group_IT_number 38
_symmetry_cell_setting 'orthorhombic'
loop_
_space_group_symop_operation_xyz
x,y,z
-x,-y,z
-x,y,z
x,-y,z
x,1/2+y,1/2+z
-x,1/2-y,1/2+z
-x,1/2+y,1/2+z
x,1/2-y,1/2+z
loop_
_atom_site_type_symbol
_atom_site_label
_atom_site_fract_x
_atom_site_fract_y
_atom_site_fract_z
Si Si1 0.183156 0.914609 0.018050
Si Si2 0.052603 0.704298 0.018085
Si Si3 0.401395 0.664018 0.018003
Si Si4 0.873041 0.414605 0.018052
Si Si5 0.637033 0.672720 0.518004
Si Si6 0.500000 0.298787 0.018057
Si Si7 0.742760 0.295376 0.518041
O O1 0.155046 0.893017 0.268000
O O2 0.230121 0.871183 0.018068
O O3 0.196053 0.000000 0.018051
O O4 0.155051 0.893015 0.768083
O O5 0.065612 0.750007 0.768100
O O6 0.000000 0.682589 0.018076
O O7 0.079998 0.628784 0.018063
O O8 0.378336 0.627694 0.768601
O O9 0.390303 0.750802 0.017951
O O10 0.455336 0.650174 0.018049
O O11 0.378322 0.627698 0.267372
O O12 0.885879 0.500000 0.018062
O O13 0.690113 0.685931 0.518063
O O14 0.500000 0.249995 0.768068
O O15 0.756015 0.250008 0.268023
#
# Coordination Sequence:
#
# PCOD8177194 Si02
#       7
#     8   8   8   8   8   4   8
#     4  10  23  39  53  75 107 138 169 217 264 297
#     4  10  21  36  57  85 115 141 169 211 261 301
#     4  10  16  25  36  54  88 119 152 188 239 291
#     4  10  21  39  58  76 104 141 176 210 254 303
#     4  10  16  27  38  56  87 115 149 195 241 278
#     4  12  16  20  34  52  74 124 156 174 224 306
#     4  12  21  32  52  76  95 128 176 207 250 305
#
# _framework density 18.402467999999999
#
# number of rings (size 3 to 8) (size 9 to 14) (size 15 to 20)
#    0.000    1.538    6.154    1.846    0.000    4.000 
#    0.000    0.000    0.000    5.538    0.000    0.000 
#    0.000    0.000    0.000    7.615    0.000    0.308 
#
# Total GULP energy -322353.741710 kJ/mol
# GULP energy per Si atom -12398.220835 kJ/mol
# Density = 1.836058 g / cm^3
# Si number density = 18.402468 Si / 1000 Ang^3
#
#
#
# Elastic Constant Matrix: (Units=GPa)
#
#
# Indices 1 2 3 4 5 6 
#
# 1 110.4787 58.5001 44.0728 0.0000 0.0000 0.0000
# 2 58.5001 49.8738 32.5895 0.0000 0.0000 0.0000
# 3 44.0728 32.5895 195.5987 0.0000 0.0000 0.0000
# 4 0.0000 0.0000 0.0000 6.0111 0.0000 0.0000
# 5 0.0000 0.0000 0.0000 0.0000 12.2678 0.0000
# 6 0.0000 0.0000 0.0000 0.0000 0.0000 -1.8833
#
#
#
# Elastic Compliance Matrix: (Units=1/GPa)
#
#
# Indices 1 2 3 4 5 6 
#
# 1 0.024001 -0.027627 -0.000805 0.000000 0.000000 0.000000
# 2 -0.027627 0.054300 -0.002822 0.000000 0.000000 0.000000
# 3 -0.000805 -0.002822 0.005764 0.000000 0.000000 0.000000
# 4 0.000000 0.000000 0.000000 0.166359 0.000000 0.000000
# 5 0.000000 0.000000 0.000000 0.000000 0.081514 0.000000
# 6 0.000000 0.000000 0.000000 0.000000 0.000000 -0.530974
#
#
# Mechanical properties :
#
#
# Convention : Reuss Voigt Hill
#
# Bulk Modulus (GPa) = 46.38768 69.58622 57.98695
# Shear Modulus (GPa) = -38.65739 17.99836 -10.32951
#
# Velocity S-wave (km/s) = -4.58827 3.13076 -2.37177
# Velocity P-wave (km/s) = 1.67559 7.13894 4.90698
#
# Compressibility (1/GPa) = 0.02155745
#
# Stress axis : x y z
#
# Youngs Moduli (GPa) = 41.66419 18.41627 173.48690
#
# Poissons Ratio (x) = 0.50878 0.13967
# Poissons Ratio (y) = 1.15104 0.48961
# Poissons Ratio (z) = 0.03354 0.05197
#
# Static dielectric constant tensor:
#      x y z
#    x 3.400400 0.000000 0.000000 
#    y 0.000000 2.827110 0.000000 
#    z 0.000000 0.000000 6.155910 
# 
# 
# High freq. dielectric constant tensor:
#      x y z
#    x 1.722790 0.000000 0.000000 
#    y 0.000000 1.647690 0.000000 
#    z 0.000000 0.000000 1.753560 
# 
# From -- ./inp_files/2224.got.cif
#   From: 2010.03.12/outbox.cif.g09.slc.cpg/sg38_2_cif.got.tgz:2224.got - 2010.04.14 02:38:36.
