data_PCOD8177934
_publ_section_title
;
Structure prediction by ZEFSAII (Michael W. Deem and Ramdas Pophale) SiO2 
 PCOD8177934
Probable space group: A M M 2
;
_chemical_formula_sum "Si O2"
_cell_formula_units_Z 64
_cell_length_a 13.810738
_cell_length_b 17.999845
_cell_length_c 15.248829
_cell_angle_alpha 90.000000
_cell_angle_beta 90.000000
_cell_angle_gamma 90.000000
_cell_volume 3790.723836
_symmetry_space_group_name_H-M "A M M 2"
_symmetry_group_IT_number 38
_symmetry_cell_setting 'orthorhombic'
loop_
_space_group_symop_operation_xyz
x,y,z
-x,-y,z
-x,y,z
x,-y,z
x,1/2+y,1/2+z
-x,1/2-y,1/2+z
-x,1/2+y,1/2+z
x,1/2-y,1/2+z
loop_
_atom_site_type_symbol
_atom_site_label
_atom_site_fract_x
_atom_site_fract_y
_atom_site_fract_z
Si Si1 0.799855 0.584733 0.410350
Si Si2 0.885932 0.802594 0.772587
Si Si3 0.605501 0.088162 0.990804
Si Si4 0.886523 0.807354 0.576455
Si Si5 0.610600 0.586882 0.689187
Si Si6 0.885846 0.859114 0.081427
Si Si7 0.795420 0.143959 0.263959
Si Si8 0.111386 0.916289 0.430773
O O1 0.802204 0.500000 0.376328
O O2 0.854969 0.635328 0.341196
O O3 0.689485 0.614087 0.423840
O O4 0.853023 0.586463 0.504256
O O5 0.861938 0.833066 0.675500
O O6 0.826040 0.727565 0.788991
O O7 0.000000 0.784967 0.783550
O O8 0.500000 0.118118 0.959045
O O9 0.627120 0.115731 0.089536
O O10 0.603146 0.000000 0.994398
O O11 0.847578 0.724131 0.559803
O O12 0.840913 0.863724 0.505771
O O13 0.000000 0.808785 0.562097
O O14 0.500000 0.601231 0.717924
O O15 0.636548 0.500000 0.697683
O O16 0.679530 0.635552 0.752554
O O17 0.843636 0.885553 0.174213
O O18 0.000000 0.859972 0.090920
O O19 0.828810 0.090733 0.341768
O O20 0.000000 0.894947 0.411682
O O21 0.119968 0.000000 0.465846
#
# Coordination Sequence:
#
# PCOD8177934 Si02
#       8
#     8   8   8   8   8   8   8   8
#     4  11  21  32  49  76 103 132 171 214 260 308
#     4  10  21  35  50  69  99 142 177 207 251 299
#     4   8  15  30  50  72 100 131 161 198 252 313
#     4   8  17  34  49  61  85 128 176 207 236 285
#     4   9  17  31  52  77 105 134 164 206 259 311
#     4  10  19  30  46  68  98 132 162 199 249 305
#     4  11  19  32  50  72 100 132 167 200 247 316
#     4  10  19  29  45  69  95 125 163 207 246 286
#
# _framework density 16.883319
#
# number of rings (size 3 to 8) (size 9 to 14) (size 15 to 20)
#    0.000    2.375    1.250    4.125    0.000    3.000 
#    0.000    1.875    0.000    0.000    0.000    0.875 
#    0.000    2.000    0.000    0.000    0.000    0.000 
#
# Total GULP energy -396692.242723 kJ/mol
# GULP energy per Si atom -12396.632585 kJ/mol
# Density = 1.684489 g / cm^3
# Si number density = 16.883319 Si / 1000 Ang^3
#
#
#
# Elastic Constant Matrix: (Units=GPa)
#
#
# Indices 1 2 3 4 5 6 
#
# 1 88.9707 33.7039 29.6722 0.0000 0.0000 0.0000
# 2 33.7039 57.1012 27.5335 0.0000 0.0000 0.0000
# 3 29.6722 27.5335 69.0118 0.0000 0.0000 0.0000
# 4 0.0000 0.0000 0.0000 17.7985 0.0000 0.0000
# 5 0.0000 0.0000 0.0000 0.0000 21.2310 0.0000
# 6 0.0000 0.0000 0.0000 0.0000 0.0000 20.9874
#
#
#
# Elastic Compliance Matrix: (Units=1/GPa)
#
#
# Indices 1 2 3 4 5 6 
#
# 1 0.015187 -0.007201 -0.003657 0.000000 0.000000 0.000000
# 2 -0.007201 0.025099 -0.006917 0.000000 0.000000 0.000000
# 3 -0.003657 -0.006917 0.018822 0.000000 0.000000 0.000000
# 4 0.000000 0.000000 0.000000 0.056184 0.000000 0.000000
# 5 0.000000 0.000000 0.000000 0.000000 0.047101 0.000000
# 6 0.000000 0.000000 0.000000 0.000000 0.000000 0.047648
#
#
# Mechanical properties :
#
#
# Convention : Reuss Voigt Hill
#
# Bulk Modulus (GPa) = 42.44901 44.10032 43.27466
# Shear Modulus (GPa) = 19.72822 20.28166 20.00494
#
# Velocity S-wave (km/s) = 3.42205 3.46971 3.44596
# Velocity P-wave (km/s) = 6.38835 6.49840 6.44361
#
# Compressibility (1/GPa) = 0.02355768
#
# Stress axis : x y z
#
# Youngs Moduli (GPa) = 65.84542 39.84287 53.12817
#
# Poissons Ratio (x) = 0.28690 0.19428
# Poissons Ratio (y) = 0.47414 0.36751
# Poissons Ratio (z) = 0.24079 0.27561
#
# Static dielectric constant tensor:
#      x y z
#    x 3.296750 0.000000 0.000000 
#    y 0.000000 3.064650 0.000000 
#    z 0.000000 0.000000 3.171240 
# 
# 
# High freq. dielectric constant tensor:
#      x y z
#    x 1.635510 0.000000 0.000000 
#    y 0.000000 1.633650 0.000000 
#    z 0.000000 0.000000 1.643480 
# 
# From -- ./inp_files/14769.got.cif
#   From: 2010.03.12/outbox.cif.g09.slc.cpg/sg38_8_cif.got.tgz:14769.got - 2010.04.14 02:38:36.
