data_PCOD8177340
_publ_section_title
;
Structure prediction by ZEFSAII (Michael W. Deem and Ramdas Pophale) SiO2 
 PCOD8177340
Probable space group: A M M 2
;
_chemical_formula_sum "Si O2"
_cell_formula_units_Z 56
_cell_length_a 8.930372
_cell_length_b 21.777397
_cell_length_c 17.930549
_cell_angle_alpha 90.000000
_cell_angle_beta 90.000000
_cell_angle_gamma 90.000000
_cell_volume 3487.137767
_symmetry_space_group_name_H-M "A M M 2"
_symmetry_group_IT_number 38
_symmetry_cell_setting 'orthorhombic'
loop_
_space_group_symop_operation_xyz
x,y,z
-x,-y,z
-x,y,z
x,-y,z
x,1/2+y,1/2+z
-x,1/2-y,1/2+z
-x,1/2+y,1/2+z
x,1/2-y,1/2+z
loop_
_atom_site_type_symbol
_atom_site_label
_atom_site_fract_x
_atom_site_fract_y
_atom_site_fract_z
Si Si1 0.324797 0.679795 0.758330
Si Si2 0.822690 0.144992 0.114947
Si Si3 0.167902 0.851069 0.870145
Si Si4 0.827685 0.303597 0.220007
Si Si5 0.672837 0.429117 0.489302
Si Si6 0.828203 0.707329 0.902156
Si Si7 0.826411 0.777747 0.562189
O O1 0.500000 0.667850 0.756593
O O2 0.247275 0.635244 0.697376
O O3 0.286863 0.749668 0.738212
O O4 0.264113 0.667305 0.842113
O O5 0.768500 0.091405 0.060497
O O6 0.763749 0.209947 0.081622
O O7 0.000000 0.142864 0.122181
O O8 0.195743 0.858408 0.780069
O O9 0.189647 0.779823 0.888630
O O10 0.000000 0.872279 0.891518
O O11 0.283910 0.892495 0.914570
O O12 0.799181 0.323270 0.133394
O O13 0.000000 0.278575 0.227110
O O14 0.500000 0.416631 0.506674
O O15 0.706283 0.500000 0.473884
O O16 0.000000 0.686513 0.895122
O O17 0.758590 0.694813 0.985337
O O18 0.000000 0.768850 0.544328
#
# Coordination Sequence:
#
# PCOD8177340 Si02
#       7
#     8   8   8   8   8   8   8
#     4  10  18  26  38  61  87 113 141 173 215 258
#     4  10  18  32  48  60  78 111 150 185 219 256
#     4   9  16  28  44  61  82 112 151 185 214 253
#     4   8  15  27  42  60  82 112 147 178 209 255
#     4  11  23  34  44  62  87 114 147 188 230 267
#     4   9  15  26  42  62  86 115 147 173 204 254
#     4   8  13  24  43  63  83 109 142 176 209 248
#
# _framework density 16.059016
#
# number of rings (size 3 to 8) (size 9 to 14) (size 15 to 20)
#    0.000    2.714    1.429    3.857    0.000    3.429 
#    0.000    0.714    0.000    0.000    0.000    0.000 
#    0.000    1.143    0.000   10.571    0.000    3.571 
#
# Total GULP energy -346908.752571 kJ/mol
# GULP energy per Si atom -12389.598306 kJ/mol
# Density = 1.602247 g / cm^3
# Si number density = 16.059016 Si / 1000 Ang^3
#
#
#
# Elastic Constant Matrix: (Units=GPa)
#
#
# Indices 1 2 3 4 5 6 
#
# 1 74.5446 19.7175 43.4267 0.0000 0.0000 0.0000
# 2 19.7175 28.6348 23.9312 0.0000 0.0000 0.0000
# 3 43.4267 23.9312 161.9289 0.0000 0.0000 0.0000
# 4 0.0000 0.0000 0.0000 12.4096 0.0000 0.0000
# 5 0.0000 0.0000 0.0000 0.0000 19.0040 0.0000
# 6 0.0000 0.0000 0.0000 0.0000 0.0000 14.8354
#
#
#
# Elastic Compliance Matrix: (Units=1/GPa)
#
#
# Indices 1 2 3 4 5 6 
#
# 1 0.017905 -0.009488 -0.003400 0.000000 0.000000 0.000000
# 2 -0.009488 0.044871 -0.004087 0.000000 0.000000 0.000000
# 3 -0.003400 -0.004087 0.007691 0.000000 0.000000 0.000000
# 4 0.000000 0.000000 0.000000 0.080583 0.000000 0.000000
# 5 0.000000 0.000000 0.000000 0.000000 0.052620 0.000000
# 6 0.000000 0.000000 0.000000 0.000000 0.000000 0.067406
#
#
# Mechanical properties :
#
#
# Convention : Reuss Voigt Hill
#
# Bulk Modulus (GPa) = 27.38323 48.80658 38.09490
# Shear Modulus (GPa) = 15.76298 21.11866 18.44082
#
# Velocity S-wave (km/s) = 3.13639 3.63032 3.39236
# Velocity P-wave (km/s) = 5.49587 6.93039 6.25439
#
# Compressibility (1/GPa) = 0.03651871
#
# Stress axis : x y z
#
# Youngs Moduli (GPa) = 55.85078 22.28587 130.01741
#
# Poissons Ratio (x) = 0.21145 0.44201
# Poissons Ratio (y) = 0.52990 0.53138
# Poissons Ratio (z) = 0.18987 0.09108
#
# Static dielectric constant tensor:
#      x y z
#    x 2.898890 0.000000 0.000000 
#    y 0.000000 2.467360 0.000000 
#    z 0.000000 0.000000 3.741600 
# 
# 
# High freq. dielectric constant tensor:
#      x y z
#    x 1.607260 0.000000 0.000000 
#    y 0.000000 1.532740 0.000000 
#    z 0.000000 0.000000 1.646230 
# 
# From -- ./inp_files/17120.got.cif
#   From: 2010.03.12/outbox.cif.g09.slc.cpg/sg38_9_cif.got.tgz:17120.got - 2010.04.14 02:38:36.
