data_PCOD8177635
_publ_section_title
;
Structure prediction by ZEFSAII (Michael W. Deem and Ramdas Pophale) SiO2 
 PCOD8177635
Probable space group: A M M 2
;
_chemical_formula_sum "Si O2"
_cell_formula_units_Z 64
_cell_length_a 8.510670
_cell_length_b 30.623969
_cell_length_c 14.374252
_cell_angle_alpha 90.000000
_cell_angle_beta 90.000000
_cell_angle_gamma 90.000000
_cell_volume 3746.368403
_symmetry_space_group_name_H-M "A M M 2"
_symmetry_group_IT_number 38
_symmetry_cell_setting 'orthorhombic'
loop_
_space_group_symop_operation_xyz
x,y,z
-x,-y,z
-x,y,z
x,-y,z
x,1/2+y,1/2+z
-x,1/2-y,1/2+z
-x,1/2+y,1/2+z
x,1/2-y,1/2+z
loop_
_atom_site_type_symbol
_atom_site_label
_atom_site_fract_x
_atom_site_fract_y
_atom_site_fract_z
Si Si1 0.815278 0.363406 0.685410
Si Si2 0.818084 0.224563 0.857404
Si Si3 0.184016 0.138945 0.522215
Si Si4 0.319166 0.685006 0.855453
Si Si5 0.185366 0.280794 0.146712
Si Si6 0.683081 0.803401 0.041638
Si Si7 0.185357 0.453063 0.978572
Si Si8 0.813750 0.452307 0.768796
O O1 0.722934 0.330986 0.753183
O O2 0.773016 0.345623 0.583357
O O3 0.754510 0.413178 0.701282
O O4 0.000000 0.359552 0.704795
O O5 0.791494 0.274819 0.883921
O O6 0.753904 0.216865 0.752873
O O7 0.000000 0.212396 0.865681
O O8 0.723367 0.195815 0.932063
O O9 0.283445 0.147764 0.429796
O O10 0.231629 0.172050 0.604035
O O11 0.228679 0.088134 0.545597
O O12 0.000000 0.143199 0.498967
O O13 0.500000 0.699637 0.858770
O O14 0.266273 0.242009 0.089906
O O15 0.000000 0.271870 0.143695
O O16 0.500000 0.809823 0.056445
O O17 0.252405 0.500000 0.016166
O O18 0.000000 0.457055 0.972377
O O19 0.249084 0.444611 0.873742
O O20 0.754052 0.500000 0.732578
O O21 0.000000 0.451814 0.768900
#
# Coordination Sequence:
#
# PCOD8177635 Si02
#       8
#     8   8   8   8   8   8   8   8
#     4  11  20  33  52  72  98 137 172 204 246 299
#     4  11  22  37  52  68  95 132 173 210 247 292
#     4  10  18  31  50  72  97 132 170 202 241 296
#     4  12  22  30  45  72 103 133 167 208 248 288
#     4  10  21  34  52  72  95 129 170 208 244 294
#     4  12  24  35  50  73 101 130 165 210 251 294
#     4   8  13  23  43  72 101 127 159 200 243 289
#     4   8  14  25  45  74 100 125 163 206 246 291
#
# _framework density 17.083210000000001
#
# number of rings (size 3 to 8) (size 9 to 14) (size 15 to 20)
#    0.000    1.750    3.750    3.750    0.000    0.500 
#    0.000    0.000    0.000    2.625    0.000    0.875 
#    0.000    5.000    0.000    0.000    0.000    0.000 
#
# Total GULP energy -396587.536599 kJ/mol
# GULP energy per Si atom -12393.360519 kJ/mol
# Density = 1.704433 g / cm^3
# Si number density = 17.083210 Si / 1000 Ang^3
#
#
#
# Elastic Constant Matrix: (Units=GPa)
#
#
# Indices 1 2 3 4 5 6 
#
# 1 38.1429 18.2004 18.0714 0.0000 0.0000 0.0000
# 2 18.2004 121.7455 29.6606 0.0000 0.0000 0.0000
# 3 18.0714 29.6606 69.2330 0.0000 0.0000 0.0000
# 4 0.0000 0.0000 0.0000 25.4291 0.0000 0.0000
# 5 0.0000 0.0000 0.0000 0.0000 16.2346 0.0000
# 6 0.0000 0.0000 0.0000 0.0000 0.0000 1.0599
#
#
#
# Elastic Compliance Matrix: (Units=1/GPa)
#
#
# Indices 1 2 3 4 5 6 
#
# 1 0.030842 -0.002958 -0.006783 0.000000 0.000000 0.000000
# 2 -0.002958 0.009455 -0.003278 0.000000 0.000000 0.000000
# 3 -0.006783 -0.003278 0.017619 0.000000 0.000000 0.000000
# 4 0.000000 0.000000 0.000000 0.039325 0.000000 0.000000
# 5 0.000000 0.000000 0.000000 0.000000 0.061597 0.000000
# 6 0.000000 0.000000 0.000000 0.000000 0.000000 0.943511
#
#
# Mechanical properties :
#
#
# Convention : Reuss Voigt Hill
#
# Bulk Modulus (GPa) = 31.37096 40.10957 35.74026
# Shear Modulus (GPa) = 4.38976 19.42399 11.90688
#
# Velocity S-wave (km/s) = 1.60475 3.37563 2.64293
# Velocity P-wave (km/s) = 4.67302 6.22279 5.50274
#
# Compressibility (1/GPa) = 0.03187661
#
# Stress axis : x y z
#
# Youngs Moduli (GPa) = 32.42282 105.76627 56.75661
#
# Poissons Ratio (x) = 0.31288 0.38499
# Poissons Ratio (y) = 0.09591 0.18607
# Poissons Ratio (z) = 0.21993 0.34675
#
# Static dielectric constant tensor:
#      x y z
#    x 2.946930 0.000000 0.000000 
#    y 0.000000 3.600970 0.000000 
#    z 0.000000 0.000000 3.121510 
# 
# 
# High freq. dielectric constant tensor:
#      x y z
#    x 1.640280 0.000000 0.000000 
#    y 0.000000 1.657310 0.000000 
#    z 0.000000 0.000000 1.628360 
# 
# From -- ./inp_files/13061.got.cif
#   From: 2010.03.12/outbox.cif.g09.slc.cpg/sg38_7_cif.got.tgz:13061.got - 2010.04.14 02:38:36.
