data_PCOD8177422
_publ_section_title
;
Structure prediction by ZEFSAII (Michael W. Deem and Ramdas Pophale) SiO2 
 PCOD8177422
Probable space group: A M M 2
;
_chemical_formula_sum "Si O2"
_cell_formula_units_Z 64
_cell_length_a 9.489809
_cell_length_b 14.501391
_cell_length_c 28.309591
_cell_angle_alpha 90.000000
_cell_angle_beta 90.000000
_cell_angle_gamma 90.000000
_cell_volume 3895.836562
_symmetry_space_group_name_H-M "A M M 2"
_symmetry_group_IT_number 38
_symmetry_cell_setting 'orthorhombic'
loop_
_space_group_symop_operation_xyz
x,y,z
-x,-y,z
-x,y,z
x,-y,z
x,1/2+y,1/2+z
-x,1/2-y,1/2+z
-x,1/2+y,1/2+z
x,1/2-y,1/2+z
loop_
_atom_site_type_symbol
_atom_site_label
_atom_site_fract_x
_atom_site_fract_y
_atom_site_fract_z
Si Si1 0.833696 0.285667 0.208490
Si Si2 0.833063 0.899279 0.163512
Si Si3 0.664688 0.393265 0.285782
Si Si4 0.839168 0.106862 0.615977
Si Si5 0.662565 0.396980 0.025507
Si Si6 0.667134 0.397902 0.391635
Si Si7 0.664288 0.786844 0.980060
Si Si8 0.161016 0.392637 0.557563
O O1 0.788246 0.178710 0.201180
O O2 0.752283 0.325429 0.252939
O O3 0.785261 0.339305 0.161707
O O4 0.000000 0.296897 0.217212
O O5 0.781991 0.873661 0.110642
O O6 0.000000 0.905251 0.160584
O O7 0.772785 0.000000 0.179057
O O8 0.500000 0.372031 0.279361
O O9 0.696138 0.500000 0.273397
O O10 0.717014 0.371094 0.339012
O O11 0.748643 0.136651 0.570979
O O12 0.000000 0.132712 0.604428
O O13 0.819968 0.000000 0.627443
O O14 0.500000 0.397184 0.040488
O O15 0.709492 0.500000 0.009000
O O16 0.689954 0.323776 0.983346
O O17 0.500000 0.400724 0.391115
O O18 0.724418 0.500000 0.405121
O O19 0.723446 0.323574 0.429767
O O20 0.500000 0.811024 0.984728
O O21 0.741921 0.836219 0.022556
O O22 0.173377 0.500000 0.545269
O O23 0.000000 0.358953 0.551978
#
# Coordination Sequence:
#
# PCOD8177422 Si02
#       8
#     8   8   8   8   8   8   8   8
#     4  10  18  28  46  68  87 111 146 185 217 247
#     4   8  15  28  44  62  87 120 151 174 205 255
#     4   9  18  32  48  65  87 115 142 170 213 268
#     4   9  17  28  42  62  88 117 147 177 213 258
#     4   9  18  30  42  61  90 119 148 182 214 244
#     4   8  15  29  47  65  85 110 140 172 211 265
#     4  10  18  28  46  67  86 114 149 181 213 251
#     4   9  17  29  45  66  92 118 143 174 212 255
#
# _framework density 16.427793999999999
#
# number of rings (size 3 to 8) (size 9 to 14) (size 15 to 20)
#    0.000    3.000    0.000    3.000    0.000    3.500 
#    0.000    2.500    0.000    2.625    0.000    1.750 
#    0.000    0.000    0.000    0.000    0.000    0.000 
#
# Total GULP energy -396626.390501 kJ/mol
# GULP energy per Si atom -12394.574703 kJ/mol
# Density = 1.639040 g / cm^3
# Si number density = 16.427794 Si / 1000 Ang^3
#
#
#
# Elastic Constant Matrix: (Units=GPa)
#
#
# Indices 1 2 3 4 5 6 
#
# 1 33.3712 34.9322 34.8751 0.0000 0.0000 0.0000
# 2 34.9322 109.8210 87.7648 0.0000 0.0000 0.0000
# 3 34.8751 87.7648 115.2304 0.0000 0.0000 0.0000
# 4 0.0000 0.0000 0.0000 29.7238 0.0000 0.0000
# 5 0.0000 0.0000 0.0000 0.0000 -13.0768 0.0000
# 6 0.0000 0.0000 0.0000 0.0000 0.0000 18.8850
#
#
#
# Elastic Compliance Matrix: (Units=1/GPa)
#
#
# Indices 1 2 3 4 5 6 
#
# 1 0.047201 -0.009193 -0.007284 0.000000 0.000000 0.000000
# 2 -0.009193 0.025060 -0.016304 0.000000 0.000000 0.000000
# 3 -0.007284 -0.016304 0.023301 0.000000 0.000000 0.000000
# 4 0.000000 0.000000 0.000000 0.033643 0.000000 0.000000
# 5 0.000000 0.000000 0.000000 0.000000 -0.076471 0.000000
# 6 0.000000 0.000000 0.000000 0.000000 0.000000 0.052952
#
#
# Mechanical properties :
#
#
# Convention : Reuss Voigt Hill
#
# Bulk Modulus (GPa) = 33.33406 63.72964 48.53185
# Shear Modulus (GPa) = 27.58668 13.82978 20.70823
#
# Velocity S-wave (km/s) = 4.10233 2.90462 3.55429
# Velocity P-wave (km/s) = 6.54020 7.08005 6.81547
#
# Compressibility (1/GPa) = 0.02999935
#
# Stress axis : x y z
#
# Youngs Moduli (GPa) = 21.18603 39.90499 42.91685
#
# Poissons Ratio (x) = 0.36684 0.31261
# Poissons Ratio (y) = 0.19476 0.69973
# Poissons Ratio (z) = 0.15432 0.65062
#
# Static dielectric constant tensor:
#      x y z
#    x 2.857240 0.000000 0.000000 
#    y 0.000000 3.464450 0.000000 
#    z 0.000000 0.000000 3.093170 
# 
# 
# High freq. dielectric constant tensor:
#      x y z
#    x 1.605300 0.000000 0.000000 
#    y 0.000000 1.639820 0.000000 
#    z 0.000000 0.000000 1.613890 
# 
# From -- ./inp_files/24702.got.cif
#   From: 2010.03.12/outbox.cif.g09.slc.cpg/sg38_13_cif.got.tgz:24702.got - 2010.04.14 02:38:36.
