data_PCOD8177271
_publ_section_title
;
Structure prediction by ZEFSAII (Michael W. Deem and Ramdas Pophale) SiO2 
 PCOD8177271
Probable space group: A M M 2
;
_chemical_formula_sum "Si O2"
_cell_formula_units_Z 64
_cell_length_a 20.000877
_cell_length_b 9.361588
_cell_length_c 20.244263
_cell_angle_alpha 90.000000
_cell_angle_beta 90.000000
_cell_angle_gamma 90.000000
_cell_volume 3790.535199
_symmetry_space_group_name_H-M "A M M 2"
_symmetry_group_IT_number 38
_symmetry_cell_setting 'orthorhombic'
loop_
_space_group_symop_operation_xyz
x,y,z
-x,-y,z
-x,y,z
x,-y,z
x,1/2+y,1/2+z
-x,1/2-y,1/2+z
-x,1/2+y,1/2+z
x,1/2-y,1/2+z
loop_
_atom_site_type_symbol
_atom_site_label
_atom_site_fract_x
_atom_site_fract_y
_atom_site_fract_z
Si Si1 0.692924 0.330313 0.990240
Si Si2 0.162739 0.330558 0.955761
Si Si3 0.074561 0.329970 0.073079
Si Si4 0.806188 0.833991 0.312577
Si Si5 0.677071 0.169543 0.634057
Si Si6 0.576588 0.167772 0.743906
Si Si7 0.178429 0.669448 0.183275
Si Si8 0.346160 0.834032 0.349593
O O1 0.698519 0.500000 0.991266
O O2 0.767600 0.266844 0.983179
O O3 0.648875 0.285709 0.926643
O O4 0.661946 0.274324 0.059500
O O5 0.167056 0.500000 0.960288
O O6 0.153525 0.287459 0.878940
O O7 0.103097 0.273526 0.002559
O O8 0.073031 0.500000 0.072709
O O9 0.121647 0.277011 0.132621
O O10 0.000000 0.267417 0.082586
O O11 0.836368 0.740720 0.253665
O O12 0.727745 0.801581 0.322214
O O13 0.817507 0.000000 0.296700
O O14 0.620191 0.229438 0.682931
O O15 0.749812 0.223313 0.657006
O O16 0.675663 0.000000 0.634898
O O17 0.500000 0.205095 0.728919
O O18 0.599063 0.242848 0.811151
O O19 0.587929 0.000000 0.753077
O O20 0.177094 0.500000 0.191919
O O21 0.363686 0.000000 0.341418
#
# Coordination Sequence:
#
# PCOD8177271 Si02
#       8
#     8   8   8   8   8   8   8   8
#     4   8  13  24  44  68  89 109 143 191 231 259
#     4   8  13  24  41  63  89 117 147 183 227 267
#     4   9  16  26  43  69  96 120 153 195 233 270
#     4   9  17  28  45  69  95 119 149 191 232 271
#     4   9  15  26  45  68  91 116 150 190 228 267
#     4  10  20  32  46  66  94 126 154 183 226 279
#     4  10  17  27  47  71  93 121 153 189 232 273
#     4   9  17  29  47  70  92 116 149 191 234 272
#
# _framework density 16.884159
#
# number of rings (size 3 to 8) (size 9 to 14) (size 15 to 20)
#    0.000    3.000    2.500    1.500    0.000    0.250 
#    0.000    1.250    0.000    5.625    0.000    0.000 
#    0.000    0.000    0.000    0.000    0.000    0.000 
#
# Total GULP energy -396579.802910 kJ/mol
# GULP energy per Si atom -12393.118841 kJ/mol
# Density = 1.684573 g / cm^3
# Si number density = 16.884159 Si / 1000 Ang^3
#
#
#
# Elastic Constant Matrix: (Units=GPa)
#
#
# Indices 1 2 3 4 5 6 
#
# 1 114.9596 23.4741 78.4787 0.0000 0.0000 0.0000
# 2 23.4741 18.7122 30.4719 0.0000 0.0000 0.0000
# 3 78.4787 30.4719 172.6480 0.0000 0.0000 0.0000
# 4 0.0000 0.0000 0.0000 24.1622 0.0000 0.0000
# 5 0.0000 0.0000 0.0000 0.0000 27.0857 0.0000
# 6 0.0000 0.0000 0.0000 0.0000 0.0000 12.0718
#
#
#
# Elastic Compliance Matrix: (Units=1/GPa)
#
#
# Indices 1 2 3 4 5 6 
#
# 1 0.013823 -0.009976 -0.004523 0.000000 0.000000 0.000000
# 2 -0.009976 0.082196 -0.009973 0.000000 0.000000 0.000000
# 3 -0.004523 -0.009973 0.009608 0.000000 0.000000 0.000000
# 4 0.000000 0.000000 0.000000 0.041387 0.000000 0.000000
# 5 0.000000 0.000000 0.000000 0.000000 0.036920 0.000000
# 6 0.000000 0.000000 0.000000 0.000000 0.000000 0.082838
#
#
# Mechanical properties :
#
#
# Convention : Reuss Voigt Hill
#
# Bulk Modulus (GPa) = 17.64156 63.46324 40.55240
# Shear Modulus (GPa) = 14.94280 24.25693 19.59987
#
# Velocity S-wave (km/s) = 2.97815 3.79445 3.41081
# Velocity P-wave (km/s) = 4.72198 7.54097 6.29140
#
# Compressibility (1/GPa) = 0.05668434
#
# Stress axis : x y z
#
# Youngs Moduli (GPa) = 72.34177 12.16610 104.07844
#
# Poissons Ratio (x) = 0.12137 0.47072
# Poissons Ratio (y) = 0.72168 1.03793
# Poissons Ratio (z) = 0.32719 0.12133
#
# Static dielectric constant tensor:
#      x y z
#    x 3.143400 0.000000 0.000000 
#    y 0.000000 2.627290 0.000000 
#    z 0.000000 0.000000 3.544680 
# 
# 
# High freq. dielectric constant tensor:
#      x y z
#    x 1.629020 0.000000 0.000000 
#    y 0.000000 1.592730 0.000000 
#    z 0.000000 0.000000 1.669820 
# 
# From -- ./inp_files/19001.got.cif
#   From: 2010.03.12/outbox.cif.g09.slc.cpg/sg38_10_cif.got.tgz:19001.got - 2010.04.14 02:38:36.
