data_PCOD8177261
_publ_section_title
;
Structure prediction by ZEFSAII (Michael W. Deem and Ramdas Pophale) SiO2 
 PCOD8177261
Probable space group: A M M 2
;
_chemical_formula_sum "Si O2"
_cell_formula_units_Z 64
_cell_length_a 8.755210
_cell_length_b 22.571464
_cell_length_c 20.208796
_cell_angle_alpha 90.000000
_cell_angle_beta 90.000000
_cell_angle_gamma 90.000000
_cell_volume 3993.619975
_symmetry_space_group_name_H-M "A M M 2"
_symmetry_group_IT_number 38
_symmetry_cell_setting 'orthorhombic'
loop_
_space_group_symop_operation_xyz
x,y,z
-x,-y,z
-x,y,z
x,-y,z
x,1/2+y,1/2+z
-x,1/2-y,1/2+z
-x,1/2+y,1/2+z
x,1/2-y,1/2+z
loop_
_atom_site_type_symbol
_atom_site_label
_atom_site_fract_x
_atom_site_fract_y
_atom_site_fract_z
Si Si1 0.169432 0.760401 0.444860
Si Si2 0.321098 0.242045 0.737976
Si Si3 0.322551 0.355131 0.022578
Si Si4 0.819971 0.355315 0.160728
Si Si5 0.320070 0.567066 0.898030
Si Si6 0.171346 0.161033 0.313960
Si Si7 0.680242 0.431527 0.276793
Si Si8 0.820669 0.664795 0.350884
O O1 0.287251 0.788078 0.497291
O O2 0.175751 0.795117 0.375914
O O3 0.208358 0.691851 0.424776
O O4 0.000000 0.764786 0.476029
O O5 0.500000 0.245321 0.724433
O O6 0.239028 0.211829 0.674669
O O7 0.259259 0.308336 0.752438
O O8 0.284292 0.200216 0.799634
O O9 0.500000 0.360089 0.039757
O O10 0.270335 0.401001 0.965930
O O11 0.224737 0.372296 0.086264
O O12 0.741070 0.402243 0.209400
O O13 0.000000 0.358876 0.170413
O O14 0.500000 0.570074 0.890074
O O15 0.259381 0.500000 0.900326
O O16 0.248915 0.599147 0.834139
O O17 0.000000 0.147898 0.290755
O O18 0.500000 0.421834 0.281794
O O19 0.725096 0.500000 0.275917
O O20 0.763475 0.402809 0.341809
O O21 0.000000 0.671257 0.332487
#
# Coordination Sequence:
#
# PCOD8177261 Si02
#       8
#     8   8   8   8   8   8   8   8
#     4   8  15  27  42  61  83 107 136 174 218 260
#     4  10  17  27  44  63  83 107 138 176 219 263
#     4  10  19  30  44  62  85 116 151 184 217 254
#     4  11  21  32  45  61  85 116 149 184 219 257
#     4   9  18  31  45  62  86 117 151 184 217 254
#     4   9  16  27  43  63  85 108 138 176 219 262
#     4  10  20  32  45  62  86 116 150 185 217 253
#     4   9  16  27  44  64  85 108 137 175 218 261
#
# _framework density 16.025561
#
# number of rings (size 3 to 8) (size 9 to 14) (size 15 to 20)
#    0.000    2.500    0.000    6.000    0.000    5.750 
#    0.000    1.250    0.000    0.000    0.000    0.000 
#    0.000    1.000    0.000    7.250    0.000    6.500 
#
# Total GULP energy -396599.445372 kJ/mol
# GULP energy per Si atom -12393.732668 kJ/mol
# Density = 1.598909 g / cm^3
# Si number density = 16.025561 Si / 1000 Ang^3
#
#
#
# Elastic Constant Matrix: (Units=GPa)
#
#
# Indices 1 2 3 4 5 6 
#
# 1 63.8572 38.2467 16.9886 0.0000 0.0000 0.0000
# 2 38.2467 111.6697 48.0046 0.0000 0.0000 0.0000
# 3 16.9886 48.0046 23.4194 0.0000 0.0000 0.0000
# 4 0.0000 0.0000 0.0000 17.0395 0.0000 0.0000
# 5 0.0000 0.0000 0.0000 0.0000 23.6339 0.0000
# 6 0.0000 0.0000 0.0000 0.0000 0.0000 22.1755
#
#
#
# Elastic Compliance Matrix: (Units=1/GPa)
#
#
# Indices 1 2 3 4 5 6 
#
# 1 0.019743 -0.005094 -0.003881 0.000000 0.000000 0.000000
# 2 -0.005094 0.076668 -0.153458 0.000000 0.000000 0.000000
# 3 -0.003881 -0.153458 0.360070 0.000000 0.000000 0.000000
# 4 0.000000 0.000000 0.000000 0.058687 0.000000 0.000000
# 5 0.000000 0.000000 0.000000 0.000000 0.042312 0.000000
# 6 0.000000 0.000000 0.000000 0.000000 0.000000 0.045095
#
#
# Mechanical properties :
#
#
# Convention : Reuss Voigt Hill
#
# Bulk Modulus (GPa) = 7.59785 45.04736 26.32260
# Shear Modulus (GPa) = 5.14767 18.95020 12.04893
#
# Velocity S-wave (km/s) = 1.79419 3.44248 2.74498
# Velocity P-wave (km/s) = 3.00725 6.63111 5.14855
#
# Compressibility (1/GPa) = 0.13161621
#
# Stress axis : x y z
#
# Youngs Moduli (GPa) = 50.65021 13.04322 2.77724
#
# Poissons Ratio (x) = 0.06644 0.01078
# Poissons Ratio (y) = 0.25799 0.42619
# Poissons Ratio (z) = 0.19658 2.00159
#
# Static dielectric constant tensor:
#      x y z
#    x 3.106960 0.000000 0.000000 
#    y 0.000000 3.283140 0.000000 
#    z 0.000000 0.000000 2.876160 
# 
# 
# High freq. dielectric constant tensor:
#      x y z
#    x 1.630740 0.000000 0.000000 
#    y 0.000000 1.600110 0.000000 
#    z 0.000000 0.000000 1.573540 
# 
# From -- ./inp_files/17279.got.cif
#   From: 2010.03.12/outbox.cif.g09.slc.cpg/sg38_9_cif.got.tgz:17279.got - 2010.04.14 02:38:36.
