data_PCOD8177200
_publ_section_title
;
Structure prediction by ZEFSAII (Michael W. Deem and Ramdas Pophale) SiO2 
 PCOD8177200
Probable space group: A M M 2
;
_chemical_formula_sum "Si O2"
_cell_formula_units_Z 56
_cell_length_a 14.290386
_cell_length_b 7.585070
_cell_length_c 29.295011
_cell_angle_alpha 90.000000
_cell_angle_beta 90.000000
_cell_angle_gamma 90.000000
_cell_volume 3175.391064
_symmetry_space_group_name_H-M "A M M 2"
_symmetry_group_IT_number 38
_symmetry_cell_setting 'orthorhombic'
loop_
_space_group_symop_operation_xyz
x,y,z
-x,-y,z
-x,y,z
x,-y,z
x,1/2+y,1/2+z
-x,1/2-y,1/2+z
-x,1/2+y,1/2+z
x,1/2-y,1/2+z
loop_
_atom_site_type_symbol
_atom_site_label
_atom_site_fract_x
_atom_site_fract_y
_atom_site_fract_z
Si Si1 0.106627 0.196505 0.613120
Si Si2 0.789899 0.709226 0.523495
Si Si3 0.204472 0.208667 0.842036
Si Si4 0.112164 0.500000 0.781915
Si Si5 0.397542 0.291409 0.378861
Si Si6 0.889465 0.000000 0.178744
Si Si7 0.397496 0.709018 0.480965
Si Si8 0.896274 0.708466 0.434588
O O1 0.171104 0.201796 0.568695
O O2 0.146250 0.327208 0.651785
O O3 0.000000 0.248682 0.599569
O O4 0.110316 0.000000 0.633632
O O5 0.798395 0.500000 0.528527
O O6 0.682689 0.773510 0.515820
O O7 0.848055 0.780907 0.480268
O O8 0.153016 0.321154 0.803462
O O9 0.314344 0.264877 0.844488
O O10 0.161281 0.265707 0.890344
O O11 0.190707 0.000000 0.831800
O O12 0.149309 0.500000 0.729971
O O13 0.000000 0.500000 0.786235
O O14 0.500000 0.226921 0.360786
O O15 0.396294 0.500000 0.382718
O O16 0.380132 0.215414 0.429877
O O17 0.000000 0.000000 0.181559
O O18 0.500000 0.770711 0.498723
O O19 0.392464 0.500000 0.477953
O O20 0.900263 0.500000 0.437234
O O21 0.000000 0.789710 0.431051
#
# Coordination Sequence:
#
# PCOD8177200 Si02
#       8
#     8   8   8   4   8   4   8   8
#     4  10  20  34  53  77 102 129 168 216 264 313
#     4  10  16  26  46  71 101 140 174 207 251 301
#     4  10  19  34  52  75 107 141 177 216 257 311
#     4  11  24  38  55  79 103 137 182 222 270 322
#     4   8  13  25  47  73 103 141 181 218 256 301
#     4   9  20  40  58  73  99 131 169 226 275 310
#     4   8  13  22  40  69 102 138 180 214 245 296
#     4   9  16  25  40  64  99 143 177 198 238 299
#
# _framework density 17.635622999999999
#
# number of rings (size 3 to 8) (size 9 to 14) (size 15 to 20)
#    0.000    2.714    2.143    1.714    0.000    2.000 
#    1.286    1.786    0.000    0.429    0.000    2.000 
#    0.000    0.000    0.000    0.000    0.000    0.000 
#
# Total GULP energy -346999.413760 kJ/mol
# GULP energy per Si atom -12392.836206 kJ/mol
# Density = 1.759548 g / cm^3
# Si number density = 17.635623 Si / 1000 Ang^3
#
#
#
# Elastic Constant Matrix: (Units=GPa)
#
#
# Indices 1 2 3 4 5 6 
#
# 1 132.1569 28.8096 53.6964 0.0000 0.0000 0.0000
# 2 28.8096 67.4791 41.2817 0.0000 0.0000 0.0000
# 3 53.6964 41.2817 118.9665 0.0000 0.0000 0.0000
# 4 0.0000 0.0000 0.0000 -5.7543 0.0000 0.0000
# 5 0.0000 0.0000 0.0000 0.0000 11.0256 0.0000
# 6 0.0000 0.0000 0.0000 0.0000 0.0000 9.1345
#
#
#
# Elastic Compliance Matrix: (Units=1/GPa)
#
#
# Indices 1 2 3 4 5 6 
#
# 1 0.009436 -0.001807 -0.003632 0.000000 0.000000 0.000000
# 2 -0.001807 0.019159 -0.005833 0.000000 0.000000 0.000000
# 3 -0.003632 -0.005833 0.012069 0.000000 0.000000 0.000000
# 4 0.000000 0.000000 0.000000 -0.173784 0.000000 0.000000
# 5 0.000000 0.000000 0.000000 0.000000 0.090698 0.000000
# 6 0.000000 0.000000 0.000000 0.000000 0.000000 0.109475
#
#
# Mechanical properties :
#
#
# Convention : Reuss Voigt Hill
#
# Bulk Modulus (GPa) = 55.18404 62.90865 59.04634
# Shear Modulus (GPa) = 52.28075 15.86883 34.07479
#
# Velocity S-wave (km/s) = 5.45063 3.00295 4.40040
# Velocity P-wave (km/s) = 8.42446 6.91176 7.70532
#
# Compressibility (1/GPa) = 0.01812118
#
# Stress axis : x y z
#
# Youngs Moduli (GPa) = 105.97224 52.19462 82.85567
#
# Poissons Ratio (x) = 0.09430 0.30096
# Poissons Ratio (y) = 0.19146 0.48328
# Poissons Ratio (z) = 0.38492 0.30444
#
# Static dielectric constant tensor:
#      x y z
#    x 3.688330 0.000000 0.000000 
#    y 0.000000 3.098780 0.000000 
#    z 0.000000 0.000000 3.067620 
# 
# 
# High freq. dielectric constant tensor:
#      x y z
#    x 1.683180 0.000000 0.000000 
#    y 0.000000 1.671170 0.000000 
#    z 0.000000 0.000000 1.638570 
# 
# From -- ./inp_files/25009.got.cif
#   From: 2010.03.12/outbox.cif.g09.slc.cpg/sg38_13_cif.got.tgz:25009.got - 2010.04.14 02:38:36.
