data_PCOD8177961
_publ_section_title
;
Structure prediction by ZEFSAII (Michael W. Deem and Ramdas Pophale) SiO2 
 PCOD8177961
Probable space group: A M M 2
;
_chemical_formula_sum "Si O2"
_cell_formula_units_Z 64
_cell_length_a 15.303812
_cell_length_b 8.817580
_cell_length_c 30.353763
_cell_angle_alpha 90.000000
_cell_angle_beta 90.000000
_cell_angle_gamma 90.000000
_cell_volume 4096.015293
_symmetry_space_group_name_H-M "A M M 2"
_symmetry_group_IT_number 38
_symmetry_cell_setting 'orthorhombic'
loop_
_space_group_symop_operation_xyz
x,y,z
-x,-y,z
-x,y,z
x,-y,z
x,1/2+y,1/2+z
-x,1/2-y,1/2+z
-x,1/2+y,1/2+z
x,1/2-y,1/2+z
loop_
_atom_site_type_symbol
_atom_site_label
_atom_site_fract_x
_atom_site_fract_y
_atom_site_fract_z
Si Si1 0.099349 0.822052 0.380960
Si Si2 0.594952 0.677455 0.308485
Si Si3 0.897397 0.324554 0.646200
Si Si4 0.233624 0.678612 0.807100
Si Si5 0.594544 0.676777 0.713605
Si Si6 0.233985 0.679252 0.211129
Si Si7 0.104087 0.670643 0.469929
Si Si8 0.103856 0.669963 0.057005
O O1 0.155495 0.770625 0.339030
O O2 0.138114 0.744577 0.424745
O O3 0.000000 0.770255 0.371862
O O4 0.105384 0.000000 0.388910
O O5 0.500000 0.711220 0.331025
O O6 0.616372 0.500000 0.310331
O O7 0.674939 0.770149 0.330477
O O8 0.589859 0.729872 0.258355
O O9 0.873368 0.500000 0.651676
O O10 0.850034 0.227533 0.683474
O O11 0.864995 0.270376 0.598233
O O12 0.000000 0.295306 0.652062
O O13 0.233491 0.500000 0.798899
O O14 0.220803 0.762754 0.760849
O O15 0.500000 0.697509 0.688918
O O16 0.611384 0.500000 0.723529
O O17 0.678676 0.746307 0.688366
O O18 0.243395 0.500000 0.210901
O O19 0.139172 0.500000 0.472444
O O20 0.142566 0.760060 0.511986
O O21 0.000000 0.676728 0.470952
O O22 0.140406 0.500000 0.062619
O O23 0.000000 0.669222 0.054439
#
# Coordination Sequence:
#
# PCOD8177961 Si02
#       8
#     8   8   8   8   8   8   8   8
#     4   9  18  31  44  59  82 113 147 180 213 249
#     4   9  16  26  41  60  81 105 134 172 219 263
#     4  10  20  33  47  62  84 115 150 185 217 252
#     4  10  19  30  44  61  83 114 150 183 215 252
#     4   9  16  27  44  63  82 106 138 176 217 259
#     4  11  21  31  44  62  87 117 148 182 218 258
#     4   9  16  26  42  63  84 107 137 173 214 256
#     4   9  16  27  44  64  85 108 136 173 217 260
#
# _framework density 15.624942000000001
#
# number of rings (size 3 to 8) (size 9 to 14) (size 15 to 20)
#    0.000    2.500    0.000    4.875    0.000    6.750 
#    0.000    1.250    0.000    0.000    0.000    0.000 
#    0.000    1.000    0.000    7.250    0.000    6.000 
#
# Total GULP energy -396577.619625 kJ/mol
# GULP energy per Si atom -12393.050613 kJ/mol
# Density = 1.558938 g / cm^3
# Si number density = 15.624942 Si / 1000 Ang^3
#
#
#
# Elastic Constant Matrix: (Units=GPa)
#
#
# Indices 1 2 3 4 5 6 
#
# 1 72.4704 35.1628 43.0515 0.0000 0.0000 0.0000
# 2 35.1628 76.4904 38.9145 0.0000 0.0000 0.0000
# 3 43.0515 38.9145 79.7765 0.0000 0.0000 0.0000
# 4 0.0000 0.0000 0.0000 25.2990 0.0000 0.0000
# 5 0.0000 0.0000 0.0000 0.0000 1.0765 0.0000
# 6 0.0000 0.0000 0.0000 0.0000 0.0000 21.9665
#
#
#
# Elastic Compliance Matrix: (Units=1/GPa)
#
#
# Indices 1 2 3 4 5 6 
#
# 1 0.021858 -0.005383 -0.009170 0.000000 0.000000 0.000000
# 2 -0.005383 0.018715 -0.006224 0.000000 0.000000 0.000000
# 3 -0.009170 -0.006224 0.020520 0.000000 0.000000 0.000000
# 4 0.000000 0.000000 0.000000 0.039527 0.000000 0.000000
# 5 0.000000 0.000000 0.000000 0.000000 0.928918 0.000000
# 6 0.000000 0.000000 0.000000 0.000000 0.000000 0.045524
#
#
# Mechanical properties :
#
#
# Convention : Reuss Voigt Hill
#
# Bulk Modulus (GPa) = 51.18102 51.44388 51.31245
# Shear Modulus (GPa) = 4.45185 17.10897 10.78041
#
# Velocity S-wave (km/s) = 1.68979 3.31264 2.62954
# Velocity P-wave (km/s) = 6.05262 6.90124 6.49081
#
# Compressibility (1/GPa) = 0.01953849
#
# Stress axis : x y z
#
# Youngs Moduli (GPa) = 45.74984 53.43449 48.73400
#
# Poissons Ratio (x) = 0.28764 0.44689
# Poissons Ratio (y) = 0.24627 0.30332
# Poissons Ratio (z) = 0.41952 0.33257
#
# Static dielectric constant tensor:
#      x y z
#    x 3.389150 0.000000 0.000000 
#    y 0.000000 3.130360 0.000000 
#    z 0.000000 0.000000 2.800190 
# 
# 
# High freq. dielectric constant tensor:
#      x y z
#    x 1.577370 0.000000 0.000000 
#    y 0.000000 1.619250 0.000000 
#    z 0.000000 0.000000 1.564450 
# 
# From -- ./inp_files/25096.got.cif
#   From: 2010.03.12/outbox.cif.g09.slc.cpg/sg38_13_cif.got.tgz:25096.got - 2010.04.14 02:38:36.
