data_PCOD8177683
_publ_section_title
;
Structure prediction by ZEFSAII (Michael W. Deem and Ramdas Pophale) SiO2 
 PCOD8177683
Probable space group: A M M 2
;
_chemical_formula_sum "Si O2"
_cell_formula_units_Z 64
_cell_length_a 14.707762
_cell_length_b 8.652025
_cell_length_c 24.913505
_cell_angle_alpha 90.000000
_cell_angle_beta 90.000000
_cell_angle_gamma 90.000000
_cell_volume 3170.291458
_symmetry_space_group_name_H-M "A M M 2"
_symmetry_group_IT_number 38
_symmetry_cell_setting 'orthorhombic'
loop_
_space_group_symop_operation_xyz
x,y,z
-x,-y,z
-x,y,z
x,-y,z
x,1/2+y,1/2+z
-x,1/2-y,1/2+z
-x,1/2+y,1/2+z
x,1/2-y,1/2+z
loop_
_atom_site_type_symbol
_atom_site_label
_atom_site_fract_x
_atom_site_fract_y
_atom_site_fract_z
Si Si1 0.152204 0.679805 0.031520
Si Si2 0.725112 0.683480 0.185981
Si Si3 0.668507 0.178068 0.993958
Si Si4 0.101097 0.822016 0.140855
Si Si5 0.598921 0.174936 0.590619
Si Si6 0.097030 0.680456 0.914161
Si Si7 0.603493 0.816927 0.784013
Si Si8 0.706948 0.182198 0.383992
O O1 0.178745 0.500000 0.036043
O O2 0.099414 0.730031 0.084715
O O3 0.241579 0.783032 0.027558
O O4 0.094110 0.711151 0.978005
O O5 0.732975 0.500000 0.189499
O O6 0.826242 0.755002 0.183654
O O7 0.673003 0.738037 0.132487
O O8 0.667640 0.748251 0.236465
O O9 0.659828 0.281597 0.940761
O O10 0.663217 0.000000 0.977059
O O11 0.590901 0.222515 0.036601
O O12 0.000000 0.803591 0.166054
O O13 0.124056 0.000000 0.129565
O O14 0.500000 0.181084 0.618908
O O15 0.623972 0.000000 0.574332
O O16 0.100229 0.500000 0.902692
O O17 0.188350 0.749124 0.886280
O O18 0.000000 0.748039 0.891582
O O19 0.500000 0.751116 0.779770
O O20 0.649229 0.767361 0.839305
O O21 0.599492 0.000000 0.781294
O O22 0.705460 0.000000 0.373661
#
# Coordination Sequence:
#
# PCOD8177683 Si02
#       8
#     8   8   8   8   8   8   8   8
#     4  10  18  31  53  81 114 155 200 241 285 342
#     4  10  21  39  63  86 113 150 194 244 297 354
#     4  11  21  34  54  82 120 159 192 237 295 350
#     4  11  23  36  53  83 122 160 197 240 290 342
#     4  10  20  35  57  85 115 149 190 237 293 360
#     4   8  15  29  51  80 112 147 189 232 275 330
#     4  10  22  42  66  89 112 144 191 247 304 358
#     4  10  21  37  59  86 116 152 196 243 290 346
#
# _framework density 20.187418999999998
#
# number of rings (size 3 to 8) (size 9 to 14) (size 15 to 20)
#    0.000    2.000    1.250    3.750    0.000    4.500 
#    0.000    0.625    0.000   12.000    0.000    0.000 
#    0.000    0.000    0.000    0.000    0.000    0.000 
#
# Total GULP energy -396598.625550 kJ/mol
# GULP energy per Si atom -12393.707048 kJ/mol
# Density = 2.014147 g / cm^3
# Si number density = 20.187419 Si / 1000 Ang^3
#
#
#
# Elastic Constant Matrix: (Units=GPa)
#
#
# Indices 1 2 3 4 5 6 
#
# 1 143.4996 22.9647 59.5721 0.0000 0.0000 0.0000
# 2 22.9647 36.1042 8.3540 0.0000 0.0000 0.0000
# 3 59.5721 8.3540 97.1263 0.0000 0.0000 0.0000
# 4 0.0000 0.0000 0.0000 26.7510 0.0000 0.0000
# 5 0.0000 0.0000 0.0000 0.0000 23.4792 0.0000
# 6 0.0000 0.0000 0.0000 0.0000 0.0000 23.4383
#
#
#
# Elastic Compliance Matrix: (Units=1/GPa)
#
#
# Indices 1 2 3 4 5 6 
#
# 1 0.010208 -0.005146 -0.005818 0.000000 0.000000 0.000000
# 2 -0.005146 0.030855 0.000503 0.000000 0.000000 0.000000
# 3 -0.005818 0.000503 0.013821 0.000000 0.000000 0.000000
# 4 0.000000 0.000000 0.000000 0.037382 0.000000 0.000000
# 5 0.000000 0.000000 0.000000 0.000000 0.042591 0.000000
# 6 0.000000 0.000000 0.000000 0.000000 0.000000 0.042665
#
#
# Mechanical properties :
#
#
# Convention : Reuss Voigt Hill
#
# Bulk Modulus (GPa) = 29.44664 50.94573 40.19618
# Shear Modulus (GPa) = 23.83618 27.12299 25.47958
#
# Velocity S-wave (km/s) = 3.43992 3.66944 3.55653
# Velocity P-wave (km/s) = 5.51323 6.57603 6.06794
#
# Compressibility (1/GPa) = 0.03395973
#
# Stress axis : x y z
#
# Youngs Moduli (GPa) = 97.96629 32.40988 72.35283
#
# Poissons Ratio (x) = 0.16680 0.42096
# Poissons Ratio (y) = 0.50418 -0.03637
# Poissons Ratio (z) = 0.56998 -0.01629
#
# Static dielectric constant tensor:
#      x y z
#    x 4.338600 0.000000 0.000000 
#    y 0.000000 3.426800 0.000000 
#    z 0.000000 0.000000 3.541410 
# 
# 
# High freq. dielectric constant tensor:
#      x y z
#    x 1.802440 0.000000 0.000000 
#    y 0.000000 1.765980 0.000000 
#    z 0.000000 0.000000 1.766100 
# 
# From -- ./inp_files/22951.got.cif
#   From: 2010.03.12/outbox.cif.g09.slc.cpg/sg38_12_cif.got.tgz:22951.got - 2010.04.14 02:38:36.
