data_PCOD8177577
_publ_section_title
;
Structure prediction by ZEFSAII (Michael W. Deem and Ramdas Pophale) SiO2 
 PCOD8177577
Probable space group: A M M 2
;
_chemical_formula_sum "Si O2"
_cell_formula_units_Z 64
_cell_length_a 9.113588
_cell_length_b 23.044587
_cell_length_c 18.880820
_cell_angle_alpha 90.000000
_cell_angle_beta 90.000000
_cell_angle_gamma 90.000000
_cell_volume 3965.328510
_symmetry_space_group_name_H-M "A M M 2"
_symmetry_group_IT_number 38
_symmetry_cell_setting 'orthorhombic'
loop_
_space_group_symop_operation_xyz
x,y,z
-x,-y,z
-x,y,z
x,-y,z
x,1/2+y,1/2+z
-x,1/2-y,1/2+z
-x,1/2+y,1/2+z
x,1/2-y,1/2+z
loop_
_atom_site_type_symbol
_atom_site_label
_atom_site_fract_x
_atom_site_fract_y
_atom_site_fract_z
Si Si1 0.168305 0.765625 0.397220
Si Si2 0.829976 0.617595 0.549788
Si Si3 0.832625 0.746234 0.053902
Si Si4 0.827592 0.433755 0.399796
Si Si5 0.329953 0.264820 0.189595
Si Si6 0.829153 0.338807 0.765124
Si Si7 0.328254 0.067250 0.184872
Si Si8 0.669620 0.336885 0.323981
O O1 0.201380 0.783739 0.478094
O O2 0.197802 0.821006 0.346845
O O3 0.270309 0.712457 0.375924
O O4 0.000000 0.744169 0.389802
O O5 0.800102 0.685738 0.546509
O O6 0.777522 0.589912 0.476051
O O7 0.734223 0.588743 0.610545
O O8 0.000000 0.603438 0.564401
O O9 0.726082 0.716904 0.111765
O O10 0.000000 0.734906 0.076775
O O11 0.776976 0.500000 0.392258
O O12 0.750165 0.397573 0.337504
O O13 0.000000 0.426620 0.390147
O O14 0.500000 0.246934 0.187644
O O15 0.235602 0.209484 0.212805
O O16 0.303438 0.318516 0.242512
O O17 0.748441 0.399357 0.750221
O O18 0.000000 0.345169 0.746964
O O19 0.500000 0.080198 0.186553
O O20 0.292596 0.000000 0.195238
O O21 0.500000 0.344768 0.341137
#
# Coordination Sequence:
#
# PCOD8177577 Si02
#       8
#     8   8   8   8   8   8   8   8
#     4   9  18  33  51  70  95 122 156 197 240 286
#     4  10  19  32  49  69  95 129 166 198 229 273
#     4  10  18  30  50  74  97 126 158 193 237 283
#     4  10  20  34  51  69  93 128 166 202 238 276
#     4  10  20  32  47  69  98 127 157 195 237 284
#     4  10  19  32  51  71  91 123 160 199 240 279
#     4  11  23  35  47  66  96 132 165 199 236 275
#     4  10  20  32  47  69  96 127 160 196 238 279
#
# _framework density 16.139900000000001
#
# number of rings (size 3 to 8) (size 9 to 14) (size 15 to 20)
#    0.000    2.000    2.500    1.875    0.000    4.750 
#    0.000    0.000    0.000    0.000    0.000    0.875 
#    0.000    1.000    0.000    0.000    0.000    0.000 
#
# Total GULP energy -396863.070954 kJ/mol
# GULP energy per Si atom -12401.970967 kJ/mol
# Density = 1.610316 g / cm^3
# Si number density = 16.139900 Si / 1000 Ang^3
#
#
#
# Elastic Constant Matrix: (Units=GPa)
#
#
# Indices 1 2 3 4 5 6 
#
# 1 77.6457 45.2787 53.4782 0.0000 0.0000 0.0000
# 2 45.2787 78.4182 53.4566 0.0000 0.0000 0.0000
# 3 53.4782 53.4566 115.7398 0.0000 0.0000 0.0000
# 4 0.0000 0.0000 0.0000 21.6504 0.0000 0.0000
# 5 0.0000 0.0000 0.0000 0.0000 23.5743 0.0000
# 6 0.0000 0.0000 0.0000 0.0000 0.0000 25.3159
#
#
#
# Elastic Compliance Matrix: (Units=1/GPa)
#
#
# Indices 1 2 3 4 5 6 
#
# 1 0.022196 -0.008501 -0.006329 0.000000 0.000000 0.000000
# 2 -0.008501 0.021868 -0.006172 0.000000 0.000000 0.000000
# 3 -0.006329 -0.006172 0.014415 0.000000 0.000000 0.000000
# 4 0.000000 0.000000 0.000000 0.046189 0.000000 0.000000
# 5 0.000000 0.000000 0.000000 0.000000 0.042419 0.000000
# 6 0.000000 0.000000 0.000000 0.000000 0.000000 0.039501
#
#
# Mechanical properties :
#
#
# Convention : Reuss Voigt Hill
#
# Bulk Modulus (GPa) = 60.70210 64.02565 62.36388
# Shear Modulus (GPa) = 21.35981 22.08079 21.72030
#
# Velocity S-wave (km/s) = 3.64183 3.70278 3.67243
# Velocity P-wave (km/s) = 7.44147 7.61814 7.53032
#
# Compressibility (1/GPa) = 0.01647390
#
# Stress axis : x y z
#
# Youngs Moduli (GPa) = 45.05376 45.72825 69.37104
#
# Poissons Ratio (x) = 0.38875 0.43906
# Poissons Ratio (y) = 0.38302 0.42817
# Poissons Ratio (z) = 0.28515 0.28224
#
# Static dielectric constant tensor:
#      x y z
#    x 3.125500 0.000000 0.000000 
#    y 0.000000 2.941470 0.000000 
#    z 0.000000 0.000000 3.221600 
# 
# 
# High freq. dielectric constant tensor:
#      x y z
#    x 1.629450 0.000000 0.000000 
#    y 0.000000 1.590690 0.000000 
#    z 0.000000 0.000000 1.618790 
# 
# From -- ./inp_files/17290.got.cif
#   From: 2010.03.12/outbox.cif.g09.slc.cpg/sg38_9_cif.got.tgz:17290.got - 2010.04.14 02:38:36.
