data_PCOD8177181
_publ_section_title
;
Structure prediction by ZEFSAII (Michael W. Deem and Ramdas Pophale) SiO2 
 PCOD8177181
Probable space group: C C C 2
;
_chemical_formula_sum "Si O2"
_cell_formula_units_Z 16
_cell_length_a 6.747550
_cell_length_b 7.463944
_cell_length_c 12.111879
_cell_angle_alpha 90.000000
_cell_angle_beta 90.000000
_cell_angle_gamma 90.000000
_cell_volume 609.994624
_symmetry_space_group_name_H-M "C C C 2"
_symmetry_group_IT_number 37
_symmetry_cell_setting 'orthorhombic'
loop_
_space_group_symop_operation_xyz
x,y,z
-x,-y,z
-x,y,1/2+z
x,-y,1/2+z
1/2+x,1/2+y,z
1/2-x,1/2-y,z
1/2-x,1/2+y,1/2+z
1/2+x,1/2-y,1/2+z
loop_
_atom_site_type_symbol
_atom_site_label
_atom_site_fract_x
_atom_site_fract_y
_atom_site_fract_z
Si Si1 0.500000 0.000000 0.822330
Si Si2 0.750000 0.750000 0.969168
Si Si3 0.522864 0.304391 0.166923
O O1 0.588411 0.157173 0.743434
O O2 0.320934 0.082823 0.894437
O O3 0.567665 0.688928 0.044584
O O4 0.500000 0.500000 0.221921
O O5 0.750000 0.250000 0.155911
#
# Coordination Sequence:
#
# PCOD8177181 Si02
#       3
#     4   4   8
#     4  12  26  54  84 130 166 230 276 350 426 502
#     4  12  28  52  88 124 174 222 284 348 426 498
#     4  12  27  55  84 123 174 221 285 347 417 512
#
# _framework density 26.22974
#
# number of rings (size 3 to 8) (size 9 to 14) (size 15 to 20)
#    0.000    0.000    2.500    7.500    0.000    2.000 
#   22.500    0.000    0.000    0.000    0.000    0.000 
#    0.000    0.000    0.000    0.000    0.000    0.000 
#
# Total GULP energy -99219.080961 kJ/mol
# GULP energy per Si atom -12402.385120 kJ/mol
# Density = 2.617004 g / cm^3
# Si number density = 26.229740 Si / 1000 Ang^3
#
#
#
# Elastic Constant Matrix: (Units=GPa)
#
#
# Indices 1 2 3 4 5 6 
#
# 1 142.2410 93.0239 59.3883 0.0000 0.0000 0.0000
# 2 93.0239 279.8967 110.9689 0.0000 0.0000 0.0000
# 3 59.3883 110.9689 188.3944 0.0000 0.0000 0.0000
# 4 0.0000 0.0000 0.0000 65.8983 0.0000 0.0000
# 5 0.0000 0.0000 0.0000 0.0000 0.2330 0.0000
# 6 0.0000 0.0000 0.0000 0.0000 0.0000 58.1259
#
#
#
# Elastic Compliance Matrix: (Units=1/GPa)
#
#
# Indices 1 2 3 4 5 6 
#
# 1 0.009275 -0.002509 -0.001446 0.000000 0.000000 0.000000
# 2 -0.002509 0.005340 -0.002354 0.000000 0.000000 0.000000
# 3 -0.001446 -0.002354 0.007151 0.000000 0.000000 0.000000
# 4 0.000000 0.000000 0.000000 0.015175 0.000000 0.000000
# 5 0.000000 0.000000 0.000000 0.000000 4.291937 0.000000
# 6 0.000000 0.000000 0.000000 0.000000 0.000000 0.017204
#
#
# Mechanical properties :
#
#
# Convention : Reuss Voigt Hill
#
# Bulk Modulus (GPa) = 109.32915 126.36604 117.84759
# Shear Modulus (GPa) = 1.14633 47.99485 24.57059
#
# Velocity S-wave (km/s) = 0.66180 4.28224 3.06395
# Velocity P-wave (km/s) = 6.50814 8.52827 7.58575
#
# Compressibility (1/GPa) = 0.00914669
#
# Stress axis : x y z
#
# Youngs Moduli (GPa) = 107.81616 187.25877 139.84867
#
# Poissons Ratio (x) = 0.46991 0.20218
# Poissons Ratio (y) = 0.27055 0.32927
# Poissons Ratio (z) = 0.15587 0.44089
#
# Static dielectric constant tensor:
#      x y z
#    x 4.618940 0.000000 0.000000 
#    y 0.000000 4.532820 0.000000 
#    z 0.000000 0.000000 5.031530 
# 
# 
# High freq. dielectric constant tensor:
#      x y z
#    x 2.061040 0.000000 0.000000 
#    y 0.000000 2.068600 0.000000 
#    z 0.000000 0.000000 2.055860 
# 
# From -- ./inp_files/5674.got.cif
#   From: 2010.03.12/outbox.cif.g09.slc.cpg/sg37_3_cif.got.tgz:5674.got - 2010.04.14 02:25:27.
