data_PCOD8177542
_publ_section_title
;
Structure prediction by ZEFSAII (Michael W. Deem and Ramdas Pophale) SiO2 
 PCOD8177542
Probable space group: A M M 2
;
_chemical_formula_sum "Si O2"
_cell_formula_units_Z 56
_cell_length_a 17.832893
_cell_length_b 9.188860
_cell_length_c 19.258347
_cell_angle_alpha 90.000000
_cell_angle_beta 90.000000
_cell_angle_gamma 90.000000
_cell_volume 3155.748948
_symmetry_space_group_name_H-M "A M M 2"
_symmetry_group_IT_number 38
_symmetry_cell_setting 'orthorhombic'
loop_
_space_group_symop_operation_xyz
x,y,z
-x,-y,z
-x,y,z
x,-y,z
x,1/2+y,1/2+z
-x,1/2-y,1/2+z
-x,1/2+y,1/2+z
x,1/2-y,1/2+z
loop_
_atom_site_type_symbol
_atom_site_label
_atom_site_fract_x
_atom_site_fract_y
_atom_site_fract_z
Si Si1 0.765750 0.329967 0.986850
Si Si2 0.809461 0.164390 0.736972
Si Si3 0.584192 0.169967 0.229244
Si Si4 0.688410 0.166064 0.624926
Si Si5 0.294067 0.832510 0.337190
Si Si6 0.084341 0.658512 0.805855
Si Si7 0.085944 0.172603 0.946845
O O1 0.785325 0.500000 0.995805
O O2 0.714086 0.301802 0.919034
O O3 0.846002 0.245538 0.990730
O O4 0.710052 0.276874 0.048394
O O5 0.766145 0.180610 0.665767
O O6 0.763627 0.223776 0.802447
O O7 0.882517 0.266902 0.736295
O O8 0.832834 0.000000 0.752040
O O9 0.500000 0.232096 0.235042
O O10 0.624435 0.241072 0.162569
O O11 0.624622 0.204359 0.303222
O O12 0.583635 0.000000 0.213928
O O13 0.659832 0.000000 0.623525
O O14 0.274682 0.000000 0.320002
O O15 0.121588 0.500000 0.822474
O O16 0.096217 0.766258 0.869846
O O17 0.000000 0.631376 0.786939
O O18 0.000000 0.210845 0.973062
O O19 0.097298 0.000000 0.946849
#
# Coordination Sequence:
#
# PCOD8177542 Si02
#       7
#     8   8   8   8   8   8   8
#     4  10  19  33  52  75 104 137 174 214 256 304
#     4  10  18  30  48  70  97 128 166 211 253 299
#     4   9  18  34  55  78 103 132 168 210 257 309
#     4   9  20  35  51  75 105 137 171 207 253 306
#     4   9  17  30  51  75  98 127 165 208 252 301
#     4  10  19  30  46  69  96 128 168 214 262 306
#     4  10  20  32  48  73 103 135 172 215 262 305
#
# _framework density 17.74539
#
# number of rings (size 3 to 8) (size 9 to 14) (size 15 to 20)
#    0.000    2.429    1.429    1.286    0.000    3.143 
#    0.000    1.429    0.000    6.857    0.000    0.000 
#    0.000    0.000    0.000    0.000    0.000    0.000 
#
# Total GULP energy -346879.672413 kJ/mol
# GULP energy per Si atom -12388.559729 kJ/mol
# Density = 1.770500 g / cm^3
# Si number density = 17.745390 Si / 1000 Ang^3
#
#
#
# Elastic Constant Matrix: (Units=GPa)
#
#
# Indices 1 2 3 4 5 6 
#
# 1 114.0694 42.9555 54.1194 0.0000 0.0000 0.0000
# 2 42.9555 74.8533 36.9940 0.0000 0.0000 0.0000
# 3 54.1194 36.9940 100.6329 0.0000 0.0000 0.0000
# 4 0.0000 0.0000 0.0000 21.2656 0.0000 0.0000
# 5 0.0000 0.0000 0.0000 0.0000 22.9450 0.0000
# 6 0.0000 0.0000 0.0000 0.0000 0.0000 26.1751
#
#
#
# Elastic Compliance Matrix: (Units=1/GPa)
#
#
# Indices 1 2 3 4 5 6 
#
# 1 0.013109 -0.004935 -0.005236 0.000000 0.000000 0.000000
# 2 -0.004935 0.018183 -0.004030 0.000000 0.000000 0.000000
# 3 -0.005236 -0.004030 0.014234 0.000000 0.000000 0.000000
# 4 0.000000 0.000000 0.000000 0.047024 0.000000 0.000000
# 5 0.000000 0.000000 0.000000 0.000000 0.043582 0.000000
# 6 0.000000 0.000000 0.000000 0.000000 0.000000 0.038204
#
#
# Mechanical properties :
#
#
# Convention : Reuss Voigt Hill
#
# Bulk Modulus (GPa) = 58.39611 61.96594 60.18103
# Shear Modulus (GPa) = 23.98671 24.44292 24.21482
#
# Velocity S-wave (km/s) = 3.68056 3.71539 3.69802
# Velocity P-wave (km/s) = 7.14431 7.30758 7.22641
#
# Compressibility (1/GPa) = 0.01712443
#
# Stress axis : x y z
#
# Youngs Moduli (GPa) = 76.28277 54.99491 70.25222
#
# Poissons Ratio (x) = 0.27141 0.36782
# Poissons Ratio (y) = 0.37647 0.28314
# Poissons Ratio (z) = 0.39939 0.22165
#
# Static dielectric constant tensor:
#      x y z
#    x 3.691410 0.000000 0.000000 
#    y 0.000000 3.571530 0.000000 
#    z 0.000000 0.000000 3.215540 
# 
# 
# High freq. dielectric constant tensor:
#      x y z
#    x 1.683340 0.000000 0.000000 
#    y 0.000000 1.691520 0.000000 
#    z 0.000000 0.000000 1.663280 
# 
# From -- ./inp_files/18811.got.cif
#   From: 2010.03.12/outbox.cif.g09.slc.cpg/sg38_10_cif.got.tgz:18811.got - 2010.04.14 02:38:36.
