data_PCOD8177481
_publ_section_title
;
Structure prediction by ZEFSAII (Michael W. Deem and Ramdas Pophale) SiO2 
 PCOD8177481
Probable space group: A M M 2
;
_chemical_formula_sum "Si O2"
_cell_formula_units_Z 64
_cell_length_a 9.012047
_cell_length_b 28.273922
_cell_length_c 14.338666
_cell_angle_alpha 90.000000
_cell_angle_beta 90.000000
_cell_angle_gamma 90.000000
_cell_volume 3653.576895
_symmetry_space_group_name_H-M "A M M 2"
_symmetry_group_IT_number 38
_symmetry_cell_setting 'orthorhombic'
loop_
_space_group_symop_operation_xyz
x,y,z
-x,-y,z
-x,y,z
x,-y,z
x,1/2+y,1/2+z
-x,1/2-y,1/2+z
-x,1/2+y,1/2+z
x,1/2-y,1/2+z
loop_
_atom_site_type_symbol
_atom_site_label
_atom_site_fract_x
_atom_site_fract_y
_atom_site_fract_z
Si Si1 0.324137 0.132485 0.387600
Si Si2 0.170579 0.944809 0.270699
Si Si3 0.824134 0.551794 0.561302
Si Si4 0.673240 0.275699 0.551234
Si Si5 0.828327 0.640643 0.448004
Si Si6 0.672201 0.220341 0.265752
Si Si7 0.169586 0.185244 0.761197
Si Si8 0.824229 0.821498 0.552261
O O1 0.500000 0.131698 0.397672
O O2 0.271590 0.083495 0.342992
O O3 0.266596 0.175673 0.323086
O O4 0.250509 0.137977 0.489409
O O5 0.227517 0.933842 0.165499
O O6 0.000000 0.929080 0.282500
O O7 0.189132 0.000000 0.292987
O O8 0.758669 0.500000 0.534410
O O9 0.769709 0.590122 0.485521
O O10 0.000000 0.548218 0.562098
O O11 0.500000 0.266028 0.534259
O O12 0.726001 0.319416 0.490974
O O13 0.708710 0.288517 0.657844
O O14 0.762657 0.229319 0.519640
O O15 0.810059 0.642680 0.335596
O O16 0.000000 0.648799 0.476932
O O17 0.500000 0.226659 0.284761
O O18 0.746588 0.268739 0.300230
O O19 0.226308 0.168708 0.659419
O O20 0.000000 0.200798 0.751635
O O21 0.000000 0.823021 0.539427
#
# Coordination Sequence:
#
# PCOD8177481 Si02
#       8
#     8   8   8   8   8   8   8   8
#     4  11  21  32  49  73  97 125 162 199 239 285
#     4   9  18  33  52  74  99 126 155 189 234 287
#     4   8  15  29  50  75 100 124 153 192 237 285
#     4  10  19  31  46  68  98 127 156 192 236 285
#     4  10  18  29  48  72  95 123 160 197 236 284
#     4   9  19  32  45  65  96 128 156 190 233 284
#     4   9  19  32  46  66  93 125 161 199 235 274
#     4  10  20  34  48  64  92 129 165 200 236 275
#
# _framework density 17.51708
#
# number of rings (size 3 to 8) (size 9 to 14) (size 15 to 20)
#    0.000    2.500    0.000    3.375    0.000    4.750 
#    0.000    0.000    0.000    1.875    0.000    3.500 
#    0.000    0.000    0.000    0.000    0.000    0.000 
#
# Total GULP energy -396781.397548 kJ/mol
# GULP energy per Si atom -12399.418673 kJ/mol
# Density = 1.747721 g / cm^3
# Si number density = 17.517080 Si / 1000 Ang^3
#
#
#
# Elastic Constant Matrix: (Units=GPa)
#
#
# Indices 1 2 3 4 5 6 
#
# 1 53.3371 31.6233 34.5208 0.0000 0.0000 0.0000
# 2 31.6233 95.1264 66.9830 0.0000 0.0000 0.0000
# 3 34.5208 66.9830 94.9285 0.0000 0.0000 0.0000
# 4 0.0000 0.0000 0.0000 30.3648 0.0000 0.0000
# 5 0.0000 0.0000 0.0000 0.0000 20.5521 0.0000
# 6 0.0000 0.0000 0.0000 0.0000 0.0000 17.0605
#
#
#
# Elastic Compliance Matrix: (Units=1/GPa)
#
#
# Indices 1 2 3 4 5 6 
#
# 1 0.025201 -0.003825 -0.006465 0.000000 0.000000 0.000000
# 2 -0.003825 0.021474 -0.013761 0.000000 0.000000 0.000000
# 3 -0.006465 -0.013761 0.022596 0.000000 0.000000 0.000000
# 4 0.000000 0.000000 0.000000 0.032933 0.000000 0.000000
# 5 0.000000 0.000000 0.000000 0.000000 0.048657 0.000000
# 6 0.000000 0.000000 0.000000 0.000000 0.000000 0.058615
#
#
# Mechanical properties :
#
#
# Convention : Reuss Voigt Hill
#
# Bulk Modulus (GPa) = 47.24339 56.62738 51.93538
# Shear Modulus (GPa) = 18.89398 20.94647 19.92023
#
# Velocity S-wave (km/s) = 3.28777 3.46175 3.37588
# Velocity P-wave (km/s) = 6.43747 6.95524 6.70136
#
# Compressibility (1/GPa) = 0.02116698
#
# Stress axis : x y z
#
# Youngs Moduli (GPa) = 39.68087 46.56800 44.25649
#
# Poissons Ratio (x) = 0.17813 0.28613
# Poissons Ratio (y) = 0.15179 0.60903
# Poissons Ratio (z) = 0.25655 0.64084
#
# Static dielectric constant tensor:
#      x y z
#    x 3.110170 0.000000 0.000000 
#    y 0.000000 3.285680 0.000000 
#    z 0.000000 0.000000 3.448140 
# 
# 
# High freq. dielectric constant tensor:
#      x y z
#    x 1.666770 0.000000 0.000000 
#    y 0.000000 1.655710 0.000000 
#    z 0.000000 0.000000 1.680450 
# 
# From -- ./inp_files/13083.got.cif
#   From: 2010.03.12/outbox.cif.g09.slc.cpg/sg38_7_cif.got.tgz:13083.got - 2010.04.14 02:38:36.
