data_PCOD8177994
_publ_section_title
;
Structure prediction by ZEFSAII (Michael W. Deem and Ramdas Pophale) SiO2 
 PCOD8177994
Probable space group: A M M 2
;
_chemical_formula_sum "Si O2"
_cell_formula_units_Z 48
_cell_length_a 11.731594
_cell_length_b 25.680346
_cell_length_c 9.384640
_cell_angle_alpha 90.000000
_cell_angle_beta 90.000000
_cell_angle_gamma 90.000000
_cell_volume 2827.323566
_symmetry_space_group_name_H-M "A M M 2"
_symmetry_group_IT_number 38
_symmetry_cell_setting 'orthorhombic'
loop_
_space_group_symop_operation_xyz
x,y,z
-x,-y,z
-x,y,z
x,-y,z
x,1/2+y,1/2+z
-x,1/2-y,1/2+z
-x,1/2+y,1/2+z
x,1/2-y,1/2+z
loop_
_atom_site_type_symbol
_atom_site_label
_atom_site_fract_x
_atom_site_fract_y
_atom_site_fract_z
Si Si1 0.868413 0.279797 0.617160
Si Si2 0.129403 0.862985 0.878269
Si Si3 0.500000 0.683610 0.767572
Si Si4 0.740127 0.172306 0.616394
Si Si5 0.500000 0.783374 0.586426
Si Si6 0.867753 0.560156 0.624517
Si Si7 0.259414 0.859522 0.304281
O O1 0.850993 0.311025 0.470649
O O2 0.814199 0.223849 0.597944
O O3 0.810769 0.310118 0.747433
O O4 0.000000 0.273371 0.656900
O O5 0.214446 0.862861 0.745362
O O6 0.000000 0.865185 0.821992
O O7 0.157929 0.913676 0.972212
O O8 0.500000 0.723549 0.635877
O O9 0.609486 0.646410 0.756468
O O10 0.500000 0.716620 0.914485
O O11 0.609736 0.187076 0.648219
O O12 0.750499 0.138063 0.474357
O O13 0.835122 0.500000 0.614376
O O14 0.790423 0.586461 0.745432
O O15 0.000000 0.568984 0.665224
#
# Coordination Sequence:
#
# PCOD8177994 Si02
#       7
#     8   8   4   8   4   8   8
#     4  10  19  30  46  71 104 139 168 198 242 300
#     4   9  19  32  49  74 101 133 167 204 252 299
#     4  10  20  34  49  73 104 138 177 209 238 289
#     4  11  20  31  47  74 106 135 169 205 246 295
#     4  10  22  32  48  71 104 146 176 203 240 281
#     4   9  19  38  59  76  97 127 166 212 261 310
#     4  10  20  33  51  74 101 134 171 209 249 296
#
# _framework density 16.977186
#
# number of rings (size 3 to 8) (size 9 to 14) (size 15 to 20)
#    0.000    2.167    1.667    3.000    2.333    4.000 
#    0.000    1.250    0.000    2.000    0.000    1.167 
#    0.000    0.000    0.000    0.000    0.000    0.000 
#
# Total GULP energy -297678.356662 kJ/mol
# GULP energy per Si atom -12403.264861 kJ/mol
# Density = 1.693855 g / cm^3
# Si number density = 16.977186 Si / 1000 Ang^3
#
#
#
# Elastic Constant Matrix: (Units=GPa)
#
#
# Indices 1 2 3 4 5 6 
#
# 1 130.9675 52.6473 58.5812 0.0000 0.0000 0.0000
# 2 52.6473 113.2091 46.8051 0.0000 0.0000 0.0000
# 3 58.5812 46.8051 86.6959 0.0000 0.0000 0.0000
# 4 0.0000 0.0000 0.0000 12.8487 0.0000 0.0000
# 5 0.0000 0.0000 0.0000 0.0000 28.6189 0.0000
# 6 0.0000 0.0000 0.0000 0.0000 0.0000 17.0228
#
#
#
# Elastic Compliance Matrix: (Units=1/GPa)
#
#
# Indices 1 2 3 4 5 6 
#
# 1 0.011580 -0.002768 -0.006330 0.000000 0.000000 0.000000
# 2 -0.002768 0.012033 -0.004626 0.000000 0.000000 0.000000
# 3 -0.006330 -0.004626 0.018309 0.000000 0.000000 0.000000
# 4 0.000000 0.000000 0.000000 0.077829 0.000000 0.000000
# 5 0.000000 0.000000 0.000000 0.000000 0.034942 0.000000
# 6 0.000000 0.000000 0.000000 0.000000 0.000000 0.058745
#
#
# Mechanical properties :
#
#
# Convention : Reuss Voigt Hill
#
# Bulk Modulus (GPa) = 69.09007 71.88217 70.48612
# Shear Modulus (GPa) = 20.34919 23.22067 21.78493
#
# Velocity S-wave (km/s) = 3.46586 3.70233 3.58605
# Velocity P-wave (km/s) = 7.53661 7.79158 7.66515
#
# Compressibility (1/GPa) = 0.01447386
#
# Stress axis : x y z
#
# Youngs Moduli (GPa) = 86.35896 83.10481 54.61694
#
# Poissons Ratio (x) = 0.23003 0.34573
# Poissons Ratio (y) = 0.23903 0.25266
# Poissons Ratio (z) = 0.54666 0.38444
#
# Static dielectric constant tensor:
#      x y z
#    x 3.371540 0.000000 0.000000 
#    y 0.000000 2.904610 0.000000 
#    z 0.000000 0.000000 3.189550 
# 
# 
# High freq. dielectric constant tensor:
#      x y z
#    x 1.665770 0.000000 0.000000 
#    y 0.000000 1.621940 0.000000 
#    z 0.000000 0.000000 1.655580 
# 
# From -- ./inp_files/4721.got.cif
#   From: 2010.03.12/outbox.cif.g09.slc.cpg/sg38_3_cif.got.tgz:4721.got - 2010.04.14 02:38:36.
