data_PCOD8177116
_publ_section_title
;
Structure prediction by ZEFSAII (Michael W. Deem and Ramdas Pophale) SiO2 
 PCOD8177116
Probable space group: C C C 2
;
_chemical_formula_sum "Si O2"
_cell_formula_units_Z 48
_cell_length_a 30.899233
_cell_length_b 6.231775
_cell_length_c 9.206150
_cell_angle_alpha 90.000000
_cell_angle_beta 90.000000
_cell_angle_gamma 90.000000
_cell_volume 1772.709249
_symmetry_space_group_name_H-M "C C C 2"
_symmetry_group_IT_number 37
_symmetry_cell_setting 'orthorhombic'
loop_
_space_group_symop_operation_xyz
x,y,z
-x,-y,z
-x,y,1/2+z
x,-y,1/2+z
1/2+x,1/2+y,z
1/2-x,1/2-y,z
1/2-x,1/2+y,1/2+z
1/2+x,1/2-y,1/2+z
loop_
_atom_site_type_symbol
_atom_site_label
_atom_site_fract_x
_atom_site_fract_y
_atom_site_fract_z
Si Si1 0.155474 0.468818 0.751360
Si Si2 0.799974 0.290108 0.990843
Si Si3 0.358452 0.545676 0.412122
Si Si4 0.411661 0.381966 0.182896
Si Si5 0.488434 0.750574 0.522706
Si Si6 0.440749 0.137500 0.732794
O O1 0.187988 0.631259 0.830353
O O2 0.176559 0.464555 0.592521
O O3 0.161666 0.233523 0.816967
O O4 0.102321 0.524427 0.735694
O O5 0.750000 0.250000 0.020740
O O6 0.821131 0.055295 0.011868
O O7 0.377892 0.342012 0.315130
O O8 0.393910 0.645075 0.520061
O O9 0.419786 0.630327 0.221546
O O10 0.456810 0.247608 0.169490
O O11 0.500000 0.500000 0.488429
O O12 0.530387 0.885022 0.583282
O O13 0.469513 0.866923 0.379498
#
# Coordination Sequence:
#
# PCOD8177116 Si02
#       6
#     8   8   8   8   8   8
#     4  11  28  52  78 116 160 210 262 322 413 474
#     4  12  30  49  83 118 153 204 262 337 403 495
#     4  11  24  49  80 111 159 205 256 322 410 475
#     4  11  23  46  74 104 150 209 254 312 395 460
#     4  12  27  42  67 108 145 195 263 313 367 453
#     4  11  26  45  68 105 152 204 247 322 379 460
#
# _framework density 27.077200999999999
#
# number of rings (size 3 to 8) (size 9 to 14) (size 15 to 20)
#    0.000    0.667    6.667    1.000   11.667    1.333 
#    0.000    0.000    0.000    0.000    0.000    0.000 
#    0.000    0.000    0.000    0.000    0.000    0.000 
#
# Total GULP energy -297417.086701 kJ/mol
# GULP energy per Si atom -12392.378613 kJ/mol
# Density = 2.701557 g / cm^3
# Si number density = 27.077201 Si / 1000 Ang^3
#
#
#
# Elastic Constant Matrix: (Units=GPa)
#
#
# Indices 1 2 3 4 5 6 
#
# 1 156.4422 39.2579 78.2206 0.0000 0.0000 0.0000
# 2 39.2579 62.7429 10.7434 0.0000 0.0000 0.0000
# 3 78.2206 10.7434 98.3395 0.0000 0.0000 0.0000
# 4 0.0000 0.0000 0.0000 38.1298 0.0000 0.0000
# 5 0.0000 0.0000 0.0000 0.0000 14.3350 0.0000
# 6 0.0000 0.0000 0.0000 0.0000 0.0000 41.8065
#
#
#
# Elastic Compliance Matrix: (Units=1/GPa)
#
#
# Indices 1 2 3 4 5 6 
#
# 1 0.012674 -0.006322 -0.009390 0.000000 0.000000 0.000000
# 2 -0.006322 0.019395 0.002910 0.000000 0.000000 0.000000
# 3 -0.009390 0.002910 0.017320 0.000000 0.000000 0.000000
# 4 0.000000 0.000000 0.000000 0.026226 0.000000 0.000000
# 5 0.000000 0.000000 0.000000 0.000000 0.069759 0.000000
# 6 0.000000 0.000000 0.000000 0.000000 0.000000 0.023920
#
#
# Mechanical properties :
#
#
# Convention : Reuss Voigt Hill
#
# Bulk Modulus (GPa) = 42.04461 63.77424 52.90943
# Shear Modulus (GPa) = 24.65153 31.47444 28.06299
#
# Velocity S-wave (km/s) = 3.02058 3.41309 3.22282
# Velocity P-wave (km/s) = 5.26561 6.25589 5.78199
#
# Compressibility (1/GPa) = 0.02378426
#
# Stress axis : x y z
#
# Youngs Moduli (GPa) = 78.90425 51.55852 57.73675
#
# Poissons Ratio (x) = 0.32595 0.54215
# Poissons Ratio (y) = 0.49883 -0.16799
# Poissons Ratio (z) = 0.74092 -0.15002
#
# Static dielectric constant tensor:
#      x y z
#    x 5.156500 0.000000 0.000000 
#    y 0.000000 5.514290 0.000000 
#    z 0.000000 0.000000 4.990240 
# 
# 
# High freq. dielectric constant tensor:
#      x y z
#    x 2.079360 0.000000 0.000000 
#    y 0.000000 2.143190 0.000000 
#    z 0.000000 0.000000 2.094360 
# 
# From -- ./inp_files/2414.got.cif
#   From: 2010.03.12/outbox.cif.g09.slc.cpg/sg37_2_cif.got.tgz:2414.got - 2010.04.14 02:25:27.
