data_PCOD8177594
_publ_section_title
;
Structure prediction by ZEFSAII (Michael W. Deem and Ramdas Pophale) SiO2 
 PCOD8177594
Probable space group: A M M 2
;
_chemical_formula_sum "Si O2"
_cell_formula_units_Z 56
_cell_length_a 15.515388
_cell_length_b 9.009033
_cell_length_c 20.441025
_cell_angle_alpha 90.000000
_cell_angle_beta 90.000000
_cell_angle_gamma 90.000000
_cell_volume 2857.218726
_symmetry_space_group_name_H-M "A M M 2"
_symmetry_group_IT_number 38
_symmetry_cell_setting 'orthorhombic'
loop_
_space_group_symop_operation_xyz
x,y,z
-x,-y,z
-x,y,z
x,-y,z
x,1/2+y,1/2+z
-x,1/2-y,1/2+z
-x,1/2+y,1/2+z
x,1/2-y,1/2+z
loop_
_atom_site_type_symbol
_atom_site_label
_atom_site_fract_x
_atom_site_fract_y
_atom_site_fract_z
Si Si1 0.594387 0.332029 0.021000
Si Si2 0.232964 0.676184 0.341707
Si Si3 0.096414 0.171388 0.248508
Si Si4 0.637347 0.170329 0.666484
Si Si5 0.237880 0.673626 0.484633
Si Si6 0.804456 0.328686 0.624788
Si Si7 0.403985 0.827211 0.293983
O O1 0.500000 0.296084 0.991641
O O2 0.621934 0.500000 0.004098
O O3 0.587466 0.310902 0.098784
O O4 0.663641 0.225191 0.989280
O O5 0.237157 0.500000 0.334231
O O6 0.165215 0.736657 0.289611
O O7 0.200256 0.726662 0.414551
O O8 0.329385 0.739091 0.332110
O O9 0.110996 0.189890 0.169895
O O10 0.000000 0.228680 0.263727
O O11 0.106739 0.000000 0.268317
O O12 0.734764 0.225356 0.659076
O O13 0.589890 0.270022 0.719790
O O14 0.638809 0.000000 0.690244
O O15 0.241017 0.500000 0.483088
O O16 0.182200 0.725100 0.548697
O O17 0.772984 0.500000 0.624749
O O18 0.500000 0.803376 0.325159
O O19 0.379045 0.000000 0.294520
#
# Coordination Sequence:
#
# PCOD8177594 Si02
#       7
#     8   8   8   8   8   8   8
#     4   9  18  31  48  74 108 146 189 234 281 335
#     4  11  23  39  58  83 118 155 191 238 289 336
#     4  10  21  38  63  91 116 146 186 233 286 345
#     4  10  18  30  51  79 111 145 183 233 288 335
#     4   9  20  36  54  78 109 148 188 229 281 333
#     4   9  17  34  58  82 111 144 183 228 277 337
#     4  11  23  36  52  77 111 154 200 242 285 336
#
# _framework density 19.59948
#
# number of rings (size 3 to 8) (size 9 to 14) (size 15 to 20)
#    0.000    2.143    1.429    1.714    0.000    4.571 
#    0.000    3.571    0.000    2.571    0.000    0.000 
#    0.000    0.000    0.000    0.000    0.000    0.000 
#
# Total GULP energy -346959.945094 kJ/mol
# GULP energy per Si atom -12391.426611 kJ/mol
# Density = 1.955487 g / cm^3
# Si number density = 19.599480 Si / 1000 Ang^3
#
#
#
# Elastic Constant Matrix: (Units=GPa)
#
#
# Indices 1 2 3 4 5 6 
#
# 1 91.0148 29.1469 49.4439 0.0000 0.0000 0.0000
# 2 29.1469 43.8555 37.1403 0.0000 0.0000 0.0000
# 3 49.4439 37.1403 127.5851 0.0000 0.0000 0.0000
# 4 0.0000 0.0000 0.0000 23.6678 0.0000 0.0000
# 5 0.0000 0.0000 0.0000 0.0000 -0.0133 0.0000
# 6 0.0000 0.0000 0.0000 0.0000 0.0000 17.7865
#
#
#
# Elastic Compliance Matrix: (Units=1/GPa)
#
#
# Indices 1 2 3 4 5 6 
#
# 1 0.015322 -0.006841 -0.003946 0.000000 0.000000 0.000000
# 2 -0.006841 0.033317 -0.007048 0.000000 0.000000 0.000000
# 3 -0.003946 -0.007048 0.011419 0.000000 0.000000 0.000000
# 4 0.000000 0.000000 0.000000 0.042252 0.000000 0.000000
# 5 0.000000 0.000000 0.000000 0.000000-75.415672 0.000000
# 6 0.000000 0.000000 0.000000 0.000000 0.000000 0.056222
#
#
# Mechanical properties :
#
#
# Convention : Reuss Voigt Hill
#
# Bulk Modulus (GPa) = 41.00371 54.87972 47.94172
# Shear Modulus (GPa) = -0.06648 18.06982 9.00167
#
# Velocity S-wave (km/s) = -0.18437 3.03966 2.14541
# Velocity P-wave (km/s) = 4.57394 6.35459 5.53632
#
# Compressibility (1/GPa) = 0.02438804
#
# Stress axis : x y z
#
# Youngs Moduli (GPa) = 65.26612 30.01453 87.57473
#
# Poissons Ratio (x) = 0.20533 0.34560
# Poissons Ratio (y) = 0.44649 0.61719
# Poissons Ratio (z) = 0.25756 0.21153
#
# Static dielectric constant tensor:
#      x y z
#    x 3.361790 0.000000 0.000000 
#    y 0.000000 3.561640 0.000000 
#    z 0.000000 0.000000 4.150580 
# 
# 
# High freq. dielectric constant tensor:
#      x y z
#    x 1.736490 0.000000 0.000000 
#    y 0.000000 1.760680 0.000000 
#    z 0.000000 0.000000 1.772230 
# 
# From -- ./inp_files/21007.got.cif
#   From: 2010.03.12/outbox.cif.g09.slc.cpg/sg38_11_cif.got.tgz:21007.got - 2010.04.14 02:38:36.
