data_PCOD8177889
_publ_section_title
;
Structure prediction by ZEFSAII (Michael W. Deem and Ramdas Pophale) SiO2 
 PCOD8177889
Probable space group: A M M 2
;
_chemical_formula_sum "Si O2"
_cell_formula_units_Z 64
_cell_length_a 9.171380
_cell_length_b 26.559097
_cell_length_c 18.121729
_cell_angle_alpha 90.000000
_cell_angle_beta 90.000000
_cell_angle_gamma 90.000000
_cell_volume 4414.155463
_symmetry_space_group_name_H-M "A M M 2"
_symmetry_group_IT_number 38
_symmetry_cell_setting 'orthorhombic'
loop_
_space_group_symop_operation_xyz
x,y,z
-x,-y,z
-x,y,z
x,-y,z
x,1/2+y,1/2+z
-x,1/2-y,1/2+z
-x,1/2+y,1/2+z
x,1/2-y,1/2+z
loop_
_atom_site_type_symbol
_atom_site_label
_atom_site_fract_x
_atom_site_fract_y
_atom_site_fract_z
Si Si1 0.673073 0.944750 0.877470
Si Si2 0.327296 0.649130 0.284897
Si Si3 0.330297 0.199280 0.243412
Si Si4 0.827396 0.357204 0.627610
Si Si5 0.834611 0.738684 0.532216
Si Si6 0.332147 0.441556 0.543336
Si Si7 0.667211 0.256240 0.383014
Si Si8 0.168432 0.207364 0.675018
O O1 0.500000 0.945867 0.879388
O O2 0.728282 0.903347 0.819590
O O3 0.732507 0.000000 0.853848
O O4 0.725416 0.931587 0.960227
O O5 0.500000 0.649558 0.269297
O O6 0.280342 0.693207 0.341376
O O7 0.238648 0.655898 0.207644
O O8 0.500000 0.193726 0.223727
O O9 0.242679 0.152119 0.208969
O O10 0.308211 0.206555 0.331731
O O11 0.268703 0.249490 0.207811
O O12 0.777827 0.312029 0.572885
O O13 0.768756 0.410013 0.598134
O O14 0.000000 0.359031 0.636953
O O15 0.748743 0.751602 0.459046
O O16 0.820496 0.787316 0.586352
O O17 0.000000 0.729570 0.508780
O O18 0.500000 0.424458 0.551835
O O19 0.315104 0.500000 0.564021
O O20 0.500000 0.263009 0.403588
O O21 0.000000 0.213154 0.699996
#
# Coordination Sequence:
#
# PCOD8177889 Si02
#       8
#     8   8   8   8   8   8   8   8
#     4   8  14  25  41  60  81 105 137 175 206 233
#     4   9  16  26  40  58  78 104 137 166 197 236
#     4   9  17  29  42  57  77 102 133 166 197 234
#     4  10  19  29  41  59  82 109 138 166 200 238
#     4   9  18  28  38  55  79 106 134 161 193 237
#     4   9  17  29  44  60  79 107 140 171 203 235
#     4   9  17  26  39  59  79 101 132 167 198 232
#     4   9  17  28  39  55  79 105 133 164 198 236
#
# _framework density 14.498809
#
# number of rings (size 3 to 8) (size 9 to 14) (size 15 to 20)
#    0.000    3.000    0.000    4.125    0.000    6.750 
#    0.000    0.625    0.000    1.125    0.000    0.000 
#    0.000    1.000    0.000    5.500    0.000    3.750 
#
# Total GULP energy -396535.978683 kJ/mol
# GULP energy per Si atom -12391.749334 kJ/mol
# Density = 1.446581 g / cm^3
# Si number density = 14.498809 Si / 1000 Ang^3
#
#
#
# Elastic Constant Matrix: (Units=GPa)
#
#
# Indices 1 2 3 4 5 6 
#
# 1 62.6196 31.4434 43.4066 0.0000 0.0000 0.0000
# 2 31.4434 74.5762 44.4299 0.0000 0.0000 0.0000
# 3 43.4066 44.4299 80.8620 0.0000 0.0000 0.0000
# 4 0.0000 0.0000 0.0000 25.2860 0.0000 0.0000
# 5 0.0000 0.0000 0.0000 0.0000 21.9058 0.0000
# 6 0.0000 0.0000 0.0000 0.0000 0.0000 16.0128
#
#
#
# Elastic Compliance Matrix: (Units=1/GPa)
#
#
# Indices 1 2 3 4 5 6 
#
# 1 0.026199 -0.003966 -0.011884 0.000000 0.000000 0.000000
# 2 -0.003966 0.020535 -0.009154 0.000000 0.000000 0.000000
# 3 -0.011884 -0.009154 0.023776 0.000000 0.000000 0.000000
# 4 0.000000 0.000000 0.000000 0.039548 0.000000 0.000000
# 5 0.000000 0.000000 0.000000 0.000000 0.045650 0.000000
# 6 0.000000 0.000000 0.000000 0.000000 0.000000 0.062450
#
#
# Mechanical properties :
#
#
# Convention : Reuss Voigt Hill
#
# Bulk Modulus (GPa) = 48.77807 50.73529 49.75668
# Shear Modulus (GPa) = 18.18183 19.22613 18.70398
#
# Velocity S-wave (km/s) = 3.54506 3.64545 3.59560
# Velocity P-wave (km/s) = 7.10440 7.26552 7.18541
#
# Compressibility (1/GPa) = 0.02050101
#
# Stress axis : x y z
#
# Youngs Moduli (GPa) = 38.16956 48.69754 42.05905
#
# Poissons Ratio (x) = 0.19313 0.49985
# Poissons Ratio (y) = 0.15137 0.38501
# Poissons Ratio (z) = 0.45363 0.44578
#
# Static dielectric constant tensor:
#      x y z
#    x 2.829540 0.000000 0.000000 
#    y 0.000000 2.874340 0.000000 
#    z 0.000000 0.000000 2.976020 
# 
# 
# High freq. dielectric constant tensor:
#      x y z
#    x 1.553710 0.000000 0.000000 
#    y 0.000000 1.523510 0.000000 
#    z 0.000000 0.000000 1.540260 
# 
# From -- ./inp_files/17338.got.cif
#   From: 2010.03.12/outbox.cif.g09.slc.cpg/sg38_9_cif.got.tgz:17338.got - 2010.04.14 02:38:36.
