data_PCOD8177260
_publ_section_title
;
Structure prediction by ZEFSAII (Michael W. Deem and Ramdas Pophale) SiO2 
 PCOD8177260
Probable space group: A M M 2
;
_chemical_formula_sum "Si O2"
_cell_formula_units_Z 64
_cell_length_a 9.067527
_cell_length_b 23.515904
_cell_length_c 19.297501
_cell_angle_alpha 90.000000
_cell_angle_beta 90.000000
_cell_angle_gamma 90.000000
_cell_volume 4114.827258
_symmetry_space_group_name_H-M "A M M 2"
_symmetry_group_IT_number 38
_symmetry_cell_setting 'orthorhombic'
loop_
_space_group_symop_operation_xyz
x,y,z
-x,-y,z
-x,y,z
x,-y,z
x,1/2+y,1/2+z
-x,1/2-y,1/2+z
-x,1/2+y,1/2+z
x,1/2-y,1/2+z
loop_
_atom_site_type_symbol
_atom_site_label
_atom_site_fract_x
_atom_site_fract_y
_atom_site_fract_z
Si Si1 0.828110 0.667009 0.071560
Si Si2 0.326194 0.278962 0.950593
Si Si3 0.326282 0.756529 0.804280
Si Si4 0.326107 0.734366 0.653365
Si Si5 0.830469 0.564547 0.166290
Si Si6 0.327186 0.164914 0.028492
Si Si7 0.324965 0.884404 0.797515
Si Si8 0.324047 0.936998 0.941283
O O1 0.756039 0.710009 0.126316
O O2 0.797428 0.603489 0.099187
O O3 0.000000 0.680932 0.066042
O O4 0.756397 0.672720 0.995125
O O5 0.500000 0.290166 0.956825
O O6 0.268934 0.279208 0.870772
O O7 0.280556 0.217574 0.980527
O O8 0.500000 0.762651 0.813414
O O9 0.284144 0.723218 0.733568
O O10 0.260511 0.820236 0.800921
O O11 0.500000 0.746482 0.644689
O O12 0.279312 0.679011 0.607851
O O13 0.791407 0.500000 0.145344
O O14 0.733156 0.582964 0.230952
O O15 0.000000 0.570882 0.188760
O O16 0.500000 0.156872 0.023812
O O17 0.257084 0.106426 0.999167
O O18 0.500000 0.883345 0.792592
O O19 0.270101 0.917451 0.865663
O O20 0.500000 0.937126 0.943089
O O21 0.261980 0.000000 0.957040
#
# Coordination Sequence:
#
# PCOD8177260 Si02
#       8
#     8   8   8   8   8   8   8   8
#     4  10  19  30  43  62  85 110 145 183 216 252
#     4   9  16  28  45  61  83 110 137 174 221 264
#     4   9  15  25  44  67  86 108 140 175 214 261
#     4   9  16  27  45  63  83 111 142 173 212 258
#     4  10  21  34  44  57  85 122 150 176 217 262
#     4   8  13  22  36  55  78 107 136 163 199 246
#     4  10  17  27  43  65  87 110 148 184 205 239
#     4   9  15  22  35  58  86 112 139 173 204 230
#
# _framework density 15.553508000000001
#
# number of rings (size 3 to 8) (size 9 to 14) (size 15 to 20)
#    0.000    2.750    2.500    1.500    0.000    1.250 
#    0.000    1.250    0.000    0.000    0.000    0.875 
#    0.000    3.000    0.000    0.000    0.000    0.000 
#
# Total GULP energy -396560.112059 kJ/mol
# GULP energy per Si atom -12392.503502 kJ/mol
# Density = 1.551811 g / cm^3
# Si number density = 15.553508 Si / 1000 Ang^3
#
#
#
# Elastic Constant Matrix: (Units=GPa)
#
#
# Indices 1 2 3 4 5 6 
#
# 1 27.7397 21.8578 29.8765 0.0000 0.0000 0.0000
# 2 21.8578 97.2477 72.6934 0.0000 0.0000 0.0000
# 3 29.8765 72.6934 150.3929 0.0000 0.0000 0.0000
# 4 0.0000 0.0000 0.0000 24.8470 0.0000 0.0000
# 5 0.0000 0.0000 0.0000 0.0000 9.3916 0.0000
# 6 0.0000 0.0000 0.0000 0.0000 0.0000 12.7872
#
#
#
# Elastic Compliance Matrix: (Units=1/GPa)
#
#
# Indices 1 2 3 4 5 6 
#
# 1 0.047804 -0.005708 -0.006737 0.000000 0.000000 0.000000
# 2 -0.005708 0.016782 -0.006978 0.000000 0.000000 0.000000
# 3 -0.006737 -0.006978 0.011360 0.000000 0.000000 0.000000
# 4 0.000000 0.000000 0.000000 0.040246 0.000000 0.000000
# 5 0.000000 0.000000 0.000000 0.000000 0.106478 0.000000
# 6 0.000000 0.000000 0.000000 0.000000 0.000000 0.078203
#
#
# Mechanical properties :
#
#
# Convention : Reuss Voigt Hill
#
# Bulk Modulus (GPa) = 26.95468 58.24842 42.60155
# Shear Modulus (GPa) = 14.20108 19.46869 16.83488
#
# Velocity S-wave (km/s) = 3.02494 3.54181 3.29353
# Velocity P-wave (km/s) = 5.43767 7.36597 6.47402
#
# Compressibility (1/GPa) = 0.03709931
#
# Stress axis : x y z
#
# Youngs Moduli (GPa) = 20.91886 59.58799 88.02543
#
# Poissons Ratio (x) = 0.34015 0.59306
# Poissons Ratio (y) = 0.11941 0.61421
# Poissons Ratio (z) = 0.14094 0.41578
#
# Static dielectric constant tensor:
#      x y z
#    x 2.660980 0.000000 0.000000 
#    y 0.000000 3.066150 0.000000 
#    z 0.000000 0.000000 3.330130 
# 
# 
# High freq. dielectric constant tensor:
#      x y z
#    x 1.561840 0.000000 0.000000 
#    y 0.000000 1.573450 0.000000 
#    z 0.000000 0.000000 1.599010 
# 
# From -- ./inp_files/20238.got.cif
#   From: 2010.03.12/outbox.cif.g09.slc.cpg/sg38_11_cif.got.tgz:20238.got - 2010.04.14 02:38:36.
