data_PCOD8177496
_publ_section_title
;
Structure prediction by ZEFSAII (Michael W. Deem and Ramdas Pophale) SiO2 
 PCOD8177496
Probable space group: A M M 2
;
_chemical_formula_sum "Si O2"
_cell_formula_units_Z 64
_cell_length_a 9.098241
_cell_length_b 14.516082
_cell_length_c 28.247248
_cell_angle_alpha 90.000000
_cell_angle_beta 90.000000
_cell_angle_gamma 90.000000
_cell_volume 3730.636992
_symmetry_space_group_name_H-M "A M M 2"
_symmetry_group_IT_number 38
_symmetry_cell_setting 'orthorhombic'
loop_
_space_group_symop_operation_xyz
x,y,z
-x,-y,z
-x,y,z
x,-y,z
x,1/2+y,1/2+z
-x,1/2-y,1/2+z
-x,1/2+y,1/2+z
x,1/2-y,1/2+z
loop_
_atom_site_type_symbol
_atom_site_label
_atom_site_fract_x
_atom_site_fract_y
_atom_site_fract_z
Si Si1 0.170924 0.604527 0.608560
Si Si2 0.173225 0.290330 0.966554
Si Si3 0.326596 0.605179 0.777023
Si Si4 0.830651 0.105908 0.373570
Si Si5 0.174071 0.399392 0.504102
Si Si6 0.669196 0.107596 0.551333
Si Si7 0.830285 0.896565 0.646780
Si Si8 0.828248 0.716427 0.696477
O O1 0.201513 0.500000 0.623909
O O2 0.239679 0.623654 0.556489
O O3 0.238724 0.669065 0.649185
O O4 0.000000 0.627041 0.605983
O O5 0.226595 0.331226 0.916706
O O6 0.000000 0.305087 0.972782
O O7 0.217484 0.181734 0.967818
O O8 0.250829 0.340660 0.009356
O O9 0.500000 0.616361 0.777077
O O10 0.280465 0.500000 0.763968
O O11 0.267354 0.631265 0.828660
O O12 0.258888 0.678352 0.741108
O O13 0.000000 0.126961 0.361207
O O14 0.809642 0.000000 0.388717
O O15 0.233424 0.500000 0.486727
O O16 0.000000 0.406069 0.509287
O O17 0.500000 0.136554 0.551899
O O18 0.738253 0.136074 0.601471
O O19 0.691071 0.000000 0.542372
O O20 0.801456 0.826328 0.690377
O O21 0.000000 0.892464 0.631440
O O22 0.785846 0.000000 0.663150
O O23 0.000000 0.693201 0.703680
#
# Coordination Sequence:
#
# PCOD8177496 Si02
#       8
#     8   8   8   8   8   8   8   8
#     4   8  13  21  36  62  93 121 149 180 215 260
#     4  10  18  29  49  73  95 123 161 201 238 278
#     4  10  21  35  50  70  96 123 151 189 239 291
#     4   9  18  32  49  69  92 119 154 196 241 288
#     4   8  14  25  42  67  98 126 153 188 228 269
#     4  10  20  31  44  67 100 134 163 192 232 282
#     4   9  18  32  49  70  97 128 162 199 234 269
#     4  10  18  29  49  72  93 122 159 196 235 278
#
# _framework density 17.155248
#
# number of rings (size 3 to 8) (size 9 to 14) (size 15 to 20)
#    0.000    2.750    0.000    3.000    0.000    5.500 
#    0.000    1.250    0.000    1.125    0.000    3.500 
#    0.000    0.000    0.000    0.000    0.000    0.000 
#
# Total GULP energy -396658.340815 kJ/mol
# GULP energy per Si atom -12395.573150 kJ/mol
# Density = 1.711620 g / cm^3
# Si number density = 17.155248 Si / 1000 Ang^3
#
#
#
# Elastic Constant Matrix: (Units=GPa)
#
#
# Indices 1 2 3 4 5 6 
#
# 1 48.1853 38.3063 40.9252 0.0000 0.0000 0.0000
# 2 38.3063 92.4366 84.6658 0.0000 0.0000 0.0000
# 3 40.9252 84.6658 112.1230 0.0000 0.0000 0.0000
# 4 0.0000 0.0000 0.0000 31.1240 0.0000 0.0000
# 5 0.0000 0.0000 0.0000 0.0000 4.4415 0.0000
# 6 0.0000 0.0000 0.0000 0.0000 0.0000 13.0950
#
#
#
# Elastic Compliance Matrix: (Units=1/GPa)
#
#
# Indices 1 2 3 4 5 6 
#
# 1 0.031924 -0.008291 -0.005391 0.000000 0.000000 0.000000
# 2 -0.008291 0.037236 -0.025091 0.000000 0.000000 0.000000
# 3 -0.005391 -0.025091 0.029833 0.000000 0.000000 0.000000
# 4 0.000000 0.000000 0.000000 0.032130 0.000000 0.000000
# 5 0.000000 0.000000 0.000000 0.000000 0.225151 0.000000
# 6 0.000000 0.000000 0.000000 0.000000 0.000000 0.076365
#
#
# Mechanical properties :
#
#
# Convention : Reuss Voigt Hill
#
# Bulk Modulus (GPa) = 46.62988 64.50438 55.56713
# Shear Modulus (GPa) = 9.66494 15.65528 12.66011
#
# Velocity S-wave (km/s) = 2.37614 3.02415 2.71951
# Velocity P-wave (km/s) = 5.89645 7.06229 6.50554
#
# Compressibility (1/GPa) = 0.02144548
#
# Stress axis : x y z
#
# Youngs Moduli (GPa) = 31.32483 26.85580 33.51955
#
# Poissons Ratio (x) = 0.22267 0.18072
# Poissons Ratio (y) = 0.25972 0.84104
# Poissons Ratio (z) = 0.16888 0.67384
#
# Static dielectric constant tensor:
#      x y z
#    x 2.961660 0.000000 0.000000 
#    y 0.000000 3.527860 0.000000 
#    z 0.000000 0.000000 3.273230 
# 
# 
# High freq. dielectric constant tensor:
#      x y z
#    x 1.633390 0.000000 0.000000 
#    y 0.000000 1.667180 0.000000 
#    z 0.000000 0.000000 1.643300 
# 
# From -- ./inp_files/24774.got.cif
#   From: 2010.03.12/outbox.cif.g09.slc.cpg/sg38_13_cif.got.tgz:24774.got - 2010.04.14 02:38:36.
