data_PCOD8177565
_publ_section_title
;
Structure prediction by ZEFSAII (Michael W. Deem and Ramdas Pophale) SiO2 
 PCOD8177565
Probable space group: A M M 2
;
_chemical_formula_sum "Si O2"
_cell_formula_units_Z 48
_cell_length_a 11.450927
_cell_length_b 13.251637
_cell_length_c 18.594427
_cell_angle_alpha 90.000000
_cell_angle_beta 90.000000
_cell_angle_gamma 90.000000
_cell_volume 2821.583953
_symmetry_space_group_name_H-M "A M M 2"
_symmetry_group_IT_number 38
_symmetry_cell_setting 'orthorhombic'
loop_
_space_group_symop_operation_xyz
x,y,z
-x,-y,z
-x,y,z
x,-y,z
x,1/2+y,1/2+z
-x,1/2-y,1/2+z
-x,1/2+y,1/2+z
x,1/2-y,1/2+z
loop_
_atom_site_type_symbol
_atom_site_label
_atom_site_fract_x
_atom_site_fract_y
_atom_site_fract_z
Si Si1 0.136979 0.383786 0.170450
Si Si2 0.138037 0.612299 0.466548
Si Si3 0.248354 0.618000 0.757359
Si Si4 0.500000 0.613199 0.594951
Si Si5 0.500000 0.890626 0.262699
Si Si6 0.253638 0.798929 0.102212
Si Si7 0.864875 0.201576 0.821002
O O1 0.157383 0.500000 0.150307
O O2 0.222823 0.317759 0.119944
O O3 0.176953 0.364901 0.252946
O O4 0.000000 0.353712 0.160256
O O5 0.190559 0.500000 0.471454
O O6 0.168726 0.672286 0.537994
O O7 0.194358 0.664794 0.395366
O O8 0.000000 0.608850 0.460302
O O9 0.235926 0.500000 0.774692
O O10 0.377007 0.662972 0.780872
O O11 0.224511 0.634272 0.672718
O O12 0.159057 0.680092 0.806285
O O13 0.500000 0.500000 0.557964
O O14 0.500000 0.591561 0.678289
O O15 0.613769 0.680711 0.575159
O O16 0.500000 0.000000 0.300736
O O17 0.000000 0.185767 0.831475
#
# Coordination Sequence:
#
# PCOD8177565 Si02
#       7
#     8   8   8   4   4   8   8
#     4   9  17  31  50  70  94 125 159 194 232 277
#     4  10  19  31  47  67  93 122 152 190 233 278
#     4   9  16  28  47  69  92 117 150 193 233 271
#     4   9  16  28  46  69  99 127 149 184 238 288
#     4   7  12  24  43  65  87 115 148 180 221 270
#     4  10  18  30  49  73  94 119 157 196 233 277
#     4   9  18  30  44  65  94 126 155 181 224 286
#
# _framework density 17.011721000000001
#
# number of rings (size 3 to 8) (size 9 to 14) (size 15 to 20)
#    0.000    2.833    0.000    3.500    0.000    3.000 
#    0.000    2.083    0.000    1.000    0.000    3.500 
#    0.000    0.000    0.000    0.000    0.000    0.000 
#
# Total GULP energy -297318.663324 kJ/mol
# GULP energy per Si atom -12388.277639 kJ/mol
# Density = 1.697300 g / cm^3
# Si number density = 17.011721 Si / 1000 Ang^3
#
#
#
# Elastic Constant Matrix: (Units=GPa)
#
#
# Indices 1 2 3 4 5 6 
#
# 1 40.0794 34.6318 24.1440 0.0000 0.0000 0.0000
# 2 34.6318 115.2647 45.9498 0.0000 0.0000 0.0000
# 3 24.1440 45.9498 87.0390 0.0000 0.0000 0.0000
# 4 0.0000 0.0000 0.0000 17.3340 0.0000 0.0000
# 5 0.0000 0.0000 0.0000 0.0000 12.4183 0.0000
# 6 0.0000 0.0000 0.0000 0.0000 0.0000 17.6685
#
#
#
# Elastic Compliance Matrix: (Units=1/GPa)
#
#
# Indices 1 2 3 4 5 6 
#
# 1 0.035563 -0.008552 -0.005350 0.000000 0.000000 0.000000
# 2 -0.008552 0.013045 -0.004514 0.000000 0.000000 0.000000
# 3 -0.005350 -0.004514 0.015356 0.000000 0.000000 0.000000
# 4 0.000000 0.000000 0.000000 0.057690 0.000000 0.000000
# 5 0.000000 0.000000 0.000000 0.000000 0.080526 0.000000
# 6 0.000000 0.000000 0.000000 0.000000 0.000000 0.056598
#
#
# Mechanical properties :
#
#
# Convention : Reuss Voigt Hill
#
# Bulk Modulus (GPa) = 36.85807 50.20383 43.53095
# Shear Modulus (GPa) = 16.41197 18.66134 17.53666
#
# Velocity S-wave (km/s) = 3.10940 3.31565 3.21418
# Velocity P-wave (km/s) = 5.88256 6.65082 6.27845
#
# Compressibility (1/GPa) = 0.02713110
#
# Stress axis : x y z
#
# Youngs Moduli (GPa) = 28.11891 76.65827 65.11958
#
# Poissons Ratio (x) = 0.65561 0.34839
# Poissons Ratio (y) = 0.24048 0.29397
# Poissons Ratio (z) = 0.15044 0.34606
#
# Static dielectric constant tensor:
#      x y z
#    x 3.327760 0.000000 0.000000 
#    y 0.000000 3.154540 0.000000 
#    z 0.000000 0.000000 3.055380 
# 
# 
# High freq. dielectric constant tensor:
#      x y z
#    x 1.642890 0.000000 0.000000 
#    y 0.000000 1.647450 0.000000 
#    z 0.000000 0.000000 1.631950 
# 
# From -- ./inp_files/13750.got.cif
#   From: 2010.03.12/outbox.cif.g09.slc.cpg/sg38_7_cif.got.tgz:13750.got - 2010.04.14 02:38:36.
