data_PCOD8177337
_publ_section_title
;
Structure prediction by ZEFSAII (Michael W. Deem and Ramdas Pophale) SiO2 
 PCOD8177337
Probable space group: A M M 2
;
_chemical_formula_sum "Si O2"
_cell_formula_units_Z 48
_cell_length_a 9.079125
_cell_length_b 15.411723
_cell_length_c 24.239005
_cell_angle_alpha 90.000000
_cell_angle_beta 90.000000
_cell_angle_gamma 90.000000
_cell_volume 3391.641795
_symmetry_space_group_name_H-M "A M M 2"
_symmetry_group_IT_number 38
_symmetry_cell_setting 'orthorhombic'
loop_
_space_group_symop_operation_xyz
x,y,z
-x,-y,z
-x,y,z
x,-y,z
x,1/2+y,1/2+z
-x,1/2-y,1/2+z
-x,1/2+y,1/2+z
x,1/2-y,1/2+z
loop_
_atom_site_type_symbol
_atom_site_label
_atom_site_fract_x
_atom_site_fract_y
_atom_site_fract_z
Si Si1 0.834234 0.603018 0.630030
Si Si2 0.328664 0.099238 0.238429
Si Si3 0.834514 0.681970 0.419130
Si Si4 0.326491 0.100669 0.020454
Si Si5 0.834491 0.904693 0.810695
Si Si6 0.327632 0.742281 0.825008
O O1 0.833058 0.500000 0.631102
O O2 0.759983 0.636927 0.686229
O O3 0.741333 0.635538 0.577639
O O4 0.000000 0.639543 0.625972
O O5 0.500000 0.107618 0.223798
O O6 0.286981 0.155490 0.291916
O O7 0.285517 0.000000 0.251751
O O8 0.740858 0.659311 0.472608
O O9 0.838892 0.599340 0.377824
O O10 0.755572 0.760253 0.384436
O O11 0.000000 0.709945 0.436387
O O12 0.500000 0.114537 0.022286
O O13 0.285412 0.000000 0.010685
O O14 0.728157 0.826949 0.789577
O O15 0.000000 0.890784 0.787376
O O16 0.774725 0.000000 0.793278
O O17 0.500000 0.751334 0.835447
#
# Coordination Sequence:
#
# PCOD8177337 Si02
#       6
#     8   8   8   8   8   8
#     4   9  17  27  40  58  79 105 138 171 203 242
#     4   9  17  30  45  59  80 110 141 175 212 245
#     4   9  17  27  38  53  79 109 137 165 198 238
#     4  10  18  26  38  57  81 109 139 168 199 241
#     4   8  15  26  38  53  77 108 135 161 197 239
#     4   9  17  27  40  59  80 105 139 174 206 243
#
# _framework density 14.152438
#
# number of rings (size 3 to 8) (size 9 to 14) (size 15 to 20)
#    1.000    2.000    0.000    2.000    0.000    5.333 
#    0.000    0.000    0.000    0.000    0.000    0.000 
#    0.000    1.333    0.000    7.000    0.000    5.833 
#
# Total GULP energy -297330.299184 kJ/mol
# GULP energy per Si atom -12388.762466 kJ/mol
# Density = 1.412023 g / cm^3
# Si number density = 14.152438 Si / 1000 Ang^3
#
#
#
# Elastic Constant Matrix: (Units=GPa)
#
#
# Indices 1 2 3 4 5 6 
#
# 1 90.4793 32.1662 54.1664 0.0000 0.0000 0.0000
# 2 32.1662 52.8175 38.4055 0.0000 0.0000 0.0000
# 3 54.1664 38.4055 90.1443 0.0000 0.0000 0.0000
# 4 0.0000 0.0000 0.0000 20.9624 0.0000 0.0000
# 5 0.0000 0.0000 0.0000 0.0000 23.7589 0.0000
# 6 0.0000 0.0000 0.0000 0.0000 0.0000 15.6003
#
#
#
# Elastic Compliance Matrix: (Units=1/GPa)
#
#
# Indices 1 2 3 4 5 6 
#
# 1 0.017964 -0.004479 -0.008886 0.000000 0.000000 0.000000
# 2 -0.004479 0.028548 -0.009471 0.000000 0.000000 0.000000
# 3 -0.008886 -0.009471 0.020468 0.000000 0.000000 0.000000
# 4 0.000000 0.000000 0.000000 0.047705 0.000000 0.000000
# 5 0.000000 0.000000 0.000000 0.000000 0.042090 0.000000
# 6 0.000000 0.000000 0.000000 0.000000 0.000000 0.064101
#
#
# Mechanical properties :
#
#
# Convention : Reuss Voigt Hill
#
# Bulk Modulus (GPa) = 46.93235 53.65747 50.29491
# Shear Modulus (GPa) = 18.27143 19.31118 18.79131
#
# Velocity S-wave (km/s) = 3.59701 3.69794 3.64782
# Velocity P-wave (km/s) = 7.10530 7.49862 7.30461
#
# Compressibility (1/GPa) = 0.02130726
#
# Stress axis : x y z
#
# Youngs Moduli (GPa) = 55.66555 35.02909 48.85618
#
# Poissons Ratio (x) = 0.15689 0.43415
# Poissons Ratio (y) = 0.24932 0.46273
# Poissons Ratio (z) = 0.49467 0.33177
#
# Static dielectric constant tensor:
#      x y z
#    x 2.885180 0.000000 0.000000 
#    y 0.000000 2.465880 0.000000 
#    z 0.000000 0.000000 2.621790 
# 
# 
# High freq. dielectric constant tensor:
#      x y z
#    x 1.556050 0.000000 0.000000 
#    y 0.000000 1.494070 0.000000 
#    z 0.000000 0.000000 1.518870 
# 
# From -- ./inp_files/19914.got.cif
#   From: 2010.03.12/outbox.cif.g09.slc.cpg/sg38_10_cif.got.tgz:19914.got - 2010.04.14 02:38:36.
