data_PCOD8177259
_publ_section_title
;
Structure prediction by ZEFSAII (Michael W. Deem and Ramdas Pophale) SiO2 
 PCOD8177259
Probable space group: A M M 2
;
_chemical_formula_sum "Si O2"
_cell_formula_units_Z 56
_cell_length_a 8.724420
_cell_length_b 22.329330
_cell_length_c 17.849515
_cell_angle_alpha 90.000000
_cell_angle_beta 90.000000
_cell_angle_gamma 90.000000
_cell_volume 3477.272107
_symmetry_space_group_name_H-M "A M M 2"
_symmetry_group_IT_number 38
_symmetry_cell_setting 'orthorhombic'
loop_
_space_group_symop_operation_xyz
x,y,z
-x,-y,z
-x,y,z
x,-y,z
x,1/2+y,1/2+z
-x,1/2-y,1/2+z
-x,1/2+y,1/2+z
x,1/2-y,1/2+z
loop_
_atom_site_type_symbol
_atom_site_label
_atom_site_fract_x
_atom_site_fract_y
_atom_site_fract_z
Si Si1 0.683254 0.282924 0.625000
Si Si2 0.668440 0.821353 0.971591
Si Si3 0.177997 0.161222 0.573543
Si Si4 0.181143 0.719738 0.778018
Si Si5 0.329509 0.683856 0.925124
Si Si6 0.823066 0.568327 0.199361
Si Si7 0.317645 0.653852 0.314493
O O1 0.500000 0.286477 0.629553
O O2 0.747930 0.322642 0.553900
O O3 0.728551 0.213908 0.613538
O O4 0.759290 0.308978 0.700154
O O5 0.500000 0.848636 0.982228
O O6 0.660094 0.752516 0.947729
O O7 0.745826 0.855585 0.900754
O O8 0.236293 0.148309 0.489170
O O9 0.208075 0.101271 0.620926
O O10 0.000000 0.179182 0.571619
O O11 0.244218 0.678809 0.845404
O O12 0.239412 0.787920 0.779187
O O13 0.000000 0.719554 0.780701
O O14 0.500000 0.656389 0.917816
O O15 0.771643 0.500000 0.188889
O O16 0.723471 0.595944 0.266519
O O17 0.000000 0.573907 0.222576
O O18 0.500000 0.664620 0.316201
#
# Coordination Sequence:
#
# PCOD8177259 Si02
#       7
#     8   8   8   8   8   8   8
#     4  10  17  27  43  62  88 119 148 178 217 266
#     4   7  14  26  40  59  81 108 141 176 215 259
#     4  10  18  29  44  61  84 115 150 187 227 265
#     4  11  19  27  41  64  91 117 147 180 218 266
#     4   9  17  29  43  60  83 113 147 180 219 266
#     4  10  21  34  46  63  89 120 154 191 230 268
#     4  10  18  30  46  62  83 114 152 189 225 264
#
# _framework density 16.104576999999999
#
# number of rings (size 3 to 8) (size 9 to 14) (size 15 to 20)
#    0.000    2.429    1.429    4.714    0.000    0.857 
#    0.000    2.143    0.000    0.000    0.000    0.000 
#    0.000    1.143    0.000    8.286    0.000    4.286 
#
# Total GULP energy -346954.925772 kJ/mol
# GULP energy per Si atom -12391.247349 kJ/mol
# Density = 1.606792 g / cm^3
# Si number density = 16.104577 Si / 1000 Ang^3
#
#
#
# Elastic Constant Matrix: (Units=GPa)
#
#
# Indices 1 2 3 4 5 6 
#
# 1 82.3264 16.2955 49.5905 0.0000 0.0000 0.0000
# 2 16.2955 39.9892 37.2117 0.0000 0.0000 0.0000
# 3 49.5905 37.2117 171.3604 0.0000 0.0000 0.0000
# 4 0.0000 0.0000 0.0000 15.1273 0.0000 0.0000
# 5 0.0000 0.0000 0.0000 0.0000 28.4395 0.0000
# 6 0.0000 0.0000 0.0000 0.0000 0.0000 10.5986
#
#
#
# Elastic Compliance Matrix: (Units=1/GPa)
#
#
# Indices 1 2 3 4 5 6 
#
# 1 0.014921 -0.002584 -0.003757 0.000000 0.000000 0.000000
# 2 -0.002584 0.031787 -0.006155 0.000000 0.000000 0.000000
# 3 -0.003757 -0.006155 0.008259 0.000000 0.000000 0.000000
# 4 0.000000 0.000000 0.000000 0.066105 0.000000 0.000000
# 5 0.000000 0.000000 0.000000 0.000000 0.035162 0.000000
# 6 0.000000 0.000000 0.000000 0.000000 0.000000 0.094352
#
#
# Mechanical properties :
#
#
# Convention : Reuss Voigt Hill
#
# Bulk Modulus (GPa) = 33.36037 55.54126 44.45081
# Shear Modulus (GPa) = 17.50870 23.53831 20.52350
#
# Velocity S-wave (km/s) = 3.30083 3.82722 3.57373
# Velocity P-wave (km/s) = 5.94030 7.35479 6.68506
#
# Compressibility (1/GPa) = 0.02997569
#
# Stress axis : x y z
#
# Youngs Moduli (GPa) = 67.01806 31.45913 121.07380
#
# Poissons Ratio (x) = 0.08130 0.45486
# Poissons Ratio (y) = 0.17320 0.74519
# Poissons Ratio (z) = 0.25178 0.19363
#
# Static dielectric constant tensor:
#      x y z
#    x 3.071220 0.000000 0.000000 
#    y 0.000000 2.513870 0.000000 
#    z 0.000000 0.000000 3.637790 
# 
# 
# High freq. dielectric constant tensor:
#      x y z
#    x 1.621580 0.000000 0.000000 
#    y 0.000000 1.537710 0.000000 
#    z 0.000000 0.000000 1.645430 
# 
# From -- ./inp_files/17078.got.cif
#   From: 2010.03.12/outbox.cif.g09.slc.cpg/sg38_9_cif.got.tgz:17078.got - 2010.04.14 02:38:36.
