data_PCOD8177151
_publ_section_title
;
Structure prediction by ZEFSAII (Michael W. Deem and Ramdas Pophale) SiO2 
 PCOD8177151
Probable space group: C C C 2
;
_chemical_formula_sum "Si O2"
_cell_formula_units_Z 48
_cell_length_a 5.769341
_cell_length_b 14.048406
_cell_length_c 25.010686
_cell_angle_alpha 90.000000
_cell_angle_beta 90.000000
_cell_angle_gamma 90.000000
_cell_volume 2027.117219
_symmetry_space_group_name_H-M "C C C 2"
_symmetry_group_IT_number 37
_symmetry_cell_setting 'orthorhombic'
loop_
_space_group_symop_operation_xyz
x,y,z
-x,-y,z
-x,y,1/2+z
x,-y,1/2+z
1/2+x,1/2+y,z
1/2-x,1/2-y,z
1/2-x,1/2+y,1/2+z
1/2+x,1/2-y,1/2+z
loop_
_atom_site_type_symbol
_atom_site_label
_atom_site_fract_x
_atom_site_fract_y
_atom_site_fract_z
Si Si1 0.697094 0.641180 0.382600
Si Si2 0.850108 0.854750 0.794735
Si Si3 0.051141 0.107508 0.576577
Si Si4 0.000000 0.500000 0.819708
Si Si5 0.998311 0.196420 0.687025
Si Si6 0.250000 0.250000 0.011796
Si Si7 0.606365 0.104433 0.989099
O O1 0.750000 0.750000 0.370463
O O2 0.464448 0.613468 0.350984
O O3 0.683676 0.616286 0.446035
O O4 0.903270 0.579913 0.358811
O O5 0.750000 0.750000 0.802385
O O6 0.030891 0.854360 0.744774
O O7 0.671506 0.940158 0.781388
O O8 0.045833 0.121358 0.640005
O O9 0.300416 0.128587 0.548885
O O10 0.860433 0.173551 0.550853
O O11 0.000000 0.000000 0.561261
O O12 0.250000 0.250000 0.690168
O O13 0.750000 0.250000 0.676717
O O14 0.424336 0.189009 0.974495
O O15 0.500000 0.000000 0.986176
#
# Coordination Sequence:
#
# PCOD8177151 Si02
#       7
#     8   8   8   4   8   4   8
#     4  12  25  48  76 108 156 202 259 320 400 462
#     4  11  26  50  77 109 156 201 265 327 401 476
#     4  12  26  47  78 112 152 204 259 324 397 478
#     4  12  26  46  76 108 148 206 252 324 392 480
#     4  11  26  51  83 115 159 208 265 337 404 476
#     4  12  24  50  76 106 158 196 258 318 400 462
#     4  12  27  49  75 114 155 208 260 321 401 476
#
# _framework density 23.678947000000001
#
# number of rings (size 3 to 8) (size 9 to 14) (size 15 to 20)
#    0.000    0.333    5.000    3.500    2.333    5.333 
#    6.000    0.000    0.000    0.000    0.000    0.000 
#    0.000    0.000    0.000    0.000    0.000    0.000 
#
# Total GULP energy -297398.367246 kJ/mol
# GULP energy per Si atom -12391.598635 kJ/mol
# Density = 2.362505 g / cm^3
# Si number density = 23.678947 Si / 1000 Ang^3
#
#
#
# Elastic Constant Matrix: (Units=GPa)
#
#
# Indices 1 2 3 4 5 6 
#
# 1 120.4415 57.2860 51.2862 0.0000 0.0000 0.0000
# 2 57.2860 161.7982 46.8296 0.0000 0.0000 0.0000
# 3 51.2862 46.8296 153.0021 0.0000 0.0000 0.0000
# 4 0.0000 0.0000 0.0000 17.7816 0.0000 0.0000
# 5 0.0000 0.0000 0.0000 0.0000 23.3970 0.0000
# 6 0.0000 0.0000 0.0000 0.0000 0.0000 40.6471
#
#
#
# Elastic Compliance Matrix: (Units=1/GPa)
#
#
# Indices 1 2 3 4 5 6 
#
# 1 0.010926 -0.003082 -0.002719 0.000000 0.000000 0.000000
# 2 -0.003082 0.007650 -0.001309 0.000000 0.000000 0.000000
# 3 -0.002719 -0.001309 0.007848 0.000000 0.000000 0.000000
# 4 0.000000 0.000000 0.000000 0.056238 0.000000 0.000000
# 5 0.000000 0.000000 0.000000 0.000000 0.042741 0.000000
# 6 0.000000 0.000000 0.000000 0.000000 0.000000 0.024602
#
#
# Mechanical properties :
#
#
# Convention : Reuss Voigt Hill
#
# Bulk Modulus (GPa) = 81.92927 82.89397 82.41162
# Shear Modulus (GPa) = 29.71012 35.02112 32.36562
#
# Velocity S-wave (km/s) = 3.54603 3.84995 3.70111
# Velocity P-wave (km/s) = 7.17223 7.40582 7.28996
#
# Compressibility (1/GPa) = 0.01220565
#
# Stress axis : x y z
#
# Youngs Moduli (GPa) = 91.52134 130.71324 127.42229
#
# Poissons Ratio (x) = 0.40280 0.34651
# Poissons Ratio (y) = 0.28202 0.16675
# Poissons Ratio (z) = 0.24888 0.17106
#
# Static dielectric constant tensor:
#      x y z
#    x 4.407480 0.000000 0.000000 
#    y 0.000000 4.565150 0.000000 
#    z 0.000000 0.000000 4.533360 
# 
# 
# High freq. dielectric constant tensor:
#      x y z
#    x 1.935170 0.000000 0.000000 
#    y 0.000000 1.954190 0.000000 
#    z 0.000000 0.000000 1.940040 
# 
# From -- ./inp_files/19352.got.cif
#   From: 2010.03.12/outbox.cif.g09.slc.cpg/sg37_10_cif.got.tgz:19352.got - 2010.04.14 02:25:27.
