data_PCOD8177691
_publ_section_title
;
Structure prediction by ZEFSAII (Michael W. Deem and Ramdas Pophale) SiO2 
 PCOD8177691
Probable space group: A M M 2
;
_chemical_formula_sum "Si O2"
_cell_formula_units_Z 36
_cell_length_a 12.922093
_cell_length_b 14.954359
_cell_length_c 9.857343
_cell_angle_alpha 90.000000
_cell_angle_beta 90.000000
_cell_angle_gamma 90.000000
_cell_volume 1904.848908
_symmetry_space_group_name_H-M "A M M 2"
_symmetry_group_IT_number 38
_symmetry_cell_setting 'orthorhombic'
loop_
_space_group_symop_operation_xyz
x,y,z
-x,-y,z
-x,y,z
x,-y,z
x,1/2+y,1/2+z
-x,1/2-y,1/2+z
-x,1/2+y,1/2+z
x,1/2-y,1/2+z
loop_
_atom_site_type_symbol
_atom_site_label
_atom_site_fract_x
_atom_site_fract_y
_atom_site_fract_z
Si Si1 0.380915 0.310846 0.460260
Si Si2 0.382650 0.000000 0.831883
Si Si3 0.289912 0.684035 0.737737
Si Si4 0.116331 0.399669 0.887239
Si Si5 0.748239 0.000000 0.566924
Si Si6 0.618999 0.500000 0.813521
O O1 0.500000 0.290953 0.500716
O O2 0.365386 0.414388 0.425205
O O3 0.303959 0.282723 0.583052
O O4 0.351588 0.252407 0.331118
O O5 0.292225 0.000000 0.719023
O O6 0.500000 0.000000 0.770438
O O7 0.170328 0.672353 0.786616
O O8 0.339089 0.586659 0.739582
O O9 0.116369 0.500000 0.819961
O O10 0.000000 0.366427 0.917565
O O11 0.181984 0.411295 0.029019
O O12 0.647298 0.000000 0.471938
O O13 0.500000 0.500000 0.793890
#
# Coordination Sequence:
#
# PCOD8177691 Si02
#       6
#     8   4   8   8   4   4
#     4  11  24  38  56  85 124 160 194 240 290 352
#     4  10  22  37  55  81 125 165 193 234 293 350
#     4  11  22  37  58  86 114 157 198 239 295 349
#     4   8  17  36  62  85 110 149 194 243 293 341
#     4   8  16  30  57  85 107 146 188 235 284 344
#     4  10  18  31  54  80 112 147 191 227 279 358
#
# _framework density 18.899135999999999
#
# number of rings (size 3 to 8) (size 9 to 14) (size 15 to 20)
#    0.667    1.556    1.111    3.000    6.222    0.889 
#    0.000    1.111    0.000    2.667    0.000    0.000 
#    0.000    0.000    0.000    0.000    0.000    0.000 
#
# Total GULP energy -223014.103477 kJ/mol
# GULP energy per Si atom -12389.672415 kJ/mol
# Density = 1.885612 g / cm^3
# Si number density = 18.899136 Si / 1000 Ang^3
#
#
#
# Elastic Constant Matrix: (Units=GPa)
#
#
# Indices 1 2 3 4 5 6 
#
# 1 99.2717 12.6423 39.1890 0.0000 0.0000 0.0000
# 2 12.6423 73.8581 22.0073 0.0000 0.0000 0.0000
# 3 39.1890 22.0073 113.0469 0.0000 0.0000 0.0000
# 4 0.0000 0.0000 0.0000 17.8803 0.0000 0.0000
# 5 0.0000 0.0000 0.0000 0.0000 19.9945 0.0000
# 6 0.0000 0.0000 0.0000 0.0000 0.0000 19.3147
#
#
#
# Elastic Compliance Matrix: (Units=1/GPa)
#
#
# Indices 1 2 3 4 5 6 
#
# 1 0.011720 -0.000844 -0.003898 0.000000 0.000000 0.000000
# 2 -0.000844 0.014434 -0.002517 0.000000 0.000000 0.000000
# 3 -0.003898 -0.002517 0.010687 0.000000 0.000000 0.000000
# 4 0.000000 0.000000 0.000000 0.055927 0.000000 0.000000
# 5 0.000000 0.000000 0.000000 0.000000 0.050014 0.000000
# 6 0.000000 0.000000 0.000000 0.000000 0.000000 0.051774
#
#
# Mechanical properties :
#
#
# Convention : Reuss Voigt Hill
#
# Bulk Modulus (GPa) = 44.80067 48.20597 46.50332
# Shear Modulus (GPa) = 23.09288 25.59379 24.34333
#
# Velocity S-wave (km/s) = 3.49936 3.68398 3.59286
# Velocity P-wave (km/s) = 6.33119 6.60742 6.47078
#
# Compressibility (1/GPa) = 0.02232109
#
# Stress axis : x y z
#
# Youngs Moduli (GPa) = 85.32513 69.28057 93.56855
#
# Poissons Ratio (x) = 0.05851 0.36477
# Poissons Ratio (y) = 0.07206 0.23553
# Poissons Ratio (z) = 0.33263 0.17439
#
# Static dielectric constant tensor:
#      x y z
#    x 3.604170 0.000000 0.000000 
#    y 0.000000 3.404270 0.000000 
#    z 0.000000 0.000000 3.222890 
# 
# 
# High freq. dielectric constant tensor:
#      x y z
#    x 1.725710 0.000000 0.000000 
#    y 0.000000 1.727440 0.000000 
#    z 0.000000 0.000000 1.712650 
# 
# From -- ./inp_files/5195.got.cif
#   From: 2010.03.12/outbox.cif.g09.slc.cpg/sg38_3_cif.got.tgz:5195.got - 2010.04.14 02:38:36.
