data_PCOD8177879
_publ_section_title
;
Structure prediction by ZEFSAII (Michael W. Deem and Ramdas Pophale) SiO2 
 PCOD8177879
Probable space group: A M M 2
;
_chemical_formula_sum "Si O2"
_cell_formula_units_Z 56
_cell_length_a 9.095541
_cell_length_b 13.648400
_cell_length_c 29.236458
_cell_angle_alpha 90.000000
_cell_angle_beta 90.000000
_cell_angle_gamma 90.000000
_cell_volume 3629.401669
_symmetry_space_group_name_H-M "A M M 2"
_symmetry_group_IT_number 38
_symmetry_cell_setting 'orthorhombic'
loop_
_space_group_symop_operation_xyz
x,y,z
-x,-y,z
-x,y,z
x,-y,z
x,1/2+y,1/2+z
-x,1/2-y,1/2+z
-x,1/2+y,1/2+z
x,1/2-y,1/2+z
loop_
_atom_site_type_symbol
_atom_site_label
_atom_site_fract_x
_atom_site_fract_y
_atom_site_fract_z
Si Si1 0.829914 0.387128 0.860770
Si Si2 0.326527 0.111005 0.001360
Si Si3 0.674037 0.223542 0.912171
Si Si4 0.827372 0.886701 0.190972
Si Si5 0.837375 0.383618 0.589640
Si Si6 0.672938 0.606836 0.323988
Si Si7 0.325508 0.298518 0.775515
O O1 0.812407 0.500000 0.874443
O O2 0.757064 0.324997 0.901807
O O3 0.748277 0.369343 0.812732
O O4 0.000000 0.357708 0.855048
O O5 0.500000 0.110430 0.003426
O O6 0.271499 0.180918 0.960614
O O7 0.268130 0.000000 0.993315
O O8 0.268302 0.154642 0.049398
O O9 0.500000 0.243430 0.911347
O O10 0.720560 0.144536 0.873956
O O11 0.784126 0.849524 0.139961
O O12 0.732102 0.822152 0.225299
O O13 0.000000 0.871265 0.199945
O O14 0.785141 0.000000 0.197900
O O15 0.841449 0.500000 0.590657
O O16 0.000000 0.342171 0.579759
O O17 0.500000 0.594796 0.323040
O O18 0.746125 0.500000 0.314585
O O19 0.721173 0.686050 0.285990
O O20 0.500000 0.313173 0.778456
#
# Coordination Sequence:
#
# PCOD8177879 Si02
#       7
#     8   8   8   8   8   8   8
#     4  10  20  32  44  59  83 114 143 172 208 249
#     4   9  16  26  42  65  91 115 138 168 208 250
#     4   9  17  28  44  65  85 109 141 172 203 242
#     4   9  17  29  43  59  84 117 145 170 206 250
#     4   8  15  27  41  58  82 113 145 172 203 247
#     4   8  14  26  42  59  82 110 137 165 199 242
#     4  10  19  28  43  66  85 107 141 176 210 248
#
# _framework density 15.429542
#
# number of rings (size 3 to 8) (size 9 to 14) (size 15 to 20)
#    0.000    3.000    0.000    3.429    0.000    6.000 
#    0.000    1.429    0.000   14.143    0.000    1.000 
#    0.000    3.429    0.000    0.000    0.000    0.000 
#
# Total GULP energy -347055.998274 kJ/mol
# GULP energy per Si atom -12394.857081 kJ/mol
# Density = 1.539442 g / cm^3
# Si number density = 15.429542 Si / 1000 Ang^3
#
#
#
# Elastic Constant Matrix: (Units=GPa)
#
#
# Indices 1 2 3 4 5 6 
#
# 1 51.5455 34.5500 45.2293 0.0000 0.0000 0.0000
# 2 34.5500 86.2962 53.6093 0.0000 0.0000 0.0000
# 3 45.2293 53.6093 134.4797 0.0000 0.0000 0.0000
# 4 0.0000 0.0000 0.0000 23.4808 0.0000 0.0000
# 5 0.0000 0.0000 0.0000 0.0000 27.5287 0.0000
# 6 0.0000 0.0000 0.0000 0.0000 0.0000 15.6772
#
#
#
# Elastic Compliance Matrix: (Units=1/GPa)
#
#
# Indices 1 2 3 4 5 6 
#
# 1 0.031123 -0.007919 -0.007311 0.000000 0.000000 0.000000
# 2 -0.007919 0.017417 -0.004280 0.000000 0.000000 0.000000
# 3 -0.007311 -0.004280 0.011601 0.000000 0.000000 0.000000
# 4 0.000000 0.000000 0.000000 0.042588 0.000000 0.000000
# 5 0.000000 0.000000 0.000000 0.000000 0.036326 0.000000
# 6 0.000000 0.000000 0.000000 0.000000 0.000000 0.063787
#
#
# Mechanical properties :
#
#
# Convention : Reuss Voigt Hill
#
# Bulk Modulus (GPa) = 47.34354 59.89984 53.62169
# Shear Modulus (GPa) = 20.08821 22.59953 21.34387
#
# Velocity S-wave (km/s) = 3.61214 3.83128 3.72333
# Velocity P-wave (km/s) = 6.93881 7.64705 7.30152
#
# Compressibility (1/GPa) = 0.02112221
#
# Stress axis : x y z
#
# Youngs Moduli (GPa) = 32.13034 57.41428 86.19939
#
# Poissons Ratio (x) = 0.45467 0.63018
# Poissons Ratio (y) = 0.25444 0.36892
# Poissons Ratio (z) = 0.23490 0.24573
#
# Static dielectric constant tensor:
#      x y z
#    x 2.879150 0.000000 0.000000 
#    y 0.000000 2.921060 0.000000 
#    z 0.000000 0.000000 3.075040 
# 
# 
# High freq. dielectric constant tensor:
#      x y z
#    x 1.583470 0.000000 0.000000 
#    y 0.000000 1.563360 0.000000 
#    z 0.000000 0.000000 1.589340 
# 
# From -- ./inp_files/23825.got.cif
#   From: 2010.03.12/outbox.cif.g09.slc.cpg/sg38_12_cif.got.tgz:23825.got - 2010.04.14 02:38:36.
