data_PCOD8177533
_publ_section_title
;
Structure prediction by ZEFSAII (Michael W. Deem and Ramdas Pophale) SiO2 
 PCOD8177533
Probable space group: A M M 2
;
_chemical_formula_sum "Si O2"
_cell_formula_units_Z 64
_cell_length_a 8.591955
_cell_length_b 23.436276
_cell_length_c 19.064452
_cell_angle_alpha 90.000000
_cell_angle_beta 90.000000
_cell_angle_gamma 90.000000
_cell_volume 3838.883422
_symmetry_space_group_name_H-M "A M M 2"
_symmetry_group_IT_number 38
_symmetry_cell_setting 'orthorhombic'
loop_
_space_group_symop_operation_xyz
x,y,z
-x,-y,z
-x,y,z
x,-y,z
x,1/2+y,1/2+z
-x,1/2-y,1/2+z
-x,1/2+y,1/2+z
x,1/2-y,1/2+z
loop_
_atom_site_type_symbol
_atom_site_label
_atom_site_fract_x
_atom_site_fract_y
_atom_site_fract_z
Si Si1 0.681982 0.376352 0.113420
Si Si2 0.683116 0.232042 0.253170
Si Si3 0.682009 0.934598 0.759429
Si Si4 0.180973 0.251752 0.108720
Si Si5 0.683957 0.666358 0.885598
Si Si6 0.314878 0.936985 0.472050
Si Si7 0.818423 0.665274 0.338775
Si Si8 0.683177 0.222700 0.966055
O O1 0.500000 0.361113 0.108445
O O2 0.723327 0.412236 0.182080
O O3 0.775002 0.317762 0.113401
O O4 0.737081 0.414153 0.047819
O O5 0.500000 0.231605 0.238161
O O6 0.773981 0.221150 0.181368
O O7 0.735094 0.181283 0.306246
O O8 0.723580 0.292886 0.287339
O O9 0.500000 0.927901 0.774756
O O10 0.777509 0.899287 0.817341
O O11 0.735395 0.000000 0.764977
O O12 0.000000 0.245329 0.094674
O O13 0.270106 0.218106 0.047139
O O14 0.500000 0.664651 0.890241
O O15 0.751432 0.605539 0.911622
O O16 0.741762 0.715683 0.938327
O O17 0.500000 0.939926 0.468762
O O18 0.243708 0.000000 0.459782
O O19 0.767969 0.674378 0.419589
O O20 0.000000 0.677313 0.329478
O O21 0.500000 0.214553 0.956955
#
# Coordination Sequence:
#
# PCOD8177533 Si02
#       8
#     8   8   8   8   8   8   8   8
#     4  10  18  30  47  68  99 137 173 203 237 288
#     4  10  19  32  49  67  95 133 170 204 245 302
#     4  10  20  33  50  72  99 138 183 213 240 291
#     4  12  22  31  47  74 101 128 163 209 258 300
#     4   8  15  27  45  70  93 121 160 199 237 283
#     4   9  15  25  45  73  99 125 163 206 239 274
#     4  11  21  33  49  74 102 128 163 210 260 301
#     4  10  19  34  53  70  95 130 166 202 247 307
#
# _framework density 16.671513999999998
#
# number of rings (size 3 to 8) (size 9 to 14) (size 15 to 20)
#    0.000    2.000    2.500    4.125    0.000    1.750 
#    0.000    0.000    0.000    1.125    0.000    0.875 
#    0.000    5.000    0.000    0.000    0.000    0.000 
#
# Total GULP energy -396785.372352 kJ/mol
# GULP energy per Si atom -12399.542886 kJ/mol
# Density = 1.663357 g / cm^3
# Si number density = 16.671514 Si / 1000 Ang^3
#
#
#
# Elastic Constant Matrix: (Units=GPa)
#
#
# Indices 1 2 3 4 5 6 
#
# 1 46.4928 20.7497 17.3613 0.0000 0.0000 0.0000
# 2 20.7497 97.3399 61.5937 0.0000 0.0000 0.0000
# 3 17.3613 61.5937 116.3383 0.0000 0.0000 0.0000
# 4 0.0000 0.0000 0.0000 25.0672 0.0000 0.0000
# 5 0.0000 0.0000 0.0000 0.0000 18.9158 0.0000
# 6 0.0000 0.0000 0.0000 0.0000 0.0000 9.5447
#
#
#
# Elastic Compliance Matrix: (Units=1/GPa)
#
#
# Indices 1 2 3 4 5 6 
#
# 1 0.023902 -0.004268 -0.001307 0.000000 0.000000 0.000000
# 2 -0.004268 0.016211 -0.007946 0.000000 0.000000 0.000000
# 3 -0.001307 -0.007946 0.012997 0.000000 0.000000 0.000000
# 4 0.000000 0.000000 0.000000 0.039893 0.000000 0.000000
# 5 0.000000 0.000000 0.000000 0.000000 0.052866 0.000000
# 6 0.000000 0.000000 0.000000 0.000000 0.000000 0.104770
#
#
# Mechanical properties :
#
#
# Convention : Reuss Voigt Hill
#
# Bulk Modulus (GPa) = 38.36091 51.06451 44.71271
# Shear Modulus (GPa) = 17.45993 21.40328 19.43161
#
# Velocity S-wave (km/s) = 3.23970 3.58694 3.41773
# Velocity P-wave (km/s) = 6.08720 6.91745 6.51556
#
# Compressibility (1/GPa) = 0.02606820
#
# Stress axis : x y z
#
# Youngs Moduli (GPa) = 41.83816 61.68707 76.93806
#
# Poissons Ratio (x) = 0.26327 0.10058
# Poissons Ratio (y) = 0.17856 0.61133
# Poissons Ratio (z) = 0.05470 0.49015
#
# Static dielectric constant tensor:
#      x y z
#    x 2.911040 0.000000 0.000000 
#    y 0.000000 3.220360 0.000000 
#    z 0.000000 0.000000 3.319230 
# 
# 
# High freq. dielectric constant tensor:
#      x y z
#    x 1.626680 0.000000 0.000000 
#    y 0.000000 1.614940 0.000000 
#    z 0.000000 0.000000 1.642750 
# 
# From -- ./inp_files/17294.got.cif
#   From: 2010.03.12/outbox.cif.g09.slc.cpg/sg38_9_cif.got.tgz:17294.got - 2010.04.14 02:38:36.
