data_PCOD8177953
_publ_section_title
;
Structure prediction by ZEFSAII (Michael W. Deem and Ramdas Pophale) SiO2 
 PCOD8177953
Probable space group: A M M 2
;
_chemical_formula_sum "Si O2"
_cell_formula_units_Z 64
_cell_length_a 14.118231
_cell_length_b 25.903938
_cell_length_c 9.504120
_cell_angle_alpha 90.000000
_cell_angle_beta 90.000000
_cell_angle_gamma 90.000000
_cell_volume 3475.825672
_symmetry_space_group_name_H-M "A M M 2"
_symmetry_group_IT_number 38
_symmetry_cell_setting 'orthorhombic'
loop_
_space_group_symop_operation_xyz
x,y,z
-x,-y,z
-x,y,z
x,-y,z
x,1/2+y,1/2+z
-x,1/2-y,1/2+z
-x,1/2+y,1/2+z
x,1/2-y,1/2+z
loop_
_atom_site_type_symbol
_atom_site_label
_atom_site_fract_x
_atom_site_fract_y
_atom_site_fract_z
Si Si1 0.390024 0.060303 0.264510
Si Si2 0.712670 0.216593 0.268378
Si Si3 0.104892 0.142231 0.921837
Si Si4 0.894503 0.355540 0.090773
Si Si5 0.702564 0.632523 0.540775
Si Si6 0.303330 0.870282 0.487746
Si Si7 0.103404 0.759091 0.414542
Si Si8 0.388410 0.673477 0.265298
O O1 0.500000 0.074161 0.259735
O O2 0.340416 0.086680 0.131677
O O3 0.347744 0.080177 0.411886
O O4 0.370655 0.000000 0.254162
O O5 0.701059 0.187037 0.121793
O O6 0.675598 0.180520 0.394795
O O7 0.822936 0.227863 0.292312
O O8 0.655210 0.269523 0.263472
O O9 0.120955 0.137598 0.755593
O O10 0.115352 0.201265 0.969153
O O11 0.000000 0.120555 0.962697
O O12 0.190185 0.113555 0.002445
O O13 0.809122 0.383530 0.007065
O O14 0.000000 0.376256 0.046869
O O15 0.884799 0.295012 0.052412
O O16 0.640706 0.641502 0.402578
O O17 0.352303 0.860933 0.636399
O O18 0.000000 0.766881 0.344972
O O19 0.500000 0.679561 0.258449
#
# Coordination Sequence:
#
# PCOD8177953 Si02
#       8
#     8   8   8   8   8   8   8   8
#     4  10  23  45  67  83 103 138 186 243 302 343
#     4  10  21  32  49  77 117 158 188 217 267 328
#     4  10  19  29  49  78 114 153 186 224 270 321
#     4   9  17  31  51  78 114 151 185 224 270 321
#     4  11  22  36  56  82 115 149 187 232 285 335
#     4  10  20  37  59  82 110 146 190 231 274 331
#     4   9  17  28  45  71 108 155 199 228 254 303
#     4  12  23  34  51  78 114 151 190 229 270 330
#
# _framework density 18.412891999999999
#
# number of rings (size 3 to 8) (size 9 to 14) (size 15 to 20)
#    0.000    1.875    2.500    1.500    3.500    4.500 
#    0.000    2.500    0.000    3.750    0.000    1.750 
#    0.000    0.000    0.000    0.000    0.000    0.000 
#
# Total GULP energy -396690.106062 kJ/mol
# GULP energy per Si atom -12396.565814 kJ/mol
# Density = 1.837098 g / cm^3
# Si number density = 18.412892 Si / 1000 Ang^3
#
#
#
# Elastic Constant Matrix: (Units=GPa)
#
#
# Indices 1 2 3 4 5 6 
#
# 1 164.8734 61.4923 67.4195 0.0000 0.0000 0.0000
# 2 61.4923 65.2920 39.4295 0.0000 0.0000 0.0000
# 3 67.4195 39.4295 115.2062 0.0000 0.0000 0.0000
# 4 0.0000 0.0000 0.0000 11.3400 0.0000 0.0000
# 5 0.0000 0.0000 0.0000 0.0000 28.6495 0.0000
# 6 0.0000 0.0000 0.0000 0.0000 0.0000 15.9442
#
#
#
# Elastic Compliance Matrix: (Units=1/GPa)
#
#
# Indices 1 2 3 4 5 6 
#
# 1 0.010317 -0.007652 -0.003419 0.000000 0.000000 0.000000
# 2 -0.007652 0.024982 -0.004072 0.000000 0.000000 0.000000
# 3 -0.003419 -0.004072 0.012074 0.000000 0.000000 0.000000
# 4 0.000000 0.000000 0.000000 0.088183 0.000000 0.000000
# 5 0.000000 0.000000 0.000000 0.000000 0.034905 0.000000
# 6 0.000000 0.000000 0.000000 0.000000 0.000000 0.062719
#
#
# Mechanical properties :
#
#
# Convention : Reuss Voigt Hill
#
# Bulk Modulus (GPa) = 58.52201 75.78380 67.15290
# Shear Modulus (GPa) = 18.57618 22.98877 20.78247
#
# Velocity S-wave (km/s) = 3.17971 3.53727 3.36325
# Velocity P-wave (km/s) = 6.73297 7.61120 7.18552
#
# Compressibility (1/GPa) = 0.01708759
#
# Stress axis : x y z
#
# Youngs Moduli (GPa) = 96.92461 40.02923 82.82017
#
# Poissons Ratio (x) = 0.30632 0.28314
# Poissons Ratio (y) = 0.74170 0.33723
# Poissons Ratio (z) = 0.33136 0.16299
#
# Static dielectric constant tensor:
#      x y z
#    x 3.793430 0.000000 0.000000 
#    y 0.000000 2.938340 0.000000 
#    z 0.000000 0.000000 3.454490 
# 
# 
# High freq. dielectric constant tensor:
#      x y z
#    x 1.736910 0.000000 0.000000 
#    y 0.000000 1.656060 0.000000 
#    z 0.000000 0.000000 1.722870 
# 
# From -- ./inp_files/5904.got.cif
#   From: 2010.03.12/outbox.cif.g09.slc.cpg/sg38_3_cif.got.tgz:5904.got - 2010.04.14 02:38:36.
