data_PCOD8177038
_publ_section_title
;
Structure prediction by ZEFSAII (Michael W. Deem and Ramdas Pophale) SiO2 
 PCOD8177038
Probable space group: C C C 2
;
_chemical_formula_sum "Si O2"
_cell_formula_units_Z 64
_cell_length_a 17.231651
_cell_length_b 21.659566
_cell_length_c 9.261044
_cell_angle_alpha 90.000000
_cell_angle_beta 90.000000
_cell_angle_gamma 90.000000
_cell_volume 3456.500213
_symmetry_space_group_name_H-M "C C C 2"
_symmetry_group_IT_number 37
_symmetry_cell_setting 'orthorhombic'
loop_
_space_group_symop_operation_xyz
x,y,z
-x,-y,z
-x,y,1/2+z
x,-y,1/2+z
1/2+x,1/2+y,z
1/2-x,1/2-y,z
1/2-x,1/2+y,1/2+z
1/2+x,1/2-y,1/2+z
loop_
_atom_site_type_symbol
_atom_site_label
_atom_site_fract_x
_atom_site_fract_y
_atom_site_fract_z
Si Si1 0.670745 0.715238 0.222810
Si Si2 0.442583 0.353902 0.729529
Si Si3 0.389911 0.585014 0.717021
Si Si4 0.917046 0.747902 0.946089
Si Si5 0.669376 0.497755 0.968880
Si Si6 0.287972 0.576816 0.225129
Si Si7 0.311985 0.803120 0.216975
Si Si8 0.583104 0.250917 0.999028
O O1 0.750000 0.750000 0.266371
O O2 0.675255 0.640120 0.217936
O O3 0.604219 0.732820 0.336009
O O4 0.645497 0.741356 0.069308
O O5 0.525967 0.384029 0.706838
O O6 0.440106 0.313251 0.874326
O O7 0.378875 0.407117 0.741902
O O8 0.417331 0.313156 0.592846
O O9 0.380310 0.542948 0.573681
O O10 0.384428 0.545149 0.864924
O O11 0.880171 0.699996 0.834508
O O12 0.997868 0.719424 0.004963
O O13 0.724111 0.456869 0.072318
O O14 0.728969 0.534025 0.863978
O O15 0.229214 0.632410 0.229778
O O16 0.250000 0.750000 0.247929
O O17 0.351780 0.795684 0.060645
#
# Coordination Sequence:
#
# PCOD8177038 Si02
#       8
#     8   8   8   8   8   8   8   8
#     4  12  24  33  61  90 117 150 199 258 307 345
#     4  11  22  35  62  77 125 167 197 242 283 349
#     4  11  23  42  55  86 125 168 210 249 284 358
#     4  11  21  38  55  93 120 157 188 244 319 361
#     4  10  26  39  58  82 125 168 218 240 289 342
#     4  11  23  41  58  86 117 161 208 250 291 358
#     4  11  22  37  65  88 118 160 200 245 320 369
#     4  11  21  38  55  93 120 157 188 244 319 361
#
# _framework density 18.515839
#
# number of rings (size 3 to 8) (size 9 to 14) (size 15 to 20)
#    0.000    1.000    5.000    3.000    3.500    3.000 
#    0.000    0.000    0.000    0.000    0.000    2.625 
#    0.000    0.000    0.000    0.000    0.000    0.000 
#
# Total GULP energy -396768.244569 kJ/mol
# GULP energy per Si atom -12399.007643 kJ/mol
# Density = 1.847370 g / cm^3
# Si number density = 18.515839 Si / 1000 Ang^3
#
#
#
# Elastic Constant Matrix: (Units=GPa)
#
#
# Indices 1 2 3 4 5 6 
#
# 1 75.1223 41.4844 16.3360 0.0000 0.0000 0.0000
# 2 41.4844 94.4529 29.9253 0.0000 0.0000 0.0000
# 3 16.3360 29.9253 107.1886 0.0000 0.0000 0.0000
# 4 0.0000 0.0000 0.0000 17.2731 0.0000 0.0000
# 5 0.0000 0.0000 0.0000 0.0000 13.1894 0.0000
# 6 0.0000 0.0000 0.0000 0.0000 0.0000 31.6299
#
#
#
# Elastic Compliance Matrix: (Units=1/GPa)
#
#
# Indices 1 2 3 4 5 6 
#
# 1 0.017606 -0.007551 -0.000575 0.000000 0.000000 0.000000
# 2 -0.007551 0.014853 -0.002996 0.000000 0.000000 0.000000
# 3 -0.000575 -0.002996 0.010253 0.000000 0.000000 0.000000
# 4 0.000000 0.000000 0.000000 0.057894 0.000000 0.000000
# 5 0.000000 0.000000 0.000000 0.000000 0.075819 0.000000
# 6 0.000000 0.000000 0.000000 0.000000 0.000000 0.031616
#
#
# Mechanical properties :
#
#
# Convention : Reuss Voigt Hill
#
# Bulk Modulus (GPa) = 48.85436 50.25056 49.55246
# Shear Modulus (GPa) = 21.08755 25.01969 23.05362
#
# Velocity S-wave (km/s) = 3.37841 3.67993 3.53239
# Velocity P-wave (km/s) = 6.45451 6.72711 6.59222
#
# Compressibility (1/GPa) = 0.02046900
#
# Stress axis : x y z
#
# Youngs Moduli (GPa) = 56.79773 67.32768 97.52833
#
# Poissons Ratio (x) = 0.50836 0.05611
# Poissons Ratio (y) = 0.42885 0.29218
# Poissons Ratio (z) = 0.03268 0.20171
#
# Static dielectric constant tensor:
#      x y z
#    x 3.340490 0.000000 0.000000 
#    y 0.000000 4.148020 0.000000 
#    z 0.000000 0.000000 3.741180 
# 
# 
# High freq. dielectric constant tensor:
#      x y z
#    x 1.698220 0.000000 0.000000 
#    y 0.000000 1.696490 0.000000 
#    z 0.000000 0.000000 1.746650 
# 
# From -- ./inp_files/4156.got.cif
#   From: 2010.03.12/outbox.cif.g09.slc.cpg/sg37_3_cif.got.tgz:4156.got - 2010.04.14 02:25:27.
