data_PCOD8177735
_publ_section_title
;
Structure prediction by ZEFSAII (Michael W. Deem and Ramdas Pophale) SiO2 
 PCOD8177735
Probable space group: A M M 2
;
_chemical_formula_sum "Si O2"
_cell_formula_units_Z 56
_cell_length_a 8.859895
_cell_length_b 19.761424
_cell_length_c 15.006143
_cell_angle_alpha 90.000000
_cell_angle_beta 90.000000
_cell_angle_gamma 90.000000
_cell_volume 2627.337667
_symmetry_space_group_name_H-M "A M M 2"
_symmetry_group_IT_number 38
_symmetry_cell_setting 'orthorhombic'
loop_
_space_group_symop_operation_xyz
x,y,z
-x,-y,z
-x,y,z
x,-y,z
x,1/2+y,1/2+z
-x,1/2-y,1/2+z
-x,1/2+y,1/2+z
x,1/2-y,1/2+z
loop_
_atom_site_type_symbol
_atom_site_label
_atom_site_fract_x
_atom_site_fract_y
_atom_site_fract_z
Si Si1 0.825219 0.369031 0.878460
Si Si2 0.839064 0.500000 0.461009
Si Si3 0.321174 0.274723 0.389087
Si Si4 0.170270 0.357905 0.548403
Si Si5 0.324670 0.077707 0.206477
Si Si6 0.825999 0.075858 0.570332
Si Si7 0.678646 0.639367 0.222546
Si Si8 0.326479 0.000000 0.792248
O O1 0.724506 0.302525 0.888201
O O2 0.767908 0.414372 0.797326
O O3 0.000000 0.349069 0.864967
O O4 0.800885 0.413658 0.965951
O O5 0.832940 0.564768 0.521775
O O6 0.694480 0.500000 0.398021
O O7 0.000000 0.500000 0.407747
O O8 0.500000 0.283845 0.398048
O O9 0.246965 0.311820 0.473409
O O10 0.263584 0.305538 0.293975
O O11 0.266649 0.362815 0.639493
O O12 0.000000 0.330557 0.566011
O O13 0.500000 0.092541 0.223991
O O14 0.301685 0.000000 0.172560
O O15 0.745641 0.139470 0.622292
O O16 0.000000 0.079427 0.595568
O O17 0.761568 0.000000 0.593453
O O18 0.500000 0.642853 0.216923
O O19 0.747535 0.567757 0.254953
O O20 0.500000 0.000000 0.768202
#
# Coordination Sequence:
#
# PCOD8177735 Si02
#       8
#     8   4   8   8   8   8   8   4
#     4  11  25  45  65  87 122 167 213 261 312 370
#     4  10  20  32  54  89 124 159 200 249 306 368
#     4  11  24  42  62  90 129 170 210 253 306 373
#     4  11  22  38  62  94 128 164 206 254 314 377
#     4  11  24  42  67  97 125 159 207 263 321 378
#     4  10  22  40  64  92 119 152 198 252 307 361
#     4  10  21  36  59  90 123 158 196 244 302 364
#     4  10  18  32  54  85 122 159 196 241 308 366
#
# _framework density 21.314352
#
# number of rings (size 3 to 8) (size 9 to 14) (size 15 to 20)
#    0.000    1.429    2.857    2.143    0.000    6.000 
#    0.000    2.857    0.000    0.000    0.000    0.000 
#    0.000    0.000    0.000    0.000    0.000    0.000 
#
# Total GULP energy -347018.012982 kJ/mol
# GULP energy per Si atom -12393.500464 kJ/mol
# Density = 2.126584 g / cm^3
# Si number density = 21.314352 Si / 1000 Ang^3
#
#
#
# Elastic Constant Matrix: (Units=GPa)
#
#
# Indices 1 2 3 4 5 6 
#
# 1 75.2032 21.4116 41.5811 0.0000 0.0000 0.0000
# 2 21.4116 67.3798 11.5304 0.0000 0.0000 0.0000
# 3 41.5811 11.5304 112.5040 0.0000 0.0000 0.0000
# 4 0.0000 0.0000 0.0000 24.6411 0.0000 0.0000
# 5 0.0000 0.0000 0.0000 0.0000 38.0516 0.0000
# 6 0.0000 0.0000 0.0000 0.0000 0.0000 36.8893
#
#
#
# Elastic Compliance Matrix: (Units=1/GPa)
#
#
# Indices 1 2 3 4 5 6 
#
# 1 0.018053 -0.004677 -0.006193 0.000000 0.000000 0.000000
# 2 -0.004677 0.016318 0.000056 0.000000 0.000000 0.000000
# 3 -0.006193 0.000056 0.011172 0.000000 0.000000 0.000000
# 4 0.000000 0.000000 0.000000 0.040583 0.000000 0.000000
# 5 0.000000 0.000000 0.000000 0.000000 0.026280 0.000000
# 6 0.000000 0.000000 0.000000 0.000000 0.000000 0.027108
#
#
# Mechanical properties :
#
#
# Convention : Reuss Voigt Hill
#
# Bulk Modulus (GPa) = 41.81469 44.90367 43.35918
# Shear Modulus (GPa) = 29.56600 31.95398 30.75999
#
# Velocity S-wave (km/s) = 3.72847 3.87612 3.80301
# Velocity P-wave (km/s) = 6.18029 6.41448 6.29847
#
# Compressibility (1/GPa) = 0.02391504
#
# Stress axis : x y z
#
# Youngs Moduli (GPa) = 55.39188 61.28249 89.51154
#
# Poissons Ratio (x) = 0.28662 0.55435
# Poissons Ratio (y) = 0.25907 -0.00503
# Poissons Ratio (z) = 0.34304 -0.00345
#
# Static dielectric constant tensor:
#      x y z
#    x 4.083700 0.000000 0.000000 
#    y 0.000000 2.938890 0.000000 
#    z 0.000000 0.000000 4.038530 
# 
# 
# High freq. dielectric constant tensor:
#      x y z
#    x 1.834490 0.000000 0.000000 
#    y 0.000000 1.829350 0.000000 
#    z 0.000000 0.000000 1.845790 
# 
# From -- ./inp_files/12494.got.cif
#   From: 2010.03.12/outbox.cif.g09.slc.cpg/sg38_7_cif.got.tgz:12494.got - 2010.04.14 02:38:36.
