data_PCOD8177029
_publ_section_title
;
Structure prediction by ZEFSAII (Michael W. Deem and Ramdas Pophale) SiO2 
 PCOD8177029
Probable space group: C C C 2
;
_chemical_formula_sum "Si O2"
_cell_formula_units_Z 48
_cell_length_a 11.834707
_cell_length_b 13.771853
_cell_length_c 13.294765
_cell_angle_alpha 90.000000
_cell_angle_beta 90.000000
_cell_angle_gamma 90.000000
_cell_volume 2166.858509
_symmetry_space_group_name_H-M "C C C 2"
_symmetry_group_IT_number 37
_symmetry_cell_setting 'orthorhombic'
loop_
_space_group_symop_operation_xyz
x,y,z
-x,-y,z
-x,y,1/2+z
x,-y,1/2+z
1/2+x,1/2+y,z
1/2-x,1/2-y,z
1/2-x,1/2+y,1/2+z
1/2+x,1/2-y,1/2+z
loop_
_atom_site_type_symbol
_atom_site_label
_atom_site_fract_x
_atom_site_fract_y
_atom_site_fract_z
Si Si1 0.785767 0.889803 0.682680
Si Si2 0.010306 0.605659 0.833682
Si Si3 0.106526 0.942715 0.573224
Si Si4 0.226468 0.361522 0.910109
Si Si5 0.428668 0.094353 0.538415
Si Si6 0.992631 0.241856 0.158316
O O1 0.757104 0.893676 0.798567
O O2 0.676649 0.890884 0.612510
O O3 0.863208 0.794688 0.666470
O O4 0.852495 0.987847 0.661465
O O5 0.906601 0.617245 0.913842
O O6 0.024798 0.696633 0.759602
O O7 0.000000 0.500000 0.777176
O O8 0.109196 0.599799 0.919602
O O9 0.203359 0.925767 0.490009
O O10 0.077322 0.845577 0.635173
O O11 0.000000 0.000000 0.521636
O O12 0.250000 0.250000 0.932618
O O13 0.506846 0.187451 0.563953
O O14 0.500000 0.000000 0.567120
#
# Coordination Sequence:
#
# PCOD8177029 Si02
#       6
#     8   8   8   8   8   8
#     4  11  23  44  66  94 134 181 212 272 339 402
#     4  11  23  40  70  99 130 175 224 276 335 396
#     4  10  25  42  65 100 138 169 224 282 325 393
#     4  12  22  44  70  96 131 184 222 268 346 399
#     4  11  22  40  69  97 133 168 227 275 327 399
#     4  11  22  42  66  98 129 176 223 268 335 396
#
# _framework density 22.151883999999999
#
# number of rings (size 3 to 8) (size 9 to 14) (size 15 to 20)
#    0.000    1.000    3.333    4.000    0.000    2.000 
#    3.000    0.000    0.000    0.000    0.000    0.000 
#    0.000    0.000    0.000    0.000    0.000    0.000 
#
# Total GULP energy -297343.564879 kJ/mol
# GULP energy per Si atom -12389.315203 kJ/mol
# Density = 2.210147 g / cm^3
# Si number density = 22.151884 Si / 1000 Ang^3
#
#
#
# Elastic Constant Matrix: (Units=GPa)
#
#
# Indices 1 2 3 4 5 6 
#
# 1 43.9212 18.0459 17.9606 0.0000 0.0000 0.0000
# 2 18.0459 143.5180 51.5552 0.0000 0.0000 0.0000
# 3 17.9606 51.5552 128.7328 0.0000 0.0000 0.0000
# 4 0.0000 0.0000 0.0000 30.8756 0.0000 0.0000
# 5 0.0000 0.0000 0.0000 0.0000 34.3335 0.0000
# 6 0.0000 0.0000 0.0000 0.0000 0.0000 19.3457
#
#
#
# Elastic Compliance Matrix: (Units=1/GPa)
#
#
# Indices 1 2 3 4 5 6 
#
# 1 0.024718 -0.002183 -0.002574 0.000000 0.000000 0.000000
# 2 -0.002183 0.008331 -0.003032 0.000000 0.000000 0.000000
# 3 -0.002574 -0.003032 0.009341 0.000000 0.000000 0.000000
# 4 0.000000 0.000000 0.000000 0.032388 0.000000 0.000000
# 5 0.000000 0.000000 0.000000 0.000000 0.029126 0.000000
# 6 0.000000 0.000000 0.000000 0.000000 0.000000 0.051691
#
#
# Mechanical properties :
#
#
# Convention : Reuss Voigt Hill
#
# Bulk Modulus (GPa) = 37.29720 54.58837 45.94278
# Shear Modulus (GPa) = 27.76049 32.15164 29.95607
#
# Velocity S-wave (km/s) = 3.54388 3.81388 3.68136
# Velocity P-wave (km/s) = 5.79819 6.64007 6.23336
#
# Compressibility (1/GPa) = 0.02681166
#
# Stress axis : x y z
#
# Youngs Moduli (GPa) = 40.45678 120.02702 107.04994
#
# Poissons Ratio (x) = 0.26205 0.27557
# Poissons Ratio (y) = 0.08833 0.32457
# Poissons Ratio (z) = 0.10414 0.36392
#
# Static dielectric constant tensor:
#      x y z
#    x 4.388540 0.000000 0.000000 
#    y 0.000000 4.166960 0.000000 
#    z 0.000000 0.000000 3.986140 
# 
# 
# High freq. dielectric constant tensor:
#      x y z
#    x 1.861770 0.000000 0.000000 
#    y 0.000000 1.900640 0.000000 
#    z 0.000000 0.000000 1.876460 
# 
# From -- ./inp_files/11499.got.cif
#   From: 2010.03.12/outbox.cif.g09.slc.cpg/sg37_6_cif.got.tgz:11499.got - 2010.04.14 02:25:27.
