data_PCOD8177011
_publ_section_title
;
Structure prediction by ZEFSAII (Michael W. Deem and Ramdas Pophale) SiO2 
 PCOD8177011
Probable space group: C C C 2
;
_chemical_formula_sum "Si O2"
_cell_formula_units_Z 60
_cell_length_a 26.873360
_cell_length_b 7.844041
_cell_length_c 12.355376
_cell_angle_alpha 90.000000
_cell_angle_beta 90.000000
_cell_angle_gamma 90.000000
_cell_volume 2604.460598
_symmetry_space_group_name_H-M "C C C 2"
_symmetry_group_IT_number 37
_symmetry_cell_setting 'orthorhombic'
loop_
_space_group_symop_operation_xyz
x,y,z
-x,-y,z
-x,y,1/2+z
x,-y,1/2+z
1/2+x,1/2+y,z
1/2-x,1/2-y,z
1/2-x,1/2+y,1/2+z
1/2+x,1/2-y,1/2+z
loop_
_atom_site_type_symbol
_atom_site_label
_atom_site_fract_x
_atom_site_fract_y
_atom_site_fract_z
Si Si1 0.305526 0.802464 0.611540
Si Si2 0.000000 0.000000 0.994300
Si Si3 0.489392 0.804166 0.162273
Si Si4 0.065638 0.114750 0.314561
Si Si5 0.694074 0.321628 0.380352
Si Si6 0.332570 0.296195 0.342316
Si Si7 0.883513 0.192226 0.205371
Si Si8 0.196566 0.314783 0.557158
O O1 0.250000 0.750000 0.634723
O O2 0.324448 0.711922 0.502481
O O3 0.334832 0.748648 0.716853
O O4 0.312853 0.002294 0.605110
O O5 0.953630 0.996128 0.912158
O O6 0.999591 0.173998 0.063636
O O7 0.522857 0.733973 0.262241
O O8 0.431196 0.813813 0.193327
O O9 0.500000 0.000000 0.130089
O O10 0.109116 0.221083 0.372346
O O11 0.093132 0.995641 0.224849
O O12 0.750000 0.250000 0.361040
O O13 0.694104 0.522468 0.359300
O O14 0.652823 0.238540 0.301116
O O15 0.304309 0.171470 0.425724
O O16 0.847759 0.189891 0.099092
O O17 0.250000 0.250000 0.598370
#
# Coordination Sequence:
#
# PCOD8177011 Si02
#       8
#     8   4   8   8   8   8   8   8
#     4  11  27  45  70 108 150 197 251 309 369 448
#     4  12  22  52  76 106 152 194 246 318 382 460
#     4  12  27  48  76 112 149 194 256 314 380 460
#     4  11  25  48  78 104 147 194 247 306 392 455
#     4  10  24  44  75 104 149 194 251 306 375 445
#     4  11  27  46  74 107 144 197 252 305 382 448
#     4  11  24  47  75 106 144 202 245 310 384 451
#     4  12  27  46  75 107 153 194 254 308 380 457
#
# _framework density 23.037400000000002
#
# number of rings (size 3 to 8) (size 9 to 14) (size 15 to 20)
#    0.000    0.800    2.667    3.200   13.067    1.600 
#    0.000    0.000    0.000    0.000    0.000    0.000 
#    0.000    0.000    0.000    0.000    0.000    0.000 
#
# Total GULP energy -371739.527068 kJ/mol
# GULP energy per Si atom -12391.317569 kJ/mol
# Density = 2.298497 g / cm^3
# Si number density = 23.037400 Si / 1000 Ang^3
#
#
#
# Elastic Constant Matrix: (Units=GPa)
#
#
# Indices 1 2 3 4 5 6 
#
# 1 161.0530 40.8986 56.2838 0.0000 0.0000 0.0000
# 2 40.8986 124.4961 67.1588 0.0000 0.0000 0.0000
# 3 56.2838 67.1588 143.6361 0.0000 0.0000 0.0000
# 4 0.0000 0.0000 0.0000 36.1368 0.0000 0.0000
# 5 0.0000 0.0000 0.0000 0.0000 26.3616 0.0000
# 6 0.0000 0.0000 0.0000 0.0000 0.0000 27.3302
#
#
#
# Elastic Compliance Matrix: (Units=1/GPa)
#
#
# Indices 1 2 3 4 5 6 
#
# 1 0.007315 -0.001146 -0.002330 0.000000 0.000000 0.000000
# 2 -0.001146 0.010921 -0.004657 0.000000 0.000000 0.000000
# 3 -0.002330 -0.004657 0.010053 0.000000 0.000000 0.000000
# 4 0.000000 0.000000 0.000000 0.027673 0.000000 0.000000
# 5 0.000000 0.000000 0.000000 0.000000 0.037934 0.000000
# 6 0.000000 0.000000 0.000000 0.000000 0.000000 0.036590
#
#
# Mechanical properties :
#
#
# Convention : Reuss Voigt Hill
#
# Bulk Modulus (GPa) = 83.18538 84.20752 83.69645
# Shear Modulus (GPa) = 33.16553 35.62199 34.39376
#
# Velocity S-wave (km/s) = 3.79837 3.93653 3.86807
# Velocity P-wave (km/s) = 7.44473 7.56925 7.50725
#
# Compressibility (1/GPa) = 0.01202134
#
# Stress axis : x y z
#
# Youngs Moduli (GPa) = 136.71400 91.56536 99.47423
#
# Poissons Ratio (x) = 0.10491 0.23182
# Poissons Ratio (y) = 0.15664 0.46329
# Poissons Ratio (z) = 0.31861 0.42645
#
# Static dielectric constant tensor:
#      x y z
#    x 4.680760 0.000000 0.000000 
#    y 0.000000 3.938150 0.000000 
#    z 0.000000 0.000000 4.477460 
# 
# 
# High freq. dielectric constant tensor:
#      x y z
#    x 1.927630 0.000000 0.000000 
#    y 0.000000 1.893630 0.000000 
#    z 0.000000 0.000000 1.922060 
# 
# From -- ./inp_files/9091.got.cif
#   From: 2010.03.12/outbox.cif.g09.slc.cpg/sg37_5_cif.got.tgz:9091.got - 2010.04.14 02:25:27.
