data_PCOD8177855
_publ_section_title
;
Structure prediction by ZEFSAII (Michael W. Deem and Ramdas Pophale) SiO2 
 PCOD8177855
Probable space group: A M M 2
;
_chemical_formula_sum "Si O2"
_cell_formula_units_Z 64
_cell_length_a 9.127560
_cell_length_b 26.482499
_cell_length_c 18.067825
_cell_angle_alpha 90.000000
_cell_angle_beta 90.000000
_cell_angle_gamma 90.000000
_cell_volume 4367.365474
_symmetry_space_group_name_H-M "A M M 2"
_symmetry_group_IT_number 38
_symmetry_cell_setting 'orthorhombic'
loop_
_space_group_symop_operation_xyz
x,y,z
-x,-y,z
-x,y,z
x,-y,z
x,1/2+y,1/2+z
-x,1/2-y,1/2+z
-x,1/2+y,1/2+z
x,1/2-y,1/2+z
loop_
_atom_site_type_symbol
_atom_site_label
_atom_site_fract_x
_atom_site_fract_y
_atom_site_fract_z
Si Si1 0.831198 0.758801 0.443790
Si Si2 0.668780 0.443102 0.926951
Si Si3 0.661993 0.297271 0.160447
Si Si4 0.338709 0.700377 0.556490
Si Si5 0.328966 0.650895 0.019793
Si Si6 0.169541 0.762584 0.272330
Si Si7 0.829658 0.441582 0.776814
Si Si8 0.674159 0.144940 0.197585
O O1 0.769151 0.709932 0.487711
O O2 0.754809 0.810712 0.466542
O O3 0.805002 0.749391 0.357537
O O4 0.000000 0.763960 0.464189
O O5 0.500000 0.437029 0.902123
O O6 0.701403 0.500000 0.954044
O O7 0.769443 0.428412 0.857880
O O8 0.707594 0.406073 0.994767
O O9 0.500000 0.308109 0.193659
O O10 0.654677 0.249617 0.106855
O O11 0.715682 0.343155 0.106788
O O12 0.774551 0.286479 0.226781
O O13 0.500000 0.688096 0.524619
O O14 0.285533 0.655552 0.611321
O O15 0.500000 0.663610 0.011149
O O16 0.259313 0.812576 0.251545
O O17 0.000000 0.772143 0.253810
O O18 0.802569 0.500000 0.757439
O O19 0.742691 0.409180 0.716335
O O20 0.000000 0.427282 0.774975
O O21 0.500000 0.144867 0.209520
#
# Coordination Sequence:
#
# PCOD8177855 Si02
#       8
#     8   8   8   8   8   8   8   8
#     4  10  19  27  38  58  81 105 133 162 195 236
#     4   9  17  29  44  60  79 106 138 170 203 236
#     4   8  15  27  40  55  76 103 133 163 196 235
#     4   8  16  29  42  57  77 101 131 165 198 233
#     4   9  17  28  41  57  78 104 135 167 197 233
#     4  10  19  28  39  59  84 107 134 166 198 235
#     4  10  20  31  42  59  83 108 135 168 201 232
#     4  10  19  30  44  60  78 105 139 168 198 237
#
# _framework density 14.654142999999999
#
# number of rings (size 3 to 8) (size 9 to 14) (size 15 to 20)
#    0.000    2.750    0.000    3.750    0.000   10.250 
#    0.000    0.000    0.000    0.000    0.000    0.000 
#    0.000    1.000    0.000    9.000    0.000    4.250 
#
# Total GULP energy -396661.425298 kJ/mol
# GULP energy per Si atom -12395.669541 kJ/mol
# Density = 1.462079 g / cm^3
# Si number density = 14.654143 Si / 1000 Ang^3
#
#
#
# Elastic Constant Matrix: (Units=GPa)
#
#
# Indices 1 2 3 4 5 6 
#
# 1 85.7112 41.3392 54.0674 0.0000 0.0000 0.0000
# 2 41.3392 77.0080 50.7908 0.0000 0.0000 0.0000
# 3 54.0674 50.7908 83.8202 0.0000 0.0000 0.0000
# 4 0.0000 0.0000 0.0000 27.8234 0.0000 0.0000
# 5 0.0000 0.0000 0.0000 0.0000 22.4175 0.0000
# 6 0.0000 0.0000 0.0000 0.0000 0.0000 18.4212
#
#
#
# Elastic Compliance Matrix: (Units=1/GPa)
#
#
# Indices 1 2 3 4 5 6 
#
# 1 0.020307 -0.003767 -0.010816 0.000000 0.000000 0.000000
# 2 -0.003767 0.022329 -0.011100 0.000000 0.000000 0.000000
# 3 -0.010816 -0.011100 0.025633 0.000000 0.000000 0.000000
# 4 0.000000 0.000000 0.000000 0.035941 0.000000 0.000000
# 5 0.000000 0.000000 0.000000 0.000000 0.044608 0.000000
# 6 0.000000 0.000000 0.000000 0.000000 0.000000 0.054285
#
#
# Mechanical properties :
#
#
# Convention : Reuss Voigt Hill
#
# Bulk Modulus (GPa) = 59.16397 59.88157 59.52277
# Shear Modulus (GPa) = 19.22301 20.42188 19.82245
#
# Velocity S-wave (km/s) = 3.62578 3.73713 3.68188
# Velocity P-wave (km/s) = 7.61509 7.71839 7.66691
#
# Compressibility (1/GPa) = 0.01690218
#
# Stress axis : x y z
#
# Youngs Moduli (GPa) = 49.24428 44.78419 39.01196
#
# Poissons Ratio (x) = 0.16872 0.42195
# Poissons Ratio (y) = 0.18553 0.43304
# Poissons Ratio (z) = 0.53262 0.49712
#
# Static dielectric constant tensor:
#      x y z
#    x 2.969530 0.000000 0.000000 
#    y 0.000000 2.881760 0.000000 
#    z 0.000000 0.000000 2.971020 
# 
# 
# High freq. dielectric constant tensor:
#      x y z
#    x 1.571460 0.000000 0.000000 
#    y 0.000000 1.530020 0.000000 
#    z 0.000000 0.000000 1.544920 
# 
# From -- ./inp_files/17340.got.cif
#   From: 2010.03.12/outbox.cif.g09.slc.cpg/sg38_9_cif.got.tgz:17340.got - 2010.04.14 02:38:36.
