data_PCOD8177893
_publ_section_title
;
Structure prediction by ZEFSAII (Michael W. Deem and Ramdas Pophale) SiO2 
 PCOD8177893
Probable space group: A M M 2
;
_chemical_formula_sum "Si O2"
_cell_formula_units_Z 60
_cell_length_a 27.623515
_cell_length_b 26.269713
_cell_length_c 5.121942
_cell_angle_alpha 90.000000
_cell_angle_beta 90.000000
_cell_angle_gamma 90.000000
_cell_volume 3716.797708
_symmetry_space_group_name_H-M "A M M 2"
_symmetry_group_IT_number 38
_symmetry_cell_setting 'orthorhombic'
loop_
_space_group_symop_operation_xyz
x,y,z
-x,-y,z
-x,y,z
x,-y,z
x,1/2+y,1/2+z
-x,1/2-y,1/2+z
-x,1/2+y,1/2+z
x,1/2-y,1/2+z
loop_
_atom_site_type_symbol
_atom_site_label
_atom_site_fract_x
_atom_site_fract_y
_atom_site_fract_z
Si Si1 0.281823 0.557070 0.672580
Si Si2 0.448339 0.782783 0.613694
Si Si3 0.166809 0.881596 0.673541
Si Si4 0.896212 0.715907 0.207497
Si Si5 0.166786 0.942969 0.172891
Si Si6 0.345124 0.215658 0.707458
Si Si7 0.000000 0.718417 0.110219
Si Si8 0.281728 0.118524 0.673231
O O1 0.303522 0.500000 0.670640
O O2 0.224308 0.553894 0.669381
O O3 0.300798 0.587838 0.423275
O O4 0.300274 0.586708 0.926141
O O5 0.500000 0.812824 0.658387
O O6 0.447436 0.764882 0.313579
O O7 0.398042 0.812452 0.673635
O O8 0.144717 0.825691 0.664715
O O9 0.148334 0.913849 0.427888
O O10 0.224265 0.874999 0.673835
O O11 0.147763 0.911833 0.924972
O O12 0.889986 0.760442 0.994398
O O13 0.949633 0.689339 0.176110
O O14 0.145077 0.000000 0.168749
O O15 0.339460 0.260199 0.493773
O O16 0.303553 0.174620 0.667336
O O17 0.000000 0.732339 0.803623
#
# Coordination Sequence:
#
# PCOD8177893 Si02
#       8
#     8   8   8   8   8   8   4   8
#     4   9  17  30  46  61  81 109 142 184 219 238
#     4   8  14  25  40  56  75 104 142 177 203 230
#     4  10  19  29  44  66  87 113 143 170 208 252
#     4  10  19  31  46  65  89 114 142 175 206 243
#     4   9  17  30  46  64  85 109 141 179 213 246
#     4  10  19  29  41  59  88 121 143 164 201 248
#     4   8  16  30  46  62  81 108 143 180 210 232
#     4  10  19  29  42  63  89 113 142 171 203 257
#
# _framework density 16.142928000000001
#
# number of rings (size 3 to 8) (size 9 to 14) (size 15 to 20)
#    0.000    2.667    0.000    2.400    0.000    4.267 
#    0.000    0.000    0.000    0.000    0.000    2.800 
#    0.000    3.200    0.000    0.000    0.000    0.000 
#
# Total GULP energy -371741.439791 kJ/mol
# GULP energy per Si atom -12391.381326 kJ/mol
# Density = 1.610619 g / cm^3
# Si number density = 16.142928 Si / 1000 Ang^3
#
#
#
# Elastic Constant Matrix: (Units=GPa)
#
#
# Indices 1 2 3 4 5 6 
#
# 1 50.3687 34.5142 21.4642 0.0000 0.0000 0.0000
# 2 34.5142 75.7911 30.2363 0.0000 0.0000 0.0000
# 3 21.4642 30.2363 113.2888 0.0000 0.0000 0.0000
# 4 0.0000 0.0000 0.0000 21.6070 0.0000 0.0000
# 5 0.0000 0.0000 0.0000 0.0000 9.9440 0.0000
# 6 0.0000 0.0000 0.0000 0.0000 0.0000 1.3842
#
#
#
# Elastic Compliance Matrix: (Units=1/GPa)
#
#
# Indices 1 2 3 4 5 6 
#
# 1 0.029354 -0.012477 -0.002231 0.000000 0.000000 0.000000
# 2 -0.012477 0.020070 -0.002993 0.000000 0.000000 0.000000
# 3 -0.002231 -0.002993 0.010048 0.000000 0.000000 0.000000
# 4 0.000000 0.000000 0.000000 0.046281 0.000000 0.000000
# 5 0.000000 0.000000 0.000000 0.000000 0.100563 0.000000
# 6 0.000000 0.000000 0.000000 0.000000 0.000000 0.722437
#
#
# Mechanical properties :
#
#
# Convention : Reuss Voigt Hill
#
# Bulk Modulus (GPa) = 41.54532 45.76424 43.65478
# Shear Modulus (GPa) = 5.14308 16.80263 10.97285
#
# Velocity S-wave (km/s) = 1.78686 3.22975 2.60999
# Velocity P-wave (km/s) = 5.48169 6.50533 6.01533
#
# Compressibility (1/GPa) = 0.02407010
#
# Stress axis : x y z
#
# Youngs Moduli (GPa) = 34.06646 49.82550 99.51737
#
# Poissons Ratio (x) = 0.62169 0.22207
# Poissons Ratio (y) = 0.42506 0.29782
# Poissons Ratio (z) = 0.07602 0.14911
#
# Static dielectric constant tensor:
#      x y z
#    x 3.068090 0.000000 0.000000 
#    y 0.000000 2.795340 0.000000 
#    z 0.000000 0.000000 3.369550 
# 
# 
# High freq. dielectric constant tensor:
#      x y z
#    x 1.595160 0.000000 0.000000 
#    y 0.000000 1.582390 0.000000 
#    z 0.000000 0.000000 1.649620 
# 
# From -- ./inp_files/2133.got.cif
#   From: 2010.03.12/outbox.cif.g09.slc.cpg/sg38_2_cif.got.tgz:2133.got - 2010.04.14 02:38:36.
