data_PCOD8177890
_publ_section_title
;
Structure prediction by ZEFSAII (Michael W. Deem and Ramdas Pophale) SiO2 
 PCOD8177890
Probable space group: A M M 2
;
_chemical_formula_sum "Si O2"
_cell_formula_units_Z 56
_cell_length_a 8.980397
_cell_length_b 13.673455
_cell_length_c 29.294324
_cell_angle_alpha 90.000000
_cell_angle_beta 90.000000
_cell_angle_gamma 90.000000
_cell_volume 3597.139516
_symmetry_space_group_name_H-M "A M M 2"
_symmetry_group_IT_number 38
_symmetry_cell_setting 'orthorhombic'
loop_
_space_group_symop_operation_xyz
x,y,z
-x,-y,z
-x,y,z
x,-y,z
x,1/2+y,1/2+z
-x,1/2-y,1/2+z
-x,1/2+y,1/2+z
x,1/2-y,1/2+z
loop_
_atom_site_type_symbol
_atom_site_label
_atom_site_fract_x
_atom_site_fract_y
_atom_site_fract_z
Si Si1 0.323384 0.798229 0.463160
Si Si2 0.324613 0.892962 0.914631
Si Si3 0.171779 0.612295 0.877730
Si Si4 0.172558 0.385494 0.049324
Si Si5 0.676263 0.222871 0.826192
Si Si6 0.665417 0.383894 0.138999
Si Si7 0.677157 0.890904 0.738772
O O1 0.500000 0.810459 0.460922
O O2 0.273539 0.686411 0.452343
O O3 0.253630 0.870192 0.425758
O O4 0.265927 0.824723 0.512964
O O5 0.500000 0.903726 0.916398
O O6 0.277281 0.855784 0.864587
O O7 0.251605 0.000000 0.923965
O O8 0.190843 0.500000 0.863745
O O9 0.243563 0.674858 0.836819
O O10 0.000000 0.641157 0.883965
O O11 0.206750 0.500000 0.042825
O O12 0.222808 0.348982 0.099433
O O13 0.000000 0.362133 0.042962
O O14 0.500000 0.241161 0.826241
O O15 0.735764 0.182424 0.777780
O O16 0.500000 0.341598 0.129063
O O17 0.656414 0.500000 0.140713
O O18 0.724733 0.349128 0.188845
O O19 0.500000 0.897443 0.741053
O O20 0.742970 0.000000 0.746940
#
# Coordination Sequence:
#
# PCOD8177890 Si02
#       7
#     8   8   8   8   8   8   8
#     4  10  19  29  45  66  83 106 141 176 209 247
#     4   8  14  25  41  62  86 108 132 164 201 242
#     4  10  20  32  43  57  83 116 144 173 210 249
#     4  10  19  29  41  59  86 117 143 170 208 251
#     4   9  16  26  44  67  86 109 141 172 202 241
#     4   8  14  25  41  61  85 112 141 172 205 245
#     4   8  13  23  42  67  91 113 138 170 208 247
#
# _framework density 15.567925000000001
#
# number of rings (size 3 to 8) (size 9 to 14) (size 15 to 20)
#    0.000    3.000    0.000    3.857    0.000    5.429 
#    0.000    0.714    0.000   15.429    0.000    1.000 
#    0.000    3.429    0.000    0.000    0.000    0.000 
#
# Total GULP energy -347049.375436 kJ/mol
# GULP energy per Si atom -12394.620551 kJ/mol
# Density = 1.553249 g / cm^3
# Si number density = 15.567925 Si / 1000 Ang^3
#
#
#
# Elastic Constant Matrix: (Units=GPa)
#
#
# Indices 1 2 3 4 5 6 
#
# 1 58.1929 34.8549 39.8376 0.0000 0.0000 0.0000
# 2 34.8549 84.6133 53.2682 0.0000 0.0000 0.0000
# 3 39.8376 53.2682 131.9051 0.0000 0.0000 0.0000
# 4 0.0000 0.0000 0.0000 23.6043 0.0000 0.0000
# 5 0.0000 0.0000 0.0000 0.0000 11.8262 0.0000
# 6 0.0000 0.0000 0.0000 0.0000 0.0000 12.4680
#
#
#
# Elastic Compliance Matrix: (Units=1/GPa)
#
#
# Indices 1 2 3 4 5 6 
#
# 1 0.024643 -0.007329 -0.004483 0.000000 0.000000 0.000000
# 2 -0.007329 0.018027 -0.005067 0.000000 0.000000 0.000000
# 3 -0.004483 -0.005067 0.010981 0.000000 0.000000 0.000000
# 4 0.000000 0.000000 0.000000 0.042365 0.000000 0.000000
# 5 0.000000 0.000000 0.000000 0.000000 0.084558 0.000000
# 6 0.000000 0.000000 0.000000 0.000000 0.000000 0.080205
#
#
# Mechanical properties :
#
#
# Convention : Reuss Voigt Hill
#
# Bulk Modulus (GPa) = 50.26548 58.95919 54.61233
# Shear Modulus (GPa) = 16.60203 19.36308 17.98255
#
# Velocity S-wave (km/s) = 3.26916 3.53055 3.40237
# Velocity P-wave (km/s) = 6.82699 7.38743 7.11273
#
# Compressibility (1/GPa) = 0.01989437
#
# Stress axis : x y z
#
# Youngs Moduli (GPa) = 40.57985 55.47191 91.06508
#
# Poissons Ratio (x) = 0.40655 0.40823
# Poissons Ratio (y) = 0.29741 0.46139
# Poissons Ratio (z) = 0.18191 0.28105
#
# Static dielectric constant tensor:
#      x y z
#    x 2.815160 0.000000 0.000000 
#    y 0.000000 2.928200 0.000000 
#    z 0.000000 0.000000 3.175610 
# 
# 
# High freq. dielectric constant tensor:
#      x y z
#    x 1.580140 0.000000 0.000000 
#    y 0.000000 1.568320 0.000000 
#    z 0.000000 0.000000 1.596630 
# 
# From -- ./inp_files/24630.got.cif
#   From: 2010.03.12/outbox.cif.g09.slc.cpg/sg38_13_cif.got.tgz:24630.got - 2010.04.14 02:38:36.
