data_PCOD8177968
_publ_section_title
;
Structure prediction by ZEFSAII (Michael W. Deem and Ramdas Pophale) SiO2 
 PCOD8177968
Probable space group: A M M 2
;
_chemical_formula_sum "Si O2"
_cell_formula_units_Z 48
_cell_length_a 13.581488
_cell_length_b 8.879702
_cell_length_c 25.991023
_cell_angle_alpha 90.000000
_cell_angle_beta 90.000000
_cell_angle_gamma 90.000000
_cell_volume 3134.506098
_symmetry_space_group_name_H-M "A M M 2"
_symmetry_group_IT_number 38
_symmetry_cell_setting 'orthorhombic'
loop_
_space_group_symop_operation_xyz
x,y,z
-x,-y,z
-x,y,z
x,-y,z
x,1/2+y,1/2+z
-x,1/2-y,1/2+z
-x,1/2+y,1/2+z
x,1/2-y,1/2+z
loop_
_atom_site_type_symbol
_atom_site_label
_atom_site_fract_x
_atom_site_fract_y
_atom_site_fract_z
Si Si1 0.785165 0.177134 0.506800
Si Si2 0.886612 0.323335 0.204250
Si Si3 0.882991 0.169612 0.308105
Si Si4 0.389788 0.828673 0.047666
Si Si5 0.208429 0.328906 0.608397
Si Si6 0.883256 0.828123 0.910844
O O1 0.669495 0.227525 0.505788
O O2 0.838186 0.257515 0.555997
O O3 0.837527 0.226593 0.455038
O O4 0.794429 0.000000 0.513294
O O5 0.874506 0.500000 0.211501
O O6 0.844952 0.244719 0.255536
O O7 0.821148 0.269044 0.156998
O O8 0.000000 0.278794 0.193980
O O9 0.843771 0.265275 0.356448
O O10 0.000000 0.170628 0.308253
O O11 0.841769 0.000000 0.311727
O O12 0.500000 0.765163 0.056112
O O13 0.328004 0.823091 0.101547
O O14 0.393110 0.000000 0.027192
O O15 0.170316 0.500000 0.614931
O O16 0.000000 0.814381 0.914151
O O17 0.848368 0.000000 0.916864
#
# Coordination Sequence:
#
# PCOD8177968 Si02
#       6
#     8   8   8   8   8   8
#     4  10  19  30  45  68  94 118 150 186 226 274
#     4  10  19  30  44  64  92 124 155 188 223 262
#     4   9  17  29  45  64  86 117 156 192 224 260
#     4   8  16  32  50  67  89 116 147 184 226 272
#     4   9  18  31  46  66  90 118 152 185 225 272
#     4  10  19  31  46  64  90 124 158 190 223 263
#
# _framework density 15.313416999999999
#
# number of rings (size 3 to 8) (size 9 to 14) (size 15 to 20)
#    1.000    1.667    0.000    3.000    0.000    5.000 
#    0.000    0.000    0.000    0.000    0.000    1.167 
#    0.000    6.667    0.000    0.000    0.000    0.000 
#
# Total GULP energy -297406.934349 kJ/mol
# GULP energy per Si atom -12391.955598 kJ/mol
# Density = 1.527856 g / cm^3
# Si number density = 15.313417 Si / 1000 Ang^3
#
#
#
# Elastic Constant Matrix: (Units=GPa)
#
#
# Indices 1 2 3 4 5 6 
#
# 1 32.8375 22.9329 24.2348 0.0000 0.0000 0.0000
# 2 22.9329 88.2378 31.5865 0.0000 0.0000 0.0000
# 3 24.2348 31.5865 102.3760 0.0000 0.0000 0.0000
# 4 0.0000 0.0000 0.0000 33.8261 0.0000 0.0000
# 5 0.0000 0.0000 0.0000 0.0000 -3.1198 0.0000
# 6 0.0000 0.0000 0.0000 0.0000 0.0000 16.9024
#
#
#
# Elastic Compliance Matrix: (Units=1/GPa)
#
#
# Indices 1 2 3 4 5 6 
#
# 1 0.041568 -0.008185 -0.007315 0.000000 0.000000 0.000000
# 2 -0.008185 0.014352 -0.002490 0.000000 0.000000 0.000000
# 3 -0.007315 -0.002490 0.012268 0.000000 0.000000 0.000000
# 4 0.000000 0.000000 0.000000 0.029563 0.000000 0.000000
# 5 0.000000 0.000000 0.000000 0.000000 -0.320536 0.000000
# 6 0.000000 0.000000 0.000000 0.000000 0.000000 0.059163
#
#
# Mechanical properties :
#
#
# Convention : Reuss Voigt Hill
#
# Bulk Modulus (GPa) = 31.04911 42.32887 36.68899
# Shear Modulus (GPa) = -42.76911 19.16820 -11.80046
#
# Velocity S-wave (km/s) = -5.29054 3.54181 -2.77897
# Velocity P-wave (km/s) = 4.12310 6.66540 3.70322
#
# Compressibility (1/GPa) = 0.03220704
#
# Stress axis : x y z
#
# Youngs Moduli (GPa) = 24.05725 69.67780 81.51377
#
# Poissons Ratio (x) = 0.57031 0.59625
# Poissons Ratio (y) = 0.19691 0.20301
# Poissons Ratio (z) = 0.17597 0.17353
#
# Static dielectric constant tensor:
#      x y z
#    x 2.642070 0.000000 0.000000 
#    y 0.000000 3.055330 0.000000 
#    z 0.000000 0.000000 2.889120 
# 
# 
# High freq. dielectric constant tensor:
#      x y z
#    x 1.539830 0.000000 0.000000 
#    y 0.000000 1.605500 0.000000 
#    z 0.000000 0.000000 1.581690 
# 
# From -- ./inp_files/22685.got.cif
#   From: 2010.03.12/outbox.cif.g09.slc.cpg/sg38_12_cif.got.tgz:22685.got - 2010.04.14 02:38:36.
