data_PCOD8177361
_publ_section_title
;
Structure prediction by ZEFSAII (Michael W. Deem and Ramdas Pophale) SiO2 
 PCOD8177361
Probable space group: A M M 2
;
_chemical_formula_sum "Si O2"
_cell_formula_units_Z 64
_cell_length_a 9.018090
_cell_length_b 34.567730
_cell_length_c 13.671277
_cell_angle_alpha 90.000000
_cell_angle_beta 90.000000
_cell_angle_gamma 90.000000
_cell_volume 4261.814172
_symmetry_space_group_name_H-M "A M M 2"
_symmetry_group_IT_number 38
_symmetry_cell_setting 'orthorhombic'
loop_
_space_group_symop_operation_xyz
x,y,z
-x,-y,z
-x,y,z
x,-y,z
x,1/2+y,1/2+z
-x,1/2-y,1/2+z
-x,1/2+y,1/2+z
x,1/2-y,1/2+z
loop_
_atom_site_type_symbol
_atom_site_label
_atom_site_fract_x
_atom_site_fract_y
_atom_site_fract_z
Si Si1 0.826479 0.236914 0.385280
Si Si2 0.826950 0.616948 0.169217
Si Si3 0.173440 0.192854 0.572380
Si Si4 0.666671 0.541912 0.166008
Si Si5 0.825383 0.271594 0.665223
Si Si6 0.323578 0.192117 0.987195
Si Si7 0.826640 0.618608 0.397291
Si Si8 0.332716 0.457345 0.398363
O O1 0.786665 0.202041 0.459580
O O2 0.784343 0.221337 0.278211
O O3 0.736867 0.275366 0.412909
O O4 0.000000 0.247983 0.391705
O O5 0.753675 0.652819 0.109360
O O6 0.762066 0.577345 0.124449
O O7 0.788746 0.622775 0.282865
O O8 0.000000 0.614229 0.152135
O O9 0.228243 0.228283 0.639349
O O10 0.000000 0.188220 0.587659
O O11 0.500000 0.547152 0.127721
O O12 0.728863 0.500000 0.129949
O O13 0.670919 0.542623 0.282184
O O14 0.735798 0.301291 0.597398
O O15 0.000000 0.276909 0.644384
O O16 0.500000 0.193044 0.986562
O O17 0.266796 0.150472 0.954211
O O18 0.776364 0.576324 0.436982
O O19 0.000000 0.624144 0.418343
O O20 0.500000 0.448973 0.434906
O O21 0.280839 0.500000 0.436172
#
# Coordination Sequence:
#
# PCOD8177361 Si02
#       8
#     8   8   8   8   8   8   8   8
#     4   9  17  31  49  63  79 108 142 174 210 251
#     4   9  16  25  39  59  82 107 136 170 202 236
#     4   8  14  25  41  61  81 101 130 167 204 241
#     4   8  14  24  36  51  75 107 138 165 196 236
#     4   9  17  31  48  61  78 107 141 173 206 246
#     4  11  21  30  42  62  87 111 138 173 211 250
#     4  10  18  27  40  58  82 113 147 176 202 238
#     4   8  14  25  39  55  78 107 136 168 209 250
#
# _framework density 15.01708
#
# number of rings (size 3 to 8) (size 9 to 14) (size 15 to 20)
#    0.000    3.000    0.000    3.750    0.000    3.500 
#    0.000    5.000    0.000    0.000    0.000    0.000 
#    0.000    1.000    0.000    9.250    0.000    3.625 
#
# Total GULP energy -396581.493399 kJ/mol
# GULP energy per Si atom -12393.171669 kJ/mol
# Density = 1.498290 g / cm^3
# Si number density = 15.017080 Si / 1000 Ang^3
#
#
#
# Elastic Constant Matrix: (Units=GPa)
#
#
# Indices 1 2 3 4 5 6 
#
# 1 61.7510 50.2145 35.2121 0.0000 0.0000 0.0000
# 2 50.2145 135.4639 46.6058 0.0000 0.0000 0.0000
# 3 35.2121 46.6058 73.6538 0.0000 0.0000 0.0000
# 4 0.0000 0.0000 0.0000 17.2430 0.0000 0.0000
# 5 0.0000 0.0000 0.0000 0.0000 11.5471 0.0000
# 6 0.0000 0.0000 0.0000 0.0000 0.0000 25.7283
#
#
#
# Elastic Compliance Matrix: (Units=1/GPa)
#
#
# Indices 1 2 3 4 5 6 
#
# 1 0.026628 -0.007019 -0.008289 0.000000 0.000000 0.000000
# 2 -0.007019 0.011286 -0.003786 0.000000 0.000000 0.000000
# 3 -0.008289 -0.003786 0.019936 0.000000 0.000000 0.000000
# 4 0.000000 0.000000 0.000000 0.057995 0.000000 0.000000
# 5 0.000000 0.000000 0.000000 0.000000 0.086602 0.000000
# 6 0.000000 0.000000 0.000000 0.000000 0.000000 0.038868
#
#
# Mechanical properties :
#
#
# Convention : Reuss Voigt Hill
#
# Bulk Modulus (GPa) = 50.85900 59.43705 55.14803
# Shear Modulus (GPa) = 17.47907 20.15944 18.81926
#
# Velocity S-wave (km/s) = 3.41537 3.66790 3.54388
# Velocity P-wave (km/s) = 7.03519 7.58970 7.31770
#
# Compressibility (1/GPa) = 0.01966220
#
# Stress axis : x y z
#
# Youngs Moduli (GPa) = 37.55396 88.60170 50.16168
#
# Poissons Ratio (x) = 0.62189 0.41579
# Poissons Ratio (y) = 0.26359 0.18992
# Poissons Ratio (z) = 0.31128 0.33546
#
# Static dielectric constant tensor:
#      x y z
#    x 2.816310 0.000000 0.000000 
#    y 0.000000 3.238580 0.000000 
#    z 0.000000 0.000000 2.746060 
# 
# 
# High freq. dielectric constant tensor:
#      x y z
#    x 1.564620 0.000000 0.000000 
#    y 0.000000 1.579210 0.000000 
#    z 0.000000 0.000000 1.530910 
# 
# From -- ./inp_files/13132.got.cif
#   From: 2010.03.12/outbox.cif.g09.slc.cpg/sg38_7_cif.got.tgz:13132.got - 2010.04.14 02:38:36.
