data_PCOD8177032
_publ_section_title
;
Structure prediction by ZEFSAII (Michael W. Deem and Ramdas Pophale) SiO2 
 PCOD8177032
Probable space group: C C C 2
;
_chemical_formula_sum "Si O2"
_cell_formula_units_Z 40
_cell_length_a 9.010146
_cell_length_b 20.236954
_cell_length_c 9.131172
_cell_angle_alpha 90.000000
_cell_angle_beta 90.000000
_cell_angle_gamma 90.000000
_cell_volume 1664.958820
_symmetry_space_group_name_H-M "C C C 2"
_symmetry_group_IT_number 37
_symmetry_cell_setting 'orthorhombic'
loop_
_space_group_symop_operation_xyz
x,y,z
-x,-y,z
-x,y,1/2+z
x,-y,1/2+z
1/2+x,1/2+y,z
1/2-x,1/2-y,z
1/2-x,1/2+y,1/2+z
1/2+x,1/2-y,1/2+z
loop_
_atom_site_type_symbol
_atom_site_label
_atom_site_fract_x
_atom_site_fract_y
_atom_site_fract_z
Si Si1 0.643491 0.548051 0.223750
Si Si2 0.652673 0.307933 0.614082
Si Si3 0.664819 0.986987 0.949413
Si Si4 0.135505 0.346695 0.853781
Si Si5 0.105276 0.281982 0.541455
O O1 0.500000 0.500000 0.251348
O O2 0.616574 0.626798 0.209918
O O3 0.760306 0.545291 0.356747
O O4 0.722666 0.524475 0.078992
O O5 0.750000 0.250000 0.695993
O O6 0.734878 0.321049 0.459849
O O7 0.492152 0.281138 0.579591
O O8 0.652118 0.925043 0.839610
O O9 0.500000 0.000000 0.011284
O O10 0.148873 0.319640 0.690582
O O11 0.975650 0.330049 0.926315
O O12 0.250000 0.250000 0.467548
#
# Coordination Sequence:
#
# PCOD8177032 Si02
#       5
#     8   8   8   8   8
#     4  11  25  47  72 106 139 190 235 294 355 422
#     4   9  22  45  67  96 141 177 227 288 343 416
#     4  11  26  44  71 101 145 181 235 288 352 422
#     4  10  25  44  66 100 139 179 226 284 347 413
#     4  11  23  42  69 102 135 182 227 282 345 413
#
# _framework density 24.024619000000001
#
# number of rings (size 3 to 8) (size 9 to 14) (size 15 to 20)
#    0.000    1.600    0.000    3.000   14.000    2.400 
#    7.200    0.000    0.000    0.000    0.000    0.000 
#    0.000    0.000    0.000    0.000    0.000    0.000 
#
# Total GULP energy -247864.339098 kJ/mol
# GULP energy per Si atom -12393.216955 kJ/mol
# Density = 2.396994 g / cm^3
# Si number density = 24.024619 Si / 1000 Ang^3
#
#
#
# Elastic Constant Matrix: (Units=GPa)
#
#
# Indices 1 2 3 4 5 6 
#
# 1 127.5935 21.3125 -13.3579 0.0000 0.0000 0.0000
# 2 21.3125 104.3471 -16.0917 0.0000 0.0000 0.0000
# 3 -13.3579 -16.0917 37.3997 0.0000 0.0000 0.0000
# 4 0.0000 0.0000 0.0000 32.6387 0.0000 0.0000
# 5 0.0000 0.0000 0.0000 0.0000 -37.0423 0.0000
# 6 0.0000 0.0000 0.0000 0.0000 0.0000 31.1812
#
#
#
# Elastic Compliance Matrix: (Units=1/GPa)
#
#
# Indices 1 2 3 4 5 6 
#
# 1 0.008310 -0.001328 0.002397 0.000000 0.000000 0.000000
# 2 -0.001328 0.010477 0.004033 0.000000 0.000000 0.000000
# 3 0.002397 0.004033 0.029330 0.000000 0.000000 0.000000
# 4 0.000000 0.000000 0.000000 0.030638 0.000000 0.000000
# 5 0.000000 0.000000 0.000000 0.000000 -0.026996 0.000000
# 6 0.000000 0.000000 0.000000 0.000000 0.000000 0.032071
#
#
# Mechanical properties :
#
#
# Convention : Reuss Voigt Hill
#
# Bulk Modulus (GPa) = 17.14628 28.11844 22.63236
# Shear Modulus (GPa) = 53.72618 23.85404 38.79011
#
# Velocity S-wave (km/s) = 4.73408 3.15445 4.02257
# Velocity P-wave (km/s) = 6.08560 4.99968 5.56917
#
# Compressibility (1/GPa) = 0.05832169
#
# Stress axis : x y z
#
# Youngs Moduli (GPa) = 120.33570 95.45094 34.09510
#
# Poissons Ratio (x) = 0.12673 -0.08172
# Poissons Ratio (y) = 0.15977 -0.13752
# Poissons Ratio (z) = -0.28842 -0.38500
#
# Static dielectric constant tensor:
#      x y z
#    x 4.603220 0.000000 0.000000 
#    y 0.000000 4.800570 0.000000 
#    z 0.000000 0.000000 4.123340 
# 
# 
# High freq. dielectric constant tensor:
#      x y z
#    x 1.962980 0.000000 0.000000 
#    y 0.000000 1.966500 0.000000 
#    z 0.000000 0.000000 1.943510 
# 
# From -- ./inp_files/2197.got.cif
#   From: 2010.03.12/outbox.cif.g09.slc.cpg/sg37_2_cif.got.tgz:2197.got - 2010.04.14 02:25:27.
