data_PCOD8177888
_publ_section_title
;
Structure prediction by ZEFSAII (Michael W. Deem and Ramdas Pophale) SiO2 
 PCOD8177888
Probable space group: A M M 2
;
_chemical_formula_sum "Si O2"
_cell_formula_units_Z 56
_cell_length_a 13.718813
_cell_length_b 9.052702
_cell_length_c 31.244741
_cell_angle_alpha 90.000000
_cell_angle_beta 90.000000
_cell_angle_gamma 90.000000
_cell_volume 3880.357056
_symmetry_space_group_name_H-M "A M M 2"
_symmetry_group_IT_number 38
_symmetry_cell_setting 'orthorhombic'
loop_
_space_group_symop_operation_xyz
x,y,z
-x,-y,z
-x,y,z
x,-y,z
x,1/2+y,1/2+z
-x,1/2-y,1/2+z
-x,1/2+y,1/2+z
x,1/2-y,1/2+z
loop_
_atom_site_type_symbol
_atom_site_label
_atom_site_fract_x
_atom_site_fract_y
_atom_site_fract_z
Si Si1 0.208077 0.331886 0.313070
Si Si2 0.883847 0.666582 0.565713
Si Si3 0.887540 0.672076 0.981148
Si Si4 0.113080 0.326640 0.734367
Si Si5 0.115885 0.166228 0.648704
Si Si6 0.390810 0.667628 0.361332
Si Si7 0.222066 0.825605 0.395977
O O1 0.169310 0.500000 0.309702
O O2 0.176754 0.240364 0.272130
O O3 0.326877 0.327664 0.317273
O O4 0.165579 0.254728 0.356395
O O5 0.844352 0.500000 0.567750
O O6 0.846065 0.741378 0.522144
O O7 0.841443 0.754854 0.606449
O O8 0.000000 0.670603 0.566815
O O9 0.873226 0.500000 0.990464
O O10 0.827366 0.724474 0.939974
O O11 0.000000 0.710464 0.972530
O O12 0.131191 0.500000 0.731645
O O13 0.150683 0.255322 0.690335
O O14 0.000000 0.289233 0.742682
O O15 0.000000 0.165139 0.646479
O O16 0.157138 0.000000 0.650994
O O17 0.500000 0.727274 0.352827
O O18 0.393571 0.500000 0.378900
O O19 0.335371 0.770948 0.396281
O O20 0.215547 0.000000 0.389227
#
# Coordination Sequence:
#
# PCOD8177888 Si02
#       7
#     8   8   8   8   8   8   8
#     4   9  18  30  43  60  82 109 139 171 205 248
#     4   9  16  25  38  56  77 103 139 178 209 237
#     4   9  17  28  40  55  81 115 144 170 203 242
#     4  10  19  29  41  58  83 113 143 175 207 239
#     4   9  16  26  40  56  76 105 140 174 208 244
#     4   8  16  31  47  61  80 106 133 167 211 252
#     4   9  17  28  42  62  84 108 139 174 207 243
#
# _framework density 14.431661
#
# number of rings (size 3 to 8) (size 9 to 14) (size 15 to 20)
#    0.857    2.143    0.000    1.714    0.000    6.286 
#    0.000    1.429    0.000    0.000    0.000    0.000 
#    0.000    1.143    0.000    6.000    0.000    4.857 
#
# Total GULP energy -346964.010707 kJ/mol
# GULP energy per Si atom -12391.571811 kJ/mol
# Density = 1.439881 g / cm^3
# Si number density = 14.431661 Si / 1000 Ang^3
#
#
#
# Elastic Constant Matrix: (Units=GPa)
#
#
# Indices 1 2 3 4 5 6 
#
# 1 44.5985 28.6940 40.4804 0.0000 0.0000 0.0000
# 2 28.6940 95.9877 66.4014 0.0000 0.0000 0.0000
# 3 40.4804 66.4014 137.5308 0.0000 0.0000 0.0000
# 4 0.0000 0.0000 0.0000 30.9985 0.0000 0.0000
# 5 0.0000 0.0000 0.0000 0.0000 0.1846 0.0000
# 6 0.0000 0.0000 0.0000 0.0000 0.0000 15.8880
#
#
#
# Elastic Compliance Matrix: (Units=1/GPa)
#
#
# Indices 1 2 3 4 5 6 
#
# 1 0.031873 -0.004562 -0.007179 0.000000 0.000000 0.000000
# 2 -0.004562 0.016295 -0.006525 0.000000 0.000000 0.000000
# 3 -0.007179 -0.006525 0.012534 0.000000 0.000000 0.000000
# 4 0.000000 0.000000 0.000000 0.032260 0.000000 0.000000
# 5 0.000000 0.000000 0.000000 0.000000 5.417346 0.000000
# 6 0.000000 0.000000 0.000000 0.000000 0.000000 0.062941
#
#
# Mechanical properties :
#
#
# Convention : Reuss Voigt Hill
#
# Bulk Modulus (GPa) = 41.37050 61.02983 51.20017
# Shear Modulus (GPa) = 0.89002 18.91697 9.90350
#
# Velocity S-wave (km/s) = 0.78616 3.62442 2.62245
# Velocity P-wave (km/s) = 5.43625 7.73924 6.68763
#
# Compressibility (1/GPa) = 0.02417182
#
# Stress axis : x y z
#
# Youngs Moduli (GPa) = 31.37408 61.36704 79.78008
#
# Poissons Ratio (x) = 0.27994 0.57275
# Poissons Ratio (y) = 0.14312 0.52056
# Poissons Ratio (z) = 0.22524 0.40041
#
# Static dielectric constant tensor:
#      x y z
#    x 2.439470 0.000000 0.000000 
#    y 0.000000 2.935540 0.000000 
#    z 0.000000 0.000000 2.833820 
# 
# 
# High freq. dielectric constant tensor:
#      x y z
#    x 1.492160 0.000000 0.000000 
#    y 0.000000 1.568890 0.000000 
#    z 0.000000 0.000000 1.550210 
# 
# From -- ./inp_files/24998.got.cif
#   From: 2010.03.12/outbox.cif.g09.slc.cpg/sg38_13_cif.got.tgz:24998.got - 2010.04.14 02:38:36.
