data_PCOD8177251
_publ_section_title
;
Structure prediction by ZEFSAII (Michael W. Deem and Ramdas Pophale) SiO2 
 PCOD8177251
Probable space group: A M M 2
;
_chemical_formula_sum "Si O2"
_cell_formula_units_Z 64
_cell_length_a 9.113162
_cell_length_b 14.629714
_cell_length_c 28.353725
_cell_angle_alpha 90.000000
_cell_angle_beta 90.000000
_cell_angle_gamma 90.000000
_cell_volume 3780.202365
_symmetry_space_group_name_H-M "A M M 2"
_symmetry_group_IT_number 38
_symmetry_cell_setting 'orthorhombic'
loop_
_space_group_symop_operation_xyz
x,y,z
-x,-y,z
-x,y,z
x,-y,z
x,1/2+y,1/2+z
-x,1/2-y,1/2+z
-x,1/2+y,1/2+z
x,1/2-y,1/2+z
loop_
_atom_site_type_symbol
_atom_site_label
_atom_site_fract_x
_atom_site_fract_y
_atom_site_fract_z
Si Si1 0.333550 0.106118 0.793310
Si Si2 0.174311 0.284442 0.213787
Si Si3 0.833346 0.893772 0.360468
Si Si4 0.174325 0.101504 0.626976
Si Si5 0.326613 0.786506 0.440366
Si Si6 0.174227 0.599493 0.754260
Si Si7 0.326058 0.599901 0.399020
Si Si8 0.827789 0.894836 0.521122
O O1 0.500000 0.142677 0.788299
O O2 0.228704 0.159252 0.758204
O O3 0.271078 0.122408 0.846073
O O4 0.327036 0.000000 0.780253
O O5 0.237852 0.326314 0.165000
O O6 0.228243 0.178965 0.218711
O O7 0.000000 0.289686 0.213891
O O8 0.725127 0.840967 0.394727
O O9 0.774453 0.877484 0.307424
O O10 0.000000 0.857641 0.366761
O O11 0.827631 0.000000 0.373659
O O12 0.223309 0.129336 0.574305
O O13 0.000000 0.099343 0.628753
O O14 0.234302 0.000000 0.639221
O O15 0.500000 0.795836 0.444271
O O16 0.277125 0.680148 0.434721
O O17 0.256436 0.825668 0.487563
O O18 0.237097 0.500000 0.738210
O O19 0.000000 0.593823 0.755192
O O20 0.500000 0.594146 0.396132
O O21 0.264974 0.500000 0.415670
O O22 0.000000 0.879269 0.514341
O O23 0.787777 0.000000 0.509243
#
# Coordination Sequence:
#
# PCOD8177251 Si02
#       8
#     8   8   8   8   8   8   8   8
#     4   9  17  29  44  63  90 121 146 169 206 260
#     4  10  17  26  46  70  88 111 146 186 217 242
#     4   9  17  29  43  60  89 127 153 167 200 261
#     4   8  15  28  45  65  87 111 141 174 211 261
#     4  11  20  28  45  70  88 106 142 191 225 243
#     4   8  15  27  42  63  91 120 149 178 208 247
#     4   8  16  31  46  60  85 121 151 171 204 261
#     4   9  18  33  49  62  84 120 148 166 207 273
#
# _framework density 16.930309999999999
#
# number of rings (size 3 to 8) (size 9 to 14) (size 15 to 20)
#    0.000    3.000    0.000    4.125    0.000    2.750 
#    0.000    1.250    0.000    5.625    0.000    1.750 
#    0.000    0.000    0.000    0.000    0.000    0.000 
#
# Total GULP energy -396582.621820 kJ/mol
# GULP energy per Si atom -12393.206932 kJ/mol
# Density = 1.689178 g / cm^3
# Si number density = 16.930310 Si / 1000 Ang^3
#
#
#
# Elastic Constant Matrix: (Units=GPa)
#
#
# Indices 1 2 3 4 5 6 
#
# 1 27.0170 31.0516 26.4334 0.0000 0.0000 0.0000
# 2 31.0516 132.0195 97.3954 0.0000 0.0000 0.0000
# 3 26.4334 97.3954 116.8854 0.0000 0.0000 0.0000
# 4 0.0000 0.0000 0.0000 30.8601 0.0000 0.0000
# 5 0.0000 0.0000 0.0000 0.0000 12.5760 0.0000
# 6 0.0000 0.0000 0.0000 0.0000 0.0000 17.7603
#
#
#
# Elastic Compliance Matrix: (Units=1/GPa)
#
#
# Indices 1 2 3 4 5 6 
#
# 1 0.051447 -0.009129 -0.004028 0.000000 0.000000 0.000000
# 2 -0.009129 0.021280 -0.015667 0.000000 0.000000 0.000000
# 3 -0.004028 -0.015667 0.022521 0.000000 0.000000 0.000000
# 4 0.000000 0.000000 0.000000 0.032404 0.000000 0.000000
# 5 0.000000 0.000000 0.000000 0.000000 0.079517 0.000000
# 6 0.000000 0.000000 0.000000 0.000000 0.000000 0.056305
#
#
# Mechanical properties :
#
#
# Convention : Reuss Voigt Hill
#
# Bulk Modulus (GPa) = 26.59585 65.07586 45.83586
# Shear Modulus (GPa) = 14.98549 20.30870 17.64710
#
# Velocity S-wave (km/s) = 2.97834 3.46720 3.23203
# Velocity P-wave (km/s) = 5.25076 7.38577 6.40781
#
# Compressibility (1/GPa) = 0.03759985
#
# Stress axis : x y z
#
# Youngs Moduli (GPa) = 19.43754 46.99207 44.40279
#
# Poissons Ratio (x) = 0.42900 0.17884
# Poissons Ratio (y) = 0.17745 0.69567
# Poissons Ratio (z) = 0.07829 0.73624
#
# Static dielectric constant tensor:
#      x y z
#    x 2.806850 0.000000 0.000000 
#    y 0.000000 3.599030 0.000000 
#    z 0.000000 0.000000 3.220940 
# 
# 
# High freq. dielectric constant tensor:
#      x y z
#    x 1.616130 0.000000 0.000000 
#    y 0.000000 1.657290 0.000000 
#    z 0.000000 0.000000 1.638580 
# 
# From -- ./inp_files/24776.got.cif
#   From: 2010.03.12/outbox.cif.g09.slc.cpg/sg38_13_cif.got.tgz:24776.got - 2010.04.14 02:38:36.
