data_PCOD8177004
_publ_section_title
;
Structure prediction by ZEFSAII (Michael W. Deem and Ramdas Pophale) SiO2 
 PCOD8177004
Probable space group: C C C 2
;
_chemical_formula_sum "Si O2"
_cell_formula_units_Z 56
_cell_length_a 8.487300
_cell_length_b 12.750031
_cell_length_c 25.506910
_cell_angle_alpha 90.000000
_cell_angle_beta 90.000000
_cell_angle_gamma 90.000000
_cell_volume 2760.187876
_symmetry_space_group_name_H-M "C C C 2"
_symmetry_group_IT_number 37
_symmetry_cell_setting 'orthorhombic'
loop_
_space_group_symop_operation_xyz
x,y,z
-x,-y,z
-x,y,1/2+z
x,-y,1/2+z
1/2+x,1/2+y,z
1/2-x,1/2-y,z
1/2-x,1/2+y,1/2+z
1/2+x,1/2-y,1/2+z
loop_
_atom_site_type_symbol
_atom_site_label
_atom_site_fract_x
_atom_site_fract_y
_atom_site_fract_z
Si Si1 0.818773 0.973411 0.182970
Si Si2 0.978940 0.381555 0.491504
Si Si3 0.250000 0.750000 0.425355
Si Si4 0.883704 0.326439 0.194825
Si Si5 0.981958 0.880763 0.374492
Si Si6 0.899560 0.805448 0.266254
Si Si7 0.859044 0.650132 0.105431
Si Si8 0.750000 0.250000 0.941336
O O1 0.818215 0.872485 0.220172
O O2 0.751866 0.944529 0.125597
O O3 0.706002 0.063715 0.207923
O O4 0.000000 0.000000 0.175446
O O5 0.129905 0.310181 0.479335
O O6 0.000000 0.500000 0.471508
O O7 0.828427 0.336640 0.461976
O O8 0.948650 0.382702 0.553343
O O9 0.130505 0.809951 0.388144
O O10 0.750000 0.250000 0.172957
O O11 0.967262 0.276664 0.246231
O O12 0.012328 0.333320 0.150043
O O13 0.971610 0.878643 0.311297
O O14 0.830683 0.835807 0.404282
O O15 0.000000 0.000000 0.393056
O O16 0.750000 0.750000 0.293016
O O17 0.750000 0.750000 0.095195
#
# Coordination Sequence:
#
# PCOD8177004 Si02
#       8
#     8   8   4   8   8   8   8   4
#     4  12  23  42  63  94 131 175 216 264 324 391
#     4  11  23  44  69  96 129 170 216 273 332 386
#     4  10  24  44  68  94 130 166 220 280 324 390
#     4  12  24  40  64  91 130 173 214 262 321 384
#     4  11  24  43  68  96 129 171 217 271 332 387
#     4  12  24  42  63  94 135 169 217 270 319 389
#     4  12  23  44  64  95 134 170 217 269 322 393
#     4  10  24  46  68  96 128 168 220 270 332 394
#
# _framework density 20.288474000000001
#
# number of rings (size 3 to 8) (size 9 to 14) (size 15 to 20)
#    0.000    0.571    5.714    2.571    2.000    0.000 
#    2.571    0.714    0.000    0.000    0.000    0.000 
#    0.000    0.000    0.000    0.000    0.000    0.000 
#
# Total GULP energy -347194.497480 kJ/mol
# GULP energy per Si atom -12399.803481 kJ/mol
# Density = 2.024230 g / cm^3
# Si number density = 20.288474 Si / 1000 Ang^3
#
#
#
# Elastic Constant Matrix: (Units=GPa)
#
#
# Indices 1 2 3 4 5 6 
#
# 1 106.9001 38.3125 31.8513 0.0000 0.0000 0.0000
# 2 38.3125 129.6531 32.4813 0.0000 0.0000 0.0000
# 3 31.8513 32.4813 100.6833 0.0000 0.0000 0.0000
# 4 0.0000 0.0000 0.0000 12.4316 0.0000 0.0000
# 5 0.0000 0.0000 0.0000 0.0000 9.2348 0.0000
# 6 0.0000 0.0000 0.0000 0.0000 0.0000 37.2538
#
#
#
# Elastic Compliance Matrix: (Units=1/GPa)
#
#
# Indices 1 2 3 4 5 6 
#
# 1 0.011083 -0.002607 -0.002665 0.000000 0.000000 0.000000
# 2 -0.002607 0.009004 -0.002080 0.000000 0.000000 0.000000
# 3 -0.002665 -0.002080 0.011446 0.000000 0.000000 0.000000
# 4 0.000000 0.000000 0.000000 0.080440 0.000000 0.000000
# 5 0.000000 0.000000 0.000000 0.000000 0.108287 0.000000
# 6 0.000000 0.000000 0.000000 0.000000 0.000000 0.026843
#
#
# Mechanical properties :
#
#
# Convention : Reuss Voigt Hill
#
# Bulk Modulus (GPa) = 59.42158 60.28075 59.85117
# Shear Modulus (GPa) = 18.69733 27.42345 23.06039
#
# Velocity S-wave (km/s) = 3.03904 3.68050 3.37504
# Velocity P-wave (km/s) = 6.45494 6.91649 6.68970
#
# Compressibility (1/GPa) = 0.01682890
#
# Stress axis : x y z
#
# Youngs Moduli (GPa) = 90.22787 111.05575 87.36489
#
# Poissons Ratio (x) = 0.28957 0.23282
# Poissons Ratio (y) = 0.23526 0.18173
# Poissons Ratio (z) = 0.24045 0.23100
#
# Static dielectric constant tensor:
#      x y z
#    x 3.907690 0.000000 0.000000 
#    y 0.000000 3.725170 0.000000 
#    z 0.000000 0.000000 3.528880 
# 
# 
# High freq. dielectric constant tensor:
#      x y z
#    x 1.814630 0.000000 0.000000 
#    y 0.000000 1.804690 0.000000 
#    z 0.000000 0.000000 1.782310 
# 
# From -- ./inp_files/19686.got.cif
#   From: 2010.03.12/outbox.cif.g09.slc.cpg/sg37_10_cif.got.tgz:19686.got - 2010.04.14 02:25:27.
