data_PCOD8177529
_publ_section_title
;
Structure prediction by ZEFSAII (Michael W. Deem and Ramdas Pophale) SiO2 
 PCOD8177529
Probable space group: A M M 2
;
_chemical_formula_sum "Si O2"
_cell_formula_units_Z 64
_cell_length_a 9.452193
_cell_length_b 30.425749
_cell_length_c 14.344018
_cell_angle_alpha 90.000000
_cell_angle_beta 90.000000
_cell_angle_gamma 90.000000
_cell_volume 4125.196878
_symmetry_space_group_name_H-M "A M M 2"
_symmetry_group_IT_number 38
_symmetry_cell_setting 'orthorhombic'
loop_
_space_group_symop_operation_xyz
x,y,z
-x,-y,z
-x,y,z
x,-y,z
x,1/2+y,1/2+z
-x,1/2-y,1/2+z
-x,1/2+y,1/2+z
x,1/2-y,1/2+z
loop_
_atom_site_type_symbol
_atom_site_label
_atom_site_fract_x
_atom_site_fract_y
_atom_site_fract_z
Si Si1 0.661653 0.047900 0.231460
Si Si2 0.162560 0.818795 0.134241
Si Si3 0.662489 0.697103 0.325034
Si Si4 0.839053 0.134300 0.941183
Si Si5 0.666539 0.214123 0.422315
Si Si6 0.335741 0.860908 0.288814
Si Si7 0.337503 0.267328 0.128174
Si Si8 0.835816 0.049300 0.045115
O O1 0.500000 0.048844 0.196899
O O2 0.684891 0.086643 0.308469
O O3 0.755039 0.056412 0.140939
O O4 0.698244 0.000000 0.276038
O O5 0.176597 0.832834 0.027693
O O6 0.245510 0.853758 0.196051
O O7 0.235222 0.772400 0.151136
O O8 0.000000 0.816065 0.165975
O O9 0.500000 0.691652 0.355086
O O10 0.744979 0.653813 0.358149
O O11 0.725865 0.741681 0.372581
O O12 0.678182 0.698457 0.212949
O O13 0.785504 0.085269 0.968854
O O14 0.000000 0.132354 0.905826
O O15 0.500000 0.214898 0.411221
O O16 0.724478 0.169893 0.371881
O O17 0.711065 0.210883 0.530618
O O18 0.500000 0.849670 0.269679
O O19 0.500000 0.250543 0.121233
O O20 0.000000 0.058183 0.067754
O O21 0.811012 0.000000 0.005318
#
# Coordination Sequence:
#
# PCOD8177529 Si02
#       8
#     8   8   8   8   8   8   8   8
#     4   9  17  27  42  66  92 116 145 183 222 260
#     4  11  20  28  42  66  93 118 148 181 219 257
#     4  10  19  30  47  66  84 115 155 184 217 262
#     4  10  20  31  43  65  93 119 149 181 220 262
#     4   9  17  29  46  65  84 113 153 186 212 252
#     4  10  18  30  46  64  89 122 153 179 215 261
#     4  10  19  33  47  62  87 117 154 189 216 256
#     4   9  17  30  46  63  88 120 149 178 216 267
#
# _framework density 15.514411000000001
#
# number of rings (size 3 to 8) (size 9 to 14) (size 15 to 20)
#    0.000    2.250    3.750    0.375    0.000    1.500 
#    0.000    0.625    0.000    0.000    0.000    0.875 
#    0.000    3.000    0.000    0.000    0.000    0.000 
#
# Total GULP energy -396592.827562 kJ/mol
# GULP energy per Si atom -12393.525861 kJ/mol
# Density = 1.547910 g / cm^3
# Si number density = 15.514411 Si / 1000 Ang^3
#
#
#
# Elastic Constant Matrix: (Units=GPa)
#
#
# Indices 1 2 3 4 5 6 
#
# 1 44.2048 28.0170 17.2271 0.0000 0.0000 0.0000
# 2 28.0170 116.1831 36.4913 0.0000 0.0000 0.0000
# 3 17.2271 36.4913 67.9568 0.0000 0.0000 0.0000
# 4 0.0000 0.0000 0.0000 24.0899 0.0000 0.0000
# 5 0.0000 0.0000 0.0000 0.0000 12.0280 0.0000
# 6 0.0000 0.0000 0.0000 0.0000 0.0000 18.7391
#
#
#
# Elastic Compliance Matrix: (Units=1/GPa)
#
#
# Indices 1 2 3 4 5 6 
#
# 1 0.027631 -0.005368 -0.004122 0.000000 0.000000 0.000000
# 2 -0.005368 0.011396 -0.004759 0.000000 0.000000 0.000000
# 3 -0.004122 -0.004759 0.018315 0.000000 0.000000 0.000000
# 4 0.000000 0.000000 0.000000 0.041511 0.000000 0.000000
# 5 0.000000 0.000000 0.000000 0.000000 0.083139 0.000000
# 6 0.000000 0.000000 0.000000 0.000000 0.000000 0.053364
#
#
# Mechanical properties :
#
#
# Convention : Reuss Voigt Hill
#
# Bulk Modulus (GPa) = 34.66827 43.53509 39.10168
# Shear Modulus (GPa) = 18.28355 20.74535 19.51445
#
# Velocity S-wave (km/s) = 3.43664 3.66070 3.55043
# Velocity P-wave (km/s) = 6.17589 6.78156 6.48580
#
# Compressibility (1/GPa) = 0.02884482
#
# Stress axis : x y z
#
# Youngs Moduli (GPa) = 36.19154 87.74771 54.59896
#
# Poissons Ratio (x) = 0.47107 0.22504
# Poissons Ratio (y) = 0.19429 0.25982
# Poissons Ratio (z) = 0.14917 0.41756
#
# Static dielectric constant tensor:
#      x y z
#    x 2.922210 0.000000 0.000000 
#    y 0.000000 3.184160 0.000000 
#    z 0.000000 0.000000 2.867580 
# 
# 
# High freq. dielectric constant tensor:
#      x y z
#    x 1.587260 0.000000 0.000000 
#    y 0.000000 1.593720 0.000000 
#    z 0.000000 0.000000 1.562670 
# 
# From -- ./inp_files/13042.got.cif
#   From: 2010.03.12/outbox.cif.g09.slc.cpg/sg38_7_cif.got.tgz:13042.got - 2010.04.14 02:38:36.
