data_PCOD8177534
_publ_section_title
;
Structure prediction by ZEFSAII (Michael W. Deem and Ramdas Pophale) SiO2 
 PCOD8177534
Probable space group: A M M 2
;
_chemical_formula_sum "Si O2"
_cell_formula_units_Z 64
_cell_length_a 8.634055
_cell_length_b 23.376376
_cell_length_c 19.115366
_cell_angle_alpha 90.000000
_cell_angle_beta 90.000000
_cell_angle_gamma 90.000000
_cell_volume 3858.110062
_symmetry_space_group_name_H-M "A M M 2"
_symmetry_group_IT_number 38
_symmetry_cell_setting 'orthorhombic'
loop_
_space_group_symop_operation_xyz
x,y,z
-x,-y,z
-x,y,z
x,-y,z
x,1/2+y,1/2+z
-x,1/2-y,1/2+z
-x,1/2+y,1/2+z
x,1/2-y,1/2+z
loop_
_atom_site_type_symbol
_atom_site_label
_atom_site_fract_x
_atom_site_fract_y
_atom_site_fract_z
Si Si1 0.682467 0.333825 0.457760
Si Si2 0.681700 0.338221 0.990769
Si Si3 0.684135 0.563651 0.365402
Si Si4 0.181226 0.934328 0.579752
Si Si5 0.681076 0.885329 0.719499
Si Si6 0.822653 0.264082 0.225030
Si Si7 0.820729 0.234394 0.073187
Si Si8 0.179530 0.730220 0.875594
O O1 0.500000 0.335056 0.468924
O O2 0.744512 0.393783 0.426145
O O3 0.762334 0.322270 0.532820
O O4 0.724035 0.284055 0.403469
O O5 0.500000 0.336327 0.979720
O O6 0.730991 0.399979 0.018982
O O7 0.729381 0.290090 0.046834
O O8 0.762632 0.326611 0.915638
O O9 0.500000 0.564761 0.364523
O O10 0.747899 0.500000 0.380885
O O11 0.743087 0.584122 0.289638
O O12 0.224568 0.911579 0.655873
O O13 0.000000 0.925747 0.568730
O O14 0.231763 0.000000 0.572804
O O15 0.500000 0.896380 0.706877
O O16 0.709587 0.817984 0.726224
O O17 0.790147 0.226308 0.155821
O O18 0.790479 0.224168 0.292513
O O19 0.000000 0.286307 0.225242
O O20 0.000000 0.244591 0.056517
O O21 0.000000 0.740645 0.892374
#
# Coordination Sequence:
#
# PCOD8177534 Si02
#       8
#     8   8   8   8   8   8   8   8
#     4  10  18  30  47  69  94 124 163 204 243 288
#     4  11  21  33  50  73  97 126 164 206 247 290
#     4   9  18  31  46  67  97 131 165 201 243 285
#     4  11  23  37  51  69  98 135 171 206 244 291
#     4  11  20  31  49  71  99 133 169 208 240 280
#     4  10  20  32  49  71  99 133 165 196 243 299
#     4  10  19  32  49  69  97 129 160 200 247 294
#     4  10  19  32  50  70  96 128 160 199 247 297
#
# _framework density 16.588432999999998
#
# number of rings (size 3 to 8) (size 9 to 14) (size 15 to 20)
#    0.000    1.750    2.500    4.875    0.000    2.500 
#    0.000    0.000    0.000    3.750    0.000    0.875 
#    0.000    5.000    0.000    0.000    0.000    0.000 
#
# Total GULP energy -396795.114407 kJ/mol
# GULP energy per Si atom -12399.847325 kJ/mol
# Density = 1.655068 g / cm^3
# Si number density = 16.588433 Si / 1000 Ang^3
#
#
#
# Elastic Constant Matrix: (Units=GPa)
#
#
# Indices 1 2 3 4 5 6 
#
# 1 37.5735 12.5934 22.3033 0.0000 0.0000 0.0000
# 2 12.5934 89.6003 60.0119 0.0000 0.0000 0.0000
# 3 22.3033 60.0119 134.5645 0.0000 0.0000 0.0000
# 4 0.0000 0.0000 0.0000 23.7867 0.0000 0.0000
# 5 0.0000 0.0000 0.0000 0.0000 20.8582 0.0000
# 6 0.0000 0.0000 0.0000 0.0000 0.0000 19.0209
#
#
#
# Elastic Compliance Matrix: (Units=1/GPa)
#
#
# Indices 1 2 3 4 5 6 
#
# 1 0.029616 -0.001247 -0.004352 0.000000 0.000000 0.000000
# 2 -0.001247 0.015967 -0.006914 0.000000 0.000000 0.000000
# 3 -0.004352 -0.006914 0.011236 0.000000 0.000000 0.000000
# 4 0.000000 0.000000 0.000000 0.042040 0.000000 0.000000
# 5 0.000000 0.000000 0.000000 0.000000 0.047943 0.000000
# 6 0.000000 0.000000 0.000000 0.000000 0.000000 0.052574
#
#
# Mechanical properties :
#
#
# Convention : Reuss Voigt Hill
#
# Bulk Modulus (GPa) = 31.45497 50.17285 40.81391
# Shear Modulus (GPa) = 21.27654 23.85515 22.56585
#
# Velocity S-wave (km/s) = 3.58524 3.79629 3.69227
# Velocity P-wave (km/s) = 6.01180 7.03755 6.54480
#
# Compressibility (1/GPa) = 0.03179148
#
# Stress axis : x y z
#
# Youngs Moduli (GPa) = 33.76538 62.62995 88.99818
#
# Poissons Ratio (x) = 0.07813 0.38735
# Poissons Ratio (y) = 0.04212 0.61533
# Poissons Ratio (z) = 0.14696 0.43302
#
# Static dielectric constant tensor:
#      x y z
#    x 3.126280 0.000000 0.000000 
#    y 0.000000 3.123980 0.000000 
#    z 0.000000 0.000000 3.353090 
# 
# 
# High freq. dielectric constant tensor:
#      x y z
#    x 1.645110 0.000000 0.000000 
#    y 0.000000 1.607610 0.000000 
#    z 0.000000 0.000000 1.638380 
# 
# From -- ./inp_files/20273.got.cif
#   From: 2010.03.12/outbox.cif.g09.slc.cpg/sg38_11_cif.got.tgz:20273.got - 2010.04.14 02:38:36.
