data_PCOD8177784
_publ_section_title
;
Structure prediction by ZEFSAII (Michael W. Deem and Ramdas Pophale) SiO2 
 PCOD8177784
Probable space group: A M M 2
;
_chemical_formula_sum "Si O2"
_cell_formula_units_Z 64
_cell_length_a 19.639280
_cell_length_b 9.204835
_cell_length_c 20.098164
_cell_angle_alpha 90.000000
_cell_angle_beta 90.000000
_cell_angle_gamma 90.000000
_cell_volume 3633.272366
_symmetry_space_group_name_H-M "A M M 2"
_symmetry_group_IT_number 38
_symmetry_cell_setting 'orthorhombic'
loop_
_space_group_symop_operation_xyz
x,y,z
-x,-y,z
-x,y,z
x,-y,z
x,1/2+y,1/2+z
-x,1/2-y,1/2+z
-x,1/2+y,1/2+z
x,1/2-y,1/2+z
loop_
_atom_site_type_symbol
_atom_site_label
_atom_site_fract_x
_atom_site_fract_y
_atom_site_fract_z
Si Si1 0.319457 0.666736 0.676290
Si Si2 0.834246 0.668778 0.644267
Si Si3 0.579579 0.833299 0.932906
Si Si4 0.803264 0.167884 0.518027
Si Si5 0.183020 0.672641 0.870479
Si Si6 0.647400 0.669186 0.049916
Si Si7 0.923654 0.826649 0.264990
Si Si8 0.669113 0.830051 0.327547
O O1 0.331145 0.500000 0.655522
O O2 0.239346 0.703890 0.675376
O O3 0.360082 0.767435 0.624421
O O4 0.347605 0.696842 0.750033
O O5 0.843503 0.500000 0.630653
O O6 0.845172 0.747766 0.574124
O O7 0.890835 0.726647 0.695709
O O8 0.500000 0.822276 0.919365
O O9 0.615643 0.759168 0.870358
O O10 0.603607 0.000000 0.939012
O O11 0.595876 0.751036 0.001412
O O12 0.828191 0.224579 0.446228
O O13 0.722984 0.198053 0.522742
O O14 0.819620 0.000000 0.527937
O O15 0.183917 0.500000 0.866341
O O16 0.121453 0.735462 0.825936
O O17 0.255262 0.729123 0.843124
O O18 0.628864 0.500000 0.051454
O O19 0.000000 0.764214 0.271000
O O20 0.923657 0.000000 0.267157
O O21 0.663043 0.000000 0.346204
#
# Coordination Sequence:
#
# PCOD8177784 Si02
#       8
#     8   8   8   8   8   8   8   8
#     4   9  17  30  52  79 106 134 169 217 264 304
#     4   9  16  28  47  72 101 130 167 212 253 300
#     4  11  24  39  54  76 108 140 172 215 264 316
#     4   9  17  29  48  73 101 128 162 211 259 301
#     4   9  15  28  48  72 102 132 170 218 256 296
#     4  10  19  33  54  78 104 135 171 213 259 312
#     4   9  16  27  47  74 102 136 176 215 257 304
#     4  10  18  33  56  79 104 138 177 218 262 311
#
# _framework density 17.614974
#
# number of rings (size 3 to 8) (size 9 to 14) (size 15 to 20)
#    0.000    2.500    2.500    0.750    0.000    2.000 
#    0.000    1.250    0.000    2.625    0.000    0.000 
#    0.000    0.000    0.000    0.000    0.000    0.000 
#
# Total GULP energy -396792.852201 kJ/mol
# GULP energy per Si atom -12399.776631 kJ/mol
# Density = 1.757488 g / cm^3
# Si number density = 17.614974 Si / 1000 Ang^3
#
#
#
# Elastic Constant Matrix: (Units=GPa)
#
#
# Indices 1 2 3 4 5 6 
#
# 1 83.3198 39.7008 61.6120 0.0000 0.0000 0.0000
# 2 39.7008 66.2839 56.1107 0.0000 0.0000 0.0000
# 3 61.6120 56.1107 149.2599 0.0000 0.0000 0.0000
# 4 0.0000 0.0000 0.0000 32.4816 0.0000 0.0000
# 5 0.0000 0.0000 0.0000 0.0000 28.0133 0.0000
# 6 0.0000 0.0000 0.0000 0.0000 0.0000 14.6873
#
#
#
# Elastic Compliance Matrix: (Units=1/GPa)
#
#
# Indices 1 2 3 4 5 6 
#
# 1 0.019292 -0.007061 -0.005309 0.000000 0.000000 0.000000
# 2 -0.007061 0.024713 -0.006376 0.000000 0.000000 0.000000
# 3 -0.005309 -0.006376 0.011288 0.000000 0.000000 0.000000
# 4 0.000000 0.000000 0.000000 0.030787 0.000000 0.000000
# 5 0.000000 0.000000 0.000000 0.000000 0.035697 0.000000
# 6 0.000000 0.000000 0.000000 0.000000 0.000000 0.068086
#
#
# Mechanical properties :
#
#
# Convention : Reuss Voigt Hill
#
# Bulk Modulus (GPa) = 56.17376 68.19006 62.18191
# Shear Modulus (GPa) = 21.43273 24.46578 22.94925
#
# Velocity S-wave (km/s) = 3.49195 3.73086 3.61338
# Velocity P-wave (km/s) = 6.94387 7.57328 7.26539
#
# Compressibility (1/GPa) = 0.01780191
#
# Stress axis : x y z
#
# Youngs Moduli (GPa) = 51.83420 40.46498 88.58940
#
# Poissons Ratio (x) = 0.28571 0.47034
# Poissons Ratio (y) = 0.36599 0.56481
# Poissons Ratio (z) = 0.27520 0.25799
#
# Static dielectric constant tensor:
#      x y z
#    x 3.132790 0.000000 0.000000 
#    y 0.000000 3.051630 0.000000 
#    z 0.000000 0.000000 3.477420 
# 
# 
# High freq. dielectric constant tensor:
#      x y z
#    x 1.655300 0.000000 0.000000 
#    y 0.000000 1.653710 0.000000 
#    z 0.000000 0.000000 1.696960 
# 
# From -- ./inp_files/21378.got.cif
#   From: 2010.03.12/outbox.cif.g09.slc.cpg/sg38_11_cif.got.tgz:21378.got - 2010.04.14 02:38:36.
