data_PCOD8177132
_publ_section_title
;
Structure prediction by ZEFSAII (Michael W. Deem and Ramdas Pophale) SiO2 
 PCOD8177132
Probable space group: C C C 2
;
_chemical_formula_sum "Si O2"
_cell_formula_units_Z 48
_cell_length_a 15.072754
_cell_length_b 14.858687
_cell_length_c 9.765788
_cell_angle_alpha 90.000000
_cell_angle_beta 90.000000
_cell_angle_gamma 90.000000
_cell_volume 2187.158907
_symmetry_space_group_name_H-M "C C C 2"
_symmetry_group_IT_number 37
_symmetry_cell_setting 'orthorhombic'
loop_
_space_group_symop_operation_xyz
x,y,z
-x,-y,z
-x,y,1/2+z
x,-y,1/2+z
1/2+x,1/2+y,z
1/2-x,1/2-y,z
1/2-x,1/2+y,1/2+z
1/2+x,1/2-y,1/2+z
loop_
_atom_site_type_symbol
_atom_site_label
_atom_site_fract_x
_atom_site_fract_y
_atom_site_fract_z
Si Si1 0.506488 0.356716 0.714500
Si Si2 0.357140 0.495886 0.760909
Si Si3 0.181569 0.676911 0.842814
Si Si4 0.426070 0.074657 0.102346
Si Si5 0.744092 0.988142 0.502126
Si Si6 0.487723 0.240039 0.461027
O O1 0.428132 0.426904 0.706419
O O2 0.597500 0.404858 0.764418
O O3 0.517542 0.318519 0.563100
O O4 0.479760 0.273384 0.811853
O O5 0.274376 0.492870 0.658429
O O6 0.318454 0.462902 0.907539
O O7 0.250000 0.750000 0.775846
O O8 0.120946 0.625574 0.729706
O O9 0.118235 0.727552 0.951088
O O10 0.240348 0.609351 0.932077
O O11 0.500000 0.000000 0.150095
O O12 0.353482 0.030388 0.002115
O O13 0.470633 0.145534 0.001189
#
# Coordination Sequence:
#
# PCOD8177132 Si02
#       6
#     8   8   8   8   8   8
#     4  11  24  44  70 103 143 185 231 294 368 433
#     4  11  24  44  70 103 143 185 231 294 368 433
#     4  12  26  45  72 102 141 181 241 304 348 414
#     4  12  28  47  72 102 145 199 237 296 366 448
#     4  12  25  44  71 101 140 184 242 286 362 425
#     4  12  25  44  71 101 140 184 242 286 362 425
#
# _framework density 21.946276999999998
#
# number of rings (size 3 to 8) (size 9 to 14) (size 15 to 20)
#    0.000    0.333    5.000    4.000    2.333    5.333 
#    0.000    1.667    0.000    0.000    0.000    0.000 
#    0.000    0.000    0.000    0.000    0.000    0.000 
#
# Total GULP energy -297512.150799 kJ/mol
# GULP energy per Si atom -12396.339617 kJ/mol
# Density = 2.189633 g / cm^3
# Si number density = 21.946277 Si / 1000 Ang^3
#
#
#
# Elastic Constant Matrix: (Units=GPa)
#
#
# Indices 1 2 3 4 5 6 
#
# 1 125.2428 56.7850 33.9097 0.0000 0.0000 0.0000
# 2 56.7850 109.2359 25.2857 0.0000 0.0000 0.0000
# 3 33.9097 25.2857 85.8320 0.0000 0.0000 0.0000
# 4 0.0000 0.0000 0.0000 35.9587 0.0000 0.0000
# 5 0.0000 0.0000 0.0000 0.0000 45.0025 0.0000
# 6 0.0000 0.0000 0.0000 0.0000 0.0000 35.7201
#
#
#
# Elastic Compliance Matrix: (Units=1/GPa)
#
#
# Indices 1 2 3 4 5 6 
#
# 1 0.011070 -0.005089 -0.002874 0.000000 0.000000 0.000000
# 2 -0.005089 0.012164 -0.001573 0.000000 0.000000 0.000000
# 3 -0.002874 -0.001573 0.013250 0.000000 0.000000 0.000000
# 4 0.000000 0.000000 0.000000 0.027810 0.000000 0.000000
# 5 0.000000 0.000000 0.000000 0.000000 0.022221 0.000000
# 6 0.000000 0.000000 0.000000 0.000000 0.000000 0.027995
#
#
# Mechanical properties :
#
#
# Convention : Reuss Voigt Hill
#
# Bulk Modulus (GPa) = 57.43474 61.36353 59.39913
# Shear Modulus (GPa) = 35.87142 36.95828 36.41485
#
# Velocity S-wave (km/s) = 4.04729 4.10815 4.07784
# Velocity P-wave (km/s) = 6.93312 7.10803 7.02112
#
# Compressibility (1/GPa) = 0.01741107
#
# Stress axis : x y z
#
# Youngs Moduli (GPa) = 90.33242 82.20811 75.47433
#
# Poissons Ratio (x) = 0.41839 0.21693
# Poissons Ratio (y) = 0.45974 0.11871
# Poissons Ratio (z) = 0.25963 0.12930
#
# Static dielectric constant tensor:
#      x y z
#    x 4.241520 0.000000 0.000000 
#    y 0.000000 4.215210 0.000000 
#    z 0.000000 0.000000 3.858110 
# 
# 
# High freq. dielectric constant tensor:
#      x y z
#    x 1.878560 0.000000 0.000000 
#    y 0.000000 1.870980 0.000000 
#    z 0.000000 0.000000 1.859270 
# 
# From -- ./inp_files/3515.got.cif
#   From: 2010.03.12/outbox.cif.g09.slc.cpg/sg37_2_cif.got.tgz:3515.got - 2010.04.14 02:25:27.
