data_PCOD8177027
_publ_section_title
;
Structure prediction by ZEFSAII (Michael W. Deem and Ramdas Pophale) SiO2 
 PCOD8177027
Probable space group: C C C 2
;
_chemical_formula_sum "Si O2"
_cell_formula_units_Z 40
_cell_length_a 17.311266
_cell_length_b 10.617740
_cell_length_c 8.596957
_cell_angle_alpha 90.000000
_cell_angle_beta 90.000000
_cell_angle_gamma 90.000000
_cell_volume 1580.176761
_symmetry_space_group_name_H-M "C C C 2"
_symmetry_group_IT_number 37
_symmetry_cell_setting 'orthorhombic'
loop_
_space_group_symop_operation_xyz
x,y,z
-x,-y,z
-x,y,1/2+z
x,-y,1/2+z
1/2+x,1/2+y,z
1/2-x,1/2-y,z
1/2-x,1/2+y,1/2+z
1/2+x,1/2-y,1/2+z
loop_
_atom_site_type_symbol
_atom_site_label
_atom_site_fract_x
_atom_site_fract_y
_atom_site_fract_z
Si Si1 0.939167 0.250000 0.707440
Si Si2 0.250000 0.054408 0.707440
Si Si3 0.500000 0.000000 0.328904
Si Si4 0.500000 0.500000 0.585976
Si Si5 0.853426 0.896264 0.437333
Si Si6 0.646574 0.896264 0.977547
O O1 0.992310 0.126235 0.690239
O O2 0.886575 0.232740 0.862609
O O3 0.886575 0.267260 0.552271
O O4 0.992310 0.373765 0.724641
O O5 0.200554 0.138509 0.585474
O O6 0.299446 0.138509 0.829406
O O7 0.192529 0.965683 0.801746
O O8 0.307471 0.965683 0.613134
O O9 0.576785 0.011602 0.431182
O O10 0.423215 0.488398 0.483698
#
# Coordination Sequence:
#
# PCOD8177027 Si02
#       6
#     8   8   4   4   8   8
#     4  12  26  49  84 115 162 208 282 330 406 475
#     4  10  24  49  77 114 168 205 263 326 420 475
#     4  12  26  52  80 118 158 218 274 338 394 488
#     4  12  26  52  80 118 158 218 274 338 394 488
#     4  11  24  49  76 116 163 212 260 336 401 486
#     4  11  24  49  76 116 163 212 260 336 401 486
#
# _framework density 25.313623
#
# number of rings (size 3 to 8) (size 9 to 14) (size 15 to 20)
#    0.000    0.800    4.000    2.400    0.000    0.800 
#    0.000    2.000    0.000    0.000    0.000    0.000 
#    0.000    0.000    0.000    0.000    0.000    0.000 
#
# Total GULP energy -247990.908778 kJ/mol
# GULP energy per Si atom -12399.545439 kJ/mol
# Density = 2.525601 g / cm^3
# Si number density = 25.313623 Si / 1000 Ang^3
#
#
#
# Elastic Constant Matrix: (Units=GPa)
#
#
# Indices 1 2 3 4 5 6 
#
# 1 154.3021 59.6216 77.4723 0.0000 0.0000 0.0000
# 2 59.6216 149.7647 66.8774 0.0000 0.0000 0.0000
# 3 77.4723 66.8774 167.6453 0.0000 0.0000 0.0000
# 4 0.0000 0.0000 0.0000 44.6199 0.0000 0.0000
# 5 0.0000 0.0000 0.0000 0.0000 42.8566 0.0000
# 6 0.0000 0.0000 0.0000 0.0000 0.0000 14.3170
#
#
#
# Elastic Compliance Matrix: (Units=1/GPa)
#
#
# Indices 1 2 3 4 5 6 
#
# 1 0.008944 -0.002087 -0.003301 0.000000 0.000000 0.000000
# 2 -0.002087 0.008611 -0.002471 0.000000 0.000000 0.000000
# 3 -0.003301 -0.002471 0.008476 0.000000 0.000000 0.000000
# 4 0.000000 0.000000 0.000000 0.022412 0.000000 0.000000
# 5 0.000000 0.000000 0.000000 0.000000 0.023334 0.000000
# 6 0.000000 0.000000 0.000000 0.000000 0.000000 0.069847
#
#
# Mechanical properties :
#
#
# Convention : Reuss Voigt Hill
#
# Bulk Modulus (GPa) = 96.94987 97.73940 97.34463
# Shear Modulus (GPa) = 31.09854 38.20810 34.65332
#
# Velocity S-wave (km/s) = 3.50884 3.88930 3.70396
# Velocity P-wave (km/s) = 7.40261 7.67229 7.53866
#
# Compressibility (1/GPa) = 0.01031461
#
# Stress axis : x y z
#
# Youngs Moduli (GPa) = 111.80097 116.12708 117.97862
#
# Poissons Ratio (x) = 0.24233 0.38944
# Poissons Ratio (y) = 0.23330 0.29151
# Poissons Ratio (z) = 0.36905 0.28694
#
# Static dielectric constant tensor:
#      x y z
#    x 4.995730 0.000000 0.000000 
#    y 0.000000 4.100770 0.000000 
#    z 0.000000 0.000000 4.911470 
# 
# 
# High freq. dielectric constant tensor:
#      x y z
#    x 2.027780 0.000000 0.000000 
#    y 0.000000 1.982500 0.000000 
#    z 0.000000 0.000000 2.029810 
# 
# From -- ./inp_files/2758.got.cif
#   From: 2010.03.12/outbox.cif.g09.slc.cpg/sg37_2_cif.got.tgz:2758.got - 2010.04.14 02:25:27.
