data_PCOD8177812
_publ_section_title
;
Structure prediction by ZEFSAII (Michael W. Deem and Ramdas Pophale) SiO2 
 PCOD8177812
Probable space group: A M M 2
;
_chemical_formula_sum "Si O2"
_cell_formula_units_Z 40
_cell_length_a 13.468642
_cell_length_b 13.263343
_cell_length_c 13.597883
_cell_angle_alpha 90.000000
_cell_angle_beta 90.000000
_cell_angle_gamma 90.000000
_cell_volume 2429.115194
_symmetry_space_group_name_H-M "A M M 2"
_symmetry_group_IT_number 38
_symmetry_cell_setting 'orthorhombic'
loop_
_space_group_symop_operation_xyz
x,y,z
-x,-y,z
-x,y,z
x,-y,z
x,1/2+y,1/2+z
-x,1/2-y,1/2+z
-x,1/2+y,1/2+z
x,1/2-y,1/2+z
loop_
_atom_site_type_symbol
_atom_site_label
_atom_site_fract_x
_atom_site_fract_y
_atom_site_fract_z
Si Si1 0.387216 0.884393 0.117930
Si Si2 0.749888 0.755481 0.978903
Si Si3 0.885446 0.883562 0.608068
Si Si4 0.766711 0.382732 0.302043
Si Si5 0.386732 0.223803 0.314290
O O1 0.500000 0.860377 0.083872
O O2 0.310116 0.815697 0.060950
O O3 0.376662 0.864036 0.234111
O O4 0.360552 0.000000 0.097542
O O5 0.829340 0.682511 0.027469
O O6 0.805642 0.834597 0.905372
O O7 0.671526 0.690065 0.913592
O O8 0.847260 0.861696 0.717830
O O9 0.000000 0.852936 0.605010
O O10 0.868869 0.000000 0.580377
O O11 0.745135 0.500000 0.316456
O O12 0.662831 0.327839 0.273261
O O13 0.500000 0.247277 0.340740
#
# Coordination Sequence:
#
# PCOD8177812 Si02
#       5
#     8   8   8   8   8
#     4  10  19  32  51  76 108 145 176 208 259 315
#     4  10  18  34  52  80 101 138 176 224 247 312
#     4  10  21  38  57  76 103 140 177 220 275 317
#     4   9  19  34  52  79 108 136 171 216 262 311
#     4   9  19  32  50  79 110 139 170 210 261 313
#
# _framework density 16.466901
#
# number of rings (size 3 to 8) (size 9 to 14) (size 15 to 20)
#    1.200    1.200    2.000    1.200    0.000    2.000 
#    0.000    0.000    0.000    3.600    0.000    0.000 
#    0.000    0.000    0.000    0.000    0.000    0.000 
#
# Total GULP energy -247835.118283 kJ/mol
# GULP energy per Si atom -12391.755914 kJ/mol
# Density = 1.642942 g / cm^3
# Si number density = 16.466901 Si / 1000 Ang^3
#
#
#
# Elastic Constant Matrix: (Units=GPa)
#
#
# Indices 1 2 3 4 5 6 
#
# 1 122.0479 49.1481 58.1994 0.0000 0.0000 0.0000
# 2 49.1481 56.4730 36.0078 0.0000 0.0000 0.0000
# 3 58.1994 36.0078 91.0988 0.0000 0.0000 0.0000
# 4 0.0000 0.0000 0.0000 29.8607 0.0000 0.0000
# 5 0.0000 0.0000 0.0000 0.0000 25.1248 0.0000
# 6 0.0000 0.0000 0.0000 0.0000 0.0000 27.6929
#
#
#
# Elastic Compliance Matrix: (Units=1/GPa)
#
#
# Indices 1 2 3 4 5 6 
#
# 1 0.014559 -0.009011 -0.005740 0.000000 0.000000 0.000000
# 2 -0.009011 0.029251 -0.005805 0.000000 0.000000 0.000000
# 3 -0.005740 -0.005805 0.016938 0.000000 0.000000 0.000000
# 4 0.000000 0.000000 0.000000 0.033489 0.000000 0.000000
# 5 0.000000 0.000000 0.000000 0.000000 0.039801 0.000000
# 6 0.000000 0.000000 0.000000 0.000000 0.000000 0.036110
#
#
# Mechanical properties :
#
#
# Convention : Reuss Voigt Hill
#
# Bulk Modulus (GPa) = 50.92323 61.81446 56.36885
# Shear Modulus (GPa) = 22.95615 24.95331 23.95473
#
# Velocity S-wave (km/s) = 3.73779 3.89699 3.81822
# Velocity P-wave (km/s) = 7.04413 7.60715 7.33105
#
# Compressibility (1/GPa) = 0.01963740
#
# Stress axis : x y z
#
# Youngs Moduli (GPa) = 68.68507 34.18653 59.03763
#
# Poissons Ratio (x) = 0.30806 0.33885
# Poissons Ratio (y) = 0.61893 0.34271
# Poissons Ratio (z) = 0.39422 0.19845
#
# Static dielectric constant tensor:
#      x y z
#    x 2.971620 0.000000 0.000000 
#    y 0.000000 2.948190 0.000000 
#    z 0.000000 0.000000 3.119580 
# 
# 
# High freq. dielectric constant tensor:
#      x y z
#    x 1.622570 0.000000 0.000000 
#    y 0.000000 1.624040 0.000000 
#    z 0.000000 0.000000 1.641010 
# 
# From -- ./inp_files/9937.got.cif
#   From: 2010.03.12/outbox.cif.g09.slc.cpg/sg38_5_cif.got.tgz:9937.got - 2010.04.14 02:38:36.
