data_PCOD8177877
_publ_section_title
;
Structure prediction by ZEFSAII (Michael W. Deem and Ramdas Pophale) SiO2 
 PCOD8177877
Probable space group: A M M 2
;
_chemical_formula_sum "Si O2"
_cell_formula_units_Z 56
_cell_length_a 13.363006
_cell_length_b 18.153312
_cell_length_c 15.096376
_cell_angle_alpha 90.000000
_cell_angle_beta 90.000000
_cell_angle_gamma 90.000000
_cell_volume 3662.121419
_symmetry_space_group_name_H-M "A M M 2"
_symmetry_group_IT_number 38
_symmetry_cell_setting 'orthorhombic'
loop_
_space_group_symop_operation_xyz
x,y,z
-x,-y,z
-x,y,z
x,-y,z
x,1/2+y,1/2+z
-x,1/2-y,1/2+z
-x,1/2+y,1/2+z
x,1/2-y,1/2+z
loop_
_atom_site_type_symbol
_atom_site_label
_atom_site_fract_x
_atom_site_fract_y
_atom_site_fract_z
Si Si1 0.384666 0.581698 0.889700
Si Si2 0.383991 0.707269 0.021509
Si Si3 0.615334 0.081698 0.856136
Si Si4 0.710226 0.860380 0.220468
Si Si5 0.289774 0.360380 0.525368
Si Si6 0.616009 0.207269 0.724326
Si Si7 0.885671 0.911856 0.122918
O O1 0.500000 0.597170 0.871009
O O2 0.366936 0.500000 0.928638
O O3 0.330004 0.585957 0.795514
O O4 0.344543 0.640214 0.961181
O O5 0.500000 0.727187 0.001618
O O6 0.314091 0.776548 0.997502
O O7 0.370537 0.682688 0.122918
O O8 0.500000 0.097170 0.874827
O O9 0.655457 0.140214 0.784655
O O10 0.633064 0.000000 0.817198
O O11 0.669996 0.085957 0.950322
O O12 0.659626 0.875885 0.122918
O O13 0.685909 0.776548 0.248333
O O14 0.829487 0.877173 0.209501
O O15 0.170513 0.377174 0.536335
O O16 0.500000 0.227186 0.744218
O O17 0.000000 0.885773 0.122918
O O18 0.876101 0.000000 0.122918
#
# Coordination Sequence:
#
# PCOD8177877 Si02
#       7
#     8   8   8   8   8   8   8
#     4  10  19  28  42  67  98 128 156 186 217 257
#     4   9  17  30  46  65  91 127 161 186 217 256
#     4  10  19  28  42  67  98 128 156 186 217 257
#     4   9  18  29  47  67  90 119 150 181 225 279
#     4   9  18  29  47  67  90 119 150 181 225 279
#     4   9  17  30  46  65  91 127 161 186 217 256
#     4   9  18  32  49  69  92 115 141 183 237 282
#
# _framework density 15.291683000000001
#
# number of rings (size 3 to 8) (size 9 to 14) (size 15 to 20)
#    0.857    1.857    0.000    2.571    0.000    4.571 
#    0.000    4.286    0.000    3.429    0.000    0.000 
#    0.000    1.143    0.000    0.000    0.000    0.000 
#
# Total GULP energy -346925.482146 kJ/mol
# GULP energy per Si atom -12390.195791 kJ/mol
# Density = 1.525688 g / cm^3
# Si number density = 15.291683 Si / 1000 Ang^3
#
#
#
# Elastic Constant Matrix: (Units=GPa)
#
#
# Indices 1 2 3 4 5 6 
#
# 1 73.7731 52.9617 28.1514 0.0000 0.0000 0.0000
# 2 52.9617 95.2152 37.6907 0.0000 0.0000 0.0000
# 3 28.1514 37.6907 59.6651 0.0000 0.0000 0.0000
# 4 0.0000 0.0000 0.0000 24.6918 0.0000 0.0000
# 5 0.0000 0.0000 0.0000 0.0000 10.3017 0.0000
# 6 0.0000 0.0000 0.0000 0.0000 0.0000 11.2196
#
#
#
# Elastic Compliance Matrix: (Units=1/GPa)
#
#
# Indices 1 2 3 4 5 6 
#
# 1 0.023170 -0.011415 -0.003721 0.000000 0.000000 0.000000
# 2 -0.011415 0.019628 -0.007013 0.000000 0.000000 0.000000
# 3 -0.003721 -0.007013 0.022946 0.000000 0.000000 0.000000
# 4 0.000000 0.000000 0.000000 0.040499 0.000000 0.000000
# 5 0.000000 0.000000 0.000000 0.000000 0.097072 0.000000
# 6 0.000000 0.000000 0.000000 0.000000 0.000000 0.089129
#
#
# Mechanical properties :
#
#
# Convention : Reuss Voigt Hill
#
# Bulk Modulus (GPa) = 46.63014 51.80679 49.21847
# Shear Modulus (GPa) = 14.53947 16.56594 15.55271
#
# Velocity S-wave (km/s) = 3.08686 3.29497 3.19261
# Velocity P-wave (km/s) = 6.57761 6.95905 6.77102
#
# Compressibility (1/GPa) = 0.02144536
#
# Stress axis : x y z
#
# Youngs Moduli (GPa) = 43.15992 50.94792 43.57985
#
# Poissons Ratio (x) = 0.58155 0.16218
# Poissons Ratio (y) = 0.49265 0.30564
# Poissons Ratio (z) = 0.16061 0.35732
#
# Static dielectric constant tensor:
#      x y z
#    x 2.650730 0.000000 0.000000 
#    y 0.000000 2.986840 0.000000 
#    z 0.000000 0.000000 2.932620 
# 
# 
# High freq. dielectric constant tensor:
#      x y z
#    x 1.537900 0.000000 0.000000 
#    y 0.000000 1.593720 0.000000 
#    z 0.000000 0.000000 1.584260 
# 
# From -- ./inp_files/14731.got.cif
#   From: 2010.03.12/outbox.cif.g09.slc.cpg/sg38_8_cif.got.tgz:14731.got - 2010.04.14 02:38:36.
