data_PCOD8177976
_publ_section_title
;
Structure prediction by ZEFSAII (Michael W. Deem and Ramdas Pophale) SiO2 
 PCOD8177976
Probable space group: A M M 2
;
_chemical_formula_sum "Si O2"
_cell_formula_units_Z 64
_cell_length_a 18.007832
_cell_length_b 33.073725
_cell_length_c 5.227894
_cell_angle_alpha 90.000000
_cell_angle_beta 90.000000
_cell_angle_gamma 90.000000
_cell_volume 3113.660912
_symmetry_space_group_name_H-M "A M M 2"
_symmetry_group_IT_number 38
_symmetry_cell_setting 'orthorhombic'
loop_
_space_group_symop_operation_xyz
x,y,z
-x,-y,z
-x,y,z
x,-y,z
x,1/2+y,1/2+z
-x,1/2-y,1/2+z
-x,1/2+y,1/2+z
x,1/2-y,1/2+z
loop_
_atom_site_type_symbol
_atom_site_label
_atom_site_fract_x
_atom_site_fract_y
_atom_site_fract_z
Si Si1 0.081516 0.296355 0.323180
Si Si2 0.776618 0.589433 0.761772
Si Si3 0.414594 0.225992 0.148941
Si Si4 0.417994 0.598161 0.264825
Si Si5 0.129866 0.662945 0.827300
Si Si6 0.271742 0.452520 0.260467
Si Si7 0.630784 0.359888 0.764446
Si Si8 0.777493 0.763993 0.335669
O O1 0.085621 0.323033 0.578380
O O2 0.143743 0.261256 0.309172
O O3 0.000000 0.275536 0.314071
O O4 0.086243 0.328040 0.088230
O O5 0.852033 0.615264 0.800464
O O6 0.776363 0.566033 0.492443
O O7 0.712507 0.622372 0.760970
O O8 0.768267 0.558057 0.994229
O O9 0.500000 0.211924 0.174443
O O10 0.397526 0.260308 0.359866
O O11 0.362640 0.188222 0.226642
O O12 0.500000 0.578324 0.238917
O O13 0.356426 0.563058 0.258304
O O14 0.416313 0.621770 0.531755
O O15 0.407228 0.629903 0.034727
O O16 0.206883 0.688658 0.845393
O O17 0.274540 0.500000 0.296882
O O18 0.731322 0.748235 0.581799
#
# Coordination Sequence:
#
# PCOD8177976 Si02
#       8
#     8   8   8   8   8   8   8   8
#     4  10  19  31  50  77 109 143 176 210 252 296
#     4  10  21  37  55  75 104 136 168 207 251 301
#     4  10  19  30  45  66  91 123 170 224 262 287
#     4  10  19  32  54  79 103 133 163 202 263 324
#     4  10  19  32  49  72 104 140 175 210 244 287
#     4  10  21  37  57  80 105 131 164 208 255 312
#     4  10  20  34  50  71  99 136 175 211 255 306
#     4   8  16  27  42  66  97 136 176 204 241 282
#
# _framework density 20.554583999999998
#
# number of rings (size 3 to 8) (size 9 to 14) (size 15 to 20)
#    0.000    2.250    0.000    3.375    0.000    5.750 
#    0.000    3.750    0.000    4.500    0.000    0.000 
#    0.000   35.000    0.000    0.000    0.000    0.000 
#
# Total GULP energy -396698.764402 kJ/mol
# GULP energy per Si atom -12396.836388 kJ/mol
# Density = 2.050780 g / cm^3
# Si number density = 20.554584 Si / 1000 Ang^3
#
#
#
# Elastic Constant Matrix: (Units=GPa)
#
#
# Indices 1 2 3 4 5 6 
#
# 1 21.8626 8.9124 5.3120 0.0000 0.0000 0.0000
# 2 8.9124 102.1169 25.9408 0.0000 0.0000 0.0000
# 3 5.3120 25.9408 155.5649 0.0000 0.0000 0.0000
# 4 0.0000 0.0000 0.0000 22.5524 0.0000 0.0000
# 5 0.0000 0.0000 0.0000 0.0000 35.0387 0.0000
# 6 0.0000 0.0000 0.0000 0.0000 0.0000 16.6264
#
#
#
# Elastic Compliance Matrix: (Units=1/GPa)
#
#
# Indices 1 2 3 4 5 6 
#
# 1 0.047568 -0.003904 -0.000973 0.000000 0.000000 0.000000
# 2 -0.003904 0.010546 -0.001625 0.000000 0.000000 0.000000
# 3 -0.000973 -0.001625 0.006732 0.000000 0.000000 0.000000
# 4 0.000000 0.000000 0.000000 0.044341 0.000000 0.000000
# 5 0.000000 0.000000 0.000000 0.000000 0.028540 0.000000
# 6 0.000000 0.000000 0.000000 0.000000 0.000000 0.060145
#
#
# Mechanical properties :
#
#
# Convention : Reuss Voigt Hill
#
# Bulk Modulus (GPa) = 19.28964 39.98607 29.63786
# Shear Modulus (GPa) = 21.91448 30.80211 26.35830
#
# Velocity S-wave (km/s) = 3.26875 3.87531 3.58488
# Velocity P-wave (km/s) = 4.86326 6.28649 5.62011
#
# Compressibility (1/GPa) = 0.05184129
#
# Stress axis : x y z
#
# Youngs Moduli (GPa) = 21.02243 94.81975 148.53452
#
# Poissons Ratio (x) = 0.37021 0.14456
# Poissons Ratio (y) = 0.08208 0.24141
# Poissons Ratio (z) = 0.02046 0.15411
#
# Static dielectric constant tensor:
#      x y z
#    x 3.543860 0.000000 0.000000 
#    y 0.000000 3.374440 0.000000 
#    z 0.000000 0.000000 4.650160 
# 
# 
# High freq. dielectric constant tensor:
#      x y z
#    x 1.786080 0.000000 0.000000 
#    y 0.000000 1.769000 0.000000 
#    z 0.000000 0.000000 1.838050 
# 
# From -- ./inp_files/1737.got.cif
#   From: 2010.03.12/outbox.cif.g09.slc.cpg/sg38_1_cif.got.tgz:1737.got - 2010.04.14 02:38:36.
