data_PCOD8177232
_publ_section_title
;
Structure prediction by ZEFSAII (Michael W. Deem and Ramdas Pophale) SiO2 
 PCOD8177232
Probable space group: A M M 2
;
_chemical_formula_sum "Si O2"
_cell_formula_units_Z 64
_cell_length_a 8.624411
_cell_length_b 18.549641
_cell_length_c 26.589497
_cell_angle_alpha 90.000000
_cell_angle_beta 90.000000
_cell_angle_gamma 90.000000
_cell_volume 4253.780495
_symmetry_space_group_name_H-M "A M M 2"
_symmetry_group_IT_number 38
_symmetry_cell_setting 'orthorhombic'
loop_
_space_group_symop_operation_xyz
x,y,z
-x,-y,z
-x,y,z
x,-y,z
x,1/2+y,1/2+z
-x,1/2-y,1/2+z
-x,1/2+y,1/2+z
x,1/2-y,1/2+z
loop_
_atom_site_type_symbol
_atom_site_label
_atom_site_fract_x
_atom_site_fract_y
_atom_site_fract_z
Si Si1 0.316196 0.920374 0.408450
Si Si2 0.319137 0.795856 0.163272
Si Si3 0.181857 0.082864 0.219964
Si Si4 0.316506 0.333730 0.813863
Si Si5 0.181976 0.330586 0.110376
Si Si6 0.181545 0.578828 0.204604
Si Si7 0.818950 0.284024 0.256764
Si Si8 0.318749 0.916617 0.521161
O O1 0.500000 0.925160 0.405309
O O2 0.252887 0.865100 0.366664
O O3 0.268435 0.895523 0.464452
O O4 0.247310 0.000000 0.397480
O O5 0.500000 0.808973 0.156393
O O6 0.235853 0.873647 0.169866
O O7 0.256439 0.749247 0.116009
O O8 0.283095 0.751880 0.213563
O O9 0.268589 0.112603 0.269218
O O10 0.000000 0.093055 0.228249
O O11 0.228043 0.000000 0.212038
O O12 0.500000 0.324931 0.814299
O O13 0.237935 0.254098 0.808100
O O14 0.247813 0.383433 0.154179
O O15 0.222553 0.364222 0.056865
O O16 0.000000 0.320996 0.116044
O O17 0.259838 0.500000 0.212442
O O18 0.213789 0.629797 0.253561
O O19 0.000000 0.568412 0.197246
O O20 0.000000 0.268163 0.247053
O O21 0.500000 0.903361 0.529965
O O22 0.276898 0.000000 0.532027
#
# Coordination Sequence:
#
# PCOD8177232 Si02
#       8
#     8   8   8   8   8   8   8   8
#     4   8  15  27  41  57  78 105 137 172 205 235
#     4  10  18  28  42  58  78 105 137 168 197 236
#     4  10  19  29  41  59  84 110 135 167 206 242
#     4  10  17  26  42  59  78 108 143 171 198 240
#     4  10  18  28  42  59  81 107 135 166 202 243
#     4   8  14  24  38  55  75 102 133 160 189 231
#     4   9  16  26  39  56  80 105 130 166 206 240
#     4   9  17  29  43  59  80 105 136 173 207 239
#
# _framework density 15.045441
#
# number of rings (size 3 to 8) (size 9 to 14) (size 15 to 20)
#    0.000    2.750    0.000    6.375    0.000    2.250 
#    0.000    1.250    0.000    9.000    0.000    0.000 
#    0.000    1.000    0.000    8.000    0.000    2.625 
#
# Total GULP energy -396516.597956 kJ/mol
# GULP energy per Si atom -12391.143686 kJ/mol
# Density = 1.501120 g / cm^3
# Si number density = 15.045441 Si / 1000 Ang^3
#
#
#
# Elastic Constant Matrix: (Units=GPa)
#
#
# Indices 1 2 3 4 5 6 
#
# 1 40.9135 23.6492 16.2669 0.0000 0.0000 0.0000
# 2 23.6492 115.2910 55.5649 0.0000 0.0000 0.0000
# 3 16.2669 55.5649 81.9258 0.0000 0.0000 0.0000
# 4 0.0000 0.0000 0.0000 26.9527 0.0000 0.0000
# 5 0.0000 0.0000 0.0000 0.0000 13.3991 0.0000
# 6 0.0000 0.0000 0.0000 0.0000 0.0000 18.0828
#
#
#
# Elastic Compliance Matrix: (Units=1/GPa)
#
#
# Indices 1 2 3 4 5 6 
#
# 1 0.028064 -0.004562 -0.002478 0.000000 0.000000 0.000000
# 2 -0.004562 0.013628 -0.008337 0.000000 0.000000 0.000000
# 3 -0.002478 -0.008337 0.018352 0.000000 0.000000 0.000000
# 4 0.000000 0.000000 0.000000 0.037102 0.000000 0.000000
# 5 0.000000 0.000000 0.000000 0.000000 0.074632 0.000000
# 6 0.000000 0.000000 0.000000 0.000000 0.000000 0.055301
#
#
# Mechanical properties :
#
#
# Convention : Reuss Voigt Hill
#
# Bulk Modulus (GPa) = 34.14144 47.67693 40.90918
# Shear Modulus (GPa) = 18.68482 21.19687 19.94084
#
# Velocity S-wave (km/s) = 3.52787 3.75755 3.64452
# Velocity P-wave (km/s) = 6.27184 7.11217 6.70518
#
# Compressibility (1/GPa) = 0.02928992
#
# Stress axis : x y z
#
# Youngs Moduli (GPa) = 35.63256 73.38101 54.48862
#
# Poissons Ratio (x) = 0.33480 0.13502
# Poissons Ratio (y) = 0.16257 0.45426
# Poissons Ratio (z) = 0.08830 0.61176
#
# Static dielectric constant tensor:
#      x y z
#    x 2.773760 0.000000 0.000000 
#    y 0.000000 3.317620 0.000000 
#    z 0.000000 0.000000 2.872460 
# 
# 
# High freq. dielectric constant tensor:
#      x y z
#    x 1.571540 0.000000 0.000000 
#    y 0.000000 1.570820 0.000000 
#    z 0.000000 0.000000 1.539780 
# 
# From -- ./inp_files/23662.got.cif
#   From: 2010.03.12/outbox.cif.g09.slc.cpg/sg38_12_cif.got.tgz:23662.got - 2010.04.14 02:38:36.
