data_PCOD8177936
_publ_section_title
;
Structure prediction by ZEFSAII (Michael W. Deem and Ramdas Pophale) SiO2 
 PCOD8177936
Probable space group: A M M 2
;
_chemical_formula_sum "Si O2"
_cell_formula_units_Z 40
_cell_length_a 9.377740
_cell_length_b 20.678654
_cell_length_c 12.535116
_cell_angle_alpha 90.000000
_cell_angle_beta 90.000000
_cell_angle_gamma 90.000000
_cell_volume 2430.797671
_symmetry_space_group_name_H-M "A M M 2"
_symmetry_group_IT_number 38
_symmetry_cell_setting 'orthorhombic'
loop_
_space_group_symop_operation_xyz
x,y,z
-x,-y,z
-x,y,z
x,-y,z
x,1/2+y,1/2+z
-x,1/2-y,1/2+z
-x,1/2+y,1/2+z
x,1/2-y,1/2+z
loop_
_atom_site_type_symbol
_atom_site_label
_atom_site_fract_x
_atom_site_fract_y
_atom_site_fract_z
Si Si1 0.666728 0.073303 0.398290
Si Si2 0.161937 0.156621 0.238338
Si Si3 0.835969 0.205169 0.015906
Si Si4 0.163237 0.304858 0.281296
Si Si5 0.667904 0.829650 0.582266
O O1 0.500000 0.076705 0.376454
O O2 0.738669 0.105166 0.295510
O O3 0.706369 0.109844 0.507464
O O4 0.720771 0.000000 0.410224
O O5 0.197677 0.228645 0.278221
O O6 0.000000 0.138409 0.265956
O O7 0.190205 0.153539 0.110522
O O8 0.805484 0.171077 0.901982
O O9 0.000000 0.230218 0.020453
O O10 0.733537 0.266171 0.029024
O O11 0.264101 0.342907 0.198820
O O12 0.000000 0.317653 0.247898
O O13 0.500000 0.819827 0.595374
#
# Coordination Sequence:
#
# PCOD8177936 Si02
#       5
#     8   8   8   8   8
#     4  10  21  35  48  65  96 133 163 196 235 275
#     4   9  17  29  48  72  94 121 159 194 234 283
#     4   9  17  31  49  70  98 126 150 190 244 291
#     4   9  17  30  49  70  98 127 150 188 243 293
#     4  10  19  29  45  70  97 124 160 198 234 279
#
# _framework density 16.455503
#
# number of rings (size 3 to 8) (size 9 to 14) (size 15 to 20)
#    0.000    2.600    2.000    1.800    0.000    5.200 
#    0.000    0.000    0.000    1.200    0.000    5.600 
#    0.000    0.000    0.000    0.000    0.000    0.000 
#
# Total GULP energy -247952.027274 kJ/mol
# GULP energy per Si atom -12397.601364 kJ/mol
# Density = 1.641805 g / cm^3
# Si number density = 16.455503 Si / 1000 Ang^3
#
#
#
# Elastic Constant Matrix: (Units=GPa)
#
#
# Indices 1 2 3 4 5 6 
#
# 1 67.3888 43.2068 60.7009 0.0000 0.0000 0.0000
# 2 43.2068 78.0662 53.1751 0.0000 0.0000 0.0000
# 3 60.7009 53.1751 160.6315 0.0000 0.0000 0.0000
# 4 0.0000 0.0000 0.0000 20.5229 0.0000 0.0000
# 5 0.0000 0.0000 0.0000 0.0000 30.7442 0.0000
# 6 0.0000 0.0000 0.0000 0.0000 0.0000 16.5154
#
#
#
# Elastic Compliance Matrix: (Units=1/GPa)
#
#
# Indices 1 2 3 4 5 6 
#
# 1 0.028078 -0.010733 -0.007057 0.000000 0.000000 0.000000
# 2 -0.010733 0.020642 -0.002777 0.000000 0.000000 0.000000
# 3 -0.007057 -0.002777 0.009812 0.000000 0.000000 0.000000
# 4 0.000000 0.000000 0.000000 0.048726 0.000000 0.000000
# 5 0.000000 0.000000 0.000000 0.000000 0.032526 0.000000
# 6 0.000000 0.000000 0.000000 0.000000 0.000000 0.060549
#
#
# Mechanical properties :
#
#
# Convention : Reuss Voigt Hill
#
# Bulk Modulus (GPa) = 57.48423 68.91691 63.20057
# Shear Modulus (GPa) = 20.22113 23.49010 21.85561
#
# Velocity S-wave (km/s) = 3.50928 3.78232 3.64835
# Velocity P-wave (km/s) = 7.17140 7.81321 7.49918
#
# Compressibility (1/GPa) = 0.01739607
#
# Stress axis : x y z
#
# Youngs Moduli (GPa) = 35.61569 48.44567 101.91926
#
# Poissons Ratio (x) = 0.51996 0.71927
# Poissons Ratio (y) = 0.38226 0.28307
# Poissons Ratio (z) = 0.25135 0.13455
#
# Static dielectric constant tensor:
#      x y z
#    x 3.093820 0.000000 0.000000 
#    y 0.000000 2.759000 0.000000 
#    z 0.000000 0.000000 3.451530 
# 
# 
# High freq. dielectric constant tensor:
#      x y z
#    x 1.635640 0.000000 0.000000 
#    y 0.000000 1.580470 0.000000 
#    z 0.000000 0.000000 1.652460 
# 
# From -- ./inp_files/7777.got.cif
#   From: 2010.03.12/outbox.cif.g09.slc.cpg/sg38_4_cif.got.tgz:7777.got - 2010.04.14 02:38:36.
