data_PCOD8177512
_publ_section_title
;
Structure prediction by ZEFSAII (Michael W. Deem and Ramdas Pophale) SiO2 
 PCOD8177512
Probable space group: A M M 2
;
_chemical_formula_sum "Si O2"
_cell_formula_units_Z 64
_cell_length_a 19.894040
_cell_length_b 9.357252
_cell_length_c 20.008385
_cell_angle_alpha 90.000000
_cell_angle_beta 90.000000
_cell_angle_gamma 90.000000
_cell_volume 3724.631809
_symmetry_space_group_name_H-M "A M M 2"
_symmetry_group_IT_number 38
_symmetry_cell_setting 'orthorhombic'
loop_
_space_group_symop_operation_xyz
x,y,z
-x,-y,z
-x,y,z
x,-y,z
x,1/2+y,1/2+z
-x,1/2-y,1/2+z
-x,1/2+y,1/2+z
x,1/2-y,1/2+z
loop_
_atom_site_type_symbol
_atom_site_label
_atom_site_fract_x
_atom_site_fract_y
_atom_site_fract_z
Si Si1 0.184366 0.665165 0.463930
Si Si2 0.924033 0.831984 0.070123
Si Si3 0.317734 0.167184 0.499214
Si Si4 0.796446 0.163533 0.815479
Si Si5 0.425637 0.332020 0.894796
Si Si6 0.308093 0.663919 0.149063
Si Si7 0.154896 0.163207 0.675049
Si Si8 0.332351 0.332156 0.775175
O O1 0.200122 0.500000 0.478848
O O2 0.121168 0.718664 0.507477
O O3 0.249216 0.754124 0.482967
O O4 0.166158 0.689087 0.385851
O O5 0.899216 0.761491 0.138758
O O6 0.000000 0.782895 0.055307
O O7 0.919409 0.000000 0.080619
O O8 0.377216 0.229988 0.452834
O O9 0.338580 0.194644 0.576073
O O10 0.305453 0.000000 0.485450
O O11 0.848062 0.194531 0.754772
O O12 0.732706 0.266788 0.811001
O O13 0.770368 0.000000 0.809160
O O14 0.500000 0.262602 0.900414
O O15 0.430977 0.500000 0.905607
O O16 0.396162 0.297667 0.821691
O O17 0.318646 0.500000 0.170465
O O18 0.229083 0.701194 0.148089
O O19 0.346092 0.762673 0.202791
O O20 0.136673 0.000000 0.658887
O O21 0.320640 0.500000 0.766399
#
# Coordination Sequence:
#
# PCOD8177512 Si02
#       8
#     8   8   8   8   8   8   8   8
#     4  10  19  32  52  76 102 132 166 209 255 299
#     4  10  21  35  50  72 103 136 168 205 253 306
#     4  10  18  32  53  75 100 133 171 211 251 297
#     4   9  18  32  50  74 103 128 159 208 258 293
#     4   9  18  32  50  74 103 135 172 211 253 302
#     4   9  18  31  49  74 104 128 158 210 258 293
#     4   9  17  31  50  72  99 129 163 204 249 297
#     4  10  18  29  50  75  98 129 169 207 247 299
#
# _framework density 17.182905999999999
#
# number of rings (size 3 to 8) (size 9 to 14) (size 15 to 20)
#    0.000    2.500    2.500    1.125    0.000    2.750 
#    0.000    1.250    0.000    6.375    0.000    0.000 
#    0.000    0.000    0.000    0.000    0.000    0.000 
#
# Total GULP energy -396746.028456 kJ/mol
# GULP energy per Si atom -12398.313389 kJ/mol
# Density = 1.714380 g / cm^3
# Si number density = 17.182906 Si / 1000 Ang^3
#
#
#
# Elastic Constant Matrix: (Units=GPa)
#
#
# Indices 1 2 3 4 5 6 
#
# 1 121.7325 43.4892 73.6762 0.0000 0.0000 0.0000
# 2 43.4892 50.3733 47.8096 0.0000 0.0000 0.0000
# 3 73.6762 47.8096 138.8244 0.0000 0.0000 0.0000
# 4 0.0000 0.0000 0.0000 27.0553 0.0000 0.0000
# 5 0.0000 0.0000 0.0000 0.0000 24.5333 0.0000
# 6 0.0000 0.0000 0.0000 0.0000 0.0000 16.9287
#
#
#
# Elastic Compliance Matrix: (Units=1/GPa)
#
#
# Indices 1 2 3 4 5 6 
#
# 1 0.013708 -0.007323 -0.004753 0.000000 0.000000 0.000000
# 2 -0.007323 0.033404 -0.007617 0.000000 0.000000 0.000000
# 3 -0.004753 -0.007617 0.012349 0.000000 0.000000 0.000000
# 4 0.000000 0.000000 0.000000 0.036961 0.000000 0.000000
# 5 0.000000 0.000000 0.000000 0.000000 0.040761 0.000000
# 6 0.000000 0.000000 0.000000 0.000000 0.000000 0.059071
#
#
# Mechanical properties :
#
#
# Convention : Reuss Voigt Hill
#
# Bulk Modulus (GPa) = 49.81654 71.20893 60.51273
# Shear Modulus (GPa) = 20.63284 23.43381 22.03333
#
# Velocity S-wave (km/s) = 3.46898 3.69695 3.58478
# Velocity P-wave (km/s) = 6.71565 7.73013 7.24068
#
# Compressibility (1/GPa) = 0.02007366
#
# Stress axis : x y z
#
# Youngs Moduli (GPa) = 72.95273 29.93651 80.97838
#
# Poissons Ratio (x) = 0.21924 0.38486
# Poissons Ratio (y) = 0.53426 0.61684
# Poissons Ratio (z) = 0.34672 0.22804
#
# Static dielectric constant tensor:
#      x y z
#    x 3.101720 0.000000 0.000000 
#    y 0.000000 3.100260 0.000000 
#    z 0.000000 0.000000 3.554020 
# 
# 
# High freq. dielectric constant tensor:
#      x y z
#    x 1.631860 0.000000 0.000000 
#    y 0.000000 1.650870 0.000000 
#    z 0.000000 0.000000 1.680320 
# 
# From -- ./inp_files/21446.got.cif
#   From: 2010.03.12/outbox.cif.g09.slc.cpg/sg38_11_cif.got.tgz:21446.got - 2010.04.14 02:38:36.
