data_PCOD8177407
_publ_section_title
;
Structure prediction by ZEFSAII (Michael W. Deem and Ramdas Pophale) SiO2 
 PCOD8177407
Probable space group: A M M 2
;
_chemical_formula_sum "Si O2"
_cell_formula_units_Z 56
_cell_length_a 13.953781
_cell_length_b 23.599876
_cell_length_c 8.136859
_cell_angle_alpha 90.000000
_cell_angle_beta 90.000000
_cell_angle_gamma 90.000000
_cell_volume 2679.528706
_symmetry_space_group_name_H-M "A M M 2"
_symmetry_group_IT_number 38
_symmetry_cell_setting 'orthorhombic'
loop_
_space_group_symop_operation_xyz
x,y,z
-x,-y,z
-x,y,z
x,-y,z
x,1/2+y,1/2+z
-x,1/2-y,1/2+z
-x,1/2+y,1/2+z
x,1/2-y,1/2+z
loop_
_atom_site_type_symbol
_atom_site_label
_atom_site_fract_x
_atom_site_fract_y
_atom_site_fract_z
Si Si1 0.391377 0.432637 0.932860
Si Si2 0.884761 0.327646 0.953416
Si Si3 0.885951 0.562383 0.775829
Si Si4 0.109217 0.783749 0.791341
Si Si5 0.715147 0.933988 0.750876
Si Si6 0.391113 0.567208 0.570258
Si Si7 0.109279 0.399087 0.422459
O O1 0.500000 0.410362 0.955860
O O2 0.391353 0.500000 0.939764
O O3 0.351093 0.413706 0.751717
O O4 0.326843 0.407056 0.081893
O O5 0.844353 0.388617 0.894038
O O6 0.844645 0.276452 0.839075
O O7 0.842344 0.313144 0.132725
O O8 0.000000 0.329303 0.952741
O O9 0.847766 0.500000 0.832438
O O10 0.851312 0.573309 0.589835
O O11 0.000000 0.563813 0.777064
O O12 0.116681 0.830406 0.937445
O O13 0.000000 0.770953 0.745014
O O14 0.828921 0.922469 0.768733
O O15 0.692681 0.000000 0.745466
O O16 0.667205 0.906474 0.915842
O O17 0.500000 0.588431 0.553844
O O18 0.386586 0.500000 0.559821
O O19 0.000000 0.417196 0.385047
#
# Coordination Sequence:
#
# PCOD8177407 Si02
#       7
#     8   8   8   8   8   8   8
#     4   8  14  26  45  68  91 116 155 211 269 323
#     4   9  16  29  51  72  87 111 160 224 277 317
#     4   9  17  30  46  64  90 126 167 210 260 314
#     4   9  17  30  49  70  88 115 166 223 268 304
#     4  10  18  28  44  64  91 133 177 213 257 312
#     4   8  14  26  45  68  90 115 156 210 267 325
#     4  10  20  33  45  61  94 139 182 219 250 288
#
# _framework density 20.899197000000001
#
# number of rings (size 3 to 8) (size 9 to 14) (size 15 to 20)
#    0.000    3.000    0.000    2.571    0.000    6.000 
#    2.571    1.429    0.000    6.857    0.000    0.000 
#    0.000    0.000    0.000   20.571    0.000    8.000 
#
# Total GULP energy -346893.175372 kJ/mol
# GULP energy per Si atom -12389.041978 kJ/mol
# Density = 2.085163 g / cm^3
# Si number density = 20.899197 Si / 1000 Ang^3
#
#
#
# Elastic Constant Matrix: (Units=GPa)
#
#
# Indices 1 2 3 4 5 6 
#
# 1 44.7342 -1.2350 39.8413 0.0000 0.0000 0.0000
# 2 -1.2350 101.5841 42.1229 0.0000 0.0000 0.0000
# 3 39.8413 42.1229 134.2930 0.0000 0.0000 0.0000
# 4 0.0000 0.0000 0.0000 22.8277 0.0000 0.0000
# 5 0.0000 0.0000 0.0000 0.0000 21.4767 0.0000
# 6 0.0000 0.0000 0.0000 0.0000 0.0000 3.5143
#
#
#
# Elastic Compliance Matrix: (Units=1/GPa)
#
#
# Indices 1 2 3 4 5 6 
#
# 1 0.032488 0.005048 -0.011222 0.000000 0.000000 0.000000
# 2 0.005048 0.012100 -0.005293 0.000000 0.000000 0.000000
# 3 -0.011222 -0.005293 0.012436 0.000000 0.000000 0.000000
# 4 0.000000 0.000000 0.000000 0.043806 0.000000 0.000000
# 5 0.000000 0.000000 0.000000 0.000000 0.046562 0.000000
# 6 0.000000 0.000000 0.000000 0.000000 0.000000 0.284555
#
#
# Mechanical properties :
#
#
# Convention : Reuss Voigt Hill
#
# Bulk Modulus (GPa) = 29.33344 49.11888 39.22616
# Shear Modulus (GPa) = 10.72399 22.88921 16.80660
#
# Velocity S-wave (km/s) = 2.26769 3.31300 2.83887
# Velocity P-wave (km/s) = 4.57414 6.17968 5.43650
#
# Compressibility (1/GPa) = 0.03409079
#
# Stress axis : x y z
#
# Youngs Moduli (GPa) = 30.78053 82.64277 80.41234
#
# Poissons Ratio (x) = -0.41720 0.90237
# Poissons Ratio (y) = -0.15539 0.42563
# Poissons Ratio (z) = 0.34541 0.43744
#
# Static dielectric constant tensor:
#      x y z
#    x 3.459640 0.000000 0.000000 
#    y 0.000000 3.545080 0.000000 
#    z 0.000000 0.000000 4.263100 
# 
# 
# High freq. dielectric constant tensor:
#      x y z
#    x 1.780250 0.000000 0.000000 
#    y 0.000000 1.767090 0.000000 
#    z 0.000000 0.000000 1.835780 
# 
# From -- ./inp_files/6539.got.cif
#   From: 2010.03.12/outbox.cif.g09.slc.cpg/sg38_4_cif.got.tgz:6539.got - 2010.04.14 02:38:36.
