data_PCOD8177891
_publ_section_title
;
Structure prediction by ZEFSAII (Michael W. Deem and Ramdas Pophale) SiO2 
 PCOD8177891
Probable space group: A M M 2
;
_chemical_formula_sum "Si O2"
_cell_formula_units_Z 64
_cell_length_a 14.235528
_cell_length_b 9.359569
_cell_length_c 31.122208
_cell_angle_alpha 90.000000
_cell_angle_beta 90.000000
_cell_angle_gamma 90.000000
_cell_volume 4146.673403
_symmetry_space_group_name_H-M "A M M 2"
_symmetry_group_IT_number 38
_symmetry_cell_setting 'orthorhombic'
loop_
_space_group_symop_operation_xyz
x,y,z
-x,-y,z
-x,y,z
x,-y,z
x,1/2+y,1/2+z
-x,1/2-y,1/2+z
-x,1/2+y,1/2+z
x,1/2-y,1/2+z
loop_
_atom_site_type_symbol
_atom_site_label
_atom_site_fract_x
_atom_site_fract_y
_atom_site_fract_z
Si Si1 0.896140 0.166012 0.176110
Si Si2 0.704073 0.165992 0.551823
Si Si3 0.895863 0.664456 0.090510
Si Si4 0.389738 0.333942 0.799474
Si Si5 0.609197 0.665910 0.964281
Si Si6 0.293389 0.167432 0.214273
Si Si7 0.389933 0.665626 0.628393
Si Si8 0.388374 0.161449 0.881872
O O1 0.870762 0.246615 0.132599
O O2 0.818127 0.203338 0.212059
O O3 0.000000 0.208780 0.193338
O O4 0.891347 0.000000 0.164426
O O5 0.816292 0.196071 0.554839
O O6 0.669407 0.216241 0.505197
O O7 0.648141 0.251332 0.587570
O O8 0.680512 0.000000 0.558583
O O9 0.893286 0.500000 0.104463
O O10 0.000000 0.705195 0.072620
O O11 0.500000 0.311776 0.792019
O O12 0.366015 0.500000 0.807480
O O13 0.336471 0.268440 0.757938
O O14 0.351542 0.245454 0.840108
O O15 0.500000 0.696950 0.973876
O O16 0.625127 0.500000 0.953329
O O17 0.647490 0.757776 0.924361
O O18 0.343882 0.229672 0.171834
O O19 0.313960 0.000000 0.215542
O O20 0.500000 0.689539 0.632028
O O21 0.363322 0.500000 0.622590
O O22 0.500000 0.162534 0.881576
O O23 0.348979 0.000000 0.881520
#
# Coordination Sequence:
#
# PCOD8177891 Si02
#       8
#     8   8   8   8   8   8   8   8
#     4   9  16  27  44  63  83 110 145 185 222 252
#     4  10  19  30  44  63  87 116 148 181 216 255
#     4   9  17  29  44  62  85 113 145 182 222 259
#     4   9  16  27  44  62  82 112 145 173 206 252
#     4   9  17  29  44  61  83 112 144 174 207 254
#     4   9  16  27  42  62  86 113 146 179 210 250
#     4  10  19  29  41  59  87 121 152 179 208 248
#     4   9  17  29  44  63  86 108 134 174 218 253
#
# _framework density 15.434059
#
# number of rings (size 3 to 8) (size 9 to 14) (size 15 to 20)
#    0.000    2.750    1.250    1.125    0.000    4.250 
#    0.000    2.500    0.000    1.500    0.000    0.875 
#    0.000    7.000    0.000    0.000    0.000    0.000 
#
# Total GULP energy -396694.286246 kJ/mol
# GULP energy per Si atom -12396.696445 kJ/mol
# Density = 1.539893 g / cm^3
# Si number density = 15.434059 Si / 1000 Ang^3
#
#
#
# Elastic Constant Matrix: (Units=GPa)
#
#
# Indices 1 2 3 4 5 6 
#
# 1 76.9647 30.6569 60.2299 0.0000 0.0000 0.0000
# 2 30.6569 52.3369 53.4772 0.0000 0.0000 0.0000
# 3 60.2299 53.4772 143.9197 0.0000 0.0000 0.0000
# 4 0.0000 0.0000 0.0000 22.9481 0.0000 0.0000
# 5 0.0000 0.0000 0.0000 0.0000 12.7536 0.0000
# 6 0.0000 0.0000 0.0000 0.0000 0.0000 14.8173
#
#
#
# Elastic Compliance Matrix: (Units=1/GPa)
#
#
# Indices 1 2 3 4 5 6 
#
# 1 0.020142 -0.005135 -0.006521 0.000000 0.000000 0.000000
# 2 -0.005135 0.032111 -0.009783 0.000000 0.000000 0.000000
# 3 -0.006521 -0.009783 0.013312 0.000000 0.000000 0.000000
# 4 0.000000 0.000000 0.000000 0.043577 0.000000 0.000000
# 5 0.000000 0.000000 0.000000 0.000000 0.078409 0.000000
# 6 0.000000 0.000000 0.000000 0.000000 0.000000 0.067488
#
#
# Mechanical properties :
#
#
# Convention : Reuss Voigt Hill
#
# Bulk Modulus (GPa) = 44.07773 62.43881 53.25827
# Shear Modulus (GPa) = 16.36778 18.69431 17.53104
#
# Velocity S-wave (km/s) = 3.26006 3.48406 3.37392
# Velocity P-wave (km/s) = 6.54151 7.53179 7.05405
#
# Compressibility (1/GPa) = 0.02268719
#
# Stress axis : x y z
#
# Youngs Moduli (GPa) = 49.64857 31.14242 75.11804
#
# Poissons Ratio (x) = 0.15991 0.48986
# Poissons Ratio (y) = 0.25494 0.73485
# Poissons Ratio (z) = 0.32377 0.30465
#
# Static dielectric constant tensor:
#      x y z
#    x 3.045280 0.000000 0.000000 
#    y 0.000000 2.925890 0.000000 
#    z 0.000000 0.000000 2.984840 
# 
# 
# High freq. dielectric constant tensor:
#      x y z
#    x 1.577450 0.000000 0.000000 
#    y 0.000000 1.582160 0.000000 
#    z 0.000000 0.000000 1.579480 
# 
# From -- ./inp_files/25028.got.cif
#   From: 2010.03.12/outbox.cif.g09.slc.cpg/sg38_13_cif.got.tgz:25028.got - 2010.04.14 02:38:36.
