data_PCOD8177636
_publ_section_title
;
Structure prediction by ZEFSAII (Michael W. Deem and Ramdas Pophale) SiO2 
 PCOD8177636
Probable space group: A M M 2
;
_chemical_formula_sum "Si O2"
_cell_formula_units_Z 64
_cell_length_a 19.650731
_cell_length_b 8.610772
_cell_length_c 20.310591
_cell_angle_alpha 90.000000
_cell_angle_beta 90.000000
_cell_angle_gamma 90.000000
_cell_volume 3436.713756
_symmetry_space_group_name_H-M "A M M 2"
_symmetry_group_IT_number 38
_symmetry_cell_setting 'orthorhombic'
loop_
_space_group_symop_operation_xyz
x,y,z
-x,-y,z
-x,y,z
x,-y,z
x,1/2+y,1/2+z
-x,1/2-y,1/2+z
-x,1/2+y,1/2+z
x,1/2-y,1/2+z
loop_
_atom_site_type_symbol
_atom_site_label
_atom_site_fract_x
_atom_site_fract_y
_atom_site_fract_z
Si Si1 0.291916 0.182465 0.497090
Si Si2 0.573744 0.178839 0.011876
Si Si3 0.144178 0.181914 0.708341
Si Si4 0.078311 0.321667 0.585404
Si Si5 0.282986 0.684688 0.147219
Si Si6 0.842727 0.318219 0.456147
Si Si7 0.428180 0.682020 0.153184
Si Si8 0.921548 0.319009 0.835749
O O1 0.361604 0.262279 0.469251
O O2 0.276975 0.243237 0.571650
O O3 0.229883 0.233181 0.450359
O O4 0.301257 0.000000 0.493423
O O5 0.500000 0.198513 0.975211
O O6 0.572828 0.286718 0.075797
O O7 0.584246 0.000000 0.032148
O O8 0.095077 0.212011 0.646756
O O9 0.219821 0.245088 0.690236
O O10 0.118821 0.279777 0.769753
O O11 0.143836 0.000000 0.725567
O O12 0.095302 0.500000 0.603493
O O13 0.120682 0.262946 0.522829
O O14 0.000000 0.301943 0.566611
O O15 0.281552 0.500000 0.145671
O O16 0.354990 0.744855 0.180229
O O17 0.829767 0.500000 0.456248
O O18 0.890155 0.276470 0.395312
O O19 0.500000 0.753454 0.182790
O O20 0.430416 0.500000 0.165369
O O21 0.914487 0.500000 0.851036
O O22 0.000000 0.269763 0.826876
#
# Coordination Sequence:
#
# PCOD8177636 Si02
#       8
#     8   8   8   8   8   8   8   8
#     4  10  18  31  50  74 107 142 178 218 264 319
#     4   9  16  25  39  65 102 140 178 219 262 308
#     4  11  21  35  55  79 107 139 177 219 265 317
#     4  10  21  36  54  78 107 135 167 211 264 324
#     4   8  15  27  45  72 104 135 170 213 256 305
#     4  11  22  37  58  82 107 137 175 220 273 327
#     4   8  13  23  40  63  95 136 175 210 255 310
#     4  11  25  43  59  76 103 138 178 225 275 327
#
# _framework density 18.622440000000001
#
# number of rings (size 3 to 8) (size 9 to 14) (size 15 to 20)
#    0.000    2.250    1.250    3.375    0.000    4.500 
#    0.000    0.625    0.000    0.000    0.000    0.875 
#    0.000    5.000    0.000    0.000    0.000    0.000 
#
# Total GULP energy -396525.592479 kJ/mol
# GULP energy per Si atom -12391.424765 kJ/mol
# Density = 1.858005 g / cm^3
# Si number density = 18.622440 Si / 1000 Ang^3
#
#
#
# Elastic Constant Matrix: (Units=GPa)
#
#
# Indices 1 2 3 4 5 6 
#
# 1 146.9729 35.9157 21.0528 0.0000 0.0000 0.0000
# 2 35.9157 33.7004 14.9693 0.0000 0.0000 0.0000
# 3 21.0528 14.9693 54.3157 0.0000 0.0000 0.0000
# 4 0.0000 0.0000 0.0000 21.7936 0.0000 0.0000
# 5 0.0000 0.0000 0.0000 0.0000 18.7488 0.0000
# 6 0.0000 0.0000 0.0000 0.0000 0.0000 27.7477
#
#
#
# Elastic Compliance Matrix: (Units=1/GPa)
#
#
# Indices 1 2 3 4 5 6 
#
# 1 0.009246 -0.009415 -0.000989 0.000000 0.000000 0.000000
# 2 -0.009415 0.043399 -0.008311 0.000000 0.000000 0.000000
# 3 -0.000989 -0.008311 0.021085 0.000000 0.000000 0.000000
# 4 0.000000 0.000000 0.000000 0.045885 0.000000 0.000000
# 5 0.000000 0.000000 0.000000 0.000000 0.053337 0.000000
# 6 0.000000 0.000000 0.000000 0.000000 0.000000 0.036039
#
#
# Mechanical properties :
#
#
# Convention : Reuss Voigt Hill
#
# Bulk Modulus (GPa) = 27.54883 42.09607 34.82245
# Shear Modulus (GPa) = 19.34076 24.52810 21.93443
#
# Velocity S-wave (km/s) = 3.22619 3.63316 3.43570
# Velocity P-wave (km/s) = 5.35753 6.34460 5.87184
#
# Compressibility (1/GPa) = 0.03629918
#
# Stress axis : x y z
#
# Youngs Moduli (GPa) = 108.15074 23.04214 47.42725
#
# Poissons Ratio (x) = 0.21694 0.04691
# Poissons Ratio (y) = 1.01821 0.39419
# Poissons Ratio (z) = 0.10698 0.19151
#
# Static dielectric constant tensor:
#      x y z
#    x 4.217790 0.000000 0.000000 
#    y 0.000000 3.287540 0.000000 
#    z 0.000000 0.000000 3.072680 
# 
# 
# High freq. dielectric constant tensor:
#      x y z
#    x 1.756910 0.000000 0.000000 
#    y 0.000000 1.715830 0.000000 
#    z 0.000000 0.000000 1.659490 
# 
# From -- ./inp_files/18950.got.cif
#   From: 2010.03.12/outbox.cif.g09.slc.cpg/sg38_10_cif.got.tgz:18950.got - 2010.04.14 02:38:36.
