data_PCOD8177352
_publ_section_title
;
Structure prediction by ZEFSAII (Michael W. Deem and Ramdas Pophale) SiO2 
 PCOD8177352
Probable space group: A M M 2
;
_chemical_formula_sum "Si O2"
_cell_formula_units_Z 64
_cell_length_a 8.600218
_cell_length_b 26.794854
_cell_length_c 18.555300
_cell_angle_alpha 90.000000
_cell_angle_beta 90.000000
_cell_angle_gamma 90.000000
_cell_volume 4275.912755
_symmetry_space_group_name_H-M "A M M 2"
_symmetry_group_IT_number 38
_symmetry_cell_setting 'orthorhombic'
loop_
_space_group_symop_operation_xyz
x,y,z
-x,-y,z
-x,y,z
x,-y,z
x,1/2+y,1/2+z
-x,1/2-y,1/2+z
-x,1/2+y,1/2+z
x,1/2-y,1/2+z
loop_
_atom_site_type_symbol
_atom_site_label
_atom_site_fract_x
_atom_site_fract_y
_atom_site_fract_z
Si Si1 0.683970 0.851133 0.897890
Si Si2 0.683129 0.443931 0.310089
Si Si3 0.683001 0.247021 0.816537
Si Si4 0.818011 0.246433 0.660511
Si Si5 0.815722 0.945061 0.655855
Si Si6 0.819086 0.350768 0.075825
Si Si7 0.181061 0.289858 0.946217
Si Si8 0.680043 0.202352 0.033674
O O1 0.500000 0.849325 0.893237
O O2 0.745420 0.904619 0.869639
O O3 0.746313 0.806359 0.846349
O O4 0.733368 0.844109 0.982187
O O5 0.500000 0.438588 0.297651
O O6 0.726479 0.500000 0.335623
O O7 0.766997 0.430133 0.236052
O O8 0.500000 0.252607 0.825311
O O9 0.727308 0.254286 0.734100
O O10 0.766988 0.291569 0.862630
O O11 0.754603 0.195755 0.622851
O O12 0.780002 0.292949 0.606933
O O13 0.000000 0.244998 0.676064
O O14 0.744574 0.903407 0.601303
O O15 0.000000 0.946585 0.651436
O O16 0.748197 0.000000 0.635664
O O17 0.000000 0.353473 0.092809
O O18 0.789423 0.341702 0.990158
O O19 0.000000 0.274636 0.954452
O O20 0.293270 0.249918 0.983151
O O21 0.500000 0.198311 0.055239
#
# Coordination Sequence:
#
# PCOD8177352 Si02
#       8
#     8   8   8   8   8   8   8   8
#     4   8  15  26  39  55  75 101 130 158 187 221
#     4   9  16  26  39  55  76 101 129 159 188 217
#     4  10  18  27  39  56  78 102 130 159 190 227
#     4  10  18  27  39  56  78 102 130 159 190 227
#     4   9  16  26  39  55  76 101 129 159 188 217
#     4   8  15  26  39  55  75 101 130 158 187 221
#     4   9  16  27  40  54  75 100 128 160 192 226
#     4   9  16  27  40  54  75 100 128 160 192 226
#
# _framework density 14.967563999999999
#
# number of rings (size 3 to 8) (size 9 to 14) (size 15 to 20)
#    0.000    3.000    0.000    3.750    0.000    0.000 
#    0.000    6.250    0.000    0.000    0.000    0.000 
#    0.000    1.000    0.000    1.750    0.000    2.500 
#
# Total GULP energy -396434.012485 kJ/mol
# GULP energy per Si atom -12388.562890 kJ/mol
# Density = 1.493350 g / cm^3
# Si number density = 14.967564 Si / 1000 Ang^3
#
#
#
# Elastic Constant Matrix: (Units=GPa)
#
#
# Indices 1 2 3 4 5 6 
#
# 1 25.9521 15.5853 13.4787 0.0000 0.0000 0.0000
# 2 15.5853 90.8492 62.5773 0.0000 0.0000 0.0000
# 3 13.4787 62.5773 107.4508 0.0000 0.0000 0.0000
# 4 0.0000 0.0000 0.0000 28.3738 0.0000 0.0000
# 5 0.0000 0.0000 0.0000 0.0000 23.5053 0.0000
# 6 0.0000 0.0000 0.0000 0.0000 0.0000 11.3335
#
#
#
# Elastic Compliance Matrix: (Units=1/GPa)
#
#
# Indices 1 2 3 4 5 6 
#
# 1 0.043175 -0.006139 -0.001841 0.000000 0.000000 0.000000
# 2 -0.006139 0.019253 -0.010443 0.000000 0.000000 0.000000
# 3 -0.001841 -0.010443 0.015619 0.000000 0.000000 0.000000
# 4 0.000000 0.000000 0.000000 0.035244 0.000000 0.000000
# 5 0.000000 0.000000 0.000000 0.000000 0.042544 0.000000
# 6 0.000000 0.000000 0.000000 0.000000 0.000000 0.088234
#
#
# Mechanical properties :
#
#
# Convention : Reuss Voigt Hill
#
# Bulk Modulus (GPa) = 24.27006 45.28162 34.77584
# Shear Modulus (GPa) = 16.96940 21.48324 19.22632
#
# Velocity S-wave (km/s) = 3.37077 3.79267 3.58793
# Velocity P-wave (km/s) = 5.60355 7.03548 6.35994
#
# Compressibility (1/GPa) = 0.04120303
#
# Stress axis : x y z
#
# Youngs Moduli (GPa) = 23.16146 51.93895 64.02391
#
# Poissons Ratio (x) = 0.31884 0.11786
# Poissons Ratio (y) = 0.14218 0.66859
# Poissons Ratio (z) = 0.04264 0.54239
#
# Static dielectric constant tensor:
#      x y z
#    x 2.753090 0.000000 0.000000 
#    y 0.000000 3.106560 0.000000 
#    z 0.000000 0.000000 3.063020 
# 
# 
# High freq. dielectric constant tensor:
#      x y z
#    x 1.565130 0.000000 0.000000 
#    y 0.000000 1.538360 0.000000 
#    z 0.000000 0.000000 1.565250 
# 
# From -- ./inp_files/17326.got.cif
#   From: 2010.03.12/outbox.cif.g09.slc.cpg/sg38_9_cif.got.tgz:17326.got - 2010.04.14 02:38:36.
