data_PCOD8177377
_publ_section_title
;
Structure prediction by ZEFSAII (Michael W. Deem and Ramdas Pophale) SiO2 
 PCOD8177377
Probable space group: A M M 2
;
_chemical_formula_sum "Si O2"
_cell_formula_units_Z 64
_cell_length_a 8.942651
_cell_length_b 18.502213
_cell_length_c 26.650103
_cell_angle_alpha 90.000000
_cell_angle_beta 90.000000
_cell_angle_gamma 90.000000
_cell_volume 4409.494957
_symmetry_space_group_name_H-M "A M M 2"
_symmetry_group_IT_number 38
_symmetry_cell_setting 'orthorhombic'
loop_
_space_group_symop_operation_xyz
x,y,z
-x,-y,z
-x,y,z
x,-y,z
x,1/2+y,1/2+z
-x,1/2-y,1/2+z
-x,1/2+y,1/2+z
x,1/2-y,1/2+z
loop_
_atom_site_type_symbol
_atom_site_label
_atom_site_fract_x
_atom_site_fract_y
_atom_site_fract_z
Si Si1 0.163659 0.711257 0.470240
Si Si2 0.835101 0.200292 0.368306
Si Si3 0.825852 0.083679 0.717037
Si Si4 0.179032 0.849516 0.519143
Si Si5 0.673319 0.415777 0.114233
Si Si6 0.179746 0.919491 0.913690
Si Si7 0.672440 0.417297 0.924906
Si Si8 0.177944 0.838883 0.816173
O O1 0.149080 0.752269 0.417790
O O2 0.242361 0.767485 0.508652
O O3 0.243200 0.634097 0.458021
O O4 0.000000 0.694174 0.492200
O O5 0.727946 0.132029 0.378375
O O6 0.770766 0.255254 0.325509
O O7 0.000000 0.171269 0.353023
O O8 0.732274 0.107420 0.668592
O O9 0.763455 0.132265 0.762760
O O10 0.000000 0.098065 0.706272
O O11 0.798341 0.000000 0.730570
O O12 0.234344 0.871777 0.573440
O O13 0.239146 0.903280 0.476450
O O14 0.000000 0.851201 0.516553
O O15 0.500000 0.396041 0.109753
O O16 0.702685 0.500000 0.104804
O O17 0.239430 0.892002 0.859770
O O18 0.000000 0.917270 0.914301
O O19 0.240797 0.000000 0.923670
O O20 0.500000 0.400024 0.935358
O O21 0.697459 0.500000 0.908899
O O22 0.000000 0.842163 0.817061
#
# Coordination Sequence:
#
# PCOD8177377 Si02
#       8
#     8   8   8   8   8   8   8   8
#     4   7  12  21  32  50  74  97 122 152 183 216
#     4   8  14  25  39  54  75 102 129 157 187 221
#     4   9  16  26  41  60  80 103 132 162 191 225
#     4  10  18  28  42  56  73 100 132 163 195 232
#     4  10  20  31  40  53  76 102 129 164 199 228
#     4   8  11  16  30  53  80 105 124 145 178 218
#     4  10  19  28  38  55  79 103 128 160 194 228
#     4   8  13  22  37  57  79 102 130 161 187 212
#
# _framework density 14.514134
#
# number of rings (size 3 to 8) (size 9 to 14) (size 15 to 20)
#    0.000    3.250    0.000    4.125    0.000    4.750 
#    0.000    0.625    0.000    0.000    0.000    0.000 
#    0.000   42.500    0.000    7.500    0.000    3.000 
#
# Total GULP energy -396421.604177 kJ/mol
# GULP energy per Si atom -12388.175131 kJ/mol
# Density = 1.448110 g / cm^3
# Si number density = 14.514134 Si / 1000 Ang^3
#
#
#
# Elastic Constant Matrix: (Units=GPa)
#
#
# Indices 1 2 3 4 5 6 
#
# 1 44.7977 35.2413 28.3953 0.0000 0.0000 0.0000
# 2 35.2413 108.5719 58.0558 0.0000 0.0000 0.0000
# 3 28.3953 58.0558 82.3928 0.0000 0.0000 0.0000
# 4 0.0000 0.0000 0.0000 26.8445 0.0000 0.0000
# 5 0.0000 0.0000 0.0000 0.0000 9.8474 0.0000
# 6 0.0000 0.0000 0.0000 0.0000 0.0000 8.8675
#
#
#
# Elastic Compliance Matrix: (Units=1/GPa)
#
#
# Indices 1 2 3 4 5 6 
#
# 1 0.031663 -0.007128 -0.005889 0.000000 0.000000 0.000000
# 2 -0.007128 0.016384 -0.009088 0.000000 0.000000 0.000000
# 3 -0.005889 -0.009088 0.020570 0.000000 0.000000 0.000000
# 4 0.000000 0.000000 0.000000 0.037252 0.000000 0.000000
# 5 0.000000 0.000000 0.000000 0.000000 0.101550 0.000000
# 6 0.000000 0.000000 0.000000 0.000000 0.000000 0.112771
#
#
# Mechanical properties :
#
#
# Convention : Reuss Voigt Hill
#
# Bulk Modulus (GPa) = 40.97325 53.23857 47.10591
# Shear Modulus (GPa) = 13.42155 16.71657 15.06906
#
# Velocity S-wave (km/s) = 3.04422 3.39742 3.22566
# Velocity P-wave (km/s) = 6.37555 7.22150 6.81167
#
# Compressibility (1/GPa) = 0.02440617
#
# Stress axis : x y z
#
# Youngs Moduli (GPa) = 31.58231 61.03661 48.61454
#
# Poissons Ratio (x) = 0.43509 0.28631
# Poissons Ratio (y) = 0.22513 0.44179
# Poissons Ratio (z) = 0.18600 0.55468
#
# Static dielectric constant tensor:
#      x y z
#    x 2.604740 0.000000 0.000000 
#    y 0.000000 3.109520 0.000000 
#    z 0.000000 0.000000 2.771380 
# 
# 
# High freq. dielectric constant tensor:
#      x y z
#    x 1.529350 0.000000 0.000000 
#    y 0.000000 1.548890 0.000000 
#    z 0.000000 0.000000 1.524640 
# 
# From -- ./inp_files/23637.got.cif
#   From: 2010.03.12/outbox.cif.g09.slc.cpg/sg38_12_cif.got.tgz:23637.got - 2010.04.14 02:38:36.
