data_PCOD8177383
_publ_section_title
;
Structure prediction by ZEFSAII (Michael W. Deem and Ramdas Pophale) SiO2 
 PCOD8177383
Probable space group: A M M 2
;
_chemical_formula_sum "Si O2"
_cell_formula_units_Z 56
_cell_length_a 8.591508
_cell_length_b 18.481157
_cell_length_c 21.219117
_cell_angle_alpha 90.000000
_cell_angle_beta 90.000000
_cell_angle_gamma 90.000000
_cell_volume 3369.192791
_symmetry_space_group_name_H-M "A M M 2"
_symmetry_group_IT_number 38
_symmetry_cell_setting 'orthorhombic'
loop_
_space_group_symop_operation_xyz
x,y,z
-x,-y,z
-x,y,z
x,-y,z
x,1/2+y,1/2+z
-x,1/2-y,1/2+z
-x,1/2+y,1/2+z
x,1/2-y,1/2+z
loop_
_atom_site_type_symbol
_atom_site_label
_atom_site_fract_x
_atom_site_fract_y
_atom_site_fract_z
Si Si1 0.183879 0.845208 0.588520
Si Si2 0.316316 0.917836 0.464522
Si Si3 0.319104 0.787157 0.032319
Si Si4 0.814512 0.082089 0.716167
Si Si5 0.184410 0.581924 0.471359
Si Si6 0.819088 0.151054 0.842407
Si Si7 0.819260 0.713305 0.912846
O O1 0.261574 0.890961 0.532739
O O2 0.232937 0.760503 0.585963
O O3 0.247017 0.877296 0.654156
O O4 0.000000 0.853045 0.582409
O O5 0.500000 0.910304 0.459650
O O6 0.236645 0.870071 0.408184
O O7 0.261491 0.000000 0.454394
O O8 0.500000 0.789322 0.048020
O O9 0.254126 0.869030 0.027750
O O10 0.287309 0.747907 0.966496
O O11 0.742644 0.122643 0.777644
O O12 0.000000 0.084091 0.717268
O O13 0.752965 0.000000 0.715907
O O14 0.239498 0.500000 0.482644
O O15 0.248939 0.608809 0.403328
O O16 0.000000 0.589661 0.473256
O O17 0.792284 0.238259 0.849970
O O18 0.000000 0.132523 0.839025
O O19 0.000000 0.717265 0.933267
#
# Coordination Sequence:
#
# PCOD8177383 Si02
#       7
#     8   8   8   8   8   8   8
#     4  10  18  28  43  62  85 114 148 180 207 242
#     4  10  19  29  42  61  86 114 141 174 218 260
#     4  10  18  28  42  59  84 115 144 176 214 254
#     4   9  16  25  40  64  90 114 141 173 207 243
#     4   9  16  27  45  67  89 112 139 174 214 254
#     4   8  14  25  41  63  89 114 139 169 207 249
#     4   9  16  27  44  63  83 109 142 177 212 252
#
# _framework density 16.621191
#
# number of rings (size 3 to 8) (size 9 to 14) (size 15 to 20)
#    0.000    2.714    0.000    6.000    0.000    3.714 
#    0.000    0.000    0.000    8.571    0.000    1.000 
#    0.000    3.429    0.000    0.000    0.000    0.000 
#
# Total GULP energy -346966.517123 kJ/mol
# GULP energy per Si atom -12391.661326 kJ/mol
# Density = 1.658336 g / cm^3
# Si number density = 16.621191 Si / 1000 Ang^3
#
#
#
# Elastic Constant Matrix: (Units=GPa)
#
#
# Indices 1 2 3 4 5 6 
#
# 1 28.1704 24.6927 10.7318 0.0000 0.0000 0.0000
# 2 24.6927 163.4118 65.9363 0.0000 0.0000 0.0000
# 3 10.7318 65.9363 78.7085 0.0000 0.0000 0.0000
# 4 0.0000 0.0000 0.0000 30.1313 0.0000 0.0000
# 5 0.0000 0.0000 0.0000 0.0000 1.0333 0.0000
# 6 0.0000 0.0000 0.0000 0.0000 0.0000 21.4936
#
#
#
# Elastic Compliance Matrix: (Units=1/GPa)
#
#
# Indices 1 2 3 4 5 6 
#
# 1 0.040937 -0.005942 -0.000604 0.000000 0.000000 0.000000
# 2 -0.005942 0.010107 -0.007657 0.000000 0.000000 0.000000
# 3 -0.000604 -0.007657 0.019202 0.000000 0.000000 0.000000
# 4 0.000000 0.000000 0.000000 0.033188 0.000000 0.000000
# 5 0.000000 0.000000 0.000000 0.000000 0.967815 0.000000
# 6 0.000000 0.000000 0.000000 0.000000 0.000000 0.046525
#
#
# Mechanical properties :
#
#
# Convention : Reuss Voigt Hill
#
# Bulk Modulus (GPa) = 23.90044 52.55693 38.22869
# Shear Modulus (GPa) = 4.30988 21.79362 13.05175
#
# Velocity S-wave (km/s) = 1.61203 3.62497 2.80527
# Velocity P-wave (km/s) = 4.22795 7.01496 5.79160
#
# Compressibility (1/GPa) = 0.04184023
#
# Stress axis : x y z
#
# Youngs Moduli (GPa) = 24.42785 98.94290 52.07918
#
# Poissons Ratio (x) = 0.58795 0.03144
# Poissons Ratio (y) = 0.14516 0.39875
# Poissons Ratio (z) = 0.01475 0.75756
#
# Static dielectric constant tensor:
#      x y z
#    x 2.896690 0.000000 0.000000 
#    y 0.000000 3.622350 0.000000 
#    z 0.000000 0.000000 3.082760 
# 
# 
# High freq. dielectric constant tensor:
#      x y z
#    x 1.623410 0.000000 0.000000 
#    y 0.000000 1.650070 0.000000 
#    z 0.000000 0.000000 1.595690 
# 
# From -- ./inp_files/22237.got.cif
#   From: 2010.03.12/outbox.cif.g09.slc.cpg/sg38_12_cif.got.tgz:22237.got - 2010.04.14 02:38:36.
