data_PCOD8177895
_publ_section_title
;
Structure prediction by ZEFSAII (Michael W. Deem and Ramdas Pophale) SiO2 
 PCOD8177895
Probable space group: A M M 2
;
_chemical_formula_sum "Si O2"
_cell_formula_units_Z 56
_cell_length_a 14.259607
_cell_length_b 25.875719
_cell_length_c 9.481763
_cell_angle_alpha 90.000000
_cell_angle_beta 90.000000
_cell_angle_gamma 90.000000
_cell_volume 3498.558002
_symmetry_space_group_name_H-M "A M M 2"
_symmetry_group_IT_number 38
_symmetry_cell_setting 'orthorhombic'
loop_
_space_group_symop_operation_xyz
x,y,z
-x,-y,z
-x,y,z
x,-y,z
x,1/2+y,1/2+z
-x,1/2-y,1/2+z
-x,1/2+y,1/2+z
x,1/2-y,1/2+z
loop_
_atom_site_type_symbol
_atom_site_label
_atom_site_fract_x
_atom_site_fract_y
_atom_site_fract_z
Si Si1 0.893141 0.137729 0.701730
Si Si2 0.395565 0.720437 0.512179
Si Si3 0.209351 0.670888 0.467940
Si Si4 0.108549 0.280115 0.965926
Si Si5 0.109451 0.559401 0.962685
Si Si6 0.207230 0.637847 0.775967
Si Si7 0.395382 0.686200 0.819810
O O1 0.826387 0.137437 0.836947
O O2 0.878695 0.190278 0.613784
O O3 0.864961 0.088420 0.607497
O O4 0.000000 0.133133 0.753542
O O5 0.500000 0.701825 0.467683
O O6 0.320355 0.680711 0.447274
O O7 0.384551 0.722402 0.681344
O O8 0.376901 0.778192 0.455991
O O9 0.156405 0.725088 0.479348
O O10 0.191134 0.637835 0.608569
O O11 0.154151 0.312803 0.840201
O O12 0.000000 0.272457 0.927803
O O13 0.137977 0.500000 0.978669
O O14 0.167401 0.584045 0.834230
O O15 0.000000 0.566900 0.928368
O O16 0.317940 0.641062 0.815329
O O17 0.500000 0.661539 0.825572
#
# Coordination Sequence:
#
# PCOD8177895 Si02
#       7
#     8   8   8   8   8   8   8
#     4   9  19  31  45  66  91 122 158 187 224 276
#     4   9  18  29  42  63  94 131 162 185 216 261
#     4  11  19  27  44  69  99 124 150 190 224 264
#     4  10  19  29  41  62  97 133 156 177 216 271
#     4   9  19  37  55  67  86 118 154 194 238 282
#     4  10  19  30  47  70  92 121 158 190 226 273
#     4   9  17  29  44  65  94 126 158 190 222 261
#
# _framework density 16.006595000000001
#
# number of rings (size 3 to 8) (size 9 to 14) (size 15 to 20)
#    0.000    2.429    1.429    2.571    2.000    3.429 
#    0.000    0.714    0.000    2.143    0.000    0.000 
#    0.000    1.143    0.000    0.000    0.000    0.000 
#
# Total GULP energy -347189.394176 kJ/mol
# GULP energy per Si atom -12399.621221 kJ/mol
# Density = 1.597016 g / cm^3
# Si number density = 16.006595 Si / 1000 Ang^3
#
#
#
# Elastic Constant Matrix: (Units=GPa)
#
#
# Indices 1 2 3 4 5 6 
#
# 1 95.6965 40.5207 48.9118 0.0000 0.0000 0.0000
# 2 40.5207 91.5126 39.5819 0.0000 0.0000 0.0000
# 3 48.9118 39.5819 80.5619 0.0000 0.0000 0.0000
# 4 0.0000 0.0000 0.0000 11.4445 0.0000 0.0000
# 5 0.0000 0.0000 0.0000 0.0000 25.1596 0.0000
# 6 0.0000 0.0000 0.0000 0.0000 0.0000 15.7637
#
#
#
# Elastic Compliance Matrix: (Units=1/GPa)
#
#
# Indices 1 2 3 4 5 6 
#
# 1 0.016070 -0.003677 -0.007950 0.000000 0.000000 0.000000
# 2 -0.003677 0.014718 -0.004999 0.000000 0.000000 0.000000
# 3 -0.007950 -0.004999 0.019696 0.000000 0.000000 0.000000
# 4 0.000000 0.000000 0.000000 0.087378 0.000000 0.000000
# 5 0.000000 0.000000 0.000000 0.000000 0.039746 0.000000
# 6 0.000000 0.000000 0.000000 0.000000 0.000000 0.063437
#
#
# Mechanical properties :
#
#
# Convention : Reuss Voigt Hill
#
# Bulk Modulus (GPa) = 58.03246 58.42219 58.22733
# Shear Modulus (GPa) = 17.85456 19.72398 18.78927
#
# Velocity S-wave (km/s) = 3.34346 3.51414 3.42986
# Velocity P-wave (km/s) = 7.15814 7.28310 7.22089
#
# Compressibility (1/GPa) = 0.01723173
#
# Stress axis : x y z
#
# Youngs Moduli (GPa) = 62.22758 67.94553 50.77291
#
# Poissons Ratio (x) = 0.24983 0.40365
# Poissons Ratio (y) = 0.22881 0.25380
# Poissons Ratio (z) = 0.49471 0.33964
#
# Static dielectric constant tensor:
#      x y z
#    x 3.310940 0.000000 0.000000 
#    y 0.000000 2.681560 0.000000 
#    z 0.000000 0.000000 3.098410 
# 
# 
# High freq. dielectric constant tensor:
#      x y z
#    x 1.626930 0.000000 0.000000 
#    y 0.000000 1.563470 0.000000 
#    z 0.000000 0.000000 1.620350 
# 
# From -- ./inp_files/5961.got.cif
#   From: 2010.03.12/outbox.cif.g09.slc.cpg/sg38_3_cif.got.tgz:5961.got - 2010.04.14 02:38:36.
