data_PCOD8177269
_publ_section_title
;
Structure prediction by ZEFSAII (Michael W. Deem and Ramdas Pophale) SiO2 
 PCOD8177269
Probable space group: A M M 2
;
_chemical_formula_sum "Si O2"
_cell_formula_units_Z 64
_cell_length_a 9.060677
_cell_length_b 27.903490
_cell_length_c 14.712271
_cell_angle_alpha 90.000000
_cell_angle_beta 90.000000
_cell_angle_gamma 90.000000
_cell_volume 3719.622707
_symmetry_space_group_name_H-M "A M M 2"
_symmetry_group_IT_number 38
_symmetry_cell_setting 'orthorhombic'
loop_
_space_group_symop_operation_xyz
x,y,z
-x,-y,z
-x,y,z
x,-y,z
x,1/2+y,1/2+z
-x,1/2-y,1/2+z
-x,1/2+y,1/2+z
x,1/2-y,1/2+z
loop_
_atom_site_type_symbol
_atom_site_label
_atom_site_fract_x
_atom_site_fract_y
_atom_site_fract_z
Si Si1 0.324943 0.867100 0.650770
Si Si2 0.824709 0.861094 0.093282
Si Si3 0.175545 0.946920 0.968202
Si Si4 0.675695 0.673038 0.764907
Si Si5 0.327648 0.218226 0.976999
Si Si6 0.325883 0.825571 0.465951
Si Si7 0.671855 0.219050 0.770138
Si Si8 0.830983 0.555671 0.264894
O O1 0.500000 0.868666 0.660691
O O2 0.276937 0.862435 0.544806
O O3 0.257952 0.821220 0.704719
O O4 0.261513 0.915920 0.690215
O O5 0.756308 0.861983 0.194165
O O6 0.770168 0.814148 0.041858
O O7 0.000000 0.860976 0.099356
O O8 0.765434 0.908174 0.040306
O O9 0.230851 0.933719 0.866463
O O10 0.000000 0.947643 0.965738
O O11 0.233782 0.000000 0.995744
O O12 0.500000 0.668695 0.753115
O O13 0.728199 0.657184 0.866435
O O14 0.732815 0.727690 0.749081
O O15 0.500000 0.212404 0.002906
O O16 0.269592 0.272362 0.990895
O O17 0.297524 0.202993 0.873254
O O18 0.500000 0.820473 0.459734
O O19 0.500000 0.221947 0.750859
O O20 0.813547 0.500000 0.241745
O O21 0.000000 0.572035 0.257618
#
# Coordination Sequence:
#
# PCOD8177269 Si02
#       8
#     8   8   8   8   8   8   8   8
#     4  10  17  27  46  71  94 114 146 190 228 259
#     4  11  20  28  44  71  94 114 150 194 230 263
#     4   8  16  32  50  65  87 120 150 177 218 275
#     4   9  17  32  49  63  88 127 161 184 215 261
#     4   9  16  29  47  66  92 125 154 177 213 266
#     4   8  16  30  48  67  88 122 162 188 210 258
#     4   8  15  27  46  70  92 118 152 184 213 260
#     4   9  18  33  50  67  89 118 149 178 217 275
#
# _framework density 17.206047000000002
#
# number of rings (size 3 to 8) (size 9 to 14) (size 15 to 20)
#    0.000    3.000    0.000    4.125    0.000    2.250 
#    0.000    6.250    0.000    3.750    0.000    3.500 
#    0.000    0.000    0.000    0.000    0.000    0.000 
#
# Total GULP energy -396615.356212 kJ/mol
# GULP energy per Si atom -12394.229882 kJ/mol
# Density = 1.716688 g / cm^3
# Si number density = 17.206047 Si / 1000 Ang^3
#
#
#
# Elastic Constant Matrix: (Units=GPa)
#
#
# Indices 1 2 3 4 5 6 
#
# 1 33.2330 25.7171 36.1850 0.0000 0.0000 0.0000
# 2 25.7171 83.8135 77.0861 0.0000 0.0000 0.0000
# 3 36.1850 77.0861 139.4253 0.0000 0.0000 0.0000
# 4 0.0000 0.0000 0.0000 31.8170 0.0000 0.0000
# 5 0.0000 0.0000 0.0000 0.0000 21.3582 0.0000
# 6 0.0000 0.0000 0.0000 0.0000 0.0000 21.9661
#
#
#
# Elastic Compliance Matrix: (Units=1/GPa)
#
#
# Indices 1 2 3 4 5 6 
#
# 1 0.043384 -0.006015 -0.007934 0.000000 0.000000 0.000000
# 2 -0.006015 0.025109 -0.012322 0.000000 0.000000 0.000000
# 3 -0.007934 -0.012322 0.016044 0.000000 0.000000 0.000000
# 4 0.000000 0.000000 0.000000 0.031430 0.000000 0.000000
# 5 0.000000 0.000000 0.000000 0.000000 0.046820 0.000000
# 6 0.000000 0.000000 0.000000 0.000000 0.000000 0.045525
#
#
# Mechanical properties :
#
#
# Convention : Reuss Voigt Hill
#
# Bulk Modulus (GPa) = 31.25345 59.38315 45.31830
# Shear Modulus (GPa) = 18.41502 22.86051 20.63776
#
# Velocity S-wave (km/s) = 3.27504 3.64899 3.46706
# Velocity P-wave (km/s) = 5.70130 7.23474 6.51330
#
# Compressibility (1/GPa) = 0.03199647
#
# Stress axis : x y z
#
# Youngs Moduli (GPa) = 23.05018 39.82571 62.32925
#
# Poissons Ratio (x) = 0.23954 0.49452
# Poissons Ratio (y) = 0.13864 0.76800
# Poissons Ratio (z) = 0.18288 0.49072
#
# Static dielectric constant tensor:
#      x y z
#    x 2.795290 0.000000 0.000000 
#    y 0.000000 3.240580 0.000000 
#    z 0.000000 0.000000 3.492430 
# 
# 
# High freq. dielectric constant tensor:
#      x y z
#    x 1.622870 0.000000 0.000000 
#    y 0.000000 1.645560 0.000000 
#    z 0.000000 0.000000 1.672730 
# 
# From -- ./inp_files/13048.got.cif
#   From: 2010.03.12/outbox.cif.g09.slc.cpg/sg38_7_cif.got.tgz:13048.got - 2010.04.14 02:38:36.
