data_PCOD8177925
_publ_section_title
;
Structure prediction by ZEFSAII (Michael W. Deem and Ramdas Pophale) SiO2 
 PCOD8177925
Probable space group: A M M 2
;
_chemical_formula_sum "Si O2"
_cell_formula_units_Z 64
_cell_length_a 20.556934
_cell_length_b 9.313790
_cell_length_c 19.411915
_cell_angle_alpha 90.000000
_cell_angle_beta 90.000000
_cell_angle_gamma 90.000000
_cell_volume 3716.662828
_symmetry_space_group_name_H-M "A M M 2"
_symmetry_group_IT_number 38
_symmetry_cell_setting 'orthorhombic'
loop_
_space_group_symop_operation_xyz
x,y,z
-x,-y,z
-x,y,z
x,-y,z
x,1/2+y,1/2+z
-x,1/2-y,1/2+z
-x,1/2+y,1/2+z
x,1/2-y,1/2+z
loop_
_atom_site_type_symbol
_atom_site_label
_atom_site_fract_x
_atom_site_fract_y
_atom_site_fract_z
Si Si1 0.571393 0.330142 0.376740
Si Si2 0.679278 0.832085 0.618111
Si Si3 0.927885 0.838446 0.612571
Si Si4 0.193719 0.161951 0.113831
Si Si5 0.071722 0.160941 0.776444
Si Si6 0.191364 0.160744 0.277898
Si Si7 0.424002 0.665171 0.532580
Si Si8 0.316293 0.167256 0.778610
O O1 0.500000 0.264787 0.359795
O O2 0.566998 0.500000 0.370317
O O3 0.592105 0.289429 0.454236
O O4 0.623331 0.269730 0.322215
O O5 0.743599 0.752483 0.589733
O O6 0.615763 0.769613 0.581910
O O7 0.669606 0.803386 0.698888
O O8 0.686468 0.000000 0.601917
O O9 0.871877 0.733988 0.582840
O O10 0.924610 0.838398 0.694501
O O11 0.000000 0.786005 0.588771
O O12 0.915097 0.000000 0.585579
O O13 0.190073 0.161434 0.195793
O O14 0.199188 0.000000 0.085026
O O15 0.125713 0.267183 0.807659
O O16 0.000000 0.212312 0.800543
O O17 0.085479 0.000000 0.803310
O O18 0.252776 0.249799 0.304939
O O19 0.195588 0.000000 0.307124
O O20 0.500000 0.686958 0.548172
O O21 0.403939 0.500000 0.546065
O O22 0.304523 0.000000 0.793197
#
# Coordination Sequence:
#
# PCOD8177925 Si02
#       8
#     8   8   8   8   8   8   8   8
#     4   8  15  30  51  70  86 110 147 185 218 256
#     4  10  19  29  44  67  93 119 147 182 223 265
#     4   8  13  21  33  50  75 108 144 181 221 263
#     4   9  16  25  37  54  80 114 149 183 218 259
#     4   8  13  21  33  49  72 106 146 182 215 255
#     4   9  16  24  35  54  82 113 143 178 220 263
#     4   9  18  33  51  68  88 115 145 179 220 265
#     4   9  17  29  46  66  88 116 149 184 219 258
#
# _framework density 17.219750000000001
#
# number of rings (size 3 to 8) (size 9 to 14) (size 15 to 20)
#    0.000    3.250    0.000    2.625    0.000    4.750 
#    0.000    4.375    0.000    1.125    0.000    0.000 
#    0.000    1.000    0.000    5.750    0.000    7.500 
#
# Total GULP energy -396637.933643 kJ/mol
# GULP energy per Si atom -12394.935426 kJ/mol
# Density = 1.718056 g / cm^3
# Si number density = 17.219750 Si / 1000 Ang^3
#
#
#
# Elastic Constant Matrix: (Units=GPa)
#
#
# Indices 1 2 3 4 5 6 
#
# 1 152.9887 79.9076 44.2784 0.0000 0.0000 0.0000
# 2 79.9076 105.4715 30.3431 0.0000 0.0000 0.0000
# 3 44.2784 30.3431 31.1346 0.0000 0.0000 0.0000
# 4 0.0000 0.0000 0.0000 10.9592 0.0000 0.0000
# 5 0.0000 0.0000 0.0000 0.0000 1.9071 0.0000
# 6 0.0000 0.0000 0.0000 0.0000 0.0000 31.5886
#
#
#
# Elastic Compliance Matrix: (Units=1/GPa)
#
#
# Indices 1 2 3 4 5 6 
#
# 1 0.013847 -0.006705 -0.013157 0.000000 0.000000 0.000000
# 2 -0.006705 0.016422 -0.006469 0.000000 0.000000 0.000000
# 3 -0.013157 -0.006469 0.057135 0.000000 0.000000 0.000000
# 4 0.000000 0.000000 0.000000 0.091248 0.000000 0.000000
# 5 0.000000 0.000000 0.000000 0.000000 0.524365 0.000000
# 6 0.000000 0.000000 0.000000 0.000000 0.000000 0.031657
#
#
# Mechanical properties :
#
#
# Convention : Reuss Voigt Hill
#
# Bulk Modulus (GPa) = 28.78455 66.51699 47.65077
# Shear Modulus (GPa) = 6.25848 17.89535 12.07691
#
# Velocity S-wave (km/s) = 1.90850 3.22721 2.65116
# Velocity P-wave (km/s) = 4.64853 7.25250 6.09128
#
# Compressibility (1/GPa) = 0.03474086
#
# Stress axis : x y z
#
# Youngs Moduli (GPa) = 72.21904 60.89250 17.50250
#
# Poissons Ratio (x) = 0.40831 0.23029
# Poissons Ratio (y) = 0.48426 0.11322
# Poissons Ratio (z) = 0.95021 0.39390
#
# Static dielectric constant tensor:
#      x y z
#    x 3.629620 0.000000 0.000000 
#    y 0.000000 3.231700 0.000000 
#    z 0.000000 0.000000 2.688960 
# 
# 
# High freq. dielectric constant tensor:
#      x y z
#    x 1.681880 0.000000 0.000000 
#    y 0.000000 1.656940 0.000000 
#    z 0.000000 0.000000 1.598190 
# 
# From -- ./inp_files/21527.got.cif
#   From: 2010.03.12/outbox.cif.g09.slc.cpg/sg38_11_cif.got.tgz:21527.got - 2010.04.14 02:38:36.
