data_PCOD8177500
_publ_section_title
;
Structure prediction by ZEFSAII (Michael W. Deem and Ramdas Pophale) SiO2 
 PCOD8177500
Probable space group: A M M 2
;
_chemical_formula_sum "Si O2"
_cell_formula_units_Z 64
_cell_length_a 9.028023
_cell_length_b 14.336180
_cell_length_c 28.306088
_cell_angle_alpha 90.000000
_cell_angle_beta 90.000000
_cell_angle_gamma 90.000000
_cell_volume 3663.582320
_symmetry_space_group_name_H-M "A M M 2"
_symmetry_group_IT_number 38
_symmetry_cell_setting 'orthorhombic'
loop_
_space_group_symop_operation_xyz
x,y,z
-x,-y,z
-x,y,z
x,-y,z
x,1/2+y,1/2+z
-x,1/2-y,1/2+z
-x,1/2+y,1/2+z
x,1/2-y,1/2+z
loop_
_atom_site_type_symbol
_atom_site_label
_atom_site_fract_x
_atom_site_fract_y
_atom_site_fract_z
Si Si1 0.328373 0.895816 0.816330
Si Si2 0.173356 0.106943 0.184579
Si Si3 0.175085 0.601605 0.956540
Si Si4 0.325920 0.393377 0.586733
Si Si5 0.831491 0.890409 0.350906
Si Si6 0.175173 0.286642 0.503164
Si Si7 0.170344 0.108222 0.910774
Si Si8 0.327789 0.288951 0.768142
O O1 0.500000 0.900204 0.828549
O O2 0.250263 0.857571 0.863482
O O3 0.298151 0.822369 0.774190
O O4 0.270445 0.000000 0.802110
O O5 0.254438 0.133906 0.136402
O O6 0.231235 0.175622 0.224702
O O7 0.000000 0.123013 0.177495
O O8 0.207892 0.000000 0.198954
O O9 0.242347 0.500000 0.970572
O O10 0.219575 0.678109 0.995673
O O11 0.000000 0.592906 0.953624
O O12 0.226143 0.631885 0.903954
O O13 0.500000 0.378493 0.590663
O O14 0.285897 0.500000 0.573211
O O15 0.261099 0.323930 0.548155
O O16 0.719479 0.840303 0.315790
O O17 0.000000 0.854318 0.342988
O O18 0.825587 0.000000 0.341017
O O19 0.232815 0.340295 0.456821
O O20 0.000000 0.300986 0.510757
O O21 0.000000 0.133929 0.903899
O O22 0.198457 0.000000 0.919363
O O23 0.500000 0.309655 0.758382
#
# Coordination Sequence:
#
# PCOD8177500 Si02
#       8
#     8   8   8   8   8   8   8   8
#     4   9  19  34  48  65  95 134 170 201 236 279
#     4  10  21  37  56  76  98 124 153 188 234 289
#     4   8  15  28  46  69  97 130 168 206 239 272
#     4  10  21  36  53  74 100 126 152 189 238 289
#     4   9  17  30  48  70  98 132 167 200 236 282
#     4  10  18  29  49  73  97 128 164 201 240 283
#     4   9  17  28  44  69  98 127 163 205 243 280
#     4  11  21  31  48  73  99 128 161 199 242 285
#
# _framework density 17.469241
#
# number of rings (size 3 to 8) (size 9 to 14) (size 15 to 20)
#    0.000    2.500    0.000    3.375    0.000    6.250 
#    0.000    1.875    0.000    1.875    0.000    0.000 
#    0.000    0.000    0.000    0.000    0.000    0.000 
#
# Total GULP energy -396745.084991 kJ/mol
# GULP energy per Si atom -12398.283906 kJ/mol
# Density = 1.742948 g / cm^3
# Si number density = 17.469241 Si / 1000 Ang^3
#
#
#
# Elastic Constant Matrix: (Units=GPa)
#
#
# Indices 1 2 3 4 5 6 
#
# 1 54.4040 37.5540 43.1620 0.0000 0.0000 0.0000
# 2 37.5540 85.7323 74.1524 0.0000 0.0000 0.0000
# 3 43.1620 74.1524 114.7072 0.0000 0.0000 0.0000
# 4 0.0000 0.0000 0.0000 27.6707 0.0000 0.0000
# 5 0.0000 0.0000 0.0000 0.0000 -98.7162 0.0000
# 6 0.0000 0.0000 0.0000 0.0000 0.0000 20.9463
#
#
#
# Elastic Compliance Matrix: (Units=1/GPa)
#
#
# Indices 1 2 3 4 5 6 
#
# 1 0.028013 -0.007154 -0.005916 0.000000 0.000000 0.000000
# 2 -0.007154 0.028284 -0.015593 0.000000 0.000000 0.000000
# 3 -0.005916 -0.015593 0.021024 0.000000 0.000000 0.000000
# 4 0.000000 0.000000 0.000000 0.036139 0.000000 0.000000
# 5 0.000000 0.000000 0.000000 0.000000 -0.010130 0.000000
# 6 0.000000 0.000000 0.000000 0.000000 0.000000 0.047741
#
#
# Mechanical properties :
#
#
# Convention : Reuss Voigt Hill
#
# Bulk Modulus (GPa) = 50.00985 62.73113 56.37049
# Shear Modulus (GPa) = 23.24921 -3.35484 9.94718
#
# Velocity S-wave (km/s) = 3.65206 -1.38730 2.38882
# Velocity P-wave (km/s) = 6.81710 5.78112 6.32037
#
# Compressibility (1/GPa) = 0.01999606
#
# Stress axis : x y z
#
# Youngs Moduli (GPa) = 35.69816 35.35542 47.56510
#
# Poissons Ratio (x) = 0.25292 0.28141
# Poissons Ratio (y) = 0.25537 0.74166
# Poissons Ratio (z) = 0.21120 0.55128
#
# Static dielectric constant tensor:
#      x y z
#    x 3.185300 0.000000 0.000000 
#    y 0.000000 3.616030 0.000000 
#    z 0.000000 0.000000 3.179300 
# 
# 
# High freq. dielectric constant tensor:
#      x y z
#    x 1.663680 0.000000 0.000000 
#    y 0.000000 1.679120 0.000000 
#    z 0.000000 0.000000 1.657770 
# 
# From -- ./inp_files/22210.got.cif
#   From: 2010.03.12/outbox.cif.g09.slc.cpg/sg38_12_cif.got.tgz:22210.got - 2010.04.14 02:38:36.
