data_PCOD8177157
_publ_section_title
;
Structure prediction by ZEFSAII (Michael W. Deem and Ramdas Pophale) SiO2 
 PCOD8177157
Probable space group: C C C 2
;
_chemical_formula_sum "Si O2"
_cell_formula_units_Z 48
_cell_length_a 9.718551
_cell_length_b 9.718645
_cell_length_c 25.119309
_cell_angle_alpha 90.000000
_cell_angle_beta 90.000000
_cell_angle_gamma 90.000000
_cell_volume 2372.547549
_symmetry_space_group_name_H-M "C C C 2"
_symmetry_group_IT_number 37
_symmetry_cell_setting 'orthorhombic'
loop_
_space_group_symop_operation_xyz
x,y,z
-x,-y,z
-x,y,1/2+z
x,-y,1/2+z
1/2+x,1/2+y,z
1/2-x,1/2-y,z
1/2-x,1/2+y,1/2+z
1/2+x,1/2-y,1/2+z
loop_
_atom_site_type_symbol
_atom_site_label
_atom_site_fract_x
_atom_site_fract_y
_atom_site_fract_z
Si Si1 0.759215 0.407129 0.729810
Si Si2 0.500045 0.833018 0.481362
Si Si3 0.750000 0.250000 0.049416
Si Si4 0.407131 0.240795 0.869018
Si Si5 0.000000 0.000000 0.799410
Si Si6 0.000000 0.500000 0.799416
Si Si7 0.250000 0.750000 0.549416
Si Si8 0.166982 0.499956 0.617464
O O1 0.750000 0.250000 0.710660
O O2 0.625647 0.459436 0.761148
O O3 0.788610 0.503471 0.679043
O O4 0.893175 0.411197 0.766128
O O5 0.625221 0.757233 0.508957
O O6 0.503474 0.788567 0.419788
O O7 0.376295 0.756512 0.509735
O O8 0.500000 0.000000 0.488407
O O9 0.757219 0.374779 0.089876
O O10 0.250000 0.250000 0.888167
O O11 0.459433 0.374351 0.837672
O O12 0.411201 0.106821 0.832708
O O13 0.243507 0.623704 0.589097
O O14 0.000000 0.500000 0.610403
#
# Coordination Sequence:
#
# PCOD8177157 Si02
#       8
#     8   8   4   8   4   4   4   8
#     4  12  26  44  74 104 142 185 234 292 348 417
#     4  12  26  46  72 105 139 185 235 285 358 422
#     4  12  26  46  72 108 142 172 238 302 332 424
#     4  12  26  44  74 104 142 185 234 292 348 417
#     4  12  28  44  68 118 136 176 252 288 344 426
#     4  12  24  44  76  98 140 188 224 288 352 402
#     4  12  22  46  72  96 138 176 234 286 340 420
#     4  12  26  46  72 105 139 185 235 285 358 422
#
# _framework density 20.231417
#
# number of rings (size 3 to 8) (size 9 to 14) (size 15 to 20)
#    0.000    0.000   10.000    0.000    0.000    8.667 
#    0.000    0.000    0.000    0.000    0.000    0.000 
#    0.000    0.000    0.000    0.000    0.000    0.000 
#
# Total GULP energy -297500.757085 kJ/mol
# GULP energy per Si atom -12395.864879 kJ/mol
# Density = 2.018537 g / cm^3
# Si number density = 20.231417 Si / 1000 Ang^3
#
#
#
# Elastic Constant Matrix: (Units=GPa)
#
#
# Indices 1 2 3 4 5 6 
#
# 1 138.0634 57.5712 61.4266 0.0000 0.0000 0.0000
# 2 57.5712 138.0850 61.4377 0.0000 0.0000 0.0000
# 3 61.4266 61.4377 147.6039 0.0000 0.0000 0.0000
# 4 0.0000 0.0000 0.0000 10.9750 0.0000 0.0000
# 5 0.0000 0.0000 0.0000 0.0000 10.9629 0.0000
# 6 0.0000 0.0000 0.0000 0.0000 0.0000 32.3997
#
#
#
# Elastic Compliance Matrix: (Units=1/GPa)
#
#
# Indices 1 2 3 4 5 6 
#
# 1 0.009671 -0.002751 -0.002880 0.000000 0.000000 0.000000
# 2 -0.002751 0.009670 -0.002880 0.000000 0.000000 0.000000
# 3 -0.002880 -0.002880 0.009172 0.000000 0.000000 0.000000
# 4 0.000000 0.000000 0.000000 0.091116 0.000000 0.000000
# 5 0.000000 0.000000 0.000000 0.000000 0.091217 0.000000
# 6 0.000000 0.000000 0.000000 0.000000 0.000000 0.030865
#
#
# Mechanical properties :
#
#
# Convention : Reuss Voigt Hill
#
# Bulk Modulus (GPa) = 87.01782 87.18038 87.09910
# Shear Modulus (GPa) = 19.04296 27.08863 23.06579
#
# Velocity S-wave (km/s) = 3.07132 3.66312 3.38020
# Velocity P-wave (km/s) = 7.46203 7.81514 7.64063
#
# Compressibility (1/GPa) = 0.01149190
#
# Stress axis : x y z
#
# Youngs Moduli (GPa) = 103.39711 103.40841 109.02482
#
# Poissons Ratio (x) = 0.28447 0.31397
# Poissons Ratio (y) = 0.28444 0.31402
# Poissons Ratio (z) = 0.29776 0.29785
#
# Static dielectric constant tensor:
#      x y z
#    x 3.868780 0.000000 0.000000 
#    y 0.000000 3.866350 0.000000 
#    z 0.000000 0.000000 3.947360 
# 
# 
# High freq. dielectric constant tensor:
#      x y z
#    x 1.798330 0.000000 0.000000 
#    y 0.000000 1.798330 0.000000 
#    z 0.000000 0.000000 1.815770 
# 
# From -- ./inp_files/20389.got.cif
#   From: 2010.03.12/outbox.cif.g09.slc.cpg/sg37_11_cif.got.tgz:20389.got - 2010.04.14 02:25:27.
