data_PCOD8177989
_publ_section_title
;
Structure prediction by ZEFSAII (Michael W. Deem and Ramdas Pophale) SiO2 
 PCOD8177989
Probable space group: A M M 2
;
_chemical_formula_sum "Si O2"
_cell_formula_units_Z 48
_cell_length_a 9.206603
_cell_length_b 17.747256
_cell_length_c 17.803512
_cell_angle_alpha 90.000000
_cell_angle_beta 90.000000
_cell_angle_gamma 90.000000
_cell_volume 2908.950370
_symmetry_space_group_name_H-M "A M M 2"
_symmetry_group_IT_number 38
_symmetry_cell_setting 'orthorhombic'
loop_
_space_group_symop_operation_xyz
x,y,z
-x,-y,z
-x,y,z
x,-y,z
x,1/2+y,1/2+z
-x,1/2-y,1/2+z
-x,1/2+y,1/2+z
x,1/2-y,1/2+z
loop_
_atom_site_type_symbol
_atom_site_label
_atom_site_fract_x
_atom_site_fract_y
_atom_site_fract_z
Si Si1 0.169622 0.586284 0.021940
Si Si2 0.827428 0.705062 0.729600
Si Si3 0.336293 0.815164 0.629445
Si Si4 0.659992 0.309767 0.501412
Si Si5 0.169168 0.208014 0.401355
Si Si6 0.329570 0.413041 0.628692
O O1 0.206836 0.500000 0.003294
O O2 0.257141 0.610902 0.096450
O O3 0.000000 0.598032 0.038707
O O4 0.219019 0.635379 0.949736
O O5 0.754702 0.781926 0.699244
O O6 0.781928 0.695982 0.816185
O O7 0.766407 0.631206 0.688898
O O8 0.000000 0.709707 0.717877
O O9 0.500000 0.835893 0.655208
O O10 0.339113 0.753050 0.565358
O O11 0.500000 0.319500 0.466757
O O12 0.763694 0.285523 0.433608
O O13 0.710027 0.386456 0.543538
O O14 0.000000 0.220036 0.407356
O O15 0.500000 0.396796 0.644050
O O16 0.289811 0.500000 0.636453
#
# Coordination Sequence:
#
# PCOD8177989 Si02
#       6
#     8   8   8   8   8   8
#     4   9  17  30  48  69  94 123 152 185 228 273
#     4  10  19  30  46  69  95 122 154 189 225 268
#     4   9  17  30  47  66  89 119 157 194 225 264
#     4   8  15  28  46  65  85 115 154 190 222 262
#     4   9  18  30  45  67  94 122 151 186 226 269
#     4   9  18  32  48  68  95 123 150 184 228 274
#
# _framework density 16.500796999999999
#
# number of rings (size 3 to 8) (size 9 to 14) (size 15 to 20)
#    0.000    3.000    0.000    2.000    0.000    6.667 
#    0.000    1.667    0.000    1.000    0.000    4.667 
#    0.000    0.000    0.000    0.000    0.000    0.000 
#
# Total GULP energy -297502.691757 kJ/mol
# GULP energy per Si atom -12395.945490 kJ/mol
# Density = 1.646324 g / cm^3
# Si number density = 16.500797 Si / 1000 Ang^3
#
#
#
# Elastic Constant Matrix: (Units=GPa)
#
#
# Indices 1 2 3 4 5 6 
#
# 1 70.7268 43.0076 58.2010 0.0000 0.0000 0.0000
# 2 43.0076 64.9345 73.6684 0.0000 0.0000 0.0000
# 3 58.2010 73.6684 99.3554 0.0000 0.0000 0.0000
# 4 0.0000 0.0000 0.0000 18.2308 0.0000 0.0000
# 5 0.0000 0.0000 0.0000 0.0000 22.5013 0.0000
# 6 0.0000 0.0000 0.0000 0.0000 0.0000 24.3653
#
#
#
# Elastic Compliance Matrix: (Units=1/GPa)
#
#
# Indices 1 2 3 4 5 6 
#
# 1 0.027299 0.000387 -0.016279 0.000000 0.000000 0.000000
# 2 0.000387 0.096979 -0.072133 0.000000 0.000000 0.000000
# 3 -0.016279 -0.072133 0.073084 0.000000 0.000000 0.000000
# 4 0.000000 0.000000 0.000000 0.054852 0.000000 0.000000
# 5 0.000000 0.000000 0.000000 0.000000 0.044442 0.000000
# 6 0.000000 0.000000 0.000000 0.000000 0.000000 0.041042
#
#
# Mechanical properties :
#
#
# Convention : Reuss Voigt Hill
#
# Bulk Modulus (GPa) = 46.91796 64.97451 55.94623
# Shear Modulus (GPa) = 9.59967 17.02880 13.31424
#
# Velocity S-wave (km/s) = 2.41461 3.21596 2.84365
# Velocity P-wave (km/s) = 6.02240 7.29739 6.69034
#
# Compressibility (1/GPa) = 0.02131380
#
# Stress axis : x y z
#
# Youngs Moduli (GPa) = 36.63140 10.31156 13.68279
#
# Poissons Ratio (x) = -0.00399 0.22274
# Poissons Ratio (y) = -0.01419 0.98698
# Poissons Ratio (z) = 0.59631 0.74380
#
# Static dielectric constant tensor:
#      x y z
#    x 3.222090 0.000000 0.000000 
#    y 0.000000 3.140970 0.000000 
#    z 0.000000 0.000000 3.121700 
# 
# 
# High freq. dielectric constant tensor:
#      x y z
#    x 1.640090 0.000000 0.000000 
#    y 0.000000 1.618860 0.000000 
#    z 0.000000 0.000000 1.618150 
# 
# From -- ./inp_files/11999.got.cif
#   From: 2010.03.12/outbox.cif.g09.slc.cpg/sg38_6_cif.got.tgz:11999.got - 2010.04.14 02:38:36.
