data_PCOD8177021
_publ_section_title
;
Structure prediction by ZEFSAII (Michael W. Deem and Ramdas Pophale) SiO2 
 PCOD8177021
Probable space group: C C C 2
;
_chemical_formula_sum "Si O2"
_cell_formula_units_Z 48
_cell_length_a 17.834384
_cell_length_b 8.627481
_cell_length_c 13.741945
_cell_angle_alpha 90.000000
_cell_angle_beta 90.000000
_cell_angle_gamma 90.000000
_cell_volume 2114.415486
_symmetry_space_group_name_H-M "C C C 2"
_symmetry_group_IT_number 37
_symmetry_cell_setting 'orthorhombic'
loop_
_space_group_symop_operation_xyz
x,y,z
-x,-y,z
-x,y,1/2+z
x,-y,1/2+z
1/2+x,1/2+y,z
1/2-x,1/2-y,z
1/2-x,1/2+y,1/2+z
1/2+x,1/2-y,1/2+z
loop_
_atom_site_type_symbol
_atom_site_label
_atom_site_fract_x
_atom_site_fract_y
_atom_site_fract_z
Si Si1 0.787197 0.902172 0.500000
Si Si2 0.893004 0.373357 0.248394
Si Si3 0.500000 0.500000 0.932368
Si Si4 0.347090 0.561964 0.328827
Si Si5 0.000000 0.500000 0.903470
Si Si6 0.561888 0.237018 0.043706
Si Si7 0.739091 0.926779 0.182334
O O1 0.750000 0.750000 0.451071
O O2 0.866896 0.847640 0.538902
O O3 0.794163 0.042069 0.423423
O O4 0.736835 0.962132 0.588404
O O5 0.840618 0.233350 0.284698
O O6 0.942853 0.327878 0.153546
O O7 0.839934 0.525258 0.234043
O O8 0.952113 0.389714 0.334624
O O9 0.570232 0.503028 0.858214
O O10 0.495449 0.350370 0.004905
O O11 0.312792 0.450442 0.247158
O O12 0.940241 0.408731 0.970628
O O13 0.750000 0.750000 0.149454
#
# Coordination Sequence:
#
# PCOD8177021 Si02
#       7
#     8   8   4   8   4   8   8
#     4  11  23  47  72 106 145 187 239 304 365 439
#     4  12  26  49  73 106 152 189 251 308 365 447
#     4  10  24  46  72 104 142 194 240 296 374 442
#     4  11  24  45  73 106 143 192 242 301 367 438
#     4  12  28  46  74 110 142 198 242 298 380 438
#     4  11  24  49  71 103 148 187 240 305 361 437
#     4  12  27  45  74 109 143 197 246 305 375 435
#
# _framework density 22.701311
#
# number of rings (size 3 to 8) (size 9 to 14) (size 15 to 20)
#    0.000    0.667    5.000    1.500    7.000    3.333 
#    6.000    0.000    0.000    0.000    0.000    0.000 
#    0.000    0.000    0.000    0.000    0.000    0.000 
#
# Total GULP energy -297457.620783 kJ/mol
# GULP energy per Si atom -12394.067533 kJ/mol
# Density = 2.264964 g / cm^3
# Si number density = 22.701311 Si / 1000 Ang^3
#
#
#
# Elastic Constant Matrix: (Units=GPa)
#
#
# Indices 1 2 3 4 5 6 
#
# 1 66.7233 18.7135 33.0374 0.0000 0.0000 0.0000
# 2 18.7135 98.2739 49.3479 0.0000 0.0000 0.0000
# 3 33.0374 49.3479 140.1790 0.0000 0.0000 0.0000
# 4 0.0000 0.0000 0.0000 39.4169 0.0000 0.0000
# 5 0.0000 0.0000 0.0000 0.0000 32.4836 0.0000
# 6 0.0000 0.0000 0.0000 0.0000 0.0000 29.4949
#
#
#
# Elastic Compliance Matrix: (Units=1/GPa)
#
#
# Indices 1 2 3 4 5 6 
#
# 1 0.017148 -0.001501 -0.003513 0.000000 0.000000 0.000000
# 2 -0.001501 0.012492 -0.004044 0.000000 0.000000 0.000000
# 3 -0.003513 -0.004044 0.009385 0.000000 0.000000 0.000000
# 4 0.000000 0.000000 0.000000 0.025370 0.000000 0.000000
# 5 0.000000 0.000000 0.000000 0.000000 0.030785 0.000000
# 6 0.000000 0.000000 0.000000 0.000000 0.000000 0.033904
#
#
# Mechanical properties :
#
#
# Convention : Reuss Voigt Hill
#
# Bulk Modulus (GPa) = 47.82629 56.37488 52.10058
# Shear Modulus (GPa) = 32.43183 33.88423 33.15803
#
# Velocity S-wave (km/s) = 3.78383 3.86762 3.82595
# Velocity P-wave (km/s) = 6.34060 6.69566 6.52055
#
# Compressibility (1/GPa) = 0.02090900
#
# Stress axis : x y z
#
# Youngs Moduli (GPa) = 58.31691 80.05045 106.55062
#
# Poissons Ratio (x) = 0.12018 0.37430
# Poissons Ratio (y) = 0.08755 0.43087
# Poissons Ratio (z) = 0.20486 0.32371
#
# Static dielectric constant tensor:
#      x y z
#    x 4.063440 0.000000 0.000000 
#    y 0.000000 4.167000 0.000000 
#    z 0.000000 0.000000 4.367420 
# 
# 
# High freq. dielectric constant tensor:
#      x y z
#    x 1.886130 0.000000 0.000000 
#    y 0.000000 1.898510 0.000000 
#    z 0.000000 0.000000 1.904870 
# 
# From -- ./inp_files/12572.got.cif
#   From: 2010.03.12/outbox.cif.g09.slc.cpg/sg37_7_cif.got.tgz:12572.got - 2010.04.14 02:25:27.
