data_PCOD8177454
_publ_section_title
;
Structure prediction by ZEFSAII (Michael W. Deem and Ramdas Pophale) SiO2 
 PCOD8177454
Probable space group: A M M 2
;
_chemical_formula_sum "Si O2"
_cell_formula_units_Z 64
_cell_length_a 8.923296
_cell_length_b 18.178351
_cell_length_c 26.373904
_cell_angle_alpha 90.000000
_cell_angle_beta 90.000000
_cell_angle_gamma 90.000000
_cell_volume 4278.132245
_symmetry_space_group_name_H-M "A M M 2"
_symmetry_group_IT_number 38
_symmetry_cell_setting 'orthorhombic'
loop_
_space_group_symop_operation_xyz
x,y,z
-x,-y,z
-x,y,z
x,-y,z
x,1/2+y,1/2+z
-x,1/2-y,1/2+z
-x,1/2+y,1/2+z
x,1/2-y,1/2+z
loop_
_atom_site_type_symbol
_atom_site_label
_atom_site_fract_x
_atom_site_fract_y
_atom_site_fract_z
Si Si1 0.323699 0.418106 0.278160
Si Si2 0.168441 0.204130 0.327495
Si Si3 0.821684 0.846095 0.172010
Si Si4 0.672506 0.914623 0.268117
Si Si5 0.824352 0.915111 0.969828
Si Si6 0.325428 0.085201 0.075774
Si Si7 0.322264 0.167939 0.877961
Si Si8 0.165466 0.203485 0.725191
O O1 0.500000 0.421375 0.275777
O O2 0.255093 0.500000 0.273168
O O3 0.270494 0.384213 0.331578
O O4 0.270137 0.367916 0.230992
O O5 0.254393 0.128324 0.315549
O O6 0.256872 0.250072 0.370314
O O7 0.164476 0.250915 0.276656
O O8 0.000000 0.187052 0.346507
O O9 0.755515 0.898430 0.215407
O O10 0.750593 0.865959 0.118617
O O11 0.778851 0.760273 0.182008
O O12 0.000000 0.857048 0.171463
O O13 0.500000 0.890348 0.262276
O O14 0.687820 0.000000 0.280904
O O15 0.744830 0.864650 0.928843
O O16 0.000000 0.898475 0.970790
O O17 0.790968 0.000000 0.956784
O O18 0.754783 0.893909 0.023652
O O19 0.500000 0.104420 0.071526
O O20 0.300329 0.000000 0.089342
O O21 0.500000 0.172460 0.882138
O O22 0.000000 0.174262 0.712325
#
# Coordination Sequence:
#
# PCOD8177454 Si02
#       8
#     8   8   8   8   8   8   8   8
#     4   9  17  27  40  60  84 110 140 172 206 245
#     4   9  17  29  43  60  83 110 142 177 212 252
#     4  10  19  30  44  61  83 112 145 178 213 254
#     4  10  19  29  42  62  87 114 145 178 212 253
#     4  10  20  32  45  62  85 113 145 180 215 250
#     4  10  20  32  45  62  84 110 142 179 216 253
#     4  10  18  29  45  62  84 114 145 177 214 254
#     4   8  16  28  40  57  80 107 138 171 206 245
#
# _framework density 14.959801000000001
#
# number of rings (size 3 to 8) (size 9 to 14) (size 15 to 20)
#    0.000    2.500    0.000    3.750    0.000    8.750 
#    0.000    0.000    0.000    0.000    0.000    0.000 
#    0.000    1.000    0.000    7.250    0.000    6.000 
#
# Total GULP energy -396757.414324 kJ/mol
# GULP energy per Si atom -12398.669198 kJ/mol
# Density = 1.492575 g / cm^3
# Si number density = 14.959801 Si / 1000 Ang^3
#
#
#
# Elastic Constant Matrix: (Units=GPa)
#
#
# Indices 1 2 3 4 5 6 
#
# 1 -791.3642 -732.7989 -581.6960 0.0000 0.0000 0.0000
# 2 -732.7989 -601.2030 -504.0999 0.0000 0.0000 0.0000
# 3 -581.6960 -504.0999 -362.6137 0.0000 0.0000 0.0000
# 4 0.0000 0.0000 0.0000 26.9988 0.0000 0.0000
# 5 0.0000 0.0000 0.0000 0.0000 26.5161 0.0000
# 6 0.0000 0.0000 0.0000 0.0000 0.0000 24.7690
#
#
#
# Elastic Compliance Matrix: (Units=1/GPa)
#
#
# Indices 1 2 3 4 5 6 
#
# 1 0.011907 -0.009071 -0.006491 0.000000 0.000000 0.000000
# 2 -0.009071 0.016951 -0.009014 0.000000 0.000000 0.000000
# 3 -0.006491 -0.009014 0.020187 0.000000 0.000000 0.000000
# 4 0.000000 0.000000 0.000000 0.037039 0.000000 0.000000
# 5 0.000000 0.000000 0.000000 0.000000 0.037713 0.000000
# 6 0.000000 0.000000 0.000000 0.000000 0.000000 0.040373
#
#
# Mechanical properties :
#
#
# Convention : Reuss Voigt Hill
#
# Bulk Modulus (GPa) = -9321.96949 -599.15226 -4960.56087
# Shear Modulus (GPa) = 23.44269 19.88436 21.66353
#
# Velocity S-wave (km/s) = 3.96289 3.64976 3.80954
# Velocity P-wave (km/s) = 78.89192 19.58614 57.47848
#
# Compressibility (1/GPa) = -0.00010727
#
# Stress axis : x y z
#
# Youngs Moduli (GPa) = 83.98442 58.99282 49.53746
#
# Poissons Ratio (x) = 0.53510 0.32155
# Poissons Ratio (y) = 0.76179 0.44655
# Poissons Ratio (z) = 0.54515 0.53179
#
# Static dielectric constant tensor:
#      x y z
#    x 3.067930 0.000000 0.000000 
#    y 0.000000 2.992620 0.000000 
#    z 0.000000 0.000000 2.718770 
# 
# 
# High freq. dielectric constant tensor:
#      x y z
#    x 1.590250 0.000000 0.000000 
#    y 0.000000 1.560620 0.000000 
#    z 0.000000 0.000000 1.539870 
# 
# From -- ./inp_files/22251.got.cif
#   From: 2010.03.12/outbox.cif.g09.slc.cpg/sg38_12_cif.got.tgz:22251.got - 2010.04.14 02:38:36.
