data_PCOD8177163
_publ_section_title
;
Structure prediction by ZEFSAII (Michael W. Deem and Ramdas Pophale) SiO2 
 PCOD8177163
Probable space group: C C C 2
;
_chemical_formula_sum "Si O2"
_cell_formula_units_Z 28
_cell_length_a 7.463987
_cell_length_b 14.053361
_cell_length_c 11.941808
_cell_angle_alpha 90.000000
_cell_angle_beta 90.000000
_cell_angle_gamma 90.000000
_cell_volume 1252.625248
_symmetry_space_group_name_H-M "C C C 2"
_symmetry_group_IT_number 37
_symmetry_cell_setting 'orthorhombic'
loop_
_space_group_symop_operation_xyz
x,y,z
-x,-y,z
-x,y,1/2+z
x,-y,1/2+z
1/2+x,1/2+y,z
1/2-x,1/2-y,z
1/2-x,1/2+y,1/2+z
1/2+x,1/2-y,1/2+z
loop_
_atom_site_type_symbol
_atom_site_label
_atom_site_fract_x
_atom_site_fract_y
_atom_site_fract_z
Si Si1 0.634487 0.577782 0.534490
Si Si2 0.500000 0.500000 0.250000
Si Si3 0.000000 0.500000 0.077742
Si Si4 0.865514 0.422218 0.793252
Si Si5 0.250000 0.750000 0.913871
O O1 0.500000 0.500000 0.477834
O O2 0.600906 0.577332 0.669050
O O3 0.615430 0.685169 0.489121
O O4 0.843630 0.550466 0.505204
O O5 0.343630 0.449533 0.322537
O O6 0.899095 0.577333 0.158692
O O7 0.884570 0.314831 0.838622
O O8 0.000000 0.500000 0.849908
#
# Coordination Sequence:
#
# PCOD8177163 Si02
#       5
#     8   4   4   8   4
#     4   9  20  40  58  88 116 155 197 249 280 357
#     4   8  18  42  66  72 124 160 198 242 282 344
#     4   8  18  42  66  72 124 160 198 242 282 344
#     4   9  20  40  58  88 116 155 197 249 280 357
#     4  12  24  32  66  94 120 152 200 236 326 342
#
# _framework density 22.353055000000001
#
# number of rings (size 3 to 8) (size 9 to 14) (size 15 to 20)
#    1.714    1.143    0.000    0.000    4.000    2.286 
#    0.000    2.857    0.000    0.000    0.000    0.000 
#    0.000    0.000    0.000    0.000    0.000    0.000 
#
# Total GULP energy -173441.181280 kJ/mol
# GULP energy per Si atom -12388.655806 kJ/mol
# Density = 2.230218 g / cm^3
# Si number density = 22.353055 Si / 1000 Ang^3
#
#
#
# Elastic Constant Matrix: (Units=GPa)
#
#
# Indices 1 2 3 4 5 6 
#
# 1 159.0999 61.3333 38.5553 0.0000 0.0000 0.0000
# 2 61.3333 177.8804 55.7128 0.0000 0.0000 0.0000
# 3 38.5553 55.7128 34.6216 0.0000 0.0000 0.0000
# 4 0.0000 0.0000 0.0000 29.6379 0.0000 0.0000
# 5 0.0000 0.0000 0.0000 0.0000 47.6034 0.0000
# 6 0.0000 0.0000 0.0000 0.0000 0.0000 35.2319
#
#
#
# Elastic Compliance Matrix: (Units=1/GPa)
#
#
# Indices 1 2 3 4 5 6 
#
# 1 0.008609 0.000069 -0.009698 0.000000 0.000000 0.000000
# 2 0.000069 0.011335 -0.018317 0.000000 0.000000 0.000000
# 3 -0.009698 -0.018317 0.069160 0.000000 0.000000 0.000000
# 4 0.000000 0.000000 0.000000 0.033741 0.000000 0.000000
# 5 0.000000 0.000000 0.000000 0.000000 0.021007 0.000000
# 6 0.000000 0.000000 0.000000 0.000000 0.000000 0.028383
#
#
# Mechanical properties :
#
#
# Convention : Reuss Voigt Hill
#
# Bulk Modulus (GPa) = 30.11055 75.86719 52.98887
# Shear Modulus (GPa) = 20.90324 36.89468 28.89896
#
# Velocity S-wave (km/s) = 3.06132 4.06709 3.59951
# Velocity P-wave (km/s) = 5.09856 7.48793 6.40564
#
# Compressibility (1/GPa) = 0.03321095
#
# Stress axis : x y z
#
# Youngs Moduli (GPa) = 116.15832 88.22341 14.45927
#
# Poissons Ratio (x) = -0.00611 0.14023
# Poissons Ratio (y) = -0.00804 0.26485
# Poissons Ratio (z) = 1.12656 1.61599
#
# Static dielectric constant tensor:
#      x y z
#    x 3.945670 0.000000 0.000000 
#    y 0.000000 3.557760 0.000000 
#    z 0.000000 0.000000 3.936870 
# 
# 
# High freq. dielectric constant tensor:
#      x y z
#    x 1.874520 0.000000 0.000000 
#    y 0.000000 1.834290 0.000000 
#    z 0.000000 0.000000 1.922050 
# 
# From -- ./inp_files/10054.got.cif
#   From: 2010.03.12/outbox.cif.g09.slc.cpg/sg37_6_cif.got.tgz:10054.got - 2010.04.14 02:25:27.
