data_PCOD8177456
_publ_section_title
;
Structure prediction by ZEFSAII (Michael W. Deem and Ramdas Pophale) SiO2 
 PCOD8177456
Probable space group: A M M 2
;
_chemical_formula_sum "Si O2"
_cell_formula_units_Z 64
_cell_length_a 9.033889
_cell_length_b 23.421075
_cell_length_c 19.023718
_cell_angle_alpha 90.000000
_cell_angle_beta 90.000000
_cell_angle_gamma 90.000000
_cell_volume 4025.102779
_symmetry_space_group_name_H-M "A M M 2"
_symmetry_group_IT_number 38
_symmetry_cell_setting 'orthorhombic'
loop_
_space_group_symop_operation_xyz
x,y,z
-x,-y,z
-x,y,z
x,-y,z
x,1/2+y,1/2+z
-x,1/2-y,1/2+z
-x,1/2+y,1/2+z
x,1/2-y,1/2+z
loop_
_atom_site_type_symbol
_atom_site_label
_atom_site_fract_x
_atom_site_fract_y
_atom_site_fract_z
Si Si1 0.175220 0.233030 0.759560
Si Si2 0.172270 0.934470 0.254025
Si Si3 0.669342 0.234381 0.050699
Si Si4 0.825987 0.333652 0.126466
Si Si5 0.173069 0.873949 0.399707
Si Si6 0.175524 0.437116 0.040027
Si Si7 0.327637 0.252802 0.895577
Si Si8 0.326760 0.163890 0.182460
O O1 0.222087 0.182479 0.705783
O O2 0.242528 0.217197 0.835274
O O3 0.242126 0.293013 0.734281
O O4 0.000000 0.240333 0.765091
O O5 0.208020 0.911610 0.331557
O O6 0.264667 0.899331 0.195910
O O7 0.000000 0.927882 0.236356
O O8 0.223120 0.000000 0.249453
O O9 0.500000 0.252947 0.061026
O O10 0.765833 0.288649 0.070758
O O11 0.705971 0.180528 0.101040
O O12 0.701616 0.219764 0.969203
O O13 0.769745 0.396731 0.104503
O O14 0.000000 0.330110 0.118765
O O15 0.226942 0.910839 0.466105
O O16 0.267513 0.816769 0.398162
O O17 0.000000 0.857903 0.404568
O O18 0.246369 0.500000 0.049930
O O19 0.000000 0.442095 0.040338
O O20 0.500000 0.254778 0.877096
O O21 0.500000 0.166523 0.199791
#
# Coordination Sequence:
#
# PCOD8177456 Si02
#       8
#     8   8   8   8   8   8   8   8
#     4  10  19  30  45  66  93 120 151 191 232 275
#     4  10  20  32  46  67  96 128 159 190 225 267
#     4   9  19  32  46  65  92 119 148 190 237 276
#     4   9  17  29  46  68  90 117 153 189 225 269
#     4  10  18  29  45  65  93 126 158 186 215 260
#     4   9  16  27  45  68  92 121 156 188 219 261
#     4  11  20  30  46  68  93 123 154 187 229 276
#     4  10  19  32  48  67  90 119 154 193 234 276
#
# _framework density 15.900214999999999
#
# number of rings (size 3 to 8) (size 9 to 14) (size 15 to 20)
#    0.000    2.250    2.500    1.500    0.000    3.250 
#    0.000    0.000    0.000    2.250    0.000    0.875 
#    0.000    3.000    0.000    0.000    0.000    0.000 
#
# Total GULP energy -396717.545391 kJ/mol
# GULP energy per Si atom -12397.423293 kJ/mol
# Density = 1.586403 g / cm^3
# Si number density = 15.900215 Si / 1000 Ang^3
#
#
#
# Elastic Constant Matrix: (Units=GPa)
#
#
# Indices 1 2 3 4 5 6 
#
# 1 45.5939 28.2269 39.2605 0.0000 0.0000 0.0000
# 2 28.2269 90.1006 64.6644 0.0000 0.0000 0.0000
# 3 39.2605 64.6644 125.4333 0.0000 0.0000 0.0000
# 4 0.0000 0.0000 0.0000 23.6078 0.0000 0.0000
# 5 0.0000 0.0000 0.0000 0.0000 21.8609 0.0000
# 6 0.0000 0.0000 0.0000 0.0000 0.0000 10.3089
#
#
#
# Elastic Compliance Matrix: (Units=1/GPa)
#
#
# Indices 1 2 3 4 5 6 
#
# 1 0.031074 -0.004372 -0.007472 0.000000 0.000000 0.000000
# 2 -0.004372 0.018232 -0.008031 0.000000 0.000000 0.000000
# 3 -0.007472 -0.008031 0.014451 0.000000 0.000000 0.000000
# 4 0.000000 0.000000 0.000000 0.042359 0.000000 0.000000
# 5 0.000000 0.000000 0.000000 0.000000 0.045744 0.000000
# 6 0.000000 0.000000 0.000000 0.000000 0.000000 0.097004
#
#
# Mechanical properties :
#
#
# Convention : Reuss Voigt Hill
#
# Bulk Modulus (GPa) = 41.65442 58.38128 50.01785
# Shear Modulus (GPa) = 16.85687 19.75392 18.30539
#
# Velocity S-wave (km/s) = 3.25955 3.52855 3.39671
# Velocity P-wave (km/s) = 6.35771 7.30738 6.84903
#
# Compressibility (1/GPa) = 0.02400706
#
# Stress axis : x y z
#
# Youngs Moduli (GPa) = 32.18159 54.84893 69.19887
#
# Poissons Ratio (x) = 0.23981 0.51706
# Poissons Ratio (y) = 0.14070 0.55571
# Poissons Ratio (z) = 0.24046 0.44047
#
# Static dielectric constant tensor:
#      x y z
#    x 2.969350 0.000000 0.000000 
#    y 0.000000 3.081790 0.000000 
#    z 0.000000 0.000000 3.318780 
# 
# 
# High freq. dielectric constant tensor:
#      x y z
#    x 1.606480 0.000000 0.000000 
#    y 0.000000 1.582650 0.000000 
#    z 0.000000 0.000000 1.612470 
# 
# From -- ./inp_files/17339.got.cif
#   From: 2010.03.12/outbox.cif.g09.slc.cpg/sg38_9_cif.got.tgz:17339.got - 2010.04.14 02:38:36.
