data_PCOD8177362
_publ_section_title
;
Structure prediction by ZEFSAII (Michael W. Deem and Ramdas Pophale) SiO2 
 PCOD8177362
Probable space group: A M M 2
;
_chemical_formula_sum "Si O2"
_cell_formula_units_Z 64
_cell_length_a 16.158868
_cell_length_b 13.881797
_cell_length_c 17.105515
_cell_angle_alpha 90.000000
_cell_angle_beta 90.000000
_cell_angle_gamma 90.000000
_cell_volume 3837.008635
_symmetry_space_group_name_H-M "A M M 2"
_symmetry_group_IT_number 38
_symmetry_cell_setting 'orthorhombic'
loop_
_space_group_symop_operation_xyz
x,y,z
-x,-y,z
-x,y,z
x,-y,z
x,1/2+y,1/2+z
-x,1/2-y,1/2+z
-x,1/2+y,1/2+z
x,1/2-y,1/2+z
loop_
_atom_site_type_symbol
_atom_site_label
_atom_site_fract_x
_atom_site_fract_y
_atom_site_fract_z
Si Si1 0.685301 0.106173 0.876680
Si Si2 0.255520 0.208891 0.649066
Si Si3 0.406280 0.887716 0.726839
Si Si4 0.173007 0.391389 0.707031
Si Si5 0.088215 0.891477 0.049010
Si Si6 0.846124 0.106569 0.771177
Si Si7 0.781726 0.739811 0.477898
Si Si8 0.094527 0.290649 0.849577
O O1 0.609762 0.133837 0.818973
O O2 0.764519 0.100062 0.822049
O O3 0.699331 0.192407 0.938982
O O4 0.670022 0.000000 0.915698
O O5 0.346986 0.173044 0.670115
O O6 0.246677 0.317086 0.684736
O O7 0.182179 0.143332 0.685366
O O8 0.245214 0.202420 0.555147
O O9 0.500000 0.857802 0.707326
O O10 0.390063 0.000000 0.709946
O O11 0.209827 0.500000 0.710870
O O12 0.103146 0.382708 0.641067
O O13 0.126960 0.367579 0.787242
O O14 0.000000 0.839714 0.031019
O O15 0.082195 0.000000 0.021050
O O16 0.161518 0.850072 0.998749
O O17 0.907029 0.182989 0.812231
O O18 0.887545 0.000000 0.764021
O O19 0.838920 0.803456 0.420152
O O20 0.000000 0.314643 0.875521
#
# Coordination Sequence:
#
# PCOD8177362 Si02
#       8
#     8   8   8   8   8   8   8   8
#     4   8  14  26  44  66  92 118 145 181 227 278
#     4   9  17  30  49  70  93 122 154 186 223 274
#     4   9  17  32  56  79  94 113 145 186 229 273
#     4   9  18  32  48  63  83 120 166 199 220 252
#     4   9  16  26  42  63  86 116 156 199 235 263
#     4   8  15  29  47  65  87 118 156 196 234 273
#     4  10  18  27  40  65  97 126 151 183 232 282
#     4  10  19  29  43  64  90 121 158 201 244 279
#
# _framework density 16.679659999999998
#
# number of rings (size 3 to 8) (size 9 to 14) (size 15 to 20)
#    0.000    3.000    0.000    3.000    0.000    2.000 
#    0.000    2.500    0.000    0.375    0.000    0.000 
#    0.000    0.000    0.000    0.000    0.000    0.000 
#
# Total GULP energy -396498.445369 kJ/mol
# GULP energy per Si atom -12390.576418 kJ/mol
# Density = 1.664170 g / cm^3
# Si number density = 16.679660 Si / 1000 Ang^3
#
#
#
# Elastic Constant Matrix: (Units=GPa)
#
#
# Indices 1 2 3 4 5 6 
#
# 1 80.4114 22.3809 20.1004 0.0000 0.0000 0.0000
# 2 22.3809 65.9266 20.3988 0.0000 0.0000 0.0000
# 3 20.1004 20.3988 80.8806 0.0000 0.0000 0.0000
# 4 0.0000 0.0000 0.0000 21.2563 0.0000 0.0000
# 5 0.0000 0.0000 0.0000 0.0000 7.0192 0.0000
# 6 0.0000 0.0000 0.0000 0.0000 0.0000 16.6409
#
#
#
# Elastic Compliance Matrix: (Units=1/GPa)
#
#
# Indices 1 2 3 4 5 6 
#
# 1 0.014187 -0.004041 -0.002507 0.000000 0.000000 0.000000
# 2 -0.004041 0.017603 -0.003435 0.000000 0.000000 0.000000
# 3 -0.002507 -0.003435 0.013853 0.000000 0.000000 0.000000
# 4 0.000000 0.000000 0.000000 0.047045 0.000000 0.000000
# 5 0.000000 0.000000 0.000000 0.000000 0.142467 0.000000
# 6 0.000000 0.000000 0.000000 0.000000 0.000000 0.060093
#
#
# Mechanical properties :
#
#
# Convention : Reuss Voigt Hill
#
# Bulk Modulus (GPa) = 38.94390 39.21986 39.08188
# Shear Modulus (GPa) = 15.44292 19.93919 17.69105
#
# Velocity S-wave (km/s) = 3.04608 3.46123 3.26027
# Velocity P-wave (km/s) = 5.98083 6.28794 6.13631
#
# Compressibility (1/GPa) = 0.02567796
#
# Stress axis : x y z
#
# Youngs Moduli (GPa) = 70.48552 56.80808 72.18485
#
# Poissons Ratio (x) = 0.22955 0.18095
# Poissons Ratio (y) = 0.28481 0.24799
# Poissons Ratio (z) = 0.17669 0.19516
#
# Static dielectric constant tensor:
#      x y z
#    x 3.047400 0.000000 0.000000 
#    y 0.000000 3.225470 0.000000 
#    z 0.000000 0.000000 3.290360 
# 
# 
# High freq. dielectric constant tensor:
#      x y z
#    x 1.612510 0.000000 0.000000 
#    y 0.000000 1.627160 0.000000 
#    z 0.000000 0.000000 1.639110 
# 
# From -- ./inp_files/15334.got.cif
#   From: 2010.03.12/outbox.cif.g09.slc.cpg/sg38_8_cif.got.tgz:15334.got - 2010.04.14 02:38:36.
