data_PCOD8177078
_publ_section_title
;
Structure prediction by ZEFSAII (Michael W. Deem and Ramdas Pophale) SiO2 
 PCOD8177078
Probable space group: C C C 2
;
_chemical_formula_sum "Si O2"
_cell_formula_units_Z 48
_cell_length_a 12.242217
_cell_length_b 15.203990
_cell_length_c 12.500762
_cell_angle_alpha 90.000000
_cell_angle_beta 90.000000
_cell_angle_gamma 90.000000
_cell_volume 2326.773642
_symmetry_space_group_name_H-M "C C C 2"
_symmetry_group_IT_number 37
_symmetry_cell_setting 'orthorhombic'
loop_
_space_group_symop_operation_xyz
x,y,z
-x,-y,z
-x,y,1/2+z
x,-y,1/2+z
1/2+x,1/2+y,z
1/2-x,1/2-y,z
1/2-x,1/2+y,1/2+z
1/2+x,1/2-y,1/2+z
loop_
_atom_site_type_symbol
_atom_site_label
_atom_site_fract_x
_atom_site_fract_y
_atom_site_fract_z
Si Si1 0.220541 0.405739 0.478340
Si Si2 0.075673 0.761152 0.296215
Si Si3 0.046031 0.590347 0.796208
Si Si4 0.250000 0.250000 0.629197
Si Si5 0.334027 0.666215 0.795038
Si Si6 0.289058 0.085639 0.111484
Si Si7 0.250000 0.750000 0.468564
O O1 0.129816 0.385307 0.388912
O O2 0.200675 0.330379 0.563902
O O3 0.329400 0.386070 0.408528
O O4 0.224865 0.500034 0.536169
O O5 0.150516 0.789869 0.197237
O O6 0.146507 0.785443 0.400777
O O7 0.055307 0.656774 0.292654
O O8 0.959303 0.807024 0.286065
O O9 0.098959 0.580215 0.678568
O O10 0.000000 0.500000 0.836863
O O11 0.250000 0.750000 0.788138
O O12 0.309307 0.598909 0.696987
O O13 0.296398 0.170842 0.038150
#
# Coordination Sequence:
#
# PCOD8177078 Si02
#       7
#     8   8   8   4   8   8   4
#     4  11  23  41  66  97 130 168 221 269 330 390
#     4  11  23  40  65  91 130 174 216 267 324 389
#     4  11  22  39  64  97 128 163 217 283 337 378
#     4  11  24  41  62  98 132 171 220 269 322 392
#     4  11  21  46  65  90 130 175 210 264 324 391
#     4  11  23  41  66  97 130 168 221 269 330 390
#     4  11  24  41  62  98 132 171 220 269 322 392
#
# _framework density 20.629422999999999
#
# number of rings (size 3 to 8) (size 9 to 14) (size 15 to 20)
#    0.000    1.000    5.000    2.000    0.000   12.667 
#    0.000    5.000    0.000    0.000    0.000    0.000 
#    0.000    0.000    0.000    0.000    0.000    0.000 
#
# Total GULP energy -297445.454414 kJ/mol
# GULP energy per Si atom -12393.560601 kJ/mol
# Density = 2.058247 g / cm^3
# Si number density = 20.629423 Si / 1000 Ang^3
#
#
#
# Elastic Constant Matrix: (Units=GPa)
#
#
# Indices 1 2 3 4 5 6 
#
# 1 104.3548 2.6184 32.5694 0.0000 0.0000 0.0000
# 2 2.6184 89.5208 39.7095 0.0000 0.0000 0.0000
# 3 32.5694 39.7095 134.2656 0.0000 0.0000 0.0000
# 4 0.0000 0.0000 0.0000 44.4785 0.0000 0.0000
# 5 0.0000 0.0000 0.0000 0.0000 -24.0271 0.0000
# 6 0.0000 0.0000 0.0000 0.0000 0.0000 28.4662
#
#
#
# Elastic Compliance Matrix: (Units=1/GPa)
#
#
# Indices 1 2 3 4 5 6 
#
# 1 0.010436 0.000941 -0.002810 0.000000 0.000000 0.000000
# 2 0.000941 0.012942 -0.004056 0.000000 0.000000 0.000000
# 3 -0.002810 -0.004056 0.009329 0.000000 0.000000 0.000000
# 4 0.000000 0.000000 0.000000 0.022483 0.000000 0.000000
# 5 0.000000 0.000000 0.000000 0.000000 -0.041620 0.000000
# 6 0.000000 0.000000 0.000000 0.000000 0.000000 0.035129
#
#
# Mechanical properties :
#
#
# Convention : Reuss Voigt Hill
#
# Bulk Modulus (GPa) = 47.94340 53.10398 50.52369
# Shear Modulus (GPa) = 74.07181 26.66642 50.36912
#
# Velocity S-wave (km/s) = 5.99865 3.59923 4.94663
# Velocity P-wave (km/s) = 8.44211 6.56280 7.56107
#
# Compressibility (1/GPa) = 0.02085793
#
# Stress axis : x y z
#
# Youngs Moduli (GPa) = 95.82172 77.26652 107.19141
#
# Poissons Ratio (x) = -0.07272 0.30119
# Poissons Ratio (y) = -0.09018 0.43477
# Poissons Ratio (z) = 0.26925 0.31339
#
# Static dielectric constant tensor:
#      x y z
#    x 5.520700 0.000000 0.000000 
#    y 0.000000 4.244410 0.000000 
#    z 0.000000 0.000000 4.078770 
# 
# 
# High freq. dielectric constant tensor:
#      x y z
#    x 1.798950 0.000000 0.000000 
#    y 0.000000 1.801820 0.000000 
#    z 0.000000 0.000000 1.829400 
# 
# From -- ./inp_files/7216.got.cif
#   From: 2010.03.12/outbox.cif.g09.slc.cpg/sg37_4_cif.got.tgz:7216.got - 2010.04.14 02:25:27.
