data_PCOD8177828
_publ_section_title
;
Structure prediction by ZEFSAII (Michael W. Deem and Ramdas Pophale) SiO2 
 PCOD8177828
Probable space group: A M M 2
;
_chemical_formula_sum "Si O2"
_cell_formula_units_Z 64
_cell_length_a 9.021810
_cell_length_b 30.895285
_cell_length_c 11.955907
_cell_angle_alpha 90.000000
_cell_angle_beta 90.000000
_cell_angle_gamma 90.000000
_cell_volume 3332.486591
_symmetry_space_group_name_H-M "A M M 2"
_symmetry_group_IT_number 38
_symmetry_cell_setting 'orthorhombic'
loop_
_space_group_symop_operation_xyz
x,y,z
-x,-y,z
-x,y,z
x,-y,z
x,1/2+y,1/2+z
-x,1/2-y,1/2+z
-x,1/2+y,1/2+z
x,1/2-y,1/2+z
loop_
_atom_site_type_symbol
_atom_site_label
_atom_site_fract_x
_atom_site_fract_y
_atom_site_fract_z
Si Si1 0.671136 0.452624 0.442760
Si Si2 0.826087 0.568449 0.221541
Si Si3 0.175583 0.798176 0.950541
Si Si4 0.175684 0.334432 0.218310
Si Si5 0.170985 0.048401 0.472825
Si Si6 0.325115 0.627893 0.587736
Si Si7 0.824245 0.800216 0.484116
Si Si8 0.325402 0.625533 0.845831
O O1 0.500000 0.443043 0.421181
O O2 0.693313 0.500000 0.500572
O O3 0.749234 0.455940 0.323018
O O4 0.736213 0.414394 0.521120
O O5 0.764411 0.617070 0.219556
O O6 0.784724 0.546959 0.103450
O O7 0.000000 0.566561 0.243885
O O8 0.236031 0.810712 0.828198
O O9 0.225370 0.748910 0.965727
O O10 0.000000 0.803783 0.961541
O O11 0.249215 0.828592 0.043194
O O12 0.000000 0.333264 0.216624
O O13 0.236250 0.311625 0.107180
O O14 0.270769 0.082174 0.406545
O O15 0.000000 0.063094 0.461143
O O16 0.195669 0.000000 0.424284
O O17 0.500000 0.632730 0.573364
O O18 0.280611 0.621818 0.716403
O O19 0.749443 0.831372 0.393887
O O20 0.000000 0.806207 0.473167
O O21 0.500000 0.629231 0.862724
#
# Coordination Sequence:
#
# PCOD8177828 Si02
#       8
#     8   8   8   8   8   8   8   8
#     4  10  21  37  57  81 110 147 189 230 279 339
#     4  10  18  34  59  85 116 146 178 227 285 338
#     4  10  21  36  61  90 113 145 189 234 280 335
#     4   9  17  33  56  86 116 143 180 228 283 334
#     4  10  21  38  60  85 114 150 190 235 288 340
#     4  10  23  41  57  78 114 154 190 233 284 335
#     4  10  21  38  61  86 116 150 187 235 284 333
#     4  11  24  40  58  82 115 154 194 235 282 338
#
# _framework density 19.204878000000001
#
# number of rings (size 3 to 8) (size 9 to 14) (size 15 to 20)
#    0.000    2.000    2.500    0.750    1.750    3.500 
#    0.000    1.875    0.000    0.000    0.000    0.000 
#    0.000    0.000    0.000    0.000    0.000    0.000 
#
# Total GULP energy -396794.403278 kJ/mol
# GULP energy per Si atom -12399.825102 kJ/mol
# Density = 1.916117 g / cm^3
# Si number density = 19.204878 Si / 1000 Ang^3
#
#
#
# Elastic Constant Matrix: (Units=GPa)
#
#
# Indices 1 2 3 4 5 6 
#
# 1 41.8234 39.5171 39.8456 0.0000 0.0000 0.0000
# 2 39.5171 156.0000 63.1336 0.0000 0.0000 0.0000
# 3 39.8456 63.1336 123.5833 0.0000 0.0000 0.0000
# 4 0.0000 0.0000 0.0000 12.9729 0.0000 0.0000
# 5 0.0000 0.0000 0.0000 0.0000 27.0982 0.0000
# 6 0.0000 0.0000 0.0000 0.0000 0.0000 25.5291
#
#
#
# Elastic Compliance Matrix: (Units=1/GPa)
#
#
# Indices 1 2 3 4 5 6 
#
# 1 0.038448 -0.005953 -0.009355 0.000000 0.000000 0.000000
# 2 -0.005953 0.009003 -0.002680 0.000000 0.000000 0.000000
# 3 -0.009355 -0.002680 0.012477 0.000000 0.000000 0.000000
# 4 0.000000 0.000000 0.000000 0.077084 0.000000 0.000000
# 5 0.000000 0.000000 0.000000 0.000000 0.036903 0.000000
# 6 0.000000 0.000000 0.000000 0.000000 0.000000 0.039171
#
#
# Mechanical properties :
#
#
# Convention : Reuss Voigt Hill
#
# Bulk Modulus (GPa) = 41.75124 67.37768 54.56446
# Shear Modulus (GPa) = 19.45186 25.04739 22.24963
#
# Velocity S-wave (km/s) = 3.18600 3.61532 3.40743
# Velocity P-wave (km/s) = 5.94317 7.25170 6.62980
#
# Compressibility (1/GPa) = 0.02395139
#
# Stress axis : x y z
#
# Youngs Moduli (GPa) = 26.00933 111.07646 80.14848
#
# Poissons Ratio (x) = 0.66128 0.74978
# Poissons Ratio (y) = 0.15484 0.21477
# Poissons Ratio (z) = 0.24332 0.29765
#
# Static dielectric constant tensor:
#      x y z
#    x 3.241340 0.000000 0.000000 
#    y 0.000000 3.672610 0.000000 
#    z 0.000000 0.000000 3.630770 
# 
# 
# High freq. dielectric constant tensor:
#      x y z
#    x 1.721140 0.000000 0.000000 
#    y 0.000000 1.765240 0.000000 
#    z 0.000000 0.000000 1.750650 
# 
# From -- ./inp_files/8630.got.cif
#   From: 2010.03.12/outbox.cif.g09.slc.cpg/sg38_5_cif.got.tgz:8630.got - 2010.04.14 02:38:36.
