data_PCOD8177310
_publ_section_title
;
Structure prediction by ZEFSAII (Michael W. Deem and Ramdas Pophale) SiO2 
 PCOD8177310
Probable space group: A M M 2
;
_chemical_formula_sum "Si O2"
_cell_formula_units_Z 64
_cell_length_a 9.071089
_cell_length_b 19.814885
_cell_length_c 20.825544
_cell_angle_alpha 90.000000
_cell_angle_beta 90.000000
_cell_angle_gamma 90.000000
_cell_volume 3743.237120
_symmetry_space_group_name_H-M "A M M 2"
_symmetry_group_IT_number 38
_symmetry_cell_setting 'orthorhombic'
loop_
_space_group_symop_operation_xyz
x,y,z
-x,-y,z
-x,y,z
x,-y,z
x,1/2+y,1/2+z
-x,1/2-y,1/2+z
-x,1/2+y,1/2+z
x,1/2-y,1/2+z
loop_
_atom_site_type_symbol
_atom_site_label
_atom_site_fract_x
_atom_site_fract_y
_atom_site_fract_z
Si Si1 0.673967 0.073999 0.625000
Si Si2 0.325202 0.573702 0.509255
Si Si3 0.324531 0.790183 0.949342
Si Si4 0.325039 0.785867 0.202167
Si Si5 0.325399 0.073575 0.152957
Si Si6 0.325899 0.711796 0.073208
Si Si7 0.172527 0.711855 0.319151
Si Si8 0.830627 0.074918 0.757176
O O1 0.500000 0.075019 0.632215
O O2 0.724526 0.133067 0.576294
O O3 0.735051 0.090574 0.694898
O O4 0.728425 0.000000 0.600580
O O5 0.500000 0.577489 0.512839
O O6 0.274322 0.500000 0.482925
O O7 0.269573 0.633217 0.462882
O O8 0.261800 0.584629 0.581093
O O9 0.500000 0.785000 0.941557
O O10 0.248659 0.764218 0.884685
O O11 0.263931 0.744019 0.007797
O O12 0.500000 0.776724 0.211853
O O13 0.276834 0.864850 0.198725
O O14 0.269451 0.750591 0.136542
O O15 0.240178 0.754404 0.261512
O O16 0.500000 0.074044 0.147744
O O17 0.271889 0.000000 0.179664
O O18 0.500000 0.719294 0.071567
O O19 0.205737 0.631951 0.309713
O O20 0.000000 0.726938 0.322891
O O21 0.000000 0.079395 0.735737
O O22 0.793850 0.000000 0.784941
#
# Coordination Sequence:
#
# PCOD8177310 Si02
#       8
#     8   8   8   8   8   8   8   8
#     4   9  16  27  47  74  99 120 149 195 244 287
#     4   8  13  23  42  70  99 122 149 189 235 283
#     4  10  19  32  49  69  95 129 162 195 238 288
#     4  10  17  30  53  76  97 125 160 200 242 287
#     4   8  13  23  45  77 104 122 148 192 242 287
#     4   9  16  28  49  75  97 119 155 199 241 282
#     4  11  23  35  46  67  99 133 167 203 239 282
#     4   9  18  32  47  64  92 130 165 195 233 282
#
# _framework density 17.097501000000001
#
# number of rings (size 3 to 8) (size 9 to 14) (size 15 to 20)
#    0.000    2.750    2.500    1.125    0.000    1.000 
#    0.000    1.250    0.000    1.125    0.000    5.250 
#    0.000    0.000    0.000    0.000    0.000    0.000 
#
# Total GULP energy -396526.136542 kJ/mol
# GULP energy per Si atom -12391.441767 kJ/mol
# Density = 1.705859 g / cm^3
# Si number density = 17.097501 Si / 1000 Ang^3
#
#
#
# Elastic Constant Matrix: (Units=GPa)
#
#
# Indices 1 2 3 4 5 6 
#
# 1 28.0571 31.0829 30.3228 0.0000 0.0000 0.0000
# 2 31.0829 124.6680 71.0866 0.0000 0.0000 0.0000
# 3 30.3228 71.0866 120.9099 0.0000 0.0000 0.0000
# 4 0.0000 0.0000 0.0000 22.8081 0.0000 0.0000
# 5 0.0000 0.0000 0.0000 0.0000 -3.3210 0.0000
# 6 0.0000 0.0000 0.0000 0.0000 0.0000 14.2178
#
#
#
# Elastic Compliance Matrix: (Units=1/GPa)
#
#
# Indices 1 2 3 4 5 6 
#
# 1 0.054548 -0.008725 -0.008551 0.000000 0.000000 0.000000
# 2 -0.008725 0.013462 -0.005727 0.000000 0.000000 0.000000
# 3 -0.008551 -0.005727 0.013782 0.000000 0.000000 0.000000
# 4 0.000000 0.000000 0.000000 0.043844 0.000000 0.000000
# 5 0.000000 0.000000 0.000000 0.000000 -0.301113 0.000000
# 6 0.000000 0.000000 0.000000 0.000000 0.000000 0.070334
#
#
# Mechanical properties :
#
#
# Convention : Reuss Voigt Hill
#
# Bulk Modulus (GPa) = 27.94208 59.84660 43.89434
# Shear Modulus (GPa) = -105.91101 16.15049 -44.88026
#
# Velocity S-wave (km/s) = -7.87907 3.07679 -5.12899
# Velocity P-wave (km/s) = 8.14830 6.90661 3.05725
#
# Compressibility (1/GPa) = 0.03578832
#
# Stress axis : x y z
#
# Youngs Moduli (GPa) = 18.33239 74.28331 72.55911
#
# Poissons Ratio (x) = 0.64810 0.62042
# Poissons Ratio (y) = 0.15994 0.41552
# Poissons Ratio (z) = 0.15675 0.42539
#
# Static dielectric constant tensor:
#      x y z
#    x 2.803520 0.000000 0.000000 
#    y 0.000000 3.784910 0.000000 
#    z 0.000000 0.000000 3.001050 
# 
# 
# High freq. dielectric constant tensor:
#      x y z
#    x 1.618270 0.000000 0.000000 
#    y 0.000000 1.674420 0.000000 
#    z 0.000000 0.000000 1.632260 
# 
# From -- ./inp_files/20223.got.cif
#   From: 2010.03.12/outbox.cif.g09.slc.cpg/sg38_11_cif.got.tgz:20223.got - 2010.04.14 02:38:36.
