data_PCOD8177175
_publ_section_title
;
Structure prediction by ZEFSAII (Michael W. Deem and Ramdas Pophale) SiO2 
 PCOD8177175
Probable space group: C C C 2
;
_chemical_formula_sum "Si O2"
_cell_formula_units_Z 48
_cell_length_a 20.969959
_cell_length_b 11.533292
_cell_length_c 8.691199
_cell_angle_alpha 90.000000
_cell_angle_beta 90.000000
_cell_angle_gamma 90.000000
_cell_volume 2101.989600
_symmetry_space_group_name_H-M "C C C 2"
_symmetry_group_IT_number 37
_symmetry_cell_setting 'orthorhombic'
loop_
_space_group_symop_operation_xyz
x,y,z
-x,-y,z
-x,y,1/2+z
x,-y,1/2+z
1/2+x,1/2+y,z
1/2-x,1/2-y,z
1/2-x,1/2+y,1/2+z
1/2+x,1/2-y,1/2+z
loop_
_atom_site_type_symbol
_atom_site_label
_atom_site_fract_x
_atom_site_fract_y
_atom_site_fract_z
Si Si1 0.569912 0.671849 0.747900
Si Si2 0.875478 0.384109 0.081798
Si Si3 0.157716 0.962473 0.729613
Si Si4 0.261607 0.618731 0.013015
Si Si5 0.559945 0.707237 0.091418
Si Si6 0.065652 0.561029 0.778744
O O1 0.617403 0.751590 0.644518
O O2 0.603836 0.550873 0.790418
O O3 0.504757 0.647801 0.654564
O O4 0.552634 0.732485 0.909584
O O5 0.811745 0.416718 0.986463
O O6 0.880300 0.469689 0.227055
O O7 0.931260 0.405935 0.958020
O O8 0.122264 0.871916 0.619351
O O9 0.211473 0.035746 0.644300
O O10 0.192825 0.891093 0.864773
O O11 0.250000 0.750000 0.070903
O O12 0.572585 0.826891 0.174250
O O13 0.000000 0.500000 0.742084
#
# Coordination Sequence:
#
# PCOD8177175 Si02
#       6
#     8   8   8   8   8   8
#     4  12  26  46  75 116 156 200 252 332 401 469
#     4  12  25  46  74 111 158 204 263 326 388 473
#     4  12  27  49  77 113 152 202 263 319 393 481
#     4  12  26  50  77 108 158 212 259 325 395 479
#     4  12  27  45  77 114 156 199 256 326 405 469
#     4  12  25  44  74 112 154 202 259 323 393 469
#
# _framework density 22.835508000000001
#
# number of rings (size 3 to 8) (size 9 to 14) (size 15 to 20)
#    0.000    0.000    5.000    5.000    2.333    1.333 
#    0.000    0.833    0.000    0.000    0.000    0.000 
#    0.000    0.000    0.000    0.000    0.000    0.000 
#
# Total GULP energy -297575.344492 kJ/mol
# GULP energy per Si atom -12398.972687 kJ/mol
# Density = 2.278353 g / cm^3
# Si number density = 22.835508 Si / 1000 Ang^3
#
#
#
# Elastic Constant Matrix: (Units=GPa)
#
#
# Indices 1 2 3 4 5 6 
#
# 1 113.2852 30.1027 14.7829 0.0000 0.0000 0.0000
# 2 30.1027 108.7897 8.4910 0.0000 0.0000 0.0000
# 3 14.7829 8.4910 99.3430 0.0000 0.0000 0.0000
# 4 0.0000 0.0000 0.0000 35.8677 0.0000 0.0000
# 5 0.0000 0.0000 0.0000 0.0000 84.5602 0.0000
# 6 0.0000 0.0000 0.0000 0.0000 0.0000 48.0805
#
#
#
# Elastic Compliance Matrix: (Units=1/GPa)
#
#
# Indices 1 2 3 4 5 6 
#
# 1 0.009672 -0.002581 -0.001219 0.000000 0.000000 0.000000
# 2 -0.002581 0.009943 -0.000466 0.000000 0.000000 0.000000
# 3 -0.001219 -0.000466 0.010287 0.000000 0.000000 0.000000
# 4 0.000000 0.000000 0.000000 0.027880 0.000000 0.000000
# 5 0.000000 0.000000 0.000000 0.000000 0.011826 0.000000
# 6 0.000000 0.000000 0.000000 0.000000 0.000000 0.020798
#
#
# Mechanical properties :
#
#
# Convention : Reuss Voigt Hill
#
# Bulk Modulus (GPa) = 46.79260 47.57458 47.18359
# Shear Modulus (GPa) = 47.14244 51.57110 49.35677
#
# Velocity S-wave (km/s) = 4.54854 4.75739 4.65413
# Velocity P-wave (km/s) = 6.93695 7.14534 7.04191
#
# Compressibility (1/GPa) = 0.02137090
#
# Stress axis : x y z
#
# Youngs Moduli (GPa) = 103.38906 100.57695 97.20741
#
# Poissons Ratio (x) = 0.25961 0.11846
# Poissons Ratio (y) = 0.26687 0.04527
# Poissons Ratio (z) = 0.12600 0.04684
#
# Static dielectric constant tensor:
#      x y z
#    x 4.246550 0.000000 0.000000 
#    y 0.000000 3.929010 0.000000 
#    z 0.000000 0.000000 4.011260 
# 
# 
# High freq. dielectric constant tensor:
#      x y z
#    x 1.911510 0.000000 0.000000 
#    y 0.000000 1.910740 0.000000 
#    z 0.000000 0.000000 1.901840 
# 
# From -- ./inp_files/4587.got.cif
#   From: 2010.03.12/outbox.cif.g09.slc.cpg/sg37_3_cif.got.tgz:4587.got - 2010.04.14 02:25:27.
