data_PCOD8177857
_publ_section_title
;
Structure prediction by ZEFSAII (Michael W. Deem and Ramdas Pophale) SiO2 
 PCOD8177857
Probable space group: A M M 2
;
_chemical_formula_sum "Si O2"
_cell_formula_units_Z 64
_cell_length_a 9.200218
_cell_length_b 25.635828
_cell_length_c 18.207856
_cell_angle_alpha 90.000000
_cell_angle_beta 90.000000
_cell_angle_gamma 90.000000
_cell_volume 4294.417632
_symmetry_space_group_name_H-M "A M M 2"
_symmetry_group_IT_number 38
_symmetry_cell_setting 'orthorhombic'
loop_
_space_group_symop_operation_xyz
x,y,z
-x,-y,z
-x,y,z
x,-y,z
x,1/2+y,1/2+z
-x,1/2-y,1/2+z
-x,1/2+y,1/2+z
x,1/2-y,1/2+z
loop_
_atom_site_type_symbol
_atom_site_label
_atom_site_fract_x
_atom_site_fract_y
_atom_site_fract_z
Si Si1 0.332264 0.560666 0.062160
Si Si2 0.669046 0.753650 0.713181
Si Si3 0.831216 0.060822 0.710483
Si Si4 0.170073 0.756820 0.561116
Si Si5 0.829497 0.358768 0.971880
Si Si6 0.839575 0.299593 0.832033
Si Si7 0.330309 0.642541 0.303041
Si Si8 0.160851 0.194372 0.923680
O O1 0.500000 0.575945 0.073586
O O2 0.313283 0.500000 0.044951
O O3 0.246007 0.577125 0.135058
O O4 0.264714 0.591048 0.993412
O O5 0.500000 0.744718 0.703742
O O6 0.741924 0.748758 0.634826
O O7 0.728060 0.707260 0.765183
O O8 0.704765 0.809789 0.748321
O O9 0.756890 0.092027 0.776487
O O10 0.000000 0.075986 0.704381
O O11 0.809491 0.000000 0.727294
O O12 0.217354 0.811261 0.524565
O O13 0.208327 0.708424 0.506876
O O14 0.000000 0.757415 0.579209
O O15 0.791007 0.346042 0.886860
O O16 0.000000 0.370767 0.980350
O O17 0.847008 0.248199 0.880661
O O18 0.000000 0.311146 0.799571
O O19 0.500000 0.629667 0.306229
O O20 0.275923 0.655783 0.385403
O O21 0.000000 0.168488 0.922955
#
# Coordination Sequence:
#
# PCOD8177857 Si02
#       8
#     8   8   8   8   8   8   8   8
#     4  10  20  31  42  59  84 111 138 171 210 246
#     4  10  19  27  38  60  86 111 139 168 202 245
#     4  10  20  32  45  60  79 107 143 178 207 237
#     4   9  17  28  42  60  82 109 140 172 205 240
#     4   9  17  29  45  62  79 106 143 175 205 242
#     4   8  15  28  43  58  78 105 137 171 204 239
#     4  10  19  29  42  61  84 110 138 169 208 247
#     4   8  15  28  43  58  78 106 138 169 201 240
#
# _framework density 14.903067999999999
#
# number of rings (size 3 to 8) (size 9 to 14) (size 15 to 20)
#    0.000    2.750    0.000    3.750    0.000    6.500 
#    0.000    2.500    0.000    0.000    0.000    0.000 
#    0.000    1.000    0.000    5.500    0.000    4.125 
#
# Total GULP energy -396744.521438 kJ/mol
# GULP energy per Si atom -12398.266295 kJ/mol
# Density = 1.486915 g / cm^3
# Si number density = 14.903068 Si / 1000 Ang^3
#
#
#
# Elastic Constant Matrix: (Units=GPa)
#
#
# Indices 1 2 3 4 5 6 
#
# 1 93.1331 42.2005 57.0934 0.0000 0.0000 0.0000
# 2 42.2005 49.8804 34.3295 0.0000 0.0000 0.0000
# 3 57.0934 34.3295 93.7857 0.0000 0.0000 0.0000
# 4 0.0000 0.0000 0.0000 25.0767 0.0000 0.0000
# 5 0.0000 0.0000 0.0000 0.0000 19.6916 0.0000
# 6 0.0000 0.0000 0.0000 0.0000 0.0000 22.6967
#
#
#
# Elastic Compliance Matrix: (Units=1/GPa)
#
#
# Indices 1 2 3 4 5 6 
#
# 1 0.021638 -0.012352 -0.008651 0.000000 0.000000 0.000000
# 2 -0.012352 0.033851 -0.004871 0.000000 0.000000 0.000000
# 3 -0.008651 -0.004871 0.017712 0.000000 0.000000 0.000000
# 4 0.000000 0.000000 0.000000 0.039878 0.000000 0.000000
# 5 0.000000 0.000000 0.000000 0.000000 0.050783 0.000000
# 6 0.000000 0.000000 0.000000 0.000000 0.000000 0.044059
#
#
# Mechanical properties :
#
#
# Convention : Reuss Voigt Hill
#
# Bulk Modulus (GPa) = 46.61586 56.00513 51.31050
# Shear Modulus (GPa) = 18.73924 20.37139 19.55532
#
# Velocity S-wave (km/s) = 3.54984 3.70121 3.62631
# Velocity P-wave (km/s) = 6.93896 7.47840 7.21372
#
# Compressibility (1/GPa) = 0.02145193
#
# Stress axis : x y z
#
# Youngs Moduli (GPa) = 46.21585 29.54120 56.45916
#
# Poissons Ratio (x) = 0.36490 0.48841
# Poissons Ratio (y) = 0.57088 0.27502
# Poissons Ratio (z) = 0.39980 0.14390
#
# Static dielectric constant tensor:
#      x y z
#    x 2.995660 0.000000 0.000000 
#    y 0.000000 2.675980 0.000000 
#    z 0.000000 0.000000 2.891090 
# 
# 
# High freq. dielectric constant tensor:
#      x y z
#    x 1.580520 0.000000 0.000000 
#    y 0.000000 1.534500 0.000000 
#    z 0.000000 0.000000 1.558940 
# 
# From -- ./inp_files/17297.got.cif
#   From: 2010.03.12/outbox.cif.g09.slc.cpg/sg38_9_cif.got.tgz:17297.got - 2010.04.14 02:38:36.
