data_PCOD8177213
_publ_section_title
;
Structure prediction by ZEFSAII (Michael W. Deem and Ramdas Pophale) SiO2 
 PCOD8177213
Probable space group: A M M 2
;
_chemical_formula_sum "Si O2"
_cell_formula_units_Z 40
_cell_length_a 8.751860
_cell_length_b 11.784335
_cell_length_c 20.463890
_cell_angle_alpha 90.000000
_cell_angle_beta 90.000000
_cell_angle_gamma 90.000000
_cell_volume 2110.540228
_symmetry_space_group_name_H-M "A M M 2"
_symmetry_group_IT_number 38
_symmetry_cell_setting 'orthorhombic'
loop_
_space_group_symop_operation_xyz
x,y,z
-x,-y,z
-x,y,z
x,-y,z
x,1/2+y,1/2+z
-x,1/2-y,1/2+z
-x,1/2+y,1/2+z
x,1/2-y,1/2+z
loop_
_atom_site_type_symbol
_atom_site_label
_atom_site_fract_x
_atom_site_fract_y
_atom_site_fract_z
Si Si1 0.181265 0.763510 0.577650
Si Si2 0.171099 0.000000 0.734050
Si Si3 0.817184 0.872260 0.204365
Si Si4 0.175216 0.721898 0.318083
Si Si5 0.677648 0.500000 0.099823
Si Si6 0.817469 0.628583 0.451047
O O1 0.241903 0.705013 0.644320
O O2 0.249267 0.888266 0.567933
O O3 0.238463 0.686765 0.517546
O O4 0.000000 0.773215 0.578642
O O5 0.195809 0.892660 0.778612
O O6 0.294265 0.000000 0.677088
O O7 0.000000 0.000000 0.703128
O O8 0.752370 0.822221 0.273337
O O9 0.000000 0.870106 0.204236
O O10 0.755243 0.000000 0.195994
O O11 0.249676 0.702133 0.389709
O O12 0.000000 0.753294 0.329161
O O13 0.500000 0.500000 0.084691
O O14 0.753581 0.500000 0.448786
O O15 0.000000 0.624752 0.446726
#
# Coordination Sequence:
#
# PCOD8177213 Si02
#       6
#     8   4   8   8   4   8
#     4  10  19  33  53  76 102 134 172 213 258 307
#     4  10  16  30  56  80 102 131 168 210 261 310
#     4   9  16  26  44  73 106 136 165 201 249 302
#     4   9  15  25  46  77 111 135 158 205 262 306
#     4  12  24  36  52  74 102 135 176 222 263 306
#     4   9  16  27  47  79 111 134 164 210 258 304
#
# _framework density 18.952494000000002
#
# number of rings (size 3 to 8) (size 9 to 14) (size 15 to 20)
#    0.000    2.400    3.000    1.500    0.000    2.400 
#    1.800    0.000    0.000    3.600    0.000    0.000 
#    0.000    0.000    0.000    0.000    0.000    0.000 
#
# Total GULP energy -247865.975988 kJ/mol
# GULP energy per Si atom -12393.298799 kJ/mol
# Density = 1.890936 g / cm^3
# Si number density = 18.952494 Si / 1000 Ang^3
#
#
#
# Elastic Constant Matrix: (Units=GPa)
#
#
# Indices 1 2 3 4 5 6 
#
# 1 17.7444 16.4356 14.1296 0.0000 0.0000 0.0000
# 2 16.4356 150.2783 73.1429 0.0000 0.0000 0.0000
# 3 14.1296 73.1429 157.0553 0.0000 0.0000 0.0000
# 4 0.0000 0.0000 0.0000 58.7848 0.0000 0.0000
# 5 0.0000 0.0000 0.0000 0.0000 4.2745 0.0000
# 6 0.0000 0.0000 0.0000 0.0000 0.0000 3.4613
#
#
#
# Elastic Compliance Matrix: (Units=1/GPa)
#
#
# Indices 1 2 3 4 5 6 
#
# 1 0.063949 -0.005423 -0.003228 0.000000 0.000000 0.000000
# 2 -0.005423 0.009065 -0.003734 0.000000 0.000000 0.000000
# 3 -0.003228 -0.003734 0.008396 0.000000 0.000000 0.000000
# 4 0.000000 0.000000 0.000000 0.017011 0.000000 0.000000
# 5 0.000000 0.000000 0.000000 0.000000 0.233943 0.000000
# 6 0.000000 0.000000 0.000000 0.000000 0.000000 0.288907
#
#
# Mechanical properties :
#
#
# Convention : Reuss Voigt Hill
#
# Bulk Modulus (GPa) = 17.65496 59.16600 38.41048
# Shear Modulus (GPa) = 7.51970 28.06214 17.79092
#
# Velocity S-wave (km/s) = 1.99406 3.85211 3.06716
# Velocity P-wave (km/s) = 3.82587 7.14638 5.73184
#
# Compressibility (1/GPa) = 0.05664132
#
# Stress axis : x y z
#
# Youngs Moduli (GPa) = 15.63750 110.31871 119.09901
#
# Poissons Ratio (x) = 0.59826 0.38441
# Poissons Ratio (y) = 0.08480 0.44467
# Poissons Ratio (z) = 0.05047 0.41189
#
# Static dielectric constant tensor:
#      x y z
#    x 2.727740 0.000000 0.000000 
#    y 0.000000 3.641330 0.000000 
#    z 0.000000 0.000000 3.771280 
# 
# 
# High freq. dielectric constant tensor:
#      x y z
#    x 1.653440 0.000000 0.000000 
#    y 0.000000 1.746770 0.000000 
#    z 0.000000 0.000000 1.746540 
# 
# From -- ./inp_files/19486.got.cif
#   From: 2010.03.12/outbox.cif.g09.slc.cpg/sg38_10_cif.got.tgz:19486.got - 2010.04.14 02:38:36.
