data_PCOD8177458
_publ_section_title
;
Structure prediction by ZEFSAII (Michael W. Deem and Ramdas Pophale) SiO2 
 PCOD8177458
Probable space group: A M M 2
;
_chemical_formula_sum "Si O2"
_cell_formula_units_Z 48
_cell_length_a 12.906518
_cell_length_b 8.794911
_cell_length_c 23.734819
_cell_angle_alpha 90.000000
_cell_angle_beta 90.000000
_cell_angle_gamma 90.000000
_cell_volume 2694.179111
_symmetry_space_group_name_H-M "A M M 2"
_symmetry_group_IT_number 38
_symmetry_cell_setting 'orthorhombic'
loop_
_space_group_symop_operation_xyz
x,y,z
-x,-y,z
-x,y,z
x,-y,z
x,1/2+y,1/2+z
-x,1/2-y,1/2+z
-x,1/2+y,1/2+z
x,1/2-y,1/2+z
loop_
_atom_site_type_symbol
_atom_site_label
_atom_site_fract_x
_atom_site_fract_y
_atom_site_fract_z
Si Si1 0.500000 0.819358 0.324440
Si Si2 0.697158 0.680855 0.755334
Si Si3 0.885097 0.319016 0.956114
Si Si4 0.690761 0.318893 0.023430
Si Si5 0.884838 0.819372 0.329710
Si Si6 0.500000 0.681416 0.950518
Si Si7 0.381184 0.819539 0.644537
O O1 0.399105 0.759242 0.292086
O O2 0.500000 0.752204 0.387406
O O3 0.500000 0.000000 0.326828
O O4 0.697160 0.500000 0.750803
O O5 0.801423 0.743865 0.785081
O O6 0.689520 0.749934 0.693326
O O7 0.882039 0.500000 0.956011
O O8 0.858969 0.260732 0.892879
O O9 0.000000 0.262422 0.974092
O O10 0.800637 0.255025 0.000355
O O11 0.689845 0.500000 0.023010
O O12 0.668986 0.259637 0.086369
O O13 0.601177 0.256828 0.982457
O O14 0.000000 0.764319 0.311808
O O15 0.879760 0.000000 0.330066
O O16 0.500000 0.500000 0.949719
O O17 0.500000 0.761839 0.649085
O O18 0.377867 0.000000 0.647881
#
# Coordination Sequence:
#
# PCOD8177458 Si02
#       7
#     4   8   8   8   8   4   8
#     4   9  16  23  37  65  91 105 130 181 230 256
#     4  10  18  29  45  66  90 115 147 184 218 256
#     4   8  13  22  38  61  88 113 135 170 223 269
#     4   9  15  24  38  57  82 111 143 174 211 258
#     4   8  14  25  42  65  92 118 142 174 222 271
#     4   9  14  21  36  59  83 103 128 173 222 256
#     4  10  19  31  44  61  88 123 154 179 213 261
#
# _framework density 17.816188
#
# number of rings (size 3 to 8) (size 9 to 14) (size 15 to 20)
#    0.000    3.000    1.667    2.000    0.000    4.000 
#    0.000    0.833    0.000    1.500    0.000    5.833 
#    0.000    1.333    0.000    0.000    0.000    0.000 
#
# Total GULP energy -297473.975580 kJ/mol
# GULP energy per Si atom -12394.748983 kJ/mol
# Density = 1.777564 g / cm^3
# Si number density = 17.816188 Si / 1000 Ang^3
#
#
#
# Elastic Constant Matrix: (Units=GPa)
#
#
# Indices 1 2 3 4 5 6 
#
# 1 161.8598 9.4825 94.0487 0.0000 0.0000 0.0000
# 2 9.4825 5.2607 10.7619 0.0000 0.0000 0.0000
# 3 94.0487 10.7619 162.4007 0.0000 0.0000 0.0000
# 4 0.0000 0.0000 0.0000 20.2777 0.0000 0.0000
# 5 0.0000 0.0000 0.0000 0.0000 34.7855 0.0000
# 6 0.0000 0.0000 0.0000 0.0000 0.0000 7.3909
#
#
#
# Elastic Compliance Matrix: (Units=1/GPa)
#
#
# Indices 1 2 3 4 5 6 
#
# 1 0.009517 -0.006802 -0.005061 0.000000 0.000000 0.000000
# 2 -0.006802 0.224763 -0.010955 0.000000 0.000000 0.000000
# 3 -0.005061 -0.010955 0.009814 0.000000 0.000000 0.000000
# 4 0.000000 0.000000 0.000000 0.049315 0.000000 0.000000
# 5 0.000000 0.000000 0.000000 0.000000 0.028748 0.000000
# 6 0.000000 0.000000 0.000000 0.000000 0.000000 0.135302
#
#
# Mechanical properties :
#
#
# Convention : Reuss Voigt Hill
#
# Bulk Modulus (GPa) = 5.03885 62.01191 33.52538
# Shear Modulus (GPa) = 8.78351 26.83935 17.81143
#
# Velocity S-wave (km/s) = 2.22279 3.88552 3.16529
# Velocity P-wave (km/s) = 3.06954 7.41699 5.67600
#
# Compressibility (1/GPa) = 0.19845806
#
# Stress axis : x y z
#
# Youngs Moduli (GPa) = 105.07196 4.44914 101.89102
#
# Poissons Ratio (x) = 0.03026 0.51566
# Poissons Ratio (y) = 0.71470 1.11625
# Poissons Ratio (z) = 0.53175 0.04874
#
# Static dielectric constant tensor:
#      x y z
#    x 3.657030 0.000000 0.000000 
#    y 0.000000 2.562290 0.000000 
#    z 0.000000 0.000000 3.477400 
# 
# 
# High freq. dielectric constant tensor:
#      x y z
#    x 1.697690 0.000000 0.000000 
#    y 0.000000 1.612900 0.000000 
#    z 0.000000 0.000000 1.694360 
# 
# From -- ./inp_files/20602.got.cif
#   From: 2010.03.12/outbox.cif.g09.slc.cpg/sg38_11_cif.got.tgz:20602.got - 2010.04.14 02:38:36.
