data_PCOD8177938
_publ_section_title
;
Structure prediction by ZEFSAII (Michael W. Deem and Ramdas Pophale) SiO2 
 PCOD8177938
Probable space group: A M M 2
;
_chemical_formula_sum "Si O2"
_cell_formula_units_Z 56
_cell_length_a 17.457988
_cell_length_b 9.014097
_cell_length_c 19.132662
_cell_angle_alpha 90.000000
_cell_angle_beta 90.000000
_cell_angle_gamma 90.000000
_cell_volume 3010.868701
_symmetry_space_group_name_H-M "A M M 2"
_symmetry_group_IT_number 38
_symmetry_cell_setting 'orthorhombic'
loop_
_space_group_symop_operation_xyz
x,y,z
-x,-y,z
-x,y,z
x,-y,z
x,1/2+y,1/2+z
-x,1/2-y,1/2+z
-x,1/2+y,1/2+z
x,1/2-y,1/2+z
loop_
_atom_site_type_symbol
_atom_site_label
_atom_site_fract_x
_atom_site_fract_y
_atom_site_fract_z
Si Si1 0.311947 0.672600 0.739930
Si Si2 0.183842 0.337778 0.841805
Si Si3 0.410074 0.828329 0.851399
Si Si4 0.691713 0.166814 0.460544
Si Si5 0.912521 0.175083 0.571931
Si Si6 0.241439 0.824877 0.095842
Si Si7 0.912816 0.160194 0.931653
O O1 0.331208 0.500000 0.752827
O O2 0.230535 0.713586 0.774385
O O3 0.378212 0.766346 0.777515
O O4 0.301128 0.710813 0.658510
O O5 0.147320 0.500000 0.829268
O O6 0.237497 0.340735 0.909144
O O7 0.118605 0.218498 0.857626
O O8 0.500000 0.803071 0.850346
O O9 0.377925 0.746041 0.920036
O O10 0.387382 0.000000 0.856954
O O11 0.717811 0.258212 0.528103
O O12 0.666684 0.000000 0.482479
O O13 0.843209 0.255722 0.613312
O O14 0.898843 0.219214 0.491591
O O15 0.000000 0.222722 0.595242
O O16 0.902633 0.000000 0.579666
O O17 0.230044 0.000000 0.087381
O O18 0.000000 0.132405 0.917438
O O19 0.875015 0.000000 0.951610
#
# Coordination Sequence:
#
# PCOD8177938 Si02
#       7
#     8   8   8   8   8   8   8
#     4   9  21  38  56  80 110 146 184 221 272 333
#     4   9  17  32  51  72 100 134 175 220 265 322
#     4  10  21  38  61  88 114 142 180 224 270 326
#     4  10  20  34  56  83 110 141 178 221 271 325
#     4  10  20  33  50  74 106 146 188 231 281 332
#     4  11  21  35  56  82 112 146 188 235 278 325
#     4  10  19  29  45  72 102 134 177 229 280 325
#
# _framework density 18.599283
#
# number of rings (size 3 to 8) (size 9 to 14) (size 15 to 20)
#    0.000    2.143    1.429    3.000    0.000    6.286 
#    0.000    1.429    0.000    5.143    0.000    0.000 
#    0.000    0.000    0.000    0.000    0.000    0.000 
#
# Total GULP energy -346995.678240 kJ/mol
# GULP energy per Si atom -12392.702794 kJ/mol
# Density = 1.855695 g / cm^3
# Si number density = 18.599283 Si / 1000 Ang^3
#
#
#
# Elastic Constant Matrix: (Units=GPa)
#
#
# Indices 1 2 3 4 5 6 
#
# 1 71.7986 49.8752 33.3020 0.0000 0.0000 0.0000
# 2 49.8752 110.8026 40.2058 0.0000 0.0000 0.0000
# 3 33.3020 40.2058 84.2756 0.0000 0.0000 0.0000
# 4 0.0000 0.0000 0.0000 23.2352 0.0000 0.0000
# 5 0.0000 0.0000 0.0000 0.0000 21.8912 0.0000
# 6 0.0000 0.0000 0.0000 0.0000 0.0000 30.4540
#
#
#
# Elastic Compliance Matrix: (Units=1/GPa)
#
#
# Indices 1 2 3 4 5 6 
#
# 1 0.021724 -0.008059 -0.004740 0.000000 0.000000 0.000000
# 2 -0.008059 0.013904 -0.003449 0.000000 0.000000 0.000000
# 3 -0.004740 -0.003449 0.015384 0.000000 0.000000 0.000000
# 4 0.000000 0.000000 0.000000 0.043038 0.000000 0.000000
# 5 0.000000 0.000000 0.000000 0.000000 0.045681 0.000000
# 6 0.000000 0.000000 0.000000 0.000000 0.000000 0.032836
#
#
# Mechanical properties :
#
#
# Convention : Reuss Voigt Hill
#
# Bulk Modulus (GPa) = 54.00258 57.07142 55.53700
# Shear Modulus (GPa) = 23.67033 24.68234 24.17634
#
# Velocity S-wave (km/s) = 3.57129 3.64683 3.60926
# Velocity P-wave (km/s) = 6.78994 6.96304 6.87703
#
# Compressibility (1/GPa) = 0.01851763
#
# Stress axis : x y z
#
# Youngs Moduli (GPa) = 46.03114 71.92194 65.00210
#
# Poissons Ratio (x) = 0.57961 0.30810
# Poissons Ratio (y) = 0.37096 0.22418
# Poissons Ratio (z) = 0.21818 0.24804
#
# Static dielectric constant tensor:
#      x y z
#    x 3.381700 0.000000 0.000000 
#    y 0.000000 3.720820 0.000000 
#    z 0.000000 0.000000 3.584800 
# 
# 
# High freq. dielectric constant tensor:
#      x y z
#    x 1.709130 0.000000 0.000000 
#    y 0.000000 1.736080 0.000000 
#    z 0.000000 0.000000 1.701210 
# 
# From -- ./inp_files/21305.got.cif
#   From: 2010.03.12/outbox.cif.g09.slc.cpg/sg38_11_cif.got.tgz:21305.got - 2010.04.14 02:38:36.
