data_PCOD8177147
_publ_section_title
;
Structure prediction by ZEFSAII (Michael W. Deem and Ramdas Pophale) SiO2 
 PCOD8177147
Probable space group: C C C 2
;
_chemical_formula_sum "Si O2"
_cell_formula_units_Z 48
_cell_length_a 26.736740
_cell_length_b 9.290636
_cell_length_c 8.331225
_cell_angle_alpha 90.000000
_cell_angle_beta 90.000000
_cell_angle_gamma 90.000000
_cell_volume 2069.487280
_symmetry_space_group_name_H-M "C C C 2"
_symmetry_group_IT_number 37
_symmetry_cell_setting 'orthorhombic'
loop_
_space_group_symop_operation_xyz
x,y,z
-x,-y,z
-x,y,1/2+z
x,-y,1/2+z
1/2+x,1/2+y,z
1/2-x,1/2-y,z
1/2-x,1/2+y,1/2+z
1/2+x,1/2-y,1/2+z
loop_
_atom_site_type_symbol
_atom_site_label
_atom_site_fract_x
_atom_site_fract_y
_atom_site_fract_z
Si Si1 0.905411 0.797882 0.849300
Si Si2 0.557131 0.954090 0.661292
Si Si3 0.556197 0.548781 0.165583
Si Si4 0.096724 0.703216 0.847349
Si Si5 0.702957 0.659590 0.797542
Si Si6 0.297913 0.335373 0.417727
O O1 0.937427 0.654216 0.813458
O O2 0.846671 0.762986 0.867925
O O3 0.909991 0.908355 0.698512
O O4 0.926200 0.873004 0.006330
O O5 0.578560 0.874928 0.506913
O O6 0.500000 0.000000 0.638111
O O7 0.590541 0.094659 0.696588
O O8 0.500000 0.500000 0.147637
O O9 0.561440 0.658270 0.315930
O O10 0.153787 0.752739 0.851281
O O11 0.750000 0.750000 0.864640
O O12 0.701466 0.664238 0.607603
O O13 0.705128 0.496423 0.854376
O O14 0.250000 0.250000 0.351092
#
# Coordination Sequence:
#
# PCOD8177147 Si02
#       6
#     8   8   8   8   8   8
#     4  12  24  47  74 108 145 189 245 302 365 437
#     4  12  27  47  72 103 149 196 245 298 365 437
#     4  12  26  45  74 107 146 192 245 305 362 433
#     4  12  26  49  71 108 147 192 248 304 368 435
#     4  11  25  49  75 109 146 187 240 303 368 437
#     4  11  26  47  76 111 145 188 243 300 368 441
#
# _framework density 23.194151000000002
#
# number of rings (size 3 to 8) (size 9 to 14) (size 15 to 20)
#    0.000    0.333    3.333    5.000    2.333    3.333 
#    0.000    1.667    0.000    0.000    0.000    0.000 
#    0.000    0.000    0.000    0.000    0.000    0.000 
#
# Total GULP energy -297730.022732 kJ/mol
# GULP energy per Si atom -12405.417614 kJ/mol
# Density = 2.314136 g / cm^3
# Si number density = 23.194151 Si / 1000 Ang^3
#
#
#
# Elastic Constant Matrix: (Units=GPa)
#
#
# Indices 1 2 3 4 5 6 
#
# 1 213.5491 90.4440 65.4843 0.0000 0.0000 0.0000
# 2 90.4440 139.0394 18.3553 0.0000 0.0000 0.0000
# 3 65.4843 18.3553 52.0314 0.0000 0.0000 0.0000
# 4 0.0000 0.0000 0.0000 64.3038 0.0000 0.0000
# 5 0.0000 0.0000 0.0000 0.0000 31.7517 0.0000
# 6 0.0000 0.0000 0.0000 0.0000 0.0000 57.5994
#
#
#
# Elastic Compliance Matrix: (Units=1/GPa)
#
#
# Indices 1 2 3 4 5 6 
#
# 1 0.010317 -0.005241 -0.011136 0.000000 0.000000 0.000000
# 2 -0.005241 0.010206 0.002996 0.000000 0.000000 0.000000
# 3 -0.011136 0.002996 0.032178 0.000000 0.000000 0.000000
# 4 0.000000 0.000000 0.000000 0.015551 0.000000 0.000000
# 5 0.000000 0.000000 0.000000 0.000000 0.031494 0.000000
# 6 0.000000 0.000000 0.000000 0.000000 0.000000 0.017361
#
#
# Mechanical properties :
#
#
# Convention : Reuss Voigt Hill
#
# Bulk Modulus (GPa) = 38.55280 83.68744 61.12012
# Shear Modulus (GPa) = 32.78325 46.08673 39.43499
#
# Velocity S-wave (km/s) = 3.76364 4.46241 4.12784
# Velocity P-wave (km/s) = 5.96192 7.91899 7.00910
#
# Compressibility (1/GPa) = 0.02593845
#
# Stress axis : x y z
#
# Youngs Moduli (GPa) = 96.92326 97.98056 31.07750
#
# Poissons Ratio (x) = 0.51354 0.34608
# Poissons Ratio (y) = 0.50800 -0.09311
# Poissons Ratio (z) = 1.07934 -0.29355
#
# Static dielectric constant tensor:
#      x y z
#    x 4.871810 0.000000 0.000000 
#    y 0.000000 4.594500 0.000000 
#    z 0.000000 0.000000 4.279110 
# 
# 
# High freq. dielectric constant tensor:
#      x y z
#    x 1.923340 0.000000 0.000000 
#    y 0.000000 1.939200 0.000000 
#    z 0.000000 0.000000 1.925790 
# 
# From -- ./inp_files/4945.got.cif
#   From: 2010.03.12/outbox.cif.g09.slc.cpg/sg37_3_cif.got.tgz:4945.got - 2010.04.14 02:25:27.
