data_PCOD8177836
_publ_section_title
;
Structure prediction by ZEFSAII (Michael W. Deem and Ramdas Pophale) SiO2 
 PCOD8177836
Probable space group: A M M 2
;
_chemical_formula_sum "Si O2"
_cell_formula_units_Z 64
_cell_length_a 8.807536
_cell_length_b 15.363359
_cell_length_c 23.790796
_cell_angle_alpha 90.000000
_cell_angle_beta 90.000000
_cell_angle_gamma 90.000000
_cell_volume 3219.212008
_symmetry_space_group_name_H-M "A M M 2"
_symmetry_group_IT_number 38
_symmetry_cell_setting 'orthorhombic'
loop_
_space_group_symop_operation_xyz
x,y,z
-x,-y,z
-x,y,z
x,-y,z
x,1/2+y,1/2+z
-x,1/2-y,1/2+z
-x,1/2+y,1/2+z
x,1/2-y,1/2+z
loop_
_atom_site_type_symbol
_atom_site_label
_atom_site_fract_x
_atom_site_fract_y
_atom_site_fract_z
Si Si1 0.679064 0.344697 0.460460
Si Si2 0.173945 0.098021 0.353911
Si Si3 0.676290 0.097951 0.080365
Si Si4 0.324089 0.098610 0.590970
Si Si5 0.680711 0.404355 0.341850
Si Si6 0.320930 0.352807 0.966417
Si Si7 0.821855 0.244183 0.154510
Si Si8 0.320358 0.761211 0.274835
O O1 0.500000 0.345672 0.454723
O O2 0.728632 0.398601 0.515323
O O3 0.748938 0.387121 0.404168
O O4 0.736061 0.246289 0.466462
O O5 0.232683 0.096903 0.417797
O O6 0.274996 0.161083 0.316095
O O7 0.000000 0.129441 0.352047
O O8 0.189024 0.000000 0.330248
O O9 0.500000 0.125454 0.086023
O O10 0.777249 0.164810 0.114603
O O11 0.702630 0.000000 0.102747
O O12 0.500000 0.124244 0.596974
O O13 0.274477 0.106136 0.526096
O O14 0.230971 0.163352 0.630318
O O15 0.294054 0.000000 0.611499
O O16 0.500000 0.400272 0.344322
O O17 0.735214 0.500000 0.321441
O O18 0.740781 0.330732 0.299332
O O19 0.500000 0.361670 0.955441
O O20 0.750096 0.224173 0.214402
O O21 0.000000 0.246720 0.161394
O O22 0.500000 0.760794 0.269260
#
# Coordination Sequence:
#
# PCOD8177836 Si02
#       8
#     8   8   8   8   8   8   8   8
#     4   9  15  29  57  92 123 147 182 235 290 344
#     4  11  24  40  59  87 124 161 196 241 301 364
#     4  10  20  37  64  93 120 154 197 245 295 354
#     4  10  21  39  64  91 120 157 205 257 300 348
#     4   9  17  31  56  91 121 144 178 230 290 344
#     4  10  18  34  62  92 121 155 197 245 295 349
#     4  12  26  42  60  84 120 162 199 249 310 367
#     4  11  23  41  64  87 112 152 205 254 295 348
#
# _framework density 19.880642000000002
#
# number of rings (size 3 to 8) (size 9 to 14) (size 15 to 20)
#    0.000    1.750    2.500    2.625    0.000    5.000 
#    0.000    1.250    0.000    1.125    0.000    0.000 
#    0.000    0.000    0.000    0.000    0.000    0.000 
#
# Total GULP energy -396824.941017 kJ/mol
# GULP energy per Si atom -12400.779407 kJ/mol
# Density = 1.983539 g / cm^3
# Si number density = 19.880642 Si / 1000 Ang^3
#
#
#
# Elastic Constant Matrix: (Units=GPa)
#
#
# Indices 1 2 3 4 5 6 
#
# 1 69.2525 26.8878 27.1788 0.0000 0.0000 0.0000
# 2 26.8878 105.2230 13.6581 0.0000 0.0000 0.0000
# 3 27.1788 13.6581 68.8462 0.0000 0.0000 0.0000
# 4 0.0000 0.0000 0.0000 3.8797 0.0000 0.0000
# 5 0.0000 0.0000 0.0000 0.0000 -0.6749 0.0000
# 6 0.0000 0.0000 0.0000 0.0000 0.0000 19.9999
#
#
#
# Elastic Compliance Matrix: (Units=1/GPa)
#
#
# Indices 1 2 3 4 5 6 
#
# 1 0.018513 -0.003882 -0.006538 0.000000 0.000000 0.000000
# 2 -0.003882 0.010569 -0.000564 0.000000 0.000000 0.000000
# 3 -0.006538 -0.000564 0.017218 0.000000 0.000000 0.000000
# 4 0.000000 0.000000 0.000000 0.257751 0.000000 0.000000
# 5 0.000000 0.000000 0.000000 0.000000 -1.481710 0.000000
# 6 0.000000 0.000000 0.000000 0.000000 0.000000 0.050000
#
#
# Mechanical properties :
#
#
# Convention : Reuss Voigt Hill
#
# Bulk Modulus (GPa) = 41.09973 42.08569 41.59271
# Shear Modulus (GPa) = -4.55548 16.34741 5.89596
#
# Velocity S-wave (km/s) = -1.51538 2.87065 1.72398
# Velocity P-wave (km/s) = 4.20194 5.67474 4.99294
#
# Compressibility (1/GPa) = 0.02433106
#
# Stress axis : x y z
#
# Youngs Moduli (GPa) = 54.01555 94.61777 58.07791
#
# Poissons Ratio (x) = 0.36731 0.37974
# Poissons Ratio (y) = 0.20969 0.03277
# Poissons Ratio (z) = 0.35318 0.05338
#
# Static dielectric constant tensor:
#      x y z
#    x 3.287250 0.000000 0.000000 
#    y 0.000000 3.801120 0.000000 
#    z 0.000000 0.000000 3.675770 
# 
# 
# High freq. dielectric constant tensor:
#      x y z
#    x 1.739730 0.000000 0.000000 
#    y 0.000000 1.791260 0.000000 
#    z 0.000000 0.000000 1.776580 
# 
# From -- ./inp_files/22172.got.cif
#   From: 2010.03.12/outbox.cif.g09.slc.cpg/sg38_12_cif.got.tgz:22172.got - 2010.04.14 02:38:36.
