data_PCOD8177850
_publ_section_title
;
Structure prediction by ZEFSAII (Michael W. Deem and Ramdas Pophale) SiO2 
 PCOD8177850
Probable space group: A M M 2
;
_chemical_formula_sum "Si O2"
_cell_formula_units_Z 56
_cell_length_a 7.831631
_cell_length_b 13.623557
_cell_length_c 32.450124
_cell_angle_alpha 90.000000
_cell_angle_beta 90.000000
_cell_angle_gamma 90.000000
_cell_volume 3462.255315
_symmetry_space_group_name_H-M "A M M 2"
_symmetry_group_IT_number 38
_symmetry_cell_setting 'orthorhombic'
loop_
_space_group_symop_operation_xyz
x,y,z
-x,-y,z
-x,y,z
x,-y,z
x,1/2+y,1/2+z
-x,1/2-y,1/2+z
-x,1/2+y,1/2+z
x,1/2-y,1/2+z
loop_
_atom_site_type_symbol
_atom_site_label
_atom_site_fract_x
_atom_site_fract_y
_atom_site_fract_z
Si Si1 0.300282 0.890365 0.569070
Si Si2 0.500000 0.116056 0.796603
Si Si3 0.808370 0.882968 0.850831
Si Si4 0.500000 0.882928 0.701536
Si Si5 0.805563 0.297298 0.149786
Si Si6 0.800644 0.390179 0.599603
Si Si7 0.306666 0.709287 0.518987
Si Si8 0.804766 0.106093 0.940072
O O1 0.500000 0.873648 0.578988
O O2 0.197428 0.869944 0.610762
O O3 0.238008 0.815636 0.533704
O O4 0.262115 0.000000 0.553558
O O5 0.327727 0.159128 0.817735
O O6 0.500000 0.146084 0.749111
O O7 0.500000 0.000000 0.801744
O O8 0.736782 0.851136 0.896387
O O9 0.000000 0.841284 0.841356
O O10 0.814107 0.000000 0.848931
O O11 0.672367 0.835509 0.683430
O O12 0.500000 0.000000 0.693619
O O13 0.748843 0.187792 0.134980
O O14 0.000000 0.297171 0.167546
O O15 0.749135 0.500000 0.614142
O O16 0.709241 0.367776 0.556351
O O17 0.000000 0.381671 0.590541
O O18 0.500000 0.716137 0.504789
O O19 0.206895 0.679792 0.478146
O O20 0.000000 0.085829 0.930724
O O21 0.717701 0.000000 0.950848
#
# Coordination Sequence:
#
# PCOD8177850 Si02
#       8
#     8   4   8   4   8   8   8   8
#     4   9  17  31  46  58  84 123 157 193 229 259
#     4   9  18  30  46  64  85 115 145 178 220 265
#     4   8  15  28  44  62  85 115 148 176 211 264
#     4  11  22  34  47  68  95 119 150 192 231 267
#     4  10  20  33  49  69  91 119 156 191 228 274
#     4   9  18  32  47  63  90 125 154 186 228 269
#     4  10  19  26  38  65  90 114 155 192 220 259
#     4   9  17  28  41  58  86 121 148 176 215 258
#
# _framework density 16.174427999999999
#
# number of rings (size 3 to 8) (size 9 to 14) (size 15 to 20)
#    0.000    2.714    0.714    2.143    2.000    4.571 
#    0.000    1.429    0.000    0.000    0.000    0.000 
#    0.000    2.286    0.000    1.714    0.000    0.000 
#
# Total GULP energy -346981.139164 kJ/mol
# GULP energy per Si atom -12392.183542 kJ/mol
# Density = 1.613761 g / cm^3
# Si number density = 16.174428 Si / 1000 Ang^3
#
#
#
# Elastic Constant Matrix: (Units=GPa)
#
#
# Indices 1 2 3 4 5 6 
#
# 1 73.0742 23.0467 52.3040 0.0000 0.0000 0.0000
# 2 23.0467 89.4639 45.1215 0.0000 0.0000 0.0000
# 3 52.3040 45.1215 117.9882 0.0000 0.0000 0.0000
# 4 0.0000 0.0000 0.0000 16.7134 0.0000 0.0000
# 5 0.0000 0.0000 0.0000 0.0000 21.8427 0.0000
# 6 0.0000 0.0000 0.0000 0.0000 0.0000 16.3081
#
#
#
# Elastic Compliance Matrix: (Units=1/GPa)
#
#
# Indices 1 2 3 4 5 6 
#
# 1 0.020097 -0.000847 -0.008585 0.000000 0.000000 0.000000
# 2 -0.000847 0.013885 -0.004934 0.000000 0.000000 0.000000
# 3 -0.008585 -0.004934 0.014168 0.000000 0.000000 0.000000
# 4 0.000000 0.000000 0.000000 0.059832 0.000000 0.000000
# 5 0.000000 0.000000 0.000000 0.000000 0.045782 0.000000
# 6 0.000000 0.000000 0.000000 0.000000 0.000000 0.061319
#
#
# Mechanical properties :
#
#
# Convention : Reuss Voigt Hill
#
# Bulk Modulus (GPa) = 51.50214 57.94116 54.72165
# Shear Modulus (GPa) = 19.97707 21.64314 20.81010
#
# Velocity S-wave (km/s) = 3.51821 3.66198 3.59082
# Velocity P-wave (km/s) = 6.95806 7.33353 7.14826
#
# Compressibility (1/GPa) = 0.01941667
#
# Stress axis : x y z
#
# Youngs Moduli (GPa) = 49.75952 72.02260 70.58160
#
# Poissons Ratio (x) = 0.06102 0.60593
# Poissons Ratio (y) = 0.04216 0.34826
# Poissons Ratio (z) = 0.42718 0.35537
#
# Static dielectric constant tensor:
#      x y z
#    x 3.175580 0.000000 0.000000 
#    y 0.000000 2.951610 0.000000 
#    z 0.000000 0.000000 2.967870 
# 
# 
# High freq. dielectric constant tensor:
#      x y z
#    x 1.631560 0.000000 0.000000 
#    y 0.000000 1.585580 0.000000 
#    z 0.000000 0.000000 1.600320 
# 
# From -- ./inp_files/24670.got.cif
#   From: 2010.03.12/outbox.cif.g09.slc.cpg/sg38_13_cif.got.tgz:24670.got - 2010.04.14 02:38:36.
