data_PCOD8177800
_publ_section_title
;
Structure prediction by ZEFSAII (Michael W. Deem and Ramdas Pophale) SiO2 
 PCOD8177800
Probable space group: A M M 2
;
_chemical_formula_sum "Si O2"
_cell_formula_units_Z 48
_cell_length_a 7.523281
_cell_length_b 31.257433
_cell_length_c 9.814464
_cell_angle_alpha 90.000000
_cell_angle_beta 90.000000
_cell_angle_gamma 90.000000
_cell_volume 2307.954159
_symmetry_space_group_name_H-M "A M M 2"
_symmetry_group_IT_number 38
_symmetry_cell_setting 'orthorhombic'
loop_
_space_group_symop_operation_xyz
x,y,z
-x,-y,z
-x,y,z
x,-y,z
x,1/2+y,1/2+z
-x,1/2-y,1/2+z
-x,1/2+y,1/2+z
x,1/2-y,1/2+z
loop_
_atom_site_type_symbol
_atom_site_label
_atom_site_fract_x
_atom_site_fract_y
_atom_site_fract_z
Si Si1 0.000000 0.786134 0.495090
Si Si2 0.793176 0.093787 0.796909
Si Si3 0.705335 0.414432 0.829257
Si Si4 0.287327 0.500000 0.951500
Si Si5 0.000000 0.798286 0.169953
Si Si6 0.800657 0.000000 0.760609
Si Si7 0.294490 0.636989 0.577013
Si Si8 0.298812 0.349930 0.046342
O O1 0.000000 0.783604 0.329061
O O2 0.825846 0.808748 0.558412
O O3 0.000000 0.739790 0.561605
O O4 0.711775 0.045109 0.811552
O O5 0.697298 0.119148 0.676781
O O6 0.000000 0.090070 0.761398
O O7 0.763440 0.122374 0.928955
O O8 0.500000 0.416401 0.869029
O O9 0.790199 0.459720 0.868076
O O10 0.737306 0.404732 0.671039
O O11 0.785630 0.376225 0.919962
O O12 0.500000 0.500000 0.963025
O O13 0.200649 0.500000 0.098396
O O14 0.822340 0.824635 0.135863
O O15 0.000000 0.000000 0.816954
O O16 0.500000 0.651773 0.580087
O O17 0.500000 0.333939 0.019591
#
# Coordination Sequence:
#
# PCOD8177800 Si02
#       8
#     4   8   8   4   4   4   8   8
#     4  12  28  46  72  99 132 168 207 272 335 397
#     4  11  22  39  64  96 138 181 224 269 322 381
#     4   9  19  36  62  92 123 169 217 260 312 370
#     4  10  18  33  58  90 129 167 223 275 307 366
#     4  12  28  48  72  99 130 164 207 270 337 399
#     4  10  22  35  54  94 137 175 221 271 315 374
#     4  11  24  45  69  94 132 176 216 265 328 393
#     4  11  22  41  68  96 129 174 219 261 320 390
#
# _framework density 20.797640999999999
#
# number of rings (size 3 to 8) (size 9 to 14) (size 15 to 20)
#    0.000    1.333    5.000    0.500    2.333    2.000 
#    1.500    0.833    0.000    0.000    0.000    0.000 
#    0.000    0.000    0.000    0.000    0.000    0.000 
#
# Total GULP energy -297495.164697 kJ/mol
# GULP energy per Si atom -12395.631862 kJ/mol
# Density = 2.075030 g / cm^3
# Si number density = 20.797641 Si / 1000 Ang^3
#
#
#
# Elastic Constant Matrix: (Units=GPa)
#
#
# Indices 1 2 3 4 5 6 
#
# 1 89.9996 38.5788 14.2904 0.0000 0.0000 0.0000
# 2 38.5788 118.0965 31.2264 0.0000 0.0000 0.0000
# 3 14.2904 31.2264 100.6397 0.0000 0.0000 0.0000
# 4 0.0000 0.0000 0.0000 38.7922 0.0000 0.0000
# 5 0.0000 0.0000 0.0000 0.0000 25.0589 0.0000
# 6 0.0000 0.0000 0.0000 0.0000 0.0000 9.1047
#
#
#
# Elastic Compliance Matrix: (Units=1/GPa)
#
#
# Indices 1 2 3 4 5 6 
#
# 1 0.012951 -0.004079 -0.000573 0.000000 0.000000 0.000000
# 2 -0.004079 0.010509 -0.002682 0.000000 0.000000 0.000000
# 3 -0.000573 -0.002682 0.010850 0.000000 0.000000 0.000000
# 4 0.000000 0.000000 0.000000 0.025778 0.000000 0.000000
# 5 0.000000 0.000000 0.000000 0.000000 0.039906 0.000000
# 6 0.000000 0.000000 0.000000 0.000000 0.000000 0.109834
#
#
# Mechanical properties :
#
#
# Convention : Reuss Voigt Hill
#
# Bulk Modulus (GPa) = 50.91146 52.99188 51.95167
# Shear Modulus (GPa) = 21.64101 29.56718 25.60410
#
# Velocity S-wave (km/s) = 3.22926 3.77458 3.51252
# Velocity P-wave (km/s) = 6.19974 6.67321 6.44082
#
# Compressibility (1/GPa) = 0.01964194
#
# Stress axis : x y z
#
# Youngs Moduli (GPa) = 77.21594 95.15463 92.16692
#
# Poissons Ratio (x) = 0.38814 0.05284
# Poissons Ratio (y) = 0.31497 0.24715
# Poissons Ratio (z) = 0.04427 0.25516
#
# Static dielectric constant tensor:
#      x y z
#    x 3.757490 0.000000 0.000000 
#    y 0.000000 3.834280 0.000000 
#    z 0.000000 0.000000 3.738070 
# 
# 
# High freq. dielectric constant tensor:
#      x y z
#    x 1.813670 0.000000 0.000000 
#    y 0.000000 1.808960 0.000000 
#    z 0.000000 0.000000 1.815230 
# 
# From -- ./inp_files/3905.got.cif
#   From: 2010.03.12/outbox.cif.g09.slc.cpg/sg38_2_cif.got.tgz:3905.got - 2010.04.14 02:38:36.
