data_PCOD8177571
_publ_section_title
;
Structure prediction by ZEFSAII (Michael W. Deem and Ramdas Pophale) SiO2 
 PCOD8177571
Probable space group: A M M 2
;
_chemical_formula_sum "Si O2"
_cell_formula_units_Z 64
_cell_length_a 8.766823
_cell_length_b 25.159569
_cell_length_c 15.464167
_cell_angle_alpha 90.000000
_cell_angle_beta 90.000000
_cell_angle_gamma 90.000000
_cell_volume 3410.923400
_symmetry_space_group_name_H-M "A M M 2"
_symmetry_group_IT_number 38
_symmetry_cell_setting 'orthorhombic'
loop_
_space_group_symop_operation_xyz
x,y,z
-x,-y,z
-x,y,z
x,-y,z
x,1/2+y,1/2+z
-x,1/2-y,1/2+z
-x,1/2+y,1/2+z
x,1/2-y,1/2+z
loop_
_atom_site_type_symbol
_atom_site_label
_atom_site_fract_x
_atom_site_fract_y
_atom_site_fract_z
Si Si1 0.681521 0.668073 0.202910
Si Si2 0.178996 0.721108 0.731715
Si Si3 0.321378 0.862252 0.521061
Si Si4 0.679411 0.645439 0.391793
Si Si5 0.681353 0.440933 0.522492
Si Si6 0.680399 0.386984 0.698152
Si Si7 0.317933 0.059941 0.375826
Si Si8 0.677452 0.236009 0.410882
O O1 0.500000 0.672655 0.204730
O O2 0.744827 0.727086 0.190405
O O3 0.736909 0.632686 0.120491
O O4 0.742222 0.642364 0.292830
O O5 0.240260 0.669473 0.682101
O O6 0.222840 0.715102 0.831797
O O7 0.000000 0.725636 0.720499
O O8 0.500000 0.872141 0.518777
O O9 0.249030 0.906197 0.456674
O O10 0.283729 0.802072 0.491032
O O11 0.500000 0.637040 0.389854
O O12 0.753090 0.599329 0.451036
O O13 0.719681 0.702964 0.433179
O O14 0.500000 0.440227 0.515940
O O15 0.744965 0.500000 0.503863
O O16 0.730601 0.424144 0.618626
O O17 0.500000 0.378159 0.700850
O O18 0.739805 0.414388 0.786262
O O19 0.500000 0.060232 0.376508
O O20 0.255119 0.000000 0.383615
O O21 0.500000 0.231661 0.383677
#
# Coordination Sequence:
#
# PCOD8177571 Si02
#       8
#     8   8   8   8   8   8   8   8
#     4   9  18  32  51  71  99 136 169 200 242 298
#     4  11  21  32  47  72 104 133 163 201 247 294
#     4   9  16  27  48  75  99 129 167 203 241 292
#     4   8  15  27  44  68  97 126 161 203 243 284
#     4   9  17  28  46  74 101 127 166 210 247 285
#     4  10  18  30  50  72  97 132 168 202 244 295
#     4   9  16  27  46  74 102 123 156 209 253 288
#     4   9  16  30  50  72  97 129 167 201 242 298
#
# _framework density 18.763247
#
# number of rings (size 3 to 8) (size 9 to 14) (size 15 to 20)
#    0.000    2.750    1.250    2.250    1.750    1.500 
#    0.000    1.250    0.000    5.250    0.000    0.000 
#    0.000    4.000    0.000    0.000    0.000    0.000 
#
# Total GULP energy -396597.373596 kJ/mol
# GULP energy per Si atom -12393.667925 kJ/mol
# Density = 1.872054 g / cm^3
# Si number density = 18.763247 Si / 1000 Ang^3
#
#
#
# Elastic Constant Matrix: (Units=GPa)
#
#
# Indices 1 2 3 4 5 6 
#
# 1 19.2602 10.3248 11.6662 0.0000 0.0000 0.0000
# 2 10.3248 144.0768 85.3607 0.0000 0.0000 0.0000
# 3 11.6662 85.3607 144.4486 0.0000 0.0000 0.0000
# 4 0.0000 0.0000 0.0000 31.8572 0.0000 0.0000
# 5 0.0000 0.0000 0.0000 0.0000 4.1383 0.0000
# 6 0.0000 0.0000 0.0000 0.0000 0.0000 3.1132
#
#
#
# Elastic Compliance Matrix: (Units=1/GPa)
#
#
# Indices 1 2 3 4 5 6 
#
# 1 0.054968 -0.002014 -0.003249 0.000000 0.000000 0.000000
# 2 -0.002014 0.010754 -0.006192 0.000000 0.000000 0.000000
# 3 -0.003249 -0.006192 0.010844 0.000000 0.000000 0.000000
# 4 0.000000 0.000000 0.000000 0.031390 0.000000 0.000000
# 5 0.000000 0.000000 0.000000 0.000000 0.241647 0.000000
# 6 0.000000 0.000000 0.000000 0.000000 0.000000 0.321208
#
#
# Mechanical properties :
#
#
# Convention : Reuss Voigt Hill
#
# Bulk Modulus (GPa) = 18.63735 58.05433 38.34584
# Shear Modulus (GPa) = 7.02634 21.18400 14.10517
#
# Velocity S-wave (km/s) = 1.93723 3.36373 2.74477
# Velocity P-wave (km/s) = 3.86759 6.78924 5.52504
#
# Compressibility (1/GPa) = 0.05365570
#
# Stress axis : x y z
#
# Youngs Moduli (GPa) = 18.19226 92.99103 92.21267
#
# Poissons Ratio (x) = 0.18729 0.29962
# Poissons Ratio (y) = 0.03664 0.57100
# Poissons Ratio (z) = 0.05911 0.57582
#
# Static dielectric constant tensor:
#      x y z
#    x 2.799750 0.000000 0.000000 
#    y 0.000000 3.662810 0.000000 
#    z 0.000000 0.000000 3.763090 
# 
# 
# High freq. dielectric constant tensor:
#      x y z
#    x 1.660320 0.000000 0.000000 
#    y 0.000000 1.726030 0.000000 
#    z 0.000000 0.000000 1.734220 
# 
# From -- ./inp_files/17305.got.cif
#   From: 2010.03.12/outbox.cif.g09.slc.cpg/sg38_9_cif.got.tgz:17305.got - 2010.04.14 02:38:36.
