data_PCOD8177570
_publ_section_title
;
Structure prediction by ZEFSAII (Michael W. Deem and Ramdas Pophale) SiO2 
 PCOD8177570
Probable space group: A M M 2
;
_chemical_formula_sum "Si O2"
_cell_formula_units_Z 64
_cell_length_a 19.402679
_cell_length_b 9.117753
_cell_length_c 20.877962
_cell_angle_alpha 90.000000
_cell_angle_beta 90.000000
_cell_angle_gamma 90.000000
_cell_volume 3693.495928
_symmetry_space_group_name_H-M "A M M 2"
_symmetry_group_IT_number 38
_symmetry_cell_setting 'orthorhombic'
loop_
_space_group_symop_operation_xyz
x,y,z
-x,-y,z
-x,y,z
x,-y,z
x,1/2+y,1/2+z
-x,1/2-y,1/2+z
-x,1/2+y,1/2+z
x,1/2-y,1/2+z
loop_
_atom_site_type_symbol
_atom_site_label
_atom_site_fract_x
_atom_site_fract_y
_atom_site_fract_z
Si Si1 0.782541 0.674062 0.788640
Si Si2 0.424988 0.325877 0.606309
Si Si3 0.706068 0.674062 0.916188
Si Si4 0.075904 0.673239 0.839660
Si Si5 0.421609 0.329860 0.460121
Si Si6 0.715786 0.674552 0.660119
Si Si7 0.215378 0.670419 0.530403
Si Si8 0.923889 0.167306 0.970421
O O1 0.778395 0.500000 0.785145
O O2 0.742075 0.730233 0.851123
O O3 0.862951 0.725142 0.792100
O O4 0.747787 0.742778 0.724985
O O5 0.500000 0.264604 0.629382
O O6 0.427282 0.500000 0.608193
O O7 0.410925 0.277661 0.533355
O O8 0.362880 0.266879 0.651013
O O9 0.706375 0.500000 0.920710
O O10 0.627803 0.733016 0.915329
O O11 0.745815 0.738624 0.976600
O O12 0.077080 0.500000 0.846021
O O13 0.092475 0.732757 0.909810
O O14 0.000000 0.727017 0.815502
O O15 0.500000 0.301749 0.438202
O O16 0.402029 0.500000 0.452784
O O17 0.715761 0.500000 0.664100
O O18 0.762017 0.726712 0.600251
O O19 0.235144 0.500000 0.521328
O O20 0.133094 0.696845 0.524967
O O21 0.000000 0.202423 0.998813
O O22 0.919896 0.000000 0.946562
#
# Coordination Sequence:
#
# PCOD8177570 Si02
#       8
#     8   8   8   8   8   8   8   8
#     4   9  18  30  43  67  99 128 157 195 240 282
#     4   8  13  23  43  69  90 112 151 195 229 270
#     4  11  20  30  47  72 102 127 153 196 243 285
#     4   9  16  28  46  66  91 125 162 193 230 287
#     4   9  17  31  51  74  97 123 161 202 236 280
#     4   9  16  28  46  67  94 124 157 198 239 280
#     4  10  18  30  50  71  92 124 163 199 240 286
#     4   9  17  28  44  70  98 120 152 200 246 283
#
# _framework density 17.327757999999999
#
# number of rings (size 3 to 8) (size 9 to 14) (size 15 to 20)
#    0.000    2.750    2.500    1.125    0.000    0.250 
#    0.000    1.250    0.000    8.250    0.000    0.000 
#    0.000    4.000    0.000    0.000    0.000    0.000 
#
# Total GULP energy -396576.973829 kJ/mol
# GULP energy per Si atom -12393.030432 kJ/mol
# Density = 1.728832 g / cm^3
# Si number density = 17.327758 Si / 1000 Ang^3
#
#
#
# Elastic Constant Matrix: (Units=GPa)
#
#
# Indices 1 2 3 4 5 6 
#
# 1 170.1736 24.3128 82.7069 0.0000 0.0000 0.0000
# 2 24.3128 23.5029 20.2014 0.0000 0.0000 0.0000
# 3 82.7069 20.2014 115.2832 0.0000 0.0000 0.0000
# 4 0.0000 0.0000 0.0000 15.1361 0.0000 0.0000
# 5 0.0000 0.0000 0.0000 0.0000 29.8848 0.0000
# 6 0.0000 0.0000 0.0000 0.0000 0.0000 20.5356
#
#
#
# Elastic Compliance Matrix: (Units=1/GPa)
#
#
# Indices 1 2 3 4 5 6 
#
# 1 0.009433 -0.004640 -0.005955 0.000000 0.000000 0.000000
# 2 -0.004640 0.052375 -0.005849 0.000000 0.000000 0.000000
# 3 -0.005955 -0.005849 0.013971 0.000000 0.000000 0.000000
# 4 0.000000 0.000000 0.000000 0.066067 0.000000 0.000000
# 5 0.000000 0.000000 0.000000 0.000000 0.033462 0.000000
# 6 0.000000 0.000000 0.000000 0.000000 0.000000 0.048696
#
#
# Mechanical properties :
#
#
# Convention : Reuss Voigt Hill
#
# Bulk Modulus (GPa) = 23.31407 62.60021 42.95714
# Shear Modulus (GPa) = 18.43727 25.22720 21.83224
#
# Velocity S-wave (km/s) = 3.26549 3.81974 3.55344
# Velocity P-wave (km/s) = 5.26325 7.46053 6.45606
#
# Compressibility (1/GPa) = 0.04289256
#
# Stress axis : x y z
#
# Youngs Moduli (GPa) = 106.00722 19.09290 71.57610
#
# Poissons Ratio (x) = 0.08860 0.42620
# Poissons Ratio (y) = 0.49191 0.41864
# Poissons Ratio (z) = 0.63123 0.11167
#
# Static dielectric constant tensor:
#      x y z
#    x 3.848560 0.000000 0.000000 
#    y 0.000000 2.866150 0.000000 
#    z 0.000000 0.000000 3.181040 
# 
# 
# High freq. dielectric constant tensor:
#      x y z
#    x 1.695040 0.000000 0.000000 
#    y 0.000000 1.627110 0.000000 
#    z 0.000000 0.000000 1.637240 
# 
# From -- ./inp_files/21545.got.cif
#   From: 2010.03.12/outbox.cif.g09.slc.cpg/sg38_11_cif.got.tgz:21545.got - 2010.04.14 02:38:36.
