data_PCOD8177951
_publ_section_title
;
Structure prediction by ZEFSAII (Michael W. Deem and Ramdas Pophale) SiO2 
 PCOD8177951
Probable space group: A M M 2
;
_chemical_formula_sum "Si O2"
_cell_formula_units_Z 64
_cell_length_a 8.999883
_cell_length_b 33.140493
_cell_length_c 11.747158
_cell_angle_alpha 90.000000
_cell_angle_beta 90.000000
_cell_angle_gamma 90.000000
_cell_volume 3503.713918
_symmetry_space_group_name_H-M "A M M 2"
_symmetry_group_IT_number 38
_symmetry_cell_setting 'orthorhombic'
loop_
_space_group_symop_operation_xyz
x,y,z
-x,-y,z
-x,y,z
x,-y,z
x,1/2+y,1/2+z
-x,1/2-y,1/2+z
-x,1/2+y,1/2+z
x,1/2-y,1/2+z
loop_
_atom_site_type_symbol
_atom_site_label
_atom_site_fract_x
_atom_site_fract_y
_atom_site_fract_z
Si Si1 0.331028 0.331695 0.074800
Si Si2 0.166164 0.454523 0.982168
Si Si3 0.832020 0.816208 0.984096
Si Si4 0.674901 0.545802 0.216803
Si Si5 0.326418 0.318528 0.717732
Si Si6 0.334962 0.108622 0.365037
Si Si7 0.170463 0.726876 0.914268
Si Si8 0.825744 0.875230 0.782795
O O1 0.500000 0.320684 0.108355
O O2 0.246875 0.348465 0.184280
O O3 0.327077 0.365601 0.979408
O O4 0.252766 0.291728 0.024599
O O5 0.169580 0.500000 0.938252
O O6 0.276868 0.447797 0.086825
O O7 0.000000 0.441922 0.019942
O O8 0.219539 0.428004 0.875302
O O9 0.717894 0.815476 0.087351
O O10 0.000000 0.820321 0.030919
O O11 0.814165 0.774951 0.914466
O O12 0.792781 0.853466 0.902162
O O13 0.500000 0.553158 0.224938
O O14 0.716628 0.500000 0.256744
O O15 0.757289 0.579588 0.292298
O O16 0.500000 0.309590 0.733678
O O17 0.287607 0.363780 0.758912
O O18 0.239611 0.286407 0.794377
O O19 0.500000 0.091079 0.347004
O O20 0.000000 0.712733 0.919206
O O21 0.000000 0.878529 0.757957
#
# Coordination Sequence:
#
# PCOD8177951 Si02
#       8
#     8   8   8   8   8   8   8   8
#     4  10  20  34  53  81 112 143 183 226 272 329
#     4  10  19  29  47  79 112 141 177 219 266 327
#     4  10  24  41  57  80 110 147 188 230 279 335
#     4  10  20  34  53  79 114 151 184 228 285 340
#     4  10  22  39  58  81 107 140 186 232 276 327
#     4   9  18  33  52  75 106 140 175 218 269 324
#     4  10  21  38  59  80 109 147 184 227 279 333
#     4  11  22  36  56  83 114 149 188 232 282 337
#
# _framework density 18.266331000000001
#
# number of rings (size 3 to 8) (size 9 to 14) (size 15 to 20)
#    0.000    2.000    1.250    3.000    1.750    6.000 
#    0.000    0.000    0.000    0.750    0.000    0.000 
#    0.000    0.000    0.000    0.000    0.000    0.000 
#
# Total GULP energy -396824.668026 kJ/mol
# GULP energy per Si atom -12400.770876 kJ/mol
# Density = 1.822476 g / cm^3
# Si number density = 18.266331 Si / 1000 Ang^3
#
#
#
# Elastic Constant Matrix: (Units=GPa)
#
#
# Indices 1 2 3 4 5 6 
#
# 1 116.9093 60.8777 45.6706 0.0000 0.0000 0.0000
# 2 60.8777 111.2659 40.8703 0.0000 0.0000 0.0000
# 3 45.6706 40.8703 79.4871 0.0000 0.0000 0.0000
# 4 0.0000 0.0000 0.0000 25.1356 0.0000 0.0000
# 5 0.0000 0.0000 0.0000 0.0000 27.5064 0.0000
# 6 0.0000 0.0000 0.0000 0.0000 0.0000 29.4128
#
#
#
# Elastic Compliance Matrix: (Units=1/GPa)
#
#
# Indices 1 2 3 4 5 6 
#
# 1 0.013302 -0.005512 -0.004809 0.000000 0.000000 0.000000
# 2 -0.005512 0.013364 -0.003705 0.000000 0.000000 0.000000
# 3 -0.004809 -0.003705 0.017249 0.000000 0.000000 0.000000
# 4 0.000000 0.000000 0.000000 0.039784 0.000000 0.000000
# 5 0.000000 0.000000 0.000000 0.000000 0.036355 0.000000
# 6 0.000000 0.000000 0.000000 0.000000 0.000000 0.033999
#
#
# Mechanical properties :
#
#
# Convention : Reuss Voigt Hill
#
# Bulk Modulus (GPa) = 63.03528 66.94439 64.98983
# Shear Modulus (GPa) = 26.68203 27.09387 26.88795
#
# Velocity S-wave (km/s) = 3.82609 3.85550 3.84082
# Velocity P-wave (km/s) = 7.35544 7.51987 7.43811
#
# Compressibility (1/GPa) = 0.01586413
#
# Stress axis : x y z
#
# Youngs Moduli (GPa) = 75.17413 74.82831 57.97569
#
# Poissons Ratio (x) = 0.41244 0.27881
# Poissons Ratio (y) = 0.41434 0.21477
# Poissons Ratio (z) = 0.36152 0.27720
#
# Static dielectric constant tensor:
#      x y z
#    x 3.543560 0.000000 0.000000 
#    y 0.000000 3.573650 0.000000 
#    z 0.000000 0.000000 3.087490 
# 
# 
# High freq. dielectric constant tensor:
#      x y z
#    x 1.723890 0.000000 0.000000 
#    y 0.000000 1.712270 0.000000 
#    z 0.000000 0.000000 1.674340 
# 
# From -- ./inp_files/8515.got.cif
#   From: 2010.03.12/outbox.cif.g09.slc.cpg/sg38_5_cif.got.tgz:8515.got - 2010.04.14 02:38:36.
