data_PCOD8177146
_publ_section_title
;
Structure prediction by ZEFSAII (Michael W. Deem and Ramdas Pophale) SiO2 
 PCOD8177146
Probable space group: C C C 2
;
_chemical_formula_sum "Si O2"
_cell_formula_units_Z 60
_cell_length_a 24.839699
_cell_length_b 9.247182
_cell_length_c 11.640105
_cell_angle_alpha 90.000000
_cell_angle_beta 90.000000
_cell_angle_gamma 90.000000
_cell_volume 2673.699730
_symmetry_space_group_name_H-M "C C C 2"
_symmetry_group_IT_number 37
_symmetry_cell_setting 'orthorhombic'
loop_
_space_group_symop_operation_xyz
x,y,z
-x,-y,z
-x,y,1/2+z
x,-y,1/2+z
1/2+x,1/2+y,z
1/2-x,1/2-y,z
1/2-x,1/2+y,1/2+z
1/2+x,1/2-y,1/2+z
loop_
_atom_site_type_symbol
_atom_site_label
_atom_site_fract_x
_atom_site_fract_y
_atom_site_fract_z
Si Si1 0.652623 0.818919 0.399350
Si Si2 0.799410 0.644023 0.156551
Si Si3 0.011012 0.745279 0.632274
Si Si4 0.084489 0.065191 0.296968
Si Si5 0.799348 0.330957 0.129429
Si Si6 0.096933 0.753066 0.257896
Si Si7 0.398210 0.109707 0.997925
Si Si8 0.500000 0.500000 0.469752
O O1 0.686290 0.874063 0.290941
O O2 0.624996 0.671635 0.359088
O O3 0.690920 0.766719 0.502270
O O4 0.613381 0.945832 0.452007
O O5 0.750000 0.750000 0.134543
O O6 0.777687 0.492022 0.113234
O O7 0.851865 0.679905 0.079108
O O8 0.048350 0.839557 0.714511
O O9 0.046046 0.615813 0.573408
O O10 0.958532 0.690621 0.701698
O O11 0.988237 0.854296 0.538066
O O12 0.109410 0.924452 0.231727
O O13 0.051362 0.975675 0.390734
O O14 0.750000 0.250000 0.191508
O O15 0.853735 0.334421 0.203262
O O16 0.095271 0.717317 0.392052
#
# Coordination Sequence:
#
# PCOD8177146 Si02
#       8
#     8   8   8   8   8   8   8   4
#     4  11  25  48  71 105 144 188 239 302 368 446
#     4  11  25  48  76 104 144 190 243 306 370 446
#     4  12  22  42  72 104 145 194 238 298 367 440
#     4  12  23  39  71 104 139 190 240 295 358 434
#     4  11  27  47  70 105 143 183 243 306 366 441
#     4  12  24  44  74 108 146 191 245 305 365 447
#     4  11  25  48  73 105 152 191 241 305 375 451
#     4  12  20  40  62 104 146 178 238 288 336 428
#
# _framework density 22.440814
#
# number of rings (size 3 to 8) (size 9 to 14) (size 15 to 20)
#    0.000    0.533    6.667    1.200    1.867    1.600 
#    0.000   14.667    0.000    0.000    0.000    0.000 
#    0.000    0.000    0.000    0.000    0.000    0.000 
#
# Total GULP energy -371778.870087 kJ/mol
# GULP energy per Si atom -12392.629003 kJ/mol
# Density = 2.238974 g / cm^3
# Si number density = 22.440814 Si / 1000 Ang^3
#
#
#
# Elastic Constant Matrix: (Units=GPa)
#
#
# Indices 1 2 3 4 5 6 
#
# 1 125.0215 60.1741 40.5356 0.0000 0.0000 0.0000
# 2 60.1741 89.1831 11.7092 0.0000 0.0000 0.0000
# 3 40.5356 11.7092 105.9166 0.0000 0.0000 0.0000
# 4 0.0000 0.0000 0.0000 51.9929 0.0000 0.0000
# 5 0.0000 0.0000 0.0000 0.0000 29.6707 0.0000
# 6 0.0000 0.0000 0.0000 0.0000 0.0000 36.7473
#
#
#
# Elastic Compliance Matrix: (Units=1/GPa)
#
#
# Indices 1 2 3 4 5 6 
#
# 1 0.013474 -0.008538 -0.004213 0.000000 0.000000 0.000000
# 2 -0.008538 0.016788 0.001412 0.000000 0.000000 0.000000
# 3 -0.004213 0.001412 0.010898 0.000000 0.000000 0.000000
# 4 0.000000 0.000000 0.000000 0.019233 0.000000 0.000000
# 5 0.000000 0.000000 0.000000 0.000000 0.033703 0.000000
# 6 0.000000 0.000000 0.000000 0.000000 0.000000 0.027213
#
#
# Mechanical properties :
#
#
# Convention : Reuss Voigt Hill
#
# Bulk Modulus (GPa) = 54.10794 60.55102 57.32948
# Shear Modulus (GPa) = 33.30032 37.52900 35.41466
#
# Velocity S-wave (km/s) = 3.85634 4.09388 3.97689
# Velocity P-wave (km/s) = 6.63267 7.02763 6.83300
#
# Compressibility (1/GPa) = 0.01848158
#
# Stress axis : x y z
#
# Youngs Moduli (GPa) = 74.21684 59.56469 91.76326
#
# Poissons Ratio (x) = 0.50857 0.38658
# Poissons Ratio (y) = 0.63368 -0.12954
# Poissons Ratio (z) = 0.31266 -0.08409
#
# Static dielectric constant tensor:
#      x y z
#    x 3.977160 0.000000 0.000000 
#    y 0.000000 3.744580 0.000000 
#    z 0.000000 0.000000 4.405940 
# 
# 
# High freq. dielectric constant tensor:
#      x y z
#    x 1.874530 0.000000 0.000000 
#    y 0.000000 1.886920 0.000000 
#    z 0.000000 0.000000 1.899840 
# 
# From -- ./inp_files/9083.got.cif
#   From: 2010.03.12/outbox.cif.g09.slc.cpg/sg37_5_cif.got.tgz:9083.got - 2010.04.14 02:25:27.
