data_PCOD8177778
_publ_section_title
;
Structure prediction by ZEFSAII (Michael W. Deem and Ramdas Pophale) SiO2 
 PCOD8177778
Probable space group: A M M 2
;
_chemical_formula_sum "Si O2"
_cell_formula_units_Z 64
_cell_length_a 19.785538
_cell_length_b 8.764812
_cell_length_c 20.125937
_cell_angle_alpha 90.000000
_cell_angle_beta 90.000000
_cell_angle_gamma 90.000000
_cell_volume 3490.169974
_symmetry_space_group_name_H-M "A M M 2"
_symmetry_group_IT_number 38
_symmetry_cell_setting 'orthorhombic'
loop_
_space_group_symop_operation_xyz
x,y,z
-x,-y,z
-x,y,z
x,-y,z
x,1/2+y,1/2+z
-x,1/2-y,1/2+z
-x,1/2+y,1/2+z
x,1/2-y,1/2+z
loop_
_atom_site_type_symbol
_atom_site_label
_atom_site_fract_x
_atom_site_fract_y
_atom_site_fract_z
Si Si1 0.797422 0.679472 0.358650
Si Si2 0.184765 0.820072 0.713316
Si Si3 0.076958 0.322127 0.105069
Si Si4 0.687900 0.180470 0.531456
Si Si5 0.576949 0.176737 0.282627
Si Si6 0.650819 0.680110 0.398442
Si Si7 0.676667 0.319731 0.667244
Si Si8 0.830780 0.680094 0.500807
O O1 0.794133 0.500000 0.356325
O O2 0.829167 0.737077 0.289122
O O3 0.720877 0.740397 0.366131
O O4 0.840797 0.730047 0.423317
O O5 0.118733 0.777883 0.670880
O O6 0.247668 0.728829 0.684781
O O7 0.200963 0.000000 0.709962
O O8 0.083729 0.500000 0.089093
O O9 0.103483 0.230995 0.041106
O O10 0.000000 0.273623 0.118231
O O11 0.643231 0.243734 0.470688
O O12 0.653605 0.239452 0.599124
O O13 0.764848 0.239502 0.530373
O O14 0.688469 0.000000 0.529813
O O15 0.500000 0.206001 0.260810
O O16 0.590548 0.268485 0.350476
O O17 0.625245 0.237352 0.224037
O O18 0.591101 0.000000 0.297009
O O19 0.649844 0.500000 0.408268
O O20 0.673149 0.500000 0.657870
O O21 0.819729 0.500000 0.506953
#
# Coordination Sequence:
#
# PCOD8177778 Si02
#       8
#     8   8   8   8   8   8   8   8
#     4   8  16  30  51  79 107 132 171 225 276 321
#     4  10  18  33  55  78 107 145 183 229 280 333
#     4  10  21  35  52  77 110 150 190 229 281 344
#     4  11  21  34  55  82 112 146 182 230 286 334
#     4  10  22  39  57  81 116 153 186 226 284 347
#     4  10  19  34  56  83 112 143 183 232 276 329
#     4  11  21  34  55  84 113 145 188 238 279 328
#     4  10  19  33  53  80 109 140 179 231 282 330
#
# _framework density 18.337216000000002
#
# number of rings (size 3 to 8) (size 9 to 14) (size 15 to 20)
#    0.000    2.000    2.500    3.000    0.000    1.000 
#    0.000    1.875    0.000    4.500    0.000    0.000 
#    0.000    0.000    0.000    0.000    0.000    0.000 
#
# Total GULP energy -396791.429278 kJ/mol
# GULP energy per Si atom -12399.732165 kJ/mol
# Density = 1.829548 g / cm^3
# Si number density = 18.337216 Si / 1000 Ang^3
#
#
#
# Elastic Constant Matrix: (Units=GPa)
#
#
# Indices 1 2 3 4 5 6 
#
# 1 83.6424 33.6290 55.5469 0.0000 0.0000 0.0000
# 2 33.6290 78.9118 48.1632 0.0000 0.0000 0.0000
# 3 55.5469 48.1632 162.4862 0.0000 0.0000 0.0000
# 4 0.0000 0.0000 0.0000 29.1913 0.0000 0.0000
# 5 0.0000 0.0000 0.0000 0.0000 26.6708 0.0000
# 6 0.0000 0.0000 0.0000 0.0000 0.0000 21.5979
#
#
#
# Elastic Compliance Matrix: (Units=1/GPa)
#
#
# Indices 1 2 3 4 5 6 
#
# 1 0.016640 -0.004419 -0.004379 0.000000 0.000000 0.000000
# 2 -0.004419 0.016645 -0.003423 0.000000 0.000000 0.000000
# 3 -0.004379 -0.003423 0.008666 0.000000 0.000000 0.000000
# 4 0.000000 0.000000 0.000000 0.034257 0.000000 0.000000
# 5 0.000000 0.000000 0.000000 0.000000 0.037494 0.000000
# 6 0.000000 0.000000 0.000000 0.000000 0.000000 0.046301
#
#
# Mechanical properties :
#
#
# Convention : Reuss Voigt Hill
#
# Bulk Modulus (GPa) = 57.11195 66.63540 61.87368
# Shear Modulus (GPa) = 26.27695 28.00540 27.14118
#
# Velocity S-wave (km/s) = 3.78959 3.91224 3.85140
# Velocity P-wave (km/s) = 7.09654 7.53825 7.32073
#
# Compressibility (1/GPa) = 0.01750947
#
# Stress axis : x y z
#
# Youngs Moduli (GPa) = 60.09539 60.07887 115.39427
#
# Poissons Ratio (x) = 0.26548 0.50528
# Poissons Ratio (y) = 0.26555 0.39501
# Poissons Ratio (z) = 0.26314 0.20566
#
# Static dielectric constant tensor:
#      x y z
#    x 3.147180 0.000000 0.000000 
#    y 0.000000 3.265250 0.000000 
#    z 0.000000 0.000000 3.913010 
# 
# 
# High freq. dielectric constant tensor:
#      x y z
#    x 1.677250 0.000000 0.000000 
#    y 0.000000 1.704510 0.000000 
#    z 0.000000 0.000000 1.730410 
# 
# From -- ./inp_files/21402.got.cif
#   From: 2010.03.12/outbox.cif.g09.slc.cpg/sg38_11_cif.got.tgz:21402.got - 2010.04.14 02:38:36.
