data_PCOD8177527
_publ_section_title
;
Structure prediction by ZEFSAII (Michael W. Deem and Ramdas Pophale) SiO2 
 PCOD8177527
Probable space group: A M M 2
;
_chemical_formula_sum "Si O2"
_cell_formula_units_Z 64
_cell_length_a 8.798723
_cell_length_b 26.604364
_cell_length_c 18.509906
_cell_angle_alpha 90.000000
_cell_angle_beta 90.000000
_cell_angle_gamma 90.000000
_cell_volume 4332.880785
_symmetry_space_group_name_H-M "A M M 2"
_symmetry_group_IT_number 38
_symmetry_cell_setting 'orthorhombic'
loop_
_space_group_symop_operation_xyz
x,y,z
-x,-y,z
-x,y,z
x,-y,z
x,1/2+y,1/2+z
-x,1/2-y,1/2+z
-x,1/2+y,1/2+z
x,1/2-y,1/2+z
loop_
_atom_site_type_symbol
_atom_site_label
_atom_site_fract_x
_atom_site_fract_y
_atom_site_fract_z
Si Si1 0.322557 0.943281 0.871900
Si Si2 0.317587 0.245384 0.872427
Si Si3 0.679952 0.849789 0.783325
Si Si4 0.334184 0.696942 0.739988
Si Si5 0.176741 0.942376 0.023896
Si Si6 0.667910 0.796873 0.647273
Si Si7 0.681514 0.646521 0.603241
Si Si8 0.178738 0.259895 0.525859
O O1 0.500000 0.936154 0.889711
O O2 0.268417 0.905201 0.809136
O O3 0.287175 0.000000 0.845816
O O4 0.230686 0.929607 0.943507
O O5 0.500000 0.247284 0.880414
O O6 0.262993 0.191334 0.841601
O O7 0.256853 0.289229 0.816841
O O8 0.236911 0.256177 0.947537
O O9 0.500000 0.845419 0.778663
O O10 0.740006 0.839313 0.701309
O O11 0.500000 0.674897 0.757959
O O12 0.351027 0.748113 0.696028
O O13 0.252767 0.657606 0.684871
O O14 0.266766 0.908871 0.081377
O O15 0.000000 0.930075 0.029511
O O16 0.213094 0.000000 0.043105
O O17 0.500000 0.812495 0.618102
O O18 0.777865 0.785571 0.580025
O O19 0.500000 0.650905 0.602462
O O20 0.744674 0.687384 0.547090
O O21 0.000000 0.267406 0.525762
#
# Coordination Sequence:
#
# PCOD8177527 Si02
#       8
#     8   8   8   8   8   8   8   8
#     4   9  16  26  41  61  83 108 139 172 203 235
#     4   9  15  26  42  57  76 105 137 164 194 234
#     4   8  14  25  42  59  75 101 138 172 197 228
#     4   7  13  25  41  58  73  94 130 171 200 229
#     4  10  20  31  41  58  85 111 135 166 200 231
#     4   8  14  27  42  54  72 102 136 165 196 234
#     4  10  18  30  46  60  76 104 140 169 197 235
#     4  11  20  27  37  59  86 107 131 163 199 237
#
# _framework density 14.770773
#
# number of rings (size 3 to 8) (size 9 to 14) (size 15 to 20)
#    0.000    3.000    0.000    4.875    0.000    1.750 
#    0.000    6.875    0.000    0.000    0.000    0.000 
#    0.000    1.000    0.000    7.500    0.000    3.000 
#
# Total GULP energy -396444.159795 kJ/mol
# GULP energy per Si atom -12388.879994 kJ/mol
# Density = 1.473715 g / cm^3
# Si number density = 14.770773 Si / 1000 Ang^3
#
#
#
# Elastic Constant Matrix: (Units=GPa)
#
#
# Indices 1 2 3 4 5 6 
#
# 1 53.2444 25.7785 35.0588 0.0000 0.0000 0.0000
# 2 25.7785 81.6893 59.4154 0.0000 0.0000 0.0000
# 3 35.0588 59.4154 113.4114 0.0000 0.0000 0.0000
# 4 0.0000 0.0000 0.0000 28.1047 0.0000 0.0000
# 5 0.0000 0.0000 0.0000 0.0000 1.0594 0.0000
# 6 0.0000 0.0000 0.0000 0.0000 0.0000 14.4947
#
#
#
# Elastic Compliance Matrix: (Units=1/GPa)
#
#
# Indices 1 2 3 4 5 6 
#
# 1 0.024201 -0.003547 -0.005623 0.000000 0.000000 0.000000
# 2 -0.003547 0.020298 -0.009537 0.000000 0.000000 0.000000
# 3 -0.005623 -0.009537 0.015552 0.000000 0.000000 0.000000
# 4 0.000000 0.000000 0.000000 0.035581 0.000000 0.000000
# 5 0.000000 0.000000 0.000000 0.000000 0.943967 0.000000
# 6 0.000000 0.000000 0.000000 0.000000 0.000000 0.068991
#
#
# Mechanical properties :
#
#
# Convention : Reuss Voigt Hill
#
# Bulk Modulus (GPa) = 44.17729 54.31670 49.24699
# Shear Modulus (GPa) = 4.33445 17.27125 10.80285
#
# Velocity S-wave (km/s) = 1.71489 3.42319 2.70731
# Velocity P-wave (km/s) = 5.82191 7.24412 6.57160
#
# Compressibility (1/GPa) = 0.02263607
#
# Stress axis : x y z
#
# Youngs Moduli (GPa) = 41.32028 49.26668 64.30008
#
# Poissons Ratio (x) = 0.17477 0.36155
# Poissons Ratio (y) = 0.14658 0.61324
# Poissons Ratio (z) = 0.23234 0.46987
#
# Static dielectric constant tensor:
#      x y z
#    x 2.688380 0.000000 0.000000 
#    y 0.000000 2.874350 0.000000 
#    z 0.000000 0.000000 3.107130 
# 
# 
# High freq. dielectric constant tensor:
#      x y z
#    x 1.547780 0.000000 0.000000 
#    y 0.000000 1.534380 0.000000 
#    z 0.000000 0.000000 1.558520 
# 
# From -- ./inp_files/17349.got.cif
#   From: 2010.03.12/outbox.cif.g09.slc.cpg/sg38_9_cif.got.tgz:17349.got - 2010.04.14 02:38:36.
