data_PCOD8177802
_publ_section_title
;
Structure prediction by ZEFSAII (Michael W. Deem and Ramdas Pophale) SiO2 
 PCOD8177802
Probable space group: A M M 2
;
_chemical_formula_sum "Si O2"
_cell_formula_units_Z 64
_cell_length_a 15.428598
_cell_length_b 8.857174
_cell_length_c 23.960671
_cell_angle_alpha 90.000000
_cell_angle_beta 90.000000
_cell_angle_gamma 90.000000
_cell_volume 3274.316193
_symmetry_space_group_name_H-M "A M M 2"
_symmetry_group_IT_number 38
_symmetry_cell_setting 'orthorhombic'
loop_
_space_group_symop_operation_xyz
x,y,z
-x,-y,z
-x,y,z
x,-y,z
x,1/2+y,1/2+z
-x,1/2-y,1/2+z
-x,1/2+y,1/2+z
x,1/2-y,1/2+z
loop_
_atom_site_type_symbol
_atom_site_label
_atom_site_fract_x
_atom_site_fract_y
_atom_site_fract_z
Si Si1 0.246971 0.178383 0.391050
Si Si2 0.331186 0.826186 0.073313
Si Si3 0.149011 0.322664 0.071767
Si Si4 0.750811 0.179297 0.265524
Si Si5 0.902170 0.673852 0.685314
Si Si6 0.902907 0.827112 0.961589
Si Si7 0.404623 0.679179 0.690830
Si Si8 0.402230 0.672985 0.453990
O O1 0.247680 0.243694 0.328151
O O2 0.163318 0.242638 0.421614
O O3 0.336091 0.222365 0.420830
O O4 0.238828 0.000000 0.391461
O O5 0.248790 0.720785 0.065347
O O6 0.382223 0.771025 0.127940
O O7 0.300761 0.000000 0.079866
O O8 0.393073 0.804839 0.020330
O O9 0.138218 0.500000 0.065256
O O10 0.110274 0.272675 0.130548
O O11 0.095261 0.243281 0.023028
O O12 0.837419 0.232500 0.233369
O O13 0.666492 0.245797 0.233608
O O14 0.745945 0.000000 0.266822
O O15 0.881517 0.500000 0.670252
O O16 0.000000 0.692776 0.707771
O O17 0.000000 0.813698 0.936672
O O18 0.872732 0.000000 0.966227
O O19 0.500000 0.743211 0.706283
O O20 0.405256 0.500000 0.694595
O O21 0.500000 0.719116 0.437336
O O22 0.383120 0.500000 0.437850
#
# Coordination Sequence:
#
# PCOD8177802 Si02
#       8
#     8   8   8   8   8   8   8   8
#     4  11  23  38  59  88 120 153 193 248 303 341
#     4  10  18  33  59  85 114 150 190 235 285 344
#     4  12  23  35  57  89 122 151 181 229 295 351
#     4   9  19  35  55  84 116 148 191 238 285 336
#     4  10  20  37  61  85 111 149 193 233 278 340
#     4  11  24  42  63  85 112 152 198 241 289 352
#     4   9  16  29  55  87 113 142 186 235 278 327
#     4  10  21  37  59  87 118 156 200 241 287 348
#
# _framework density 19.546066
#
# number of rings (size 3 to 8) (size 9 to 14) (size 15 to 20)
#    0.000    1.750    2.500    2.625    0.000    5.500 
#    0.000    3.750    0.000    1.125    0.000    0.000 
#    0.000    0.000    0.000    0.000    0.000    0.000 
#
# Total GULP energy -396851.995249 kJ/mol
# GULP energy per Si atom -12401.624852 kJ/mol
# Density = 1.950158 g / cm^3
# Si number density = 19.546066 Si / 1000 Ang^3
#
#
#
# Elastic Constant Matrix: (Units=GPa)
#
#
# Indices 1 2 3 4 5 6 
#
# 1 148.8876 37.0415 62.8493 0.0000 0.0000 0.0000
# 2 37.0415 69.7385 36.8169 0.0000 0.0000 0.0000
# 3 62.8493 36.8169 147.3323 0.0000 0.0000 0.0000
# 4 0.0000 0.0000 0.0000 23.4147 0.0000 0.0000
# 5 0.0000 0.0000 0.0000 0.0000 1.8458 0.0000
# 6 0.0000 0.0000 0.0000 0.0000 0.0000 14.2658
#
#
#
# Elastic Compliance Matrix: (Units=1/GPa)
#
#
# Indices 1 2 3 4 5 6 
#
# 1 0.008729 -0.003077 -0.002955 0.000000 0.000000 0.000000
# 2 -0.003077 0.017603 -0.003086 0.000000 0.000000 0.000000
# 3 -0.002955 -0.003086 0.008819 0.000000 0.000000 0.000000
# 4 0.000000 0.000000 0.000000 0.042708 0.000000 0.000000
# 5 0.000000 0.000000 0.000000 0.000000 0.541769 0.000000
# 6 0.000000 0.000000 0.000000 0.000000 0.000000 0.070098
#
#
# Mechanical properties :
#
#
# Convention : Reuss Voigt Hill
#
# Bulk Modulus (GPa) = 59.11746 71.04154 65.07950
# Shear Modulus (GPa) = 7.00673 23.18863 15.09768
#
# Velocity S-wave (km/s) = 1.89539 3.44809 2.78225
# Velocity P-wave (km/s) = 5.92460 7.23029 6.60976
#
# Compressibility (1/GPa) = 0.01691548
#
# Stress axis : x y z
#
# Youngs Moduli (GPa) = 114.55752 56.80933 113.38956
#
# Poissons Ratio (x) = 0.17478 0.33506
# Poissons Ratio (y) = 0.35244 0.34996
# Poissons Ratio (z) = 0.33851 0.17533
#
# Static dielectric constant tensor:
#      x y z
#    x 3.801360 0.000000 0.000000 
#    y 0.000000 3.271970 0.000000 
#    z 0.000000 0.000000 3.703530 
# 
# 
# High freq. dielectric constant tensor:
#      x y z
#    x 1.777430 0.000000 0.000000 
#    y 0.000000 1.729580 0.000000 
#    z 0.000000 0.000000 1.760240 
# 
# From -- ./inp_files/22936.got.cif
#   From: 2010.03.12/outbox.cif.g09.slc.cpg/sg38_12_cif.got.tgz:22936.got - 2010.04.14 02:38:36.
