data_PCOD8177002
_publ_section_title
;
Structure prediction by ZEFSAII (Michael W. Deem and Ramdas Pophale) SiO2 
 PCOD8177002
Probable space group: C C C 2
;
_chemical_formula_sum "Si O2"
_cell_formula_units_Z 48
_cell_length_a 13.660651
_cell_length_b 16.620147
_cell_length_c 9.202723
_cell_angle_alpha 90.000000
_cell_angle_beta 90.000000
_cell_angle_gamma 90.000000
_cell_volume 2089.404891
_symmetry_space_group_name_H-M "C C C 2"
_symmetry_group_IT_number 37
_symmetry_cell_setting 'orthorhombic'
loop_
_space_group_symop_operation_xyz
x,y,z
-x,-y,z
-x,y,1/2+z
x,-y,1/2+z
1/2+x,1/2+y,z
1/2-x,1/2-y,z
1/2-x,1/2+y,1/2+z
1/2+x,1/2-y,1/2+z
loop_
_atom_site_type_symbol
_atom_site_label
_atom_site_fract_x
_atom_site_fract_y
_atom_site_fract_z
Si Si1 0.453906 0.242638 0.041440
Si Si2 0.750000 0.250000 0.676210
Si Si3 0.964400 0.152228 0.270193
Si Si4 0.706499 0.435359 0.112128
Si Si5 0.831383 0.913694 0.287617
Si Si6 0.581759 0.903677 0.558125
Si Si7 0.000000 0.500000 0.316443
O O1 0.340827 0.222204 0.075777
O O2 0.515081 0.265981 0.183851
O O3 0.515405 0.166136 0.985257
O O4 0.455891 0.319895 0.936374
O O5 0.780016 0.174043 0.776663
O O6 0.864416 0.111887 0.219956
O O7 0.054757 0.091676 0.242493
O O8 0.724109 0.523911 0.181142
O O9 0.806291 0.383748 0.096967
O O10 0.664045 0.445662 0.951581
O O11 0.585235 0.970382 0.428276
O O12 0.535143 0.929157 0.711352
#
# Coordination Sequence:
#
# PCOD8177002 Si02
#       7
#     8   4   8   8   8   8   4
#     4  11  25  46  72 102 148 198 244 314 380 452
#     4  10  28  48  74 100 154 196 246 308 390 446
#     4  11  25  47  71 108 143 195 247 315 378 447
#     4  12  27  44  78 109 146 194 259 306 379 459
#     4  11  27  48  75 105 151 196 249 318 383 447
#     4  11  25  43  71 105 147 195 246 308 375 451
#     4  10  24  44  64 102 152 186 244 308 372 442
#
# _framework density 22.973050000000001
#
# number of rings (size 3 to 8) (size 9 to 14) (size 15 to 20)
#    0.000    1.000    1.667    2.500   16.333    4.667 
#    0.000    0.000    0.000    0.000    0.000    0.000 
#    0.000    0.000    0.000    0.000    0.000    0.000 
#
# Total GULP energy -297549.920961 kJ/mol
# GULP energy per Si atom -12397.913373 kJ/mol
# Density = 2.292076 g / cm^3
# Si number density = 22.973050 Si / 1000 Ang^3
#
#
#
# Elastic Constant Matrix: (Units=GPa)
#
#
# Indices 1 2 3 4 5 6 
#
# 1 143.6340 51.6167 33.7977 0.0000 0.0000 0.0000
# 2 51.6167 104.5959 41.7169 0.0000 0.0000 0.0000
# 3 33.7977 41.7169 120.4477 0.0000 0.0000 0.0000
# 4 0.0000 0.0000 0.0000 42.0467 0.0000 0.0000
# 5 0.0000 0.0000 0.0000 0.0000 26.8350 0.0000
# 6 0.0000 0.0000 0.0000 0.0000 0.0000 35.7524
#
#
#
# Elastic Compliance Matrix: (Units=1/GPa)
#
#
# Indices 1 2 3 4 5 6 
#
# 1 0.008585 -0.003801 -0.001093 0.000000 0.000000 0.000000
# 2 -0.003801 0.012776 -0.003358 0.000000 0.000000 0.000000
# 3 -0.001093 -0.003358 0.009772 0.000000 0.000000 0.000000
# 4 0.000000 0.000000 0.000000 0.023783 0.000000 0.000000
# 5 0.000000 0.000000 0.000000 0.000000 0.037265 0.000000
# 6 0.000000 0.000000 0.000000 0.000000 0.000000 0.027970
#
#
# Mechanical properties :
#
#
# Convention : Reuss Voigt Hill
#
# Bulk Modulus (GPa) = 68.35555 69.21556 68.78555
# Shear Modulus (GPa) = 35.32798 37.02991 36.17894
#
# Velocity S-wave (km/s) = 3.92573 4.01918 3.97273
# Velocity P-wave (km/s) = 7.09703 7.19256 7.14495
#
# Compressibility (1/GPa) = 0.01462939
#
# Stress axis : x y z
#
# Youngs Moduli (GPa) = 116.48060 78.27353 102.33238
#
# Poissons Ratio (x) = 0.29751 0.11180
# Poissons Ratio (y) = 0.44273 0.34366
# Poissons Ratio (z) = 0.12726 0.26287
#
# Static dielectric constant tensor:
#      x y z
#    x 4.159570 0.000000 0.000000 
#    y 0.000000 3.941620 0.000000 
#    z 0.000000 0.000000 4.120080 
# 
# 
# High freq. dielectric constant tensor:
#      x y z
#    x 1.911340 0.000000 0.000000 
#    y 0.000000 1.897310 0.000000 
#    z 0.000000 0.000000 1.920470 
# 
# From -- ./inp_files/3524.got.cif
#   From: 2010.03.12/outbox.cif.g09.slc.cpg/sg37_2_cif.got.tgz:3524.got - 2010.04.14 02:25:27.
