data_PCOD8177730
_publ_section_title
;
Structure prediction by ZEFSAII (Michael W. Deem and Ramdas Pophale) SiO2 
 PCOD8177730
Probable space group: A M M 2
;
_chemical_formula_sum "Si O2"
_cell_formula_units_Z 64
_cell_length_a 9.042972
_cell_length_b 20.555947
_cell_length_c 19.740782
_cell_angle_alpha 90.000000
_cell_angle_beta 90.000000
_cell_angle_gamma 90.000000
_cell_volume 3669.551845
_symmetry_space_group_name_H-M "A M M 2"
_symmetry_group_IT_number 38
_symmetry_cell_setting 'orthorhombic'
loop_
_space_group_symop_operation_xyz
x,y,z
-x,-y,z
-x,y,z
x,-y,z
x,1/2+y,1/2+z
-x,1/2-y,1/2+z
-x,1/2+y,1/2+z
x,1/2-y,1/2+z
loop_
_atom_site_type_symbol
_atom_site_label
_atom_site_fract_x
_atom_site_fract_y
_atom_site_fract_z
Si Si1 0.671750 0.681513 0.908280
Si Si2 0.671946 0.263071 0.049015
Si Si3 0.324619 0.880574 0.192835
Si Si4 0.673210 0.767759 0.696778
Si Si5 0.169936 0.573185 0.414588
Si Si6 0.171847 0.128560 0.057613
Si Si7 0.674886 0.813936 0.836260
Si Si8 0.829883 0.926423 0.323726
O O1 0.500000 0.669666 0.890955
O O2 0.727076 0.749014 0.875434
O O3 0.763569 0.621235 0.880199
O O4 0.699733 0.685203 0.989275
O O5 0.500000 0.241246 0.050584
O O6 0.716242 0.294998 0.122010
O O7 0.767725 0.199156 0.036489
O O8 0.500000 0.889461 0.191827
O O9 0.272735 0.806359 0.204060
O O10 0.258559 0.903192 0.120823
O O11 0.257272 0.922703 0.253116
O O12 0.500000 0.768073 0.706876
O O13 0.738375 0.810099 0.758864
O O14 0.214724 0.500000 0.394588
O O15 0.199804 0.581648 0.494266
O O16 0.264518 0.621534 0.369660
O O17 0.000000 0.587462 0.398165
O O18 0.000000 0.134600 0.076360
O O19 0.500000 0.818867 0.839305
O O20 0.000000 0.907782 0.311221
O O21 0.814385 0.000000 0.351154
#
# Coordination Sequence:
#
# PCOD8177730 Si02
#       8
#     8   8   8   8   8   8   8   8
#     4  10  19  33  55  81 105 134 177 224 266 313
#     4   9  17  31  52  77 106 138 172 216 265 315
#     4  10  19  34  54  76 105 141 177 215 258 310
#     4   8  15  29  50  76 105 132 160 208 265 308
#     4  10  22  37  50  70 105 145 179 214 262 315
#     4  10  19  31  49  75 106 142 179 215 258 313
#     4  10  18  32  54  80 104 130 174 223 263 308
#     4  11  24  38  52  75 108 143 178 218 266 322
#
# _framework density 17.440822000000001
#
# number of rings (size 3 to 8) (size 9 to 14) (size 15 to 20)
#    0.000    2.250    2.500    1.875    0.000    3.250 
#    0.000    1.875    0.000    0.750    0.000    5.250 
#    0.000    0.000    0.000    0.000    0.000    0.000 
#
# Total GULP energy -396703.844059 kJ/mol
# GULP energy per Si atom -12396.995127 kJ/mol
# Density = 1.740113 g / cm^3
# Si number density = 17.440822 Si / 1000 Ang^3
#
#
#
# Elastic Constant Matrix: (Units=GPa)
#
#
# Indices 1 2 3 4 5 6 
#
# 1 69.8793 38.8358 44.9888 0.0000 0.0000 0.0000
# 2 38.8358 87.3437 58.3580 0.0000 0.0000 0.0000
# 3 44.9888 58.3580 126.5896 0.0000 0.0000 0.0000
# 4 0.0000 0.0000 0.0000 24.2165 0.0000 0.0000
# 5 0.0000 0.0000 0.0000 0.0000 26.0868 0.0000
# 6 0.0000 0.0000 0.0000 0.0000 0.0000 25.3645
#
#
#
# Elastic Compliance Matrix: (Units=1/GPa)
#
#
# Indices 1 2 3 4 5 6 
#
# 1 0.020630 -0.006177 -0.004484 0.000000 0.000000 0.000000
# 2 -0.006177 0.018394 -0.006285 0.000000 0.000000 0.000000
# 3 -0.004484 -0.006285 0.012391 0.000000 0.000000 0.000000
# 4 0.000000 0.000000 0.000000 0.041294 0.000000 0.000000
# 5 0.000000 0.000000 0.000000 0.000000 0.038334 0.000000
# 6 0.000000 0.000000 0.000000 0.000000 0.000000 0.039425
#
#
# Mechanical properties :
#
#
# Convention : Reuss Voigt Hill
#
# Bulk Modulus (GPa) = 57.06568 63.13085 60.09826
# Shear Modulus (GPa) = 23.78680 24.57556 24.18118
#
# Velocity S-wave (km/s) = 3.69705 3.75785 3.72757
# Velocity P-wave (km/s) = 7.14247 7.42323 7.28420
#
# Compressibility (1/GPa) = 0.01752367
#
# Stress axis : x y z
#
# Youngs Moduli (GPa) = 48.47283 54.36420 80.70693
#
# Poissons Ratio (x) = 0.33579 0.36191
# Poissons Ratio (y) = 0.29940 0.50722
# Poissons Ratio (z) = 0.21737 0.34167
#
# Static dielectric constant tensor:
#      x y z
#    x 3.164160 0.000000 0.000000 
#    y 0.000000 2.999350 0.000000 
#    z 0.000000 0.000000 3.598190 
# 
# 
# High freq. dielectric constant tensor:
#      x y z
#    x 1.666240 0.000000 0.000000 
#    y 0.000000 1.642760 0.000000 
#    z 0.000000 0.000000 1.685650 
# 
# From -- ./inp_files/17202.got.cif
#   From: 2010.03.12/outbox.cif.g09.slc.cpg/sg38_9_cif.got.tgz:17202.got - 2010.04.14 02:38:36.
