data_PCOD8177677
_publ_section_title
;
Structure prediction by ZEFSAII (Michael W. Deem and Ramdas Pophale) SiO2 
 PCOD8177677
Probable space group: A M M 2
;
_chemical_formula_sum "Si O2"
_cell_formula_units_Z 40
_cell_length_a 11.453394
_cell_length_b 9.399933
_cell_length_c 20.582309
_cell_angle_alpha 90.000000
_cell_angle_beta 90.000000
_cell_angle_gamma 90.000000
_cell_volume 2215.914773
_symmetry_space_group_name_H-M "A M M 2"
_symmetry_group_IT_number 38
_symmetry_cell_setting 'orthorhombic'
loop_
_space_group_symop_operation_xyz
x,y,z
-x,-y,z
-x,y,z
x,-y,z
x,1/2+y,1/2+z
-x,1/2-y,1/2+z
-x,1/2+y,1/2+z
x,1/2-y,1/2+z
loop_
_atom_site_type_symbol
_atom_site_label
_atom_site_fract_x
_atom_site_fract_y
_atom_site_fract_z
Si Si1 0.363547 0.660251 0.467630
Si Si2 0.247573 0.666805 0.856902
Si Si3 0.000000 0.333947 0.913012
Si Si4 0.632825 0.830763 0.225586
Si Si5 0.000000 0.333374 0.547940
Si Si6 0.246683 0.167769 0.096835
O O1 0.500000 0.658971 0.477814
O O2 0.315896 0.500000 0.456027
O O3 0.331304 0.756836 0.407371
O O4 0.307989 0.728606 0.532349
O O5 0.268692 0.500000 0.864568
O O6 0.112592 0.706923 0.869738
O O7 0.287703 0.719902 0.785915
O O8 0.000000 0.500000 0.930905
O O9 0.000000 0.248338 0.979893
O O10 0.500000 0.772543 0.231701
O O11 0.693901 0.765684 0.161075
O O12 0.630499 0.000000 0.222193
O O13 0.110380 0.291522 0.592391
O O14 0.000000 0.500000 0.530376
O O15 0.265527 0.000000 0.099260
#
# Coordination Sequence:
#
# PCOD8177677 Si02
#       6
#     8   8   4   8   4   8
#     4  10  19  31  50  75 101 131 169 212 254 297
#     4  10  20  33  51  74 101 136 171 206 252 302
#     4  10  20  33  49  73 105 135 166 210 254 296
#     4   9  17  30  48  72 103 133 163 206 256 301
#     4  10  18  31  53  77  99 127 168 214 254 298
#     4   9  17  29  48  74 100 128 164 207 252 296
#
# _framework density 18.051234999999998
#
# number of rings (size 3 to 8) (size 9 to 14) (size 15 to 20)
#    0.000    2.400    2.000    1.200    0.000    4.400 
#    0.000    4.000    0.000    2.400    0.000    1.400 
#    0.000    0.000    0.000    0.000    0.000    0.000 
#
# Total GULP energy -247963.573363 kJ/mol
# GULP energy per Si atom -12398.178668 kJ/mol
# Density = 1.801015 g / cm^3
# Si number density = 18.051235 Si / 1000 Ang^3
#
#
#
# Elastic Constant Matrix: (Units=GPa)
#
#
# Indices 1 2 3 4 5 6 
#
# 1 126.8527 18.9508 63.1441 0.0000 0.0000 0.0000
# 2 18.9508 19.0590 23.7410 0.0000 0.0000 0.0000
# 3 63.1441 23.7410 149.1989 0.0000 0.0000 0.0000
# 4 0.0000 0.0000 0.0000 21.7126 0.0000 0.0000
# 5 0.0000 0.0000 0.0000 0.0000 40.5288 0.0000
# 6 0.0000 0.0000 0.0000 0.0000 0.0000 18.1682
#
#
#
# Elastic Compliance Matrix: (Units=1/GPa)
#
#
# Indices 1 2 3 4 5 6 
#
# 1 0.010533 -0.006137 -0.003481 0.000000 0.000000 0.000000
# 2 -0.006137 0.069015 -0.008385 0.000000 0.000000 0.000000
# 3 -0.003481 -0.008385 0.009510 0.000000 0.000000 0.000000
# 4 0.000000 0.000000 0.000000 0.046056 0.000000 0.000000
# 5 0.000000 0.000000 0.000000 0.000000 0.024674 0.000000
# 6 0.000000 0.000000 0.000000 0.000000 0.000000 0.055041
#
#
# Mechanical properties :
#
#
# Convention : Reuss Voigt Hill
#
# Bulk Modulus (GPa) = 18.84921 56.30917 37.57919
# Shear Modulus (GPa) = 18.62071 28.70024 23.66048
#
# Velocity S-wave (km/s) = 3.21526 3.99172 3.62434
# Velocity P-wave (km/s) = 4.92428 7.24617 6.19498
#
# Compressibility (1/GPa) = 0.05305261
#
# Stress axis : x y z
#
# Youngs Moduli (GPa) = 94.94161 14.48961 105.15258
#
# Poissons Ratio (x) = 0.08892 0.36606
# Poissons Ratio (y) = 0.58262 0.88168
# Poissons Ratio (z) = 0.33051 0.12149
#
# Static dielectric constant tensor:
#      x y z
#    x 3.577930 0.000000 0.000000 
#    y 0.000000 2.940840 0.000000 
#    z 0.000000 0.000000 3.542140 
# 
# 
# High freq. dielectric constant tensor:
#      x y z
#    x 1.718460 0.000000 0.000000 
#    y 0.000000 1.645760 0.000000 
#    z 0.000000 0.000000 1.705070 
# 
# From -- ./inp_files/20460.got.cif
#   From: 2010.03.12/outbox.cif.g09.slc.cpg/sg38_11_cif.got.tgz:20460.got - 2010.04.14 02:38:36.
