data_PCOD8177619
_publ_section_title
;
Structure prediction by ZEFSAII (Michael W. Deem and Ramdas Pophale) SiO2 
 PCOD8177619
Probable space group: A M M 2
;
_chemical_formula_sum "Si O2"
_cell_formula_units_Z 40
_cell_length_a 8.919438
_cell_length_b 25.918300
_cell_length_c 9.181279
_cell_angle_alpha 90.000000
_cell_angle_beta 90.000000
_cell_angle_gamma 90.000000
_cell_volume 2122.497505
_symmetry_space_group_name_H-M "A M M 2"
_symmetry_group_IT_number 38
_symmetry_cell_setting 'orthorhombic'
loop_
_space_group_symop_operation_xyz
x,y,z
-x,-y,z
-x,y,z
x,-y,z
x,1/2+y,1/2+z
-x,1/2-y,1/2+z
-x,1/2+y,1/2+z
x,1/2-y,1/2+z
loop_
_atom_site_type_symbol
_atom_site_label
_atom_site_fract_x
_atom_site_fract_y
_atom_site_fract_z
Si Si1 0.169126 0.388215 0.745780
Si Si2 0.170138 0.500000 0.711995
Si Si3 0.323387 0.299137 0.912690
Si Si4 0.324162 0.000000 0.915035
Si Si5 0.321370 0.300687 0.242643
Si Si6 0.175572 0.604439 0.404919
O O1 0.189247 0.447352 0.804899
O O2 0.278240 0.352079 0.835692
O O3 0.210214 0.386879 0.575286
O O4 0.000000 0.368907 0.771032
O O5 0.294394 0.500000 0.587221
O O6 0.000000 0.500000 0.642241
O O7 0.500000 0.296529 0.913194
O O8 0.260069 0.250171 0.824470
O O9 0.262640 0.297300 0.077121
O O10 0.249285 0.948689 0.847394
O O11 0.500000 0.000000 0.881998
O O12 0.500000 0.305184 0.251821
O O13 0.249383 0.349948 0.315902
O O14 0.000000 0.602462 0.373279
#
# Coordination Sequence:
#
# PCOD8177619 Si02
#       6
#     8   4   8   4   8   8
#     4   9  18  33  54  78 106 139 177 217 261 313
#     4   8  16  32  51  76 109 142 178 220 260 308
#     4  10  21  36  55  78 106 138 177 223 270 318
#     4  10  18  30  53  82 109 140 176 216 260 310
#     4  10  21  37  55  77 104 138 178 222 270 320
#     4  10  20  35  55  80 109 142 178 218 261 312
#
# _framework density 18.845721999999999
#
# number of rings (size 3 to 8) (size 9 to 14) (size 15 to 20)
#    0.000    2.400    0.000    3.900    0.000    7.200 
#    0.000    1.000    0.000    4.800    0.000    0.000 
#    0.000    0.000    0.000    0.000    0.000    0.000 
#
# Total GULP energy -247958.218289 kJ/mol
# GULP energy per Si atom -12397.910914 kJ/mol
# Density = 1.880283 g / cm^3
# Si number density = 18.845722 Si / 1000 Ang^3
#
#
#
# Elastic Constant Matrix: (Units=GPa)
#
#
# Indices 1 2 3 4 5 6 
#
# 1 32.2804 31.3189 19.6217 0.0000 0.0000 0.0000
# 2 31.3189 176.1198 67.7128 0.0000 0.0000 0.0000
# 3 19.6217 67.7128 87.7458 0.0000 0.0000 0.0000
# 4 0.0000 0.0000 0.0000 30.2749 0.0000 0.0000
# 5 0.0000 0.0000 0.0000 0.0000 24.0482 0.0000
# 6 0.0000 0.0000 0.0000 0.0000 0.0000 30.3886
#
#
#
# Elastic Compliance Matrix: (Units=1/GPa)
#
#
# Indices 1 2 3 4 5 6 
#
# 1 0.038790 -0.005066 -0.004765 0.000000 0.000000 0.000000
# 2 -0.005066 0.008735 -0.005608 0.000000 0.000000 0.000000
# 3 -0.004765 -0.005608 0.016790 0.000000 0.000000 0.000000
# 4 0.000000 0.000000 0.000000 0.033031 0.000000 0.000000
# 5 0.000000 0.000000 0.000000 0.000000 0.041583 0.000000
# 6 0.000000 0.000000 0.000000 0.000000 0.000000 0.032907
#
#
# Mechanical properties :
#
#
# Convention : Reuss Voigt Hill
#
# Bulk Modulus (GPa) = 29.90678 59.27254 44.58966
# Shear Modulus (GPa) = 23.38000 28.77519 26.07759
#
# Velocity S-wave (km/s) = 3.52604 3.91177 3.72390
# Velocity P-wave (km/s) = 5.69921 7.20572 6.49628
#
# Compressibility (1/GPa) = 0.03343723
#
# Stress axis : x y z
#
# Youngs Moduli (GPa) = 25.77985 114.48406 59.56096
#
# Poissons Ratio (x) = 0.57998 0.28380
# Poissons Ratio (y) = 0.13060 0.33400
# Poissons Ratio (z) = 0.12284 0.64200
#
# Static dielectric constant tensor:
#      x y z
#    x 3.320620 0.000000 0.000000 
#    y 0.000000 3.764640 0.000000 
#    z 0.000000 0.000000 3.328030 
# 
# 
# High freq. dielectric constant tensor:
#      x y z
#    x 1.725460 0.000000 0.000000 
#    y 0.000000 1.755330 0.000000 
#    z 0.000000 0.000000 1.702100 
# 
# From -- ./inp_files/3499.got.cif
#   From: 2010.03.12/outbox.cif.g09.slc.cpg/sg38_2_cif.got.tgz:3499.got - 2010.04.14 02:38:36.
