data_PCOD8177093
_publ_section_title
;
Structure prediction by ZEFSAII (Michael W. Deem and Ramdas Pophale) SiO2 
 PCOD8177093
Probable space group: C C C 2
;
_chemical_formula_sum "Si O2"
_cell_formula_units_Z 64
_cell_length_a 8.483542
_cell_length_b 15.396981
_cell_length_c 23.667473
_cell_angle_alpha 90.000000
_cell_angle_beta 90.000000
_cell_angle_gamma 90.000000
_cell_volume 3091.467452
_symmetry_space_group_name_H-M "C C C 2"
_symmetry_group_IT_number 37
_symmetry_cell_setting 'orthorhombic'
loop_
_space_group_symop_operation_xyz
x,y,z
-x,-y,z
-x,y,1/2+z
x,-y,1/2+z
1/2+x,1/2+y,z
1/2-x,1/2-y,z
1/2-x,1/2+y,1/2+z
1/2+x,1/2-y,1/2+z
loop_
_atom_site_type_symbol
_atom_site_label
_atom_site_fract_x
_atom_site_fract_y
_atom_site_fract_z
Si Si1 0.107187 0.428526 0.022260
Si Si2 0.853048 0.836275 0.221429
Si Si3 0.107187 0.428526 0.294275
Si Si4 0.499998 0.358663 0.408268
Si Si5 0.936124 0.247565 0.303933
Si Si6 0.253502 0.000000 0.408267
Si Si7 0.063876 0.247565 0.512603
Si Si8 0.146953 0.163725 0.095107
O O1 0.265530 0.410066 0.058060
O O2 0.000000 0.500000 0.054984
O O3 0.001221 0.343978 0.015605
O O4 0.144027 0.471491 0.961691
O O5 0.750000 0.750000 0.220152
O O6 0.765530 0.910066 0.258475
O O7 0.881552 0.872340 0.158268
O O8 0.021279 0.809777 0.248545
O O9 0.144027 0.471494 0.354843
O O10 0.000000 0.500000 0.261551
O O11 0.001221 0.343978 0.300931
O O12 0.468269 0.297143 0.354985
O O13 0.648931 0.417089 0.391643
O O14 0.351060 0.417085 0.424892
O O15 0.531731 0.297144 0.461551
O O16 0.750000 0.250000 0.313430
O O17 0.250000 0.250000 0.503105
O O18 0.021279 0.190223 0.567991
O O19 0.250000 0.250000 0.096383
#
# Coordination Sequence:
#
# PCOD8177093 Si02
#       8
#     8   8   8   8   8   8   8   8
#     4  11  23  39  62  95 127 166 214 263 317 377
#     4   9  20  42  66  89 125 171 218 263 311 375
#     4  11  23  39  62  95 127 166 214 263 317 377
#     4  11  24  38  61  88 128 164 207 258 318 383
#     4  11  24  39  63  95 128 167 212 256 322 383
#     4  11  23  40  60  88 128 166 204 266 318 374
#     4  11  24  39  63  95 128 167 212 256 322 383
#     4   9  20  42  66  89 125 171 218 263 311 375
#
# _framework density 20.702143
#
# number of rings (size 3 to 8) (size 9 to 14) (size 15 to 20)
#    0.000    1.500    2.500    1.875    7.000    1.000 
#    0.000    0.000    0.000   10.500    0.000    0.000 
#    0.000    0.000    0.000    0.000    0.000    0.000 
#
# Total GULP energy -396739.163753 kJ/mol
# GULP energy per Si atom -12398.098867 kJ/mol
# Density = 2.065502 g / cm^3
# Si number density = 20.702143 Si / 1000 Ang^3
#
#
#
# Elastic Constant Matrix: (Units=GPa)
#
#
# Indices 1 2 3 4 5 6 
#
# 1 94.5922 48.8854 40.4940 0.0000 0.0000 0.0000
# 2 48.8854 127.2918 49.8979 0.0000 0.0000 0.0000
# 3 40.4940 49.8979 143.4260 0.0000 0.0000 0.0000
# 4 0.0000 0.0000 0.0000 19.9439 0.0000 0.0000
# 5 0.0000 0.0000 0.0000 0.0000 25.6985 0.0000
# 6 0.0000 0.0000 0.0000 0.0000 0.0000 21.9099
#
#
#
# Elastic Compliance Matrix: (Units=1/GPa)
#
#
# Indices 1 2 3 4 5 6 
#
# 1 0.013861 -0.004388 -0.002387 0.000000 0.000000 0.000000
# 2 -0.004388 0.010485 -0.002409 0.000000 0.000000 0.000000
# 3 -0.002387 -0.002409 0.008484 0.000000 0.000000 0.000000
# 4 0.000000 0.000000 0.000000 0.050141 0.000000 0.000000
# 5 0.000000 0.000000 0.000000 0.000000 0.038913 0.000000
# 6 0.000000 0.000000 0.000000 0.000000 0.000000 0.045641
#
#
# Mechanical properties :
#
#
# Convention : Reuss Voigt Hill
#
# Bulk Modulus (GPa) = 69.14016 71.54051 70.34033
# Shear Modulus (GPa) = 26.21726 28.57930 27.39828
#
# Velocity S-wave (km/s) = 3.56252 3.71954 3.64187
# Velocity P-wave (km/s) = 7.09874 7.28551 7.19273
#
# Compressibility (1/GPa) = 0.01446338
#
# Stress axis : x y z
#
# Youngs Moduli (GPa) = 72.14468 95.37148 117.86478
#
# Poissons Ratio (x) = 0.41844 0.28135
# Poissons Ratio (y) = 0.31654 0.28395
# Poissons Ratio (z) = 0.17221 0.22976
#
# Static dielectric constant tensor:
#      x y z
#    x 3.852010 0.000000 0.000000 
#    y 0.000000 3.941220 0.000000 
#    z 0.000000 0.000000 3.824590 
# 
# 
# High freq. dielectric constant tensor:
#      x y z
#    x 1.810250 0.000000 0.000000 
#    y 0.000000 1.818520 0.000000 
#    z 0.000000 0.000000 1.797360 
# 
# From -- ./inp_files/18468.got.cif
#   From: 2010.03.12/outbox.cif.g09.slc.cpg/sg37_10_cif.got.tgz:18468.got - 2010.04.14 02:25:27.
