data_PCOD8177462
_publ_section_title
;
Structure prediction by ZEFSAII (Michael W. Deem and Ramdas Pophale) SiO2 
 PCOD8177462
Probable space group: A M M 2
;
_chemical_formula_sum "Si O2"
_cell_formula_units_Z 64
_cell_length_a 9.365158
_cell_length_b 23.384610
_cell_length_c 18.817880
_cell_angle_alpha 90.000000
_cell_angle_beta 90.000000
_cell_angle_gamma 90.000000
_cell_volume 4121.126398
_symmetry_space_group_name_H-M "A M M 2"
_symmetry_group_IT_number 38
_symmetry_cell_setting 'orthorhombic'
loop_
_space_group_symop_operation_xyz
x,y,z
-x,-y,z
-x,y,z
x,-y,z
x,1/2+y,1/2+z
-x,1/2-y,1/2+z
-x,1/2+y,1/2+z
x,1/2-y,1/2+z
loop_
_atom_site_type_symbol
_atom_site_label
_atom_site_fract_x
_atom_site_fract_y
_atom_site_fract_z
Si Si1 0.667720 0.276132 0.062210
Si Si2 0.334907 0.833290 0.155425
Si Si3 0.834309 0.336629 0.178068
Si Si4 0.832510 0.244794 0.927588
Si Si5 0.168598 0.387602 0.426263
Si Si6 0.335354 0.065159 0.057478
Si Si7 0.163487 0.274279 0.769683
Si Si8 0.169558 0.936204 0.777669
O O1 0.500000 0.287075 0.054806
O O2 0.703538 0.215240 0.097848
O O3 0.737049 0.326318 0.109255
O O4 0.740344 0.278677 0.985317
O O5 0.500000 0.831764 0.175112
O O6 0.287782 0.894031 0.122519
O O7 0.252128 0.822947 0.228901
O O8 0.808691 0.287886 0.236648
O O9 0.781026 0.395843 0.212992
O O10 0.000000 0.338852 0.155038
O O11 0.788641 0.178563 0.929536
O O12 0.791158 0.271864 0.851808
O O13 0.000000 0.252025 0.943719
O O14 0.241738 0.422716 0.488743
O O15 0.228556 0.413087 0.352585
O O16 0.000000 0.396096 0.433245
O O17 0.500000 0.077694 0.038074
O O18 0.312120 0.000000 0.082224
O O19 0.000000 0.291979 0.761823
O O20 0.000000 0.935029 0.781756
O O21 0.228206 0.000000 0.763635
#
# Coordination Sequence:
#
# PCOD8177462 Si02
#       8
#     8   8   8   8   8   8   8   8
#     4  10  19  30  45  65  90 119 152 189 227 268
#     4   9  18  31  44  63  88 117 153 188 222 263
#     4   9  16  29  46  65  89 119 152 187 225 266
#     4  10  18  29  46  69  94 121 150 183 227 273
#     4  10  18  29  45  67  94 123 156 189 216 255
#     4  10  20  33  46  62  91 128 159 187 221 263
#     4   9  17  29  46  66  89 116 148 185 227 270
#     4   9  16  27  45  68  93 122 156 190 222 260
#
# _framework density 15.529735000000001
#
# number of rings (size 3 to 8) (size 9 to 14) (size 15 to 20)
#    0.000    2.500    2.500    0.750    0.000    2.250 
#    0.000    0.625    0.000    1.125    0.000    0.875 
#    0.000    1.000    0.000    0.000    0.000    0.000 
#
# Total GULP energy -396814.798799 kJ/mol
# GULP energy per Si atom -12400.462462 kJ/mol
# Density = 1.549439 g / cm^3
# Si number density = 15.529735 Si / 1000 Ang^3
#
#
#
# Elastic Constant Matrix: (Units=GPa)
#
#
# Indices 1 2 3 4 5 6 
#
# 1 49.2271 33.6943 52.6590 0.0000 0.0000 0.0000
# 2 33.6943 92.5189 63.2893 0.0000 0.0000 0.0000
# 3 52.6590 63.2893 123.8869 0.0000 0.0000 0.0000
# 4 0.0000 0.0000 0.0000 23.5154 0.0000 0.0000
# 5 0.0000 0.0000 0.0000 0.0000 15.6466 0.0000
# 6 0.0000 0.0000 0.0000 0.0000 0.0000 14.9700
#
#
#
# Elastic Compliance Matrix: (Units=1/GPa)
#
#
# Indices 1 2 3 4 5 6 
#
# 1 0.038347 -0.004328 -0.014089 0.000000 0.000000 0.000000
# 2 -0.004328 0.017103 -0.006898 0.000000 0.000000 0.000000
# 3 -0.014089 -0.006898 0.017584 0.000000 0.000000 0.000000
# 4 0.000000 0.000000 0.000000 0.042525 0.000000 0.000000
# 5 0.000000 0.000000 0.000000 0.000000 0.063912 0.000000
# 6 0.000000 0.000000 0.000000 0.000000 0.000000 0.066800
#
#
# Mechanical properties :
#
#
# Convention : Reuss Voigt Hill
#
# Bulk Modulus (GPa) = 44.63135 62.76870 53.70003
# Shear Modulus (GPa) = 16.42735 18.55908 17.49321
#
# Velocity S-wave (km/s) = 3.25591 3.46072 3.35988
# Velocity P-wave (km/s) = 6.55258 7.51498 7.05022
#
# Compressibility (1/GPa) = 0.02240577
#
# Stress axis : x y z
#
# Youngs Moduli (GPa) = 26.07741 58.46779 56.86880
#
# Poissons Ratio (x) = 0.25305 0.80122
# Poissons Ratio (y) = 0.11286 0.39228
# Poissons Ratio (z) = 0.36740 0.40331
#
# Static dielectric constant tensor:
#      x y z
#    x 2.843050 0.000000 0.000000 
#    y 0.000000 2.957810 0.000000 
#    z 0.000000 0.000000 2.955920 
# 
# 
# High freq. dielectric constant tensor:
#      x y z
#    x 1.584950 0.000000 0.000000 
#    y 0.000000 1.574680 0.000000 
#    z 0.000000 0.000000 1.589710 
# 
# From -- ./inp_files/17264.got.cif
#   From: 2010.03.12/outbox.cif.g09.slc.cpg/sg38_9_cif.got.tgz:17264.got - 2010.04.14 02:38:36.
