data_PCOD8177839
_publ_section_title
;
Structure prediction by ZEFSAII (Michael W. Deem and Ramdas Pophale) SiO2 
 PCOD8177839
Probable space group: A M M 2
;
_chemical_formula_sum "Si O2"
_cell_formula_units_Z 48
_cell_length_a 8.632798
_cell_length_b 14.547447
_cell_length_c 20.363285
_cell_angle_alpha 90.000000
_cell_angle_beta 90.000000
_cell_angle_gamma 90.000000
_cell_volume 2557.326636
_symmetry_space_group_name_H-M "A M M 2"
_symmetry_group_IT_number 38
_symmetry_cell_setting 'orthorhombic'
loop_
_space_group_symop_operation_xyz
x,y,z
-x,-y,z
-x,y,z
x,-y,z
x,1/2+y,1/2+z
-x,1/2-y,1/2+z
-x,1/2+y,1/2+z
x,1/2-y,1/2+z
loop_
_atom_site_type_symbol
_atom_site_label
_atom_site_fract_x
_atom_site_fract_y
_atom_site_fract_z
Si Si1 0.683908 0.314523 0.457360
Si Si2 0.682794 0.188591 0.202051
Si Si3 0.182729 0.500000 0.664031
Si Si4 0.316150 0.695218 0.079288
Si Si5 0.822069 0.000000 0.759290
Si Si6 0.819100 0.695175 0.317808
Si Si7 0.682081 0.000000 0.618749
Si Si8 0.815959 0.000000 0.013997
O O1 0.500000 0.320786 0.451869
O O2 0.737723 0.239653 0.511131
O O3 0.756749 0.280829 0.389593
O O4 0.750484 0.412493 0.476822
O O5 0.500000 0.178435 0.197684
O O6 0.756356 0.088098 0.202776
O O7 0.749900 0.244773 0.139718
O O8 0.727945 0.240391 0.268033
O O9 0.244151 0.500000 0.588996
O O10 0.000000 0.500000 0.664852
O O11 0.500000 0.692903 0.084791
O O12 0.247626 0.591651 0.084866
O O13 0.783262 0.088600 0.803064
O O14 0.714683 0.000000 0.695889
O O15 0.000000 0.000000 0.736049
O O16 0.000000 0.717116 0.313024
O O17 0.500000 0.000000 0.608891
O O18 0.000000 0.000000 0.009287
#
# Coordination Sequence:
#
# PCOD8177839 Si02
#       8
#     8   8   4   8   4   8   4   4
#     4  11  22  38  58  85 118 157 199 243 296 356
#     4  11  21  38  62  88 116 154 202 249 292 348
#     4  11  23  38  59  90 122 156 194 242 303 362
#     4   9  19  34  58  87 115 146 192 247 290 338
#     4  10  21  35  54  82 118 150 185 234 289 348
#     4  11  23  39  57  85 123 160 196 242 299 359
#     4  10  18  35  60  87 114 144 186 237 288 342
#     4  11  22  36  57  87 120 154 191 243 306 362
#
# _framework density 18.769598999999999
#
# number of rings (size 3 to 8) (size 9 to 14) (size 15 to 20)
#    0.000    1.500    3.333    2.500    0.000    2.000 
#    0.000    2.500    0.000    2.000    0.000    0.000 
#    0.000    0.000    0.000    0.000    0.000    0.000 
#
# Total GULP energy -297691.995205 kJ/mol
# GULP energy per Si atom -12403.833134 kJ/mol
# Density = 1.872688 g / cm^3
# Si number density = 18.769599 Si / 1000 Ang^3
#
#
#
# Elastic Constant Matrix: (Units=GPa)
#
#
# Indices 1 2 3 4 5 6 
#
# 1 43.5729 22.8705 13.1182 0.0000 0.0000 0.0000
# 2 22.8705 147.1976 59.9997 0.0000 0.0000 0.0000
# 3 13.1182 59.9997 120.6954 0.0000 0.0000 0.0000
# 4 0.0000 0.0000 0.0000 21.8645 0.0000 0.0000
# 5 0.0000 0.0000 0.0000 0.0000 28.1246 0.0000
# 6 0.0000 0.0000 0.0000 0.0000 0.0000 22.0655
#
#
#
# Elastic Compliance Matrix: (Units=1/GPa)
#
#
# Indices 1 2 3 4 5 6 
#
# 1 0.025082 -0.003494 -0.000989 0.000000 0.000000 0.000000
# 2 -0.003494 0.009007 -0.004098 0.000000 0.000000 0.000000
# 3 -0.000989 -0.004098 0.010430 0.000000 0.000000 0.000000
# 4 0.000000 0.000000 0.000000 0.045736 0.000000 0.000000
# 5 0.000000 0.000000 0.000000 0.000000 0.035556 0.000000
# 6 0.000000 0.000000 0.000000 0.000000 0.000000 0.045320
#
#
# Mechanical properties :
#
#
# Convention : Reuss Voigt Hill
#
# Bulk Modulus (GPa) = 36.55392 55.93809 46.24601
# Shear Modulus (GPa) = 25.32793 28.77608 27.05200
#
# Velocity S-wave (km/s) = 3.67742 3.91976 3.80052
# Velocity P-wave (km/s) = 6.12769 7.09600 6.62955
#
# Compressibility (1/GPa) = 0.02735684
#
# Stress axis : x y z
#
# Youngs Moduli (GPa) = 39.86970 111.02873 95.87870
#
# Poissons Ratio (x) = 0.38791 0.09485
# Poissons Ratio (y) = 0.13930 0.39288
# Poissons Ratio (z) = 0.03944 0.45496
#
# Static dielectric constant tensor:
#      x y z
#    x 3.344190 0.000000 0.000000 
#    y 0.000000 3.735790 0.000000 
#    z 0.000000 0.000000 3.474990 
# 
# 
# High freq. dielectric constant tensor:
#      x y z
#    x 1.722220 0.000000 0.000000 
#    y 0.000000 1.736320 0.000000 
#    z 0.000000 0.000000 1.728300 
# 
# From -- ./inp_files/16707.got.cif
#   From: 2010.03.12/outbox.cif.g09.slc.cpg/sg38_9_cif.got.tgz:16707.got - 2010.04.14 02:38:36.
