data_PCOD8177285
_publ_section_title
;
Structure prediction by ZEFSAII (Michael W. Deem and Ramdas Pophale) SiO2 
 PCOD8177285
Probable space group: A M M 2
;
_chemical_formula_sum "Si O2"
_cell_formula_units_Z 64
_cell_length_a 9.171276
_cell_length_b 23.378135
_cell_length_c 18.887954
_cell_angle_alpha 90.000000
_cell_angle_beta 90.000000
_cell_angle_gamma 90.000000
_cell_volume 4049.715757
_symmetry_space_group_name_H-M "A M M 2"
_symmetry_group_IT_number 38
_symmetry_cell_setting 'orthorhombic'
loop_
_space_group_symop_operation_xyz
x,y,z
-x,-y,z
-x,y,z
x,-y,z
x,1/2+y,1/2+z
-x,1/2-y,1/2+z
-x,1/2+y,1/2+z
x,1/2-y,1/2+z
loop_
_atom_site_type_symbol
_atom_site_label
_atom_site_fract_x
_atom_site_fract_y
_atom_site_fract_z
Si Si1 0.826476 0.936325 0.072200
Si Si2 0.168123 0.665224 0.475937
Si Si3 0.166212 0.277362 0.063761
Si Si4 0.328753 0.727478 0.357931
Si Si5 0.828952 0.746146 0.720174
Si Si6 0.829123 0.933936 0.363844
Si Si7 0.328892 0.661114 0.946322
Si Si8 0.826867 0.883413 0.216125
O O1 0.775941 0.894365 0.009298
O O2 0.761708 0.915502 0.147529
O O3 0.000000 0.935269 0.077104
O O4 0.768072 0.000000 0.055846
O O5 0.190019 0.713159 0.535896
O O6 0.265709 0.677608 0.407531
O O7 0.000000 0.661899 0.452115
O O8 0.205075 0.278125 0.146682
O O9 0.000000 0.296563 0.050834
O O10 0.270215 0.321950 0.023805
O O11 0.500000 0.719136 0.351435
O O12 0.256521 0.720491 0.281324
O O13 0.286950 0.789146 0.390694
O O14 0.769054 0.681417 0.717150
O O15 0.000000 0.746762 0.737573
O O16 0.745169 0.897696 0.422807
O O17 0.772480 0.916436 0.285967
O O18 0.000000 0.921074 0.370941
O O19 0.792965 0.000000 0.377181
O O20 0.500000 0.651763 0.951562
O O21 0.000000 0.883631 0.211807
#
# Coordination Sequence:
#
# PCOD8177285 Si02
#       8
#     8   8   8   8   8   8   8   8
#     4   9  15  24  42  69  97 122 153 192 228 265
#     4   9  16  28  45  66  90 120 154 189 228 269
#     4   9  17  29  47  68  90 117 153 193 233 277
#     4  10  20  31  44  64  91 123 157 192 232 275
#     4  10  17  28  48  71  93 121 153 189 233 276
#     4  10  19  30  47  69  93 125 162 196 228 265
#     4  10  20  32  45  64  91 125 158 192 234 275
#     4   9  15  25  41  66  97 125 154 186 222 265
#
# _framework density 15.803578
#
# number of rings (size 3 to 8) (size 9 to 14) (size 15 to 20)
#    0.000    2.500    2.500    1.125    0.000    3.250 
#    0.000    0.000    0.000    1.125    0.000    0.875 
#    0.000    3.000    0.000    0.000    0.000    0.000 
#
# Total GULP energy -396820.268706 kJ/mol
# GULP energy per Si atom -12400.633397 kJ/mol
# Density = 1.576761 g / cm^3
# Si number density = 15.803578 Si / 1000 Ang^3
#
#
#
# Elastic Constant Matrix: (Units=GPa)
#
#
# Indices 1 2 3 4 5 6 
#
# 1 52.0424 37.5462 50.1683 0.0000 0.0000 0.0000
# 2 37.5462 99.1517 64.6257 0.0000 0.0000 0.0000
# 3 50.1683 64.6257 122.9046 0.0000 0.0000 0.0000
# 4 0.0000 0.0000 0.0000 25.0505 0.0000 0.0000
# 5 0.0000 0.0000 0.0000 0.0000 12.4151 0.0000
# 6 0.0000 0.0000 0.0000 0.0000 0.0000 13.4153
#
#
#
# Elastic Compliance Matrix: (Units=1/GPa)
#
#
# Indices 1 2 3 4 5 6 
#
# 1 0.033726 -0.005779 -0.010728 0.000000 0.000000 0.000000
# 2 -0.005779 0.016335 -0.006230 0.000000 0.000000 0.000000
# 3 -0.010728 -0.006230 0.015791 0.000000 0.000000 0.000000
# 4 0.000000 0.000000 0.000000 0.039919 0.000000 0.000000
# 5 0.000000 0.000000 0.000000 0.000000 0.080547 0.000000
# 6 0.000000 0.000000 0.000000 0.000000 0.000000 0.074542
#
#
# Mechanical properties :
#
#
# Convention : Reuss Voigt Hill
#
# Bulk Modulus (GPa) = 49.07266 64.30878 56.69072
# Shear Modulus (GPa) = 15.96801 18.29342 17.13072
#
# Velocity S-wave (km/s) = 3.18213 3.40597 3.29595
# Velocity P-wave (km/s) = 6.67985 7.49989 7.10172
#
# Compressibility (1/GPa) = 0.02037795
#
# Stress axis : x y z
#
# Youngs Moduli (GPa) = 29.65095 61.21963 63.32573
#
# Poissons Ratio (x) = 0.35378 0.67935
# Poissons Ratio (y) = 0.17135 0.39453
# Poissons Ratio (z) = 0.31809 0.38141
#
# Static dielectric constant tensor:
#      x y z
#    x 2.732840 0.000000 0.000000 
#    y 0.000000 2.910710 0.000000 
#    z 0.000000 0.000000 2.990750 
# 
# 
# High freq. dielectric constant tensor:
#      x y z
#    x 1.582540 0.000000 0.000000 
#    y 0.000000 1.584030 0.000000 
#    z 0.000000 0.000000 1.603580 
# 
# From -- ./inp_files/17220.got.cif
#   From: 2010.03.12/outbox.cif.g09.slc.cpg/sg38_9_cif.got.tgz:17220.got - 2010.04.14 02:38:36.
