data_PCOD8177930
_publ_section_title
;
Structure prediction by ZEFSAII (Michael W. Deem and Ramdas Pophale) SiO2 
 PCOD8177930
Probable space group: A M M 2
;
_chemical_formula_sum "Si O2"
_cell_formula_units_Z 56
_cell_length_a 9.153204
_cell_length_b 18.069044
_cell_length_c 20.861714
_cell_angle_alpha 90.000000
_cell_angle_beta 90.000000
_cell_angle_gamma 90.000000
_cell_volume 3450.311490
_symmetry_space_group_name_H-M "A M M 2"
_symmetry_group_IT_number 38
_symmetry_cell_setting 'orthorhombic'
loop_
_space_group_symop_operation_xyz
x,y,z
-x,-y,z
-x,y,z
x,-y,z
x,1/2+y,1/2+z
-x,1/2-y,1/2+z
-x,1/2+y,1/2+z
x,1/2-y,1/2+z
loop_
_atom_site_type_symbol
_atom_site_label
_atom_site_fract_x
_atom_site_fract_y
_atom_site_fract_z
Si Si1 0.831678 0.086846 0.703050
Si Si2 0.327739 0.334771 0.089235
Si Si3 0.171530 0.646432 0.341934
Si Si4 0.667980 0.414445 0.462376
Si Si5 0.671342 0.582854 0.959660
Si Si6 0.161349 0.205577 0.398800
Si Si7 0.164588 0.206619 0.030948
O O1 0.726066 0.124942 0.652606
O O2 0.787025 0.117734 0.772171
O O3 0.000000 0.105326 0.686931
O O4 0.802789 0.000000 0.702052
O O5 0.500000 0.321907 0.092719
O O6 0.249292 0.255106 0.084021
O O7 0.283942 0.386306 0.029174
O O8 0.261081 0.598732 0.392994
O O9 0.213249 0.734086 0.346024
O O10 0.000000 0.635879 0.357427
O O11 0.500000 0.388235 0.459626
O O12 0.681118 0.500000 0.480488
O O13 0.750375 0.369933 0.518732
O O14 0.500000 0.582573 0.950775
O O15 0.735272 0.500000 0.953217
O O16 0.734729 0.634177 0.902769
O O17 0.162331 0.248509 0.465453
O O18 0.000000 0.176039 0.382459
O O19 0.000000 0.190169 0.055006
#
# Coordination Sequence:
#
# PCOD8177930 Si02
#       7
#     8   8   8   8   8   8   8
#     4  10  20  32  46  65  90 122 158 191 223 264
#     4  10  19  31  46  64  90 121 152 187 226 268
#     4   9  18  32  47  63  88 123 159 191 224 266
#     4  10  19  29  44  69  97 121 148 186 230 272
#     4   9  17  28  42  62  88 116 143 174 217 267
#     4   8  15  27  43  63  84 109 144 184 222 259
#     4   9  17  30  47  65  87 117 152 186 223 270
#
# _framework density 16.230419000000001
#
# number of rings (size 3 to 8) (size 9 to 14) (size 15 to 20)
#    0.000    2.714    0.000    3.000    0.000    7.429 
#    0.000    0.000    0.000    0.000    0.000    1.000 
#    0.000    5.714    0.000    0.000    0.000    0.000 
#
# Total GULP energy -347149.001297 kJ/mol
# GULP energy per Si atom -12398.178618 kJ/mol
# Density = 1.619348 g / cm^3
# Si number density = 16.230419 Si / 1000 Ang^3
#
#
#
# Elastic Constant Matrix: (Units=GPa)
#
#
# Indices 1 2 3 4 5 6 
#
# 1 82.2481 55.2868 33.4330 0.0000 0.0000 0.0000
# 2 55.2868 109.7266 43.5774 0.0000 0.0000 0.0000
# 3 33.4330 43.5774 55.8638 0.0000 0.0000 0.0000
# 4 0.0000 0.0000 0.0000 26.7549 0.0000 0.0000
# 5 0.0000 0.0000 0.0000 0.0000 22.5470 0.0000
# 6 0.0000 0.0000 0.0000 0.0000 0.0000 29.7507
#
#
#
# Elastic Compliance Matrix: (Units=1/GPa)
#
#
# Indices 1 2 3 4 5 6 
#
# 1 0.019617 -0.007565 -0.005839 0.000000 0.000000 0.000000
# 2 -0.007565 0.016122 -0.008048 0.000000 0.000000 0.000000
# 3 -0.005839 -0.008048 0.027673 0.000000 0.000000 0.000000
# 4 0.000000 0.000000 0.000000 0.037376 0.000000 0.000000
# 5 0.000000 0.000000 0.000000 0.000000 0.044352 0.000000
# 6 0.000000 0.000000 0.000000 0.000000 0.000000 0.033613
#
#
# Mechanical properties :
#
#
# Convention : Reuss Voigt Hill
#
# Bulk Modulus (GPa) = 48.76369 56.93700 52.85035
# Shear Modulus (GPa) = 21.88239 23.51328 22.69783
#
# Velocity S-wave (km/s) = 3.67581 3.81033 3.74368
# Velocity P-wave (km/s) = 6.93724 7.38341 7.16380
#
# Compressibility (1/GPa) = 0.02050706
#
# Stress axis : x y z
#
# Youngs Moduli (GPa) = 50.97553 62.02763 36.13590
#
# Poissons Ratio (x) = 0.46927 0.21099
# Poissons Ratio (y) = 0.38565 0.29083
# Poissons Ratio (z) = 0.29764 0.49922
#
# Static dielectric constant tensor:
#      x y z
#    x 3.169870 0.000000 0.000000 
#    y 0.000000 3.273580 0.000000 
#    z 0.000000 0.000000 2.826620 
# 
# 
# High freq. dielectric constant tensor:
#      x y z
#    x 1.631800 0.000000 0.000000 
#    y 0.000000 1.626250 0.000000 
#    z 0.000000 0.000000 1.582770 
# 
# From -- ./inp_files/19972.got.cif
#   From: 2010.03.12/outbox.cif.g09.slc.cpg/sg38_10_cif.got.tgz:19972.got - 2010.04.14 02:38:36.
