data_PCOD8177680
_publ_section_title
;
Structure prediction by ZEFSAII (Michael W. Deem and Ramdas Pophale) SiO2 
 PCOD8177680
Probable space group: A M M 2
;
_chemical_formula_sum "Si O2"
_cell_formula_units_Z 64
_cell_length_a 13.973178
_cell_length_b 17.926827
_cell_length_c 14.569705
_cell_angle_alpha 90.000000
_cell_angle_beta 90.000000
_cell_angle_gamma 90.000000
_cell_volume 3649.634534
_symmetry_space_group_name_H-M "A M M 2"
_symmetry_group_IT_number 38
_symmetry_cell_setting 'orthorhombic'
loop_
_space_group_symop_operation_xyz
x,y,z
-x,-y,z
-x,y,z
x,-y,z
x,1/2+y,1/2+z
-x,1/2-y,1/2+z
-x,1/2+y,1/2+z
x,1/2-y,1/2+z
loop_
_atom_site_type_symbol
_atom_site_label
_atom_site_fract_x
_atom_site_fract_y
_atom_site_fract_z
Si Si1 0.732965 0.729380 0.963300
Si Si2 0.388111 0.762083 0.798109
Si Si3 0.760265 0.210172 0.157288
Si Si4 0.110099 0.585960 0.589111
Si Si5 0.610548 0.417460 0.215289
Si Si6 0.243145 0.582420 0.059512
Si Si7 0.890130 0.651169 0.197598
Si Si8 0.891927 0.164491 0.902072
O O1 0.638337 0.740379 0.901953
O O2 0.824022 0.763899 0.911278
O O3 0.713383 0.769996 0.059493
O O4 0.756871 0.641979 0.977337
O O5 0.500000 0.746708 0.781017
O O6 0.326039 0.709481 0.730391
O O7 0.361221 0.849957 0.783797
O O8 0.815845 0.131411 0.153042
O O9 0.840361 0.269897 0.182387
O O10 0.133763 0.500000 0.604854
O O11 0.127958 0.604775 0.481938
O O12 0.000000 0.604212 0.615843
O O13 0.500000 0.413044 0.191861
O O14 0.636853 0.500000 0.256659
O O15 0.661316 0.404545 0.118449
O O16 0.239709 0.500000 0.015675
O O17 0.154046 0.590190 0.129348
O O18 0.875217 0.625275 0.303248
O O19 0.000000 0.660766 0.171473
O O20 0.000000 0.195405 0.908105
#
# Coordination Sequence:
#
# PCOD8177680 Si02
#       8
#     8   8   8   8   8   8   8   8
#     4  10  19  34  52  76 107 139 182 219 263 322
#     4  11  21  35  56  82 106 138 185 231 271 319
#     4  10  19  35  55  78 106 142 183 220 268 319
#     4   9  18  32  52  80 111 144 183 222 261 311
#     4   9  17  32  54  79 106 134 170 222 278 325
#     4  10  20  33  50  75 108 143 176 218 268 322
#     4  10  18  31  53  79 106 139 177 219 269 327
#     4   9  17  30  52  77 105 140 178 222 266 320
#
# _framework density 17.536002
#
# number of rings (size 3 to 8) (size 9 to 14) (size 15 to 20)
#    0.000    2.250    3.750    0.375    0.000    4.750 
#    0.000    5.625    0.000    1.125    0.000    0.000 
#    0.000    0.000    0.000    0.000    0.000    0.000 
#
# Total GULP energy -396692.628765 kJ/mol
# GULP energy per Si atom -12396.644649 kJ/mol
# Density = 1.749609 g / cm^3
# Si number density = 17.536002 Si / 1000 Ang^3
#
#
#
# Elastic Constant Matrix: (Units=GPa)
#
#
# Indices 1 2 3 4 5 6 
#
# 1 93.0322 50.8177 39.9657 0.0000 0.0000 0.0000
# 2 50.8177 107.4153 32.0509 0.0000 0.0000 0.0000
# 3 39.9657 32.0509 68.8566 0.0000 0.0000 0.0000
# 4 0.0000 0.0000 0.0000 14.9009 0.0000 0.0000
# 5 0.0000 0.0000 0.0000 0.0000 25.1892 0.0000
# 6 0.0000 0.0000 0.0000 0.0000 0.0000 24.0821
#
#
#
# Elastic Compliance Matrix: (Units=1/GPa)
#
#
# Indices 1 2 3 4 5 6 
#
# 1 0.017060 -0.005942 -0.007136 0.000000 0.000000 0.000000
# 2 -0.005942 0.012881 -0.002547 0.000000 0.000000 0.000000
# 3 -0.007136 -0.002547 0.019851 0.000000 0.000000 0.000000
# 4 0.000000 0.000000 0.000000 0.067110 0.000000 0.000000
# 5 0.000000 0.000000 0.000000 0.000000 0.039700 0.000000
# 6 0.000000 0.000000 0.000000 0.000000 0.000000 0.041525
#
#
# Mechanical properties :
#
#
# Convention : Reuss Voigt Hill
#
# Bulk Modulus (GPa) = 53.93337 57.21920 55.57628
# Shear Modulus (GPa) = 21.22634 22.59909 21.91271
#
# Velocity S-wave (km/s) = 3.48292 3.59378 3.53878
# Velocity P-wave (km/s) = 6.85542 7.06546 6.96123
#
# Compressibility (1/GPa) = 0.01854140
#
# Stress axis : x y z
#
# Youngs Moduli (GPa) = 58.61554 77.63593 50.37649
#
# Poissons Ratio (x) = 0.46130 0.35951
# Poissons Ratio (y) = 0.34828 0.12830
# Poissons Ratio (z) = 0.41830 0.19773
#
# Static dielectric constant tensor:
#      x y z
#    x 3.312220 0.000000 0.000000 
#    y 0.000000 3.296050 0.000000 
#    z 0.000000 0.000000 3.262890 
# 
# 
# High freq. dielectric constant tensor:
#      x y z
#    x 1.682100 0.000000 0.000000 
#    y 0.000000 1.664070 0.000000 
#    z 0.000000 0.000000 1.660520 
# 
# From -- ./inp_files/14798.got.cif
#   From: 2010.03.12/outbox.cif.g09.slc.cpg/sg38_8_cif.got.tgz:14798.got - 2010.04.14 02:38:36.
