data_PCOD8177451
_publ_section_title
;
Structure prediction by ZEFSAII (Michael W. Deem and Ramdas Pophale) SiO2 
 PCOD8177451
Probable space group: A M M 2
;
_chemical_formula_sum "Si O2"
_cell_formula_units_Z 64
_cell_length_a 9.147323
_cell_length_b 26.422985
_cell_length_c 18.145702
_cell_angle_alpha 90.000000
_cell_angle_beta 90.000000
_cell_angle_gamma 90.000000
_cell_volume 4385.808524
_symmetry_space_group_name_H-M "A M M 2"
_symmetry_group_IT_number 38
_symmetry_cell_setting 'orthorhombic'
loop_
_space_group_symop_operation_xyz
x,y,z
-x,-y,z
-x,y,z
x,-y,z
x,1/2+y,1/2+z
-x,1/2-y,1/2+z
-x,1/2+y,1/2+z
x,1/2-y,1/2+z
loop_
_atom_site_type_symbol
_atom_site_label
_atom_site_fract_x
_atom_site_fract_y
_atom_site_fract_z
Si Si1 0.835803 0.710456 0.851410
Si Si2 0.834928 0.242965 0.995952
Si Si3 0.670999 0.263700 0.643353
Si Si4 0.168371 0.144172 0.221418
Si Si5 0.831429 0.146510 0.894343
Si Si6 0.170359 0.942394 0.996230
Si Si7 0.667593 0.202108 0.779535
Si Si8 0.329424 0.941843 0.146793
O O1 0.818071 0.708637 0.940301
O O2 0.818221 0.656953 0.809093
O O3 0.711559 0.746823 0.820972
O O4 0.000000 0.732349 0.834298
O O5 0.797373 0.192120 0.950588
O O6 0.000000 0.240119 0.027451
O O7 0.721023 0.250276 0.061421
O O8 0.500000 0.278157 0.644167
O O9 0.762765 0.311476 0.671888
O O10 0.699605 0.213359 0.693152
O O11 0.253677 0.091932 0.209397
O O12 0.000000 0.137809 0.197670
O O13 0.776156 0.094125 0.930533
O O14 0.753933 0.154826 0.815050
O O15 0.000000 0.142656 0.875760
O O16 0.000000 0.933500 0.014382
O O17 0.201293 0.000000 0.971848
O O18 0.261152 0.927676 0.068252
O O19 0.500000 0.190588 0.794031
O O20 0.500000 0.929663 0.143682
O O21 0.298452 0.000000 0.167056
#
# Coordination Sequence:
#
# PCOD8177451 Si02
#       8
#     8   8   8   8   8   8   8   8
#     4   8  16  29  42  57  77 101 131 165 197 233
#     4   9  16  26  40  58  80 106 135 164 195 235
#     4  10  19  28  39  59  84 107 134 166 198 235
#     4  10  18  29  45  60  77 106 139 167 199 237
#     4   9  17  28  41  57  78 105 136 166 197 234
#     4   9  17  29  44  61  81 106 137 171 203 235
#     4   9  17  27  39  56  78 104 133 164 196 232
#     4  10  20  31  42  59  83 108 135 168 201 232
#
# _framework density 14.59252
#
# number of rings (size 3 to 8) (size 9 to 14) (size 15 to 20)
#    0.000    2.750    0.000    3.000    0.000    6.250 
#    0.000    0.000    0.000    0.000    0.000    0.000 
#    0.000    1.000    0.000    4.500    0.000    3.750 
#
# Total GULP energy -396574.982669 kJ/mol
# GULP energy per Si atom -12392.968208 kJ/mol
# Density = 1.455931 g / cm^3
# Si number density = 14.592520 Si / 1000 Ang^3
#
#
#
# Elastic Constant Matrix: (Units=GPa)
#
#
# Indices 1 2 3 4 5 6 
#
# 1 67.5751 36.4172 41.2425 0.0000 0.0000 0.0000
# 2 36.4172 73.2976 43.5769 0.0000 0.0000 0.0000
# 3 41.2425 43.5769 77.7405 0.0000 0.0000 0.0000
# 4 0.0000 0.0000 0.0000 26.4839 0.0000 0.0000
# 5 0.0000 0.0000 0.0000 0.0000 22.3653 0.0000
# 6 0.0000 0.0000 0.0000 0.0000 0.0000 20.0256
#
#
#
# Elastic Compliance Matrix: (Units=1/GPa)
#
#
# Indices 1 2 3 4 5 6 
#
# 1 0.023766 -0.006467 -0.008983 0.000000 0.000000 0.000000
# 2 -0.006467 0.022222 -0.009025 0.000000 0.000000 0.000000
# 3 -0.008983 -0.009025 0.022688 0.000000 0.000000 0.000000
# 4 0.000000 0.000000 0.000000 0.037759 0.000000 0.000000
# 5 0.000000 0.000000 0.000000 0.000000 0.044712 0.000000
# 6 0.000000 0.000000 0.000000 0.000000 0.000000 0.049936
#
#
# Mechanical properties :
#
#
# Convention : Reuss Voigt Hill
#
# Bulk Modulus (GPa) = 50.69795 51.23183 50.96489
# Shear Modulus (GPa) = 19.48480 20.26673 19.87577
#
# Velocity S-wave (km/s) = 3.65808 3.73076 3.69460
# Velocity P-wave (km/s) = 7.25672 7.33094 7.29392
#
# Compressibility (1/GPa) = 0.01972466
#
# Stress axis : x y z
#
# Youngs Moduli (GPa) = 42.07632 45.00038 44.07595
#
# Poissons Ratio (x) = 0.29104 0.39594
# Poissons Ratio (y) = 0.27212 0.39780
# Poissons Ratio (z) = 0.37798 0.40614
#
# Static dielectric constant tensor:
#      x y z
#    x 2.924810 0.000000 0.000000 
#    y 0.000000 2.754640 0.000000 
#    z 0.000000 0.000000 2.928830 
# 
# 
# High freq. dielectric constant tensor:
#      x y z
#    x 1.570140 0.000000 0.000000 
#    y 0.000000 1.523890 0.000000 
#    z 0.000000 0.000000 1.543650 
# 
# From -- ./inp_files/13123.got.cif
#   From: 2010.03.12/outbox.cif.g09.slc.cpg/sg38_7_cif.got.tgz:13123.got - 2010.04.14 02:38:36.
