data_PCOD8177411
_publ_section_title
;
Structure prediction by ZEFSAII (Michael W. Deem and Ramdas Pophale) SiO2 
 PCOD8177411
Probable space group: A M M 2
;
_chemical_formula_sum "Si O2"
_cell_formula_units_Z 56
_cell_length_a 9.701545
_cell_length_b 11.795706
_cell_length_c 30.684729
_cell_angle_alpha 90.000000
_cell_angle_beta 90.000000
_cell_angle_gamma 90.000000
_cell_volume 3511.455217
_symmetry_space_group_name_H-M "A M M 2"
_symmetry_group_IT_number 38
_symmetry_cell_setting 'orthorhombic'
loop_
_space_group_symop_operation_xyz
x,y,z
-x,-y,z
-x,y,z
x,-y,z
x,1/2+y,1/2+z
-x,1/2-y,1/2+z
-x,1/2+y,1/2+z
x,1/2-y,1/2+z
loop_
_atom_site_type_symbol
_atom_site_label
_atom_site_fract_x
_atom_site_fract_y
_atom_site_fract_z
Si Si1 0.160711 0.130550 0.002050
Si Si2 0.664159 0.873928 0.828110
Si Si3 0.156287 0.767329 0.092158
Si Si4 0.661423 0.500000 0.722290
Si Si5 0.663069 0.255277 0.745165
Si Si6 0.346249 0.365004 0.423183
Si Si7 0.151390 0.500000 0.641490
Si Si8 0.338879 0.633020 0.157496
O O1 0.198309 0.214830 0.041711
O O2 0.000000 0.136780 0.991036
O O3 0.202653 0.000000 0.012512
O O4 0.243246 0.178289 0.960377
O O5 0.500000 0.877687 0.825102
O O6 0.727561 0.800496 0.788515
O O7 0.704894 0.821639 0.875398
O O8 0.724921 0.000000 0.822604
O O9 0.168895 0.891047 0.112020
O O10 0.257641 0.678705 0.115383
O O11 0.000000 0.721080 0.096222
O O12 0.500000 0.500000 0.713717
O O13 0.707567 0.387013 0.747694
O O14 0.727346 0.500000 0.675379
O O15 0.500000 0.240416 0.745476
O O16 0.718352 0.195775 0.700960
O O17 0.500000 0.319165 0.433504
O O18 0.349109 0.500000 0.420785
O O19 0.000000 0.500000 0.664010
O O20 0.500000 0.658717 0.150315
O O21 0.311109 0.500000 0.162968
#
# Coordination Sequence:
#
# PCOD8177411 Si02
#       8
#     8   8   8   4   8   8   4   8
#     4   9  16  27  43  64  90 117 144 178 222 268
#     4   8  13  23  40  61  87 117 146 177 216 263
#     4  10  19  31  47  66  90 121 154 183 218 269
#     4  10  18  28  44  68  92 114 148 188 224 261
#     4   9  16  26  42  65  91 117 146 181 219 261
#     4   8  14  24  39  62  87 110 142 182 221 262
#     4  10  18  30  46  64  90 122 152 180 218 267
#     4  10  20  32  46  66  92 121 153 187 223 262
#
# _framework density 15.947804
#
# number of rings (size 3 to 8) (size 9 to 14) (size 15 to 20)
#    0.000    2.857    2.143    1.286    0.000    2.571 
#    0.000    0.000    0.000    1.714    1.857    2.000 
#    0.000    0.000    0.000    0.000    0.000    0.000 
#
# Total GULP energy -347016.725949 kJ/mol
# GULP energy per Si atom -12393.454498 kJ/mol
# Density = 1.591151 g / cm^3
# Si number density = 15.947804 Si / 1000 Ang^3
#
#
#
# Elastic Constant Matrix: (Units=GPa)
#
#
# Indices 1 2 3 4 5 6 
#
# 1 40.6308 30.0035 49.0047 0.0000 0.0000 0.0000
# 2 30.0035 79.5004 52.4417 0.0000 0.0000 0.0000
# 3 49.0047 52.4417 147.3252 0.0000 0.0000 0.0000
# 4 0.0000 0.0000 0.0000 28.4979 0.0000 0.0000
# 5 0.0000 0.0000 0.0000 0.0000 7.8608 0.0000
# 6 0.0000 0.0000 0.0000 0.0000 0.0000 18.0123
#
#
#
# Elastic Compliance Matrix: (Units=1/GPa)
#
#
# Indices 1 2 3 4 5 6 
#
# 1 0.046004 -0.009498 -0.011921 0.000000 0.000000 0.000000
# 2 -0.009498 0.018399 -0.003390 0.000000 0.000000 0.000000
# 3 -0.011921 -0.003390 0.011960 0.000000 0.000000 0.000000
# 4 0.000000 0.000000 0.000000 0.035090 0.000000 0.000000
# 5 0.000000 0.000000 0.000000 0.000000 0.127213 0.000000
# 6 0.000000 0.000000 0.000000 0.000000 0.000000 0.055518
#
#
# Mechanical properties :
#
#
# Convention : Reuss Voigt Hill
#
# Bulk Modulus (GPa) = 37.39139 58.92849 48.15994
# Shear Modulus (GPa) = 14.17564 19.94130 17.05847
#
# Velocity S-wave (km/s) = 2.98464 3.53995 3.27409
# Velocity P-wave (km/s) = 5.94764 7.33072 6.67510
#
# Compressibility (1/GPa) = 0.02674413
#
# Stress axis : x y z
#
# Youngs Moduli (GPa) = 21.73721 54.34965 83.61325
#
# Poissons Ratio (x) = 0.51622 0.99678
# Poissons Ratio (y) = 0.20646 0.28345
# Poissons Ratio (z) = 0.25914 0.18425
#
# Static dielectric constant tensor:
#      x y z
#    x 2.839300 0.000000 0.000000 
#    y 0.000000 2.909840 0.000000 
#    z 0.000000 0.000000 3.297900 
# 
# 
# High freq. dielectric constant tensor:
#      x y z
#    x 1.582980 0.000000 0.000000 
#    y 0.000000 1.584280 0.000000 
#    z 0.000000 0.000000 1.618430 
# 
# From -- ./inp_files/22564.got.cif
#   From: 2010.03.12/outbox.cif.g09.slc.cpg/sg38_12_cif.got.tgz:22564.got - 2010.04.14 02:38:36.
