data_PCOD8177253
_publ_section_title
;
Structure prediction by ZEFSAII (Michael W. Deem and Ramdas Pophale) SiO2 
 PCOD8177253
Probable space group: A M M 2
;
_chemical_formula_sum "Si O2"
_cell_formula_units_Z 64
_cell_length_a 9.121099
_cell_length_b 14.518416
_cell_length_c 28.057393
_cell_angle_alpha 90.000000
_cell_angle_beta 90.000000
_cell_angle_gamma 90.000000
_cell_volume 3715.469676
_symmetry_space_group_name_H-M "A M M 2"
_symmetry_group_IT_number 38
_symmetry_cell_setting 'orthorhombic'
loop_
_space_group_symop_operation_xyz
x,y,z
-x,-y,z
-x,y,z
x,-y,z
x,1/2+y,1/2+z
-x,1/2-y,1/2+z
-x,1/2+y,1/2+z
x,1/2-y,1/2+z
loop_
_atom_site_type_symbol
_atom_site_label
_atom_site_fract_x
_atom_site_fract_y
_atom_site_fract_z
Si Si1 0.825916 0.398181 0.524200
Si Si2 0.328890 0.394404 0.071978
Si Si3 0.173355 0.398338 0.693906
Si Si4 0.674130 0.773823 0.379514
Si Si5 0.325892 0.601687 0.965186
Si Si6 0.174342 0.727875 0.609402
Si Si7 0.828619 0.106017 0.917041
Si Si8 0.829536 0.893080 0.301765
O O1 0.766398 0.500000 0.537361
O O2 0.765571 0.326247 0.562868
O O3 0.774371 0.371847 0.470903
O O4 0.000000 0.400500 0.525407
O O5 0.500000 0.373274 0.076675
O O6 0.295134 0.500000 0.085253
O O7 0.241062 0.330131 0.108686
O O8 0.272286 0.372514 0.018314
O O9 0.238357 0.500000 0.682465
O O10 0.234951 0.324014 0.656378
O O11 0.214636 0.369095 0.747486
O O12 0.000000 0.404336 0.688782
O O13 0.500000 0.769172 0.377680
O O14 0.734067 0.826190 0.426638
O O15 0.739145 0.670757 0.380770
O O16 0.729779 0.827710 0.333551
O O17 0.500000 0.599526 0.964888
O O18 0.266402 0.500000 0.951536
O O19 0.000000 0.734613 0.609752
O O20 0.000000 0.126878 0.911384
O O21 0.794772 0.000000 0.904135
O O22 0.000000 0.871854 0.311190
O O23 0.795526 0.000000 0.312804
#
# Coordination Sequence:
#
# PCOD8177253 Si02
#       8
#     8   8   8   8   8   8   8   8
#     4   8  14  25  43  69  98 124 150 182 222 267
#     4   9  18  32  46  60  87 128 162 185 218 267
#     4   8  15  29  49  72  96 121 148 179 221 274
#     4  11  20  29  47  72  95 120 153 195 237 275
#     4   8  15  28  44  63  90 124 157 184 217 269
#     4  10  17  26  47  74  94 115 149 192 228 261
#     4   9  18  32  47  64  92 129 162 190 223 268
#     4   9  18  33  51  70  94 123 153 185 224 276
#
# _framework density 17.225277999999999
#
# number of rings (size 3 to 8) (size 9 to 14) (size 15 to 20)
#    0.000    3.000    0.000    4.125    0.000    2.750 
#    0.000    1.250    0.000    5.250    0.000    1.750 
#    0.000    0.000    0.000    0.000    0.000    0.000 
#
# Total GULP energy -396669.402731 kJ/mol
# GULP energy per Si atom -12395.918835 kJ/mol
# Density = 1.718607 g / cm^3
# Si number density = 17.225278 Si / 1000 Ang^3
#
#
#
# Elastic Constant Matrix: (Units=GPa)
#
#
# Indices 1 2 3 4 5 6 
#
# 1 39.9734 44.8128 35.2070 0.0000 0.0000 0.0000
# 2 44.8128 123.3516 74.5880 0.0000 0.0000 0.0000
# 3 35.2070 74.5880 96.5523 0.0000 0.0000 0.0000
# 4 0.0000 0.0000 0.0000 28.3433 0.0000 0.0000
# 5 0.0000 0.0000 0.0000 0.0000 18.0149 0.0000
# 6 0.0000 0.0000 0.0000 0.0000 0.0000 20.4820
#
#
#
# Elastic Compliance Matrix: (Units=1/GPa)
#
#
# Indices 1 2 3 4 5 6 
#
# 1 0.044613 -0.011956 -0.007032 0.000000 0.000000 0.000000
# 2 -0.011956 0.018417 -0.009868 0.000000 0.000000 0.000000
# 3 -0.007032 -0.009868 0.020544 0.000000 0.000000 0.000000
# 4 0.000000 0.000000 0.000000 0.035282 0.000000 0.000000
# 5 0.000000 0.000000 0.000000 0.000000 0.055510 0.000000
# 6 0.000000 0.000000 0.000000 0.000000 0.000000 0.048823
#
#
# Mechanical properties :
#
#
# Convention : Reuss Voigt Hill
#
# Bulk Modulus (GPa) = 38.66440 63.23252 50.94846
# Shear Modulus (GPa) = 17.26985 20.38602 18.82794
#
# Velocity S-wave (km/s) = 3.16980 3.44393 3.30970
# Velocity P-wave (km/s) = 5.99098 7.25279 6.65188
#
# Compressibility (1/GPa) = 0.02586359
#
# Stress axis : x y z
#
# Youngs Moduli (GPa) = 22.41498 54.29675 48.67489
#
# Poissons Ratio (x) = 0.64915 0.34228
# Poissons Ratio (y) = 0.26798 0.48033
# Poissons Ratio (z) = 0.15762 0.53581
#
# Static dielectric constant tensor:
#      x y z
#    x 2.760080 0.000000 0.000000 
#    y 0.000000 3.303280 0.000000 
#    z 0.000000 0.000000 3.244820 
# 
# 
# High freq. dielectric constant tensor:
#      x y z
#    x 1.627370 0.000000 0.000000 
#    y 0.000000 1.668370 0.000000 
#    z 0.000000 0.000000 1.649450 
# 
# From -- ./inp_files/24815.got.cif
#   From: 2010.03.12/outbox.cif.g09.slc.cpg/sg38_13_cif.got.tgz:24815.got - 2010.04.14 02:38:36.
