data_PCOD8177385
_publ_section_title
;
Structure prediction by ZEFSAII (Michael W. Deem and Ramdas Pophale) SiO2 
 PCOD8177385
Probable space group: A M M 2
;
_chemical_formula_sum "Si O2"
_cell_formula_units_Z 56
_cell_length_a 7.782853
_cell_length_b 13.669755
_cell_length_c 32.526921
_cell_angle_alpha 90.000000
_cell_angle_beta 90.000000
_cell_angle_gamma 90.000000
_cell_volume 3460.529163
_symmetry_space_group_name_H-M "A M M 2"
_symmetry_group_IT_number 38
_symmetry_cell_setting 'orthorhombic'
loop_
_space_group_symop_operation_xyz
x,y,z
-x,-y,z
-x,y,z
x,-y,z
x,1/2+y,1/2+z
-x,1/2-y,1/2+z
-x,1/2+y,1/2+z
x,1/2-y,1/2+z
loop_
_atom_site_type_symbol
_atom_site_label
_atom_site_fract_x
_atom_site_fract_y
_atom_site_fract_z
Si Si1 0.703224 0.890878 0.168650
Si Si2 0.000000 0.383799 0.886637
Si Si3 0.202147 0.891263 0.700664
Si Si4 0.308754 0.612465 0.830409
Si Si5 0.803368 0.293409 0.749506
Si Si6 0.699107 0.115192 0.537474
Si Si7 0.696581 0.208265 0.620627
Si Si8 0.000000 0.115809 0.478232
O O1 0.500000 0.877642 0.173414
O O2 0.786425 0.871965 0.213001
O O3 0.777843 0.812076 0.135730
O O4 0.752555 0.000000 0.153897
O O5 0.829107 0.346784 0.863119
O O6 0.000000 0.500000 0.889435
O O7 0.000000 0.338341 0.932440
O O8 0.267762 0.812132 0.733992
O O9 0.284688 0.872274 0.656266
O O10 0.000000 0.879535 0.695197
O O11 0.254218 0.000000 0.715532
O O12 0.500000 0.622069 0.849499
O O13 0.265557 0.500000 0.819502
O O14 0.306089 0.674354 0.788604
O O15 0.000000 0.286830 0.763597
O O16 0.500000 0.142199 0.527110
O O17 0.775197 0.169087 0.578047
O O18 0.824643 0.150070 0.500816
O O19 0.715197 0.000000 0.545474
O O20 0.500000 0.226001 0.610784
O O21 0.000000 0.000000 0.475432
#
# Coordination Sequence:
#
# PCOD8177385 Si02
#       8
#     8   4   8   8   8   8   8   4
#     4   9  17  28  41  58  83 116 152 186 218 251
#     4   9  18  32  46  65  89 113 143 173 212 268
#     4   9  18  29  41  59  84 116 152 186 219 253
#     4  10  19  30  46  66  89 117 146 179 216 255
#     4  10  18  28  42  60  86 118 150 185 219 254
#     4   9  17  28  43  64  88 114 145 179 214 256
#     4   9  17  28  41  59  84 114 148 183 217 253
#     4   9  18  30  46  65  87 115 141 171 216 264
#
# _framework density 16.182496
#
# number of rings (size 3 to 8) (size 9 to 14) (size 15 to 20)
#    0.000    2.714    0.714    1.286    1.000    4.000 
#    0.000    2.857    0.000    0.000    0.000    0.000 
#    0.000    2.286    0.000    3.286    0.000    0.286 
#
# Total GULP energy -347055.197162 kJ/mol
# GULP energy per Si atom -12394.828470 kJ/mol
# Density = 1.614566 g / cm^3
# Si number density = 16.182496 Si / 1000 Ang^3
#
#
#
# Elastic Constant Matrix: (Units=GPa)
#
#
# Indices 1 2 3 4 5 6 
#
# 1 71.6020 20.1307 46.6427 0.0000 0.0000 0.0000
# 2 20.1307 78.1861 37.3288 0.0000 0.0000 0.0000
# 3 46.6427 37.3288 123.3814 0.0000 0.0000 0.0000
# 4 0.0000 0.0000 0.0000 16.9763 0.0000 0.0000
# 5 0.0000 0.0000 0.0000 0.0000 20.3640 0.0000
# 6 0.0000 0.0000 0.0000 0.0000 0.0000 12.6299
#
#
#
# Elastic Compliance Matrix: (Units=1/GPa)
#
#
# Indices 1 2 3 4 5 6 
#
# 1 0.018717 -0.001684 -0.006566 0.000000 0.000000 0.000000
# 2 -0.001684 0.015101 -0.003932 0.000000 0.000000 0.000000
# 3 -0.006566 -0.003932 0.011777 0.000000 0.000000 0.000000
# 4 0.000000 0.000000 0.000000 0.058906 0.000000 0.000000
# 5 0.000000 0.000000 0.000000 0.000000 0.049106 0.000000
# 6 0.000000 0.000000 0.000000 0.000000 0.000000 0.079177
#
#
# Mechanical properties :
#
#
# Convention : Reuss Voigt Hill
#
# Bulk Modulus (GPa) = 47.10341 53.48600 50.29470
# Shear Modulus (GPa) = 18.92324 21.26518 20.09421
#
# Velocity S-wave (km/s) = 3.42331 3.62896 3.52763
# Velocity P-wave (km/s) = 6.69300 7.11918 6.90937
#
# Compressibility (1/GPa) = 0.02122989
#
# Stress axis : x y z
#
# Youngs Moduli (GPa) = 53.42779 66.22100 84.91254
#
# Poissons Ratio (x) = 0.11153 0.55755
# Poissons Ratio (y) = 0.08998 0.33388
# Poissons Ratio (z) = 0.35081 0.26039
#
# Static dielectric constant tensor:
#      x y z
#    x 3.117090 0.000000 0.000000 
#    y 0.000000 3.045900 0.000000 
#    z 0.000000 0.000000 3.058680 
# 
# 
# High freq. dielectric constant tensor:
#      x y z
#    x 1.630810 0.000000 0.000000 
#    y 0.000000 1.590380 0.000000 
#    z 0.000000 0.000000 1.598080 
# 
# From -- ./inp_files/24672.got.cif
#   From: 2010.03.12/outbox.cif.g09.slc.cpg/sg38_13_cif.got.tgz:24672.got - 2010.04.14 02:38:36.
