data_PCOD8177843
_publ_section_title
;
Structure prediction by ZEFSAII (Michael W. Deem and Ramdas Pophale) SiO2 
 PCOD8177843
Probable space group: A M M 2
;
_chemical_formula_sum "Si O2"
_cell_formula_units_Z 64
_cell_length_a 8.654170
_cell_length_b 23.739006
_cell_length_c 15.477790
_cell_angle_alpha 90.000000
_cell_angle_beta 90.000000
_cell_angle_gamma 90.000000
_cell_volume 3179.778747
_symmetry_space_group_name_H-M "A M M 2"
_symmetry_group_IT_number 38
_symmetry_cell_setting 'orthorhombic'
loop_
_space_group_symop_operation_xyz
x,y,z
-x,-y,z
-x,y,z
x,-y,z
x,1/2+y,1/2+z
-x,1/2-y,1/2+z
-x,1/2+y,1/2+z
x,1/2-y,1/2+z
loop_
_atom_site_type_symbol
_atom_site_label
_atom_site_fract_x
_atom_site_fract_y
_atom_site_fract_z
Si Si1 0.678481 0.565080 0.131100
Si Si2 0.183735 0.249009 0.543421
Si Si3 0.818055 0.869686 0.475603
Si Si4 0.319633 0.133100 0.296598
Si Si5 0.183456 0.436771 0.640499
Si Si6 0.183186 0.867067 0.978982
Si Si7 0.178195 0.871269 0.787632
Si Si8 0.178653 0.744762 0.738647
O O1 0.500000 0.574490 0.107892
O O2 0.718773 0.500000 0.144944
O O3 0.715056 0.597084 0.219822
O O4 0.782089 0.587973 0.053318
O O5 0.247303 0.192382 0.499050
O O6 0.248260 0.303826 0.493801
O O7 0.243372 0.251562 0.641600
O O8 0.000000 0.246062 0.543594
O O9 0.733770 0.890954 0.389168
O O10 0.000000 0.868854 0.459073
O O11 0.500000 0.124217 0.285654
O O12 0.234831 0.098602 0.222445
O O13 0.275486 0.198800 0.291262
O O14 0.249936 0.500000 0.646534
O O15 0.249287 0.408617 0.552514
O O16 0.000000 0.437353 0.637842
O O17 0.000000 0.863532 0.986349
O O18 0.229551 0.889876 0.884202
O O19 0.201807 0.804383 0.784323
O O20 0.000000 0.886745 0.768197
O O21 0.000000 0.726007 0.740193
#
# Coordination Sequence:
#
# PCOD8177843 Si02
#       8
#     8   8   8   8   8   8   8   8
#     4  11  25  43  60  83 121 163 199 244 303 364
#     4   9  16  31  60  91 117 146 186 240 296 342
#     4  11  22  40  66  92 115 151 201 251 299 352
#     4  12  25  39  58  89 125 162 195 238 303 366
#     4  10  21  39  62  85 112 154 206 256 301 346
#     4   9  17  32  58  90 120 148 187 244 297 343
#     4  10  20  36  62  93 120 153 200 249 297 349
#     4  10  18  35  62  90 121 156 196 243 291 350
#
# _framework density 20.127185999999998
#
# number of rings (size 3 to 8) (size 9 to 14) (size 15 to 20)
#    0.000    1.750    2.500    2.625    0.000    4.750 
#    0.000    1.875    0.000    0.000    0.000    0.000 
#    0.000    0.000    0.000    0.000    0.000    0.000 
#
# Total GULP energy -396868.364600 kJ/mol
# GULP energy per Si atom -12402.136394 kJ/mol
# Density = 2.008138 g / cm^3
# Si number density = 20.127186 Si / 1000 Ang^3
#
#
#
# Elastic Constant Matrix: (Units=GPa)
#
#
# Indices 1 2 3 4 5 6 
#
# 1 23.4259 18.9378 6.4489 0.0000 0.0000 0.0000
# 2 18.9378 97.7979 39.6654 0.0000 0.0000 0.0000
# 3 6.4489 39.6654 139.7243 0.0000 0.0000 0.0000
# 4 0.0000 0.0000 0.0000 6.4550 0.0000 0.0000
# 5 0.0000 0.0000 0.0000 0.0000 17.4625 0.0000
# 6 0.0000 0.0000 0.0000 0.0000 0.0000 19.1954
#
#
#
# Elastic Compliance Matrix: (Units=1/GPa)
#
#
# Indices 1 2 3 4 5 6 
#
# 1 0.050642 -0.010011 0.000505 0.000000 0.000000 0.000000
# 2 -0.010011 0.013535 -0.003380 0.000000 0.000000 0.000000
# 3 0.000505 -0.003380 0.008093 0.000000 0.000000 0.000000
# 4 0.000000 0.000000 0.000000 0.154919 0.000000 0.000000
# 5 0.000000 0.000000 0.000000 0.000000 0.057265 0.000000
# 6 0.000000 0.000000 0.000000 0.000000 0.000000 0.052096
#
#
# Mechanical properties :
#
#
# Convention : Reuss Voigt Hill
#
# Bulk Modulus (GPa) = 21.50696 43.45027 32.47861
# Shear Modulus (GPa) = 13.23374 21.68232 17.45803
#
# Velocity S-wave (km/s) = 2.56697 3.28573 2.94834
# Velocity P-wave (km/s) = 4.41526 6.00245 5.26896
#
# Compressibility (1/GPa) = 0.04649659
#
# Stress axis : x y z
#
# Youngs Moduli (GPa) = 19.74645 73.88415 123.55980
#
# Poissons Ratio (x) = 0.73966 -0.06235
# Poissons Ratio (y) = 0.19768 0.41766
# Poissons Ratio (z) = -0.00996 0.24974
#
# Static dielectric constant tensor:
#      x y z
#    x 3.277040 0.000000 0.000000 
#    y 0.000000 3.753580 0.000000 
#    z 0.000000 0.000000 3.828640 
# 
# 
# High freq. dielectric constant tensor:
#      x y z
#    x 1.747270 0.000000 0.000000 
#    y 0.000000 1.784210 0.000000 
#    z 0.000000 0.000000 1.803770 
# 
# From -- ./inp_files/12769.got.cif
#   From: 2010.03.12/outbox.cif.g09.slc.cpg/sg38_7_cif.got.tgz:12769.got - 2010.04.14 02:38:36.
