data_PCOD8177069
_publ_section_title
;
Structure prediction by ZEFSAII (Michael W. Deem and Ramdas Pophale) SiO2 
 PCOD8177069
Probable space group: C C C 2
;
_chemical_formula_sum "Si O2"
_cell_formula_units_Z 60
_cell_length_a 16.192449
_cell_length_b 11.181342
_cell_length_c 16.304795
_cell_angle_alpha 90.000000
_cell_angle_beta 90.000000
_cell_angle_gamma 90.000000
_cell_volume 2952.037105
_symmetry_space_group_name_H-M "C C C 2"
_symmetry_group_IT_number 37
_symmetry_cell_setting 'orthorhombic'
loop_
_space_group_symop_operation_xyz
x,y,z
-x,-y,z
-x,y,1/2+z
x,-y,1/2+z
1/2+x,1/2+y,z
1/2-x,1/2-y,z
1/2-x,1/2+y,1/2+z
1/2+x,1/2-y,1/2+z
loop_
_atom_site_type_symbol
_atom_site_label
_atom_site_fract_x
_atom_site_fract_y
_atom_site_fract_z
Si Si1 0.561433 0.664094 0.238640
Si Si2 0.404858 0.026556 0.961170
Si Si3 0.614673 0.588838 0.778503
Si Si4 0.686329 0.352318 0.606503
Si Si5 0.250000 0.250000 0.697742
Si Si6 0.681237 0.969978 0.633105
Si Si7 0.339905 0.282408 0.929253
Si Si8 0.414631 0.929141 0.790208
O O1 0.465042 0.634365 0.228182
O O2 0.614066 0.555863 0.280442
O O3 0.598264 0.675787 0.147291
O O4 0.573248 0.786394 0.288797
O O5 0.393984 0.166684 0.947725
O O6 0.500000 0.000000 0.976390
O O7 0.371064 0.959791 0.878210
O O8 0.358238 0.992101 0.044472
O O9 0.698752 0.650868 0.748050
O O10 0.605572 0.632967 0.871642
O O11 0.750000 0.250000 0.633500
O O12 0.725273 0.478290 0.634467
O O13 0.675384 0.359060 0.510007
O O14 0.314216 0.173231 0.643618
O O15 0.633738 0.028152 0.709830
O O16 0.250000 0.250000 0.890769
O O17 0.500000 0.000000 0.789875
#
# Coordination Sequence:
#
# PCOD8177069 Si02
#       8
#     8   8   8   8   4   8   8   8
#     4  11  23  44  64  98 131 170 219 272 331 401
#     4  11  23  40  65 100 131 167 226 282 325 391
#     4  11  24  41  68  95 131 174 222 270 332 401
#     4  11  21  42  68  93 128 173 225 261 328 406
#     4  12  24  40  64  96 130 172 220 272 336 394
#     4  12  23  41  65  96 129 176 218 272 333 398
#     4  11  21  41  69  92 128 179 225 263 329 418
#     4  11  23  41  68  96 131 170 218 273 339 393
#
# _framework density 20.324947999999999
#
# number of rings (size 3 to 8) (size 9 to 14) (size 15 to 20)
#    0.000    0.800    6.000    3.600    0.000    1.067 
#    2.400    2.667    0.000    0.000    0.000    0.000 
#    0.000    0.000    0.000    0.000    0.000    0.000 
#
# Total GULP energy -371836.661558 kJ/mol
# GULP energy per Si atom -12394.555385 kJ/mol
# Density = 2.027869 g / cm^3
# Si number density = 20.324948 Si / 1000 Ang^3
#
#
#
# Elastic Constant Matrix: (Units=GPa)
#
#
# Indices 1 2 3 4 5 6 
#
# 1 88.2473 31.3934 38.3167 0.0000 0.0000 0.0000
# 2 31.3934 154.9347 52.5770 0.0000 0.0000 0.0000
# 3 38.3167 52.5770 124.5169 0.0000 0.0000 0.0000
# 4 0.0000 0.0000 0.0000 25.0521 0.0000 0.0000
# 5 0.0000 0.0000 0.0000 0.0000 17.6808 0.0000
# 6 0.0000 0.0000 0.0000 0.0000 0.0000 35.7795
#
#
#
# Elastic Compliance Matrix: (Units=1/GPa)
#
#
# Indices 1 2 3 4 5 6 
#
# 1 0.013385 -0.001534 -0.003471 0.000000 0.000000 0.000000
# 2 -0.001534 0.007710 -0.002783 0.000000 0.000000 0.000000
# 3 -0.003471 -0.002783 0.010274 0.000000 0.000000 0.000000
# 4 0.000000 0.000000 0.000000 0.039917 0.000000 0.000000
# 5 0.000000 0.000000 0.000000 0.000000 0.056558 0.000000
# 6 0.000000 0.000000 0.000000 0.000000 0.000000 0.027949
#
#
# Mechanical properties :
#
#
# Convention : Reuss Voigt Hill
#
# Bulk Modulus (GPa) = 63.32383 68.03035 65.67709
# Shear Modulus (GPa) = 28.30716 32.06327 30.18521
#
# Velocity S-wave (km/s) = 3.73598 3.97613 3.85792
# Velocity P-wave (km/s) = 7.05928 7.39077 7.22692
#
# Compressibility (1/GPa) = 0.01579184
#
# Stress axis : x y z
#
# Youngs Moduli (GPa) = 74.71250 129.70664 97.32947
#
# Poissons Ratio (x) = 0.19899 0.33783
# Poissons Ratio (y) = 0.11462 0.27090
# Poissons Ratio (z) = 0.25932 0.36101
#
# Static dielectric constant tensor:
#      x y z
#    x 3.741130 0.000000 0.000000 
#    y 0.000000 3.960440 0.000000 
#    z 0.000000 0.000000 3.912180 
# 
# 
# High freq. dielectric constant tensor:
#      x y z
#    x 1.790130 0.000000 0.000000 
#    y 0.000000 1.803070 0.000000 
#    z 0.000000 0.000000 1.797310 
# 
# From -- ./inp_files/12666.got.cif
#   From: 2010.03.12/outbox.cif.g09.slc.cpg/sg37_7_cif.got.tgz:12666.got - 2010.04.14 02:25:27.
