data_PCOD8177168
_publ_section_title
;
Structure prediction by ZEFSAII (Michael W. Deem and Ramdas Pophale) SiO2 
 PCOD8177168
Probable space group: C C C 2
;
_chemical_formula_sum "Si O2"
_cell_formula_units_Z 48
_cell_length_a 9.850767
_cell_length_b 9.850767
_cell_length_c 24.942356
_cell_angle_alpha 90.000000
_cell_angle_beta 90.000000
_cell_angle_gamma 90.000000
_cell_volume 2420.346626
_symmetry_space_group_name_H-M "C C C 2"
_symmetry_group_IT_number 37
_symmetry_cell_setting 'orthorhombic'
loop_
_space_group_symop_operation_xyz
x,y,z
-x,-y,z
-x,y,1/2+z
x,-y,1/2+z
1/2+x,1/2+y,z
1/2-x,1/2-y,z
1/2-x,1/2+y,1/2+z
1/2+x,1/2-y,1/2+z
loop_
_atom_site_type_symbol
_atom_site_label
_atom_site_fract_x
_atom_site_fract_y
_atom_site_fract_z
Si Si1 0.747133 0.592763 0.728710
Si Si2 0.502517 0.842733 0.478845
Si Si3 0.750000 0.250000 0.048789
Si Si4 0.592763 0.247133 0.868869
Si Si5 0.000000 0.000000 0.800963
Si Si6 0.000000 0.500000 0.796616
Si Si7 0.250000 0.750000 0.548789
Si Si8 0.657267 0.502517 0.618733
O O1 0.750000 0.750000 0.713221
O O2 0.618258 0.560927 0.765018
O O3 0.883500 0.557172 0.759082
O O4 0.741899 0.506221 0.673945
O O5 0.636122 0.818591 0.513025
O O6 0.506220 0.758102 0.423634
O O7 0.370989 0.798308 0.511202
O O8 0.500000 0.000000 0.463625
O O9 0.681409 0.363878 0.084554
O O10 0.750000 0.250000 0.884358
O O11 0.557172 0.383500 0.838497
O O12 0.560928 0.118257 0.832560
O O13 0.298308 0.629010 0.586376
O O14 0.500000 0.500000 0.633954
#
# Coordination Sequence:
#
# PCOD8177168 Si02
#       8
#     8   8   4   8   4   4   4   8
#     4  12  26  44  72 104 138 182 230 284 344 408
#     4  12  26  44  72 104 138 179 230 282 345 409
#     4  12  24  44  72  98 136 184 224 276 344 406
#     4  12  26  44  72 104 138 182 230 284 344 408
#     4  12  26  44  72 104 138 176 234 286 336 408
#     4  12  26  44  72 104 138 176 234 286 336 408
#     4  12  28  44  72 110 140 172 236 296 332 406
#     4  12  26  44  72 104 138 179 230 282 345 409
#
# _framework density 19.831869999999999
#
# number of rings (size 3 to 8) (size 9 to 14) (size 15 to 20)
#    0.000    0.000   10.000    0.000    0.000    8.000 
#    0.000    0.000    0.000    0.000    0.000    0.000 
#    0.000    0.000    0.000    0.000    0.000    0.000 
#
# Total GULP energy -297749.794733 kJ/mol
# GULP energy per Si atom -12406.241447 kJ/mol
# Density = 1.978673 g / cm^3
# Si number density = 19.831870 Si / 1000 Ang^3
#
#
#
# Elastic Constant Matrix: (Units=GPa)
#
#
# Indices 1 2 3 4 5 6 
#
# 1 119.4549 25.0858 42.3520 0.0000 0.0000 0.0000
# 2 25.0858 119.4554 42.3522 0.0000 0.0000 0.0000
# 3 42.3520 42.3522 128.4531 0.0000 0.0000 0.0000
# 4 0.0000 0.0000 0.0000 111.0459 0.0000 0.0000
# 5 0.0000 0.0000 0.0000 0.0000 111.0398 0.0000
# 6 0.0000 0.0000 0.0000 0.0000 0.0000 31.7688
#
#
#
# Elastic Compliance Matrix: (Units=1/GPa)
#
#
# Indices 1 2 3 4 5 6 
#
# 1 0.009586 -0.001011 -0.002827 0.000000 0.000000 0.000000
# 2 -0.001011 0.009586 -0.002827 0.000000 0.000000 0.000000
# 3 -0.002827 -0.002827 0.009649 0.000000 0.000000 0.000000
# 4 0.000000 0.000000 0.000000 0.009005 0.000000 0.000000
# 5 0.000000 0.000000 0.000000 0.000000 0.009006 0.000000
# 6 0.000000 0.000000 0.000000 0.000000 0.000000 0.031477
#
#
# Mechanical properties :
#
#
# Convention : Reuss Voigt Hill
#
# Bulk Modulus (GPa) = 64.55530 65.21593 64.88562
# Shear Modulus (GPa) = 51.65063 67.94245 59.79654
#
# Velocity S-wave (km/s) = 5.10889 5.85949 5.49702
# Velocity P-wave (km/s) = 8.21115 8.87321 8.54859
#
# Compressibility (1/GPa) = 0.01549059
#
# Stress axis : x y z
#
# Youngs Moduli (GPa) = 104.31851 104.31882 103.63377
#
# Poissons Ratio (x) = 0.10543 0.29301
# Poissons Ratio (y) = 0.10543 0.29301
# Poissons Ratio (z) = 0.29495 0.29495
#
# Static dielectric constant tensor:
#      x y z
#    x 3.108550 0.000000 0.000000 
#    y 0.000000 3.108490 0.000000 
#    z 0.000000 0.000000 3.786700 
# 
# 
# High freq. dielectric constant tensor:
#      x y z
#    x 1.789140 0.000000 0.000000 
#    y 0.000000 1.789140 0.000000 
#    z 0.000000 0.000000 1.793210 
# 
# From -- ./inp_files/20390.got.cif
#   From: 2010.03.12/outbox.cif.g09.slc.cpg/sg37_11_cif.got.tgz:20390.got - 2010.04.14 02:25:27.
