data_PCOD8177071
_publ_section_title
;
Structure prediction by ZEFSAII (Michael W. Deem and Ramdas Pophale) SiO2 
 PCOD8177071
Probable space group: C C C 2
;
_chemical_formula_sum "Si O2"
_cell_formula_units_Z 36
_cell_length_a 11.868472
_cell_length_b 8.991027
_cell_length_c 15.491023
_cell_angle_alpha 90.000000
_cell_angle_beta 90.000000
_cell_angle_gamma 90.000000
_cell_volume 1653.043226
_symmetry_space_group_name_H-M "C C C 2"
_symmetry_group_IT_number 37
_symmetry_cell_setting 'orthorhombic'
loop_
_space_group_symop_operation_xyz
x,y,z
-x,-y,z
-x,y,1/2+z
x,-y,1/2+z
1/2+x,1/2+y,z
1/2-x,1/2-y,z
1/2-x,1/2+y,1/2+z
1/2+x,1/2-y,1/2+z
loop_
_atom_site_type_symbol
_atom_site_label
_atom_site_fract_x
_atom_site_fract_y
_atom_site_fract_z
Si Si1 0.057186 0.661315 0.097030
Si Si2 0.656402 0.641652 0.126752
Si Si3 0.750000 0.750000 0.721558
Si Si4 0.386044 0.588840 0.986569
Si Si5 0.633295 0.489195 0.803349
O O1 0.159928 0.654551 0.164730
O O2 0.000000 0.500000 0.083837
O O3 0.966676 0.785571 0.124669
O O4 0.103355 0.733631 0.007036
O O5 0.750000 0.750000 0.087530
O O6 0.683209 0.610941 0.226365
O O7 0.670066 0.490529 0.070184
O O8 0.681693 0.651803 0.788818
O O9 0.500000 0.500000 0.968284
O O10 0.321007 0.574004 0.895295
O O11 0.500000 0.500000 0.795660
#
# Coordination Sequence:
#
# PCOD8177071 Si02
#       5
#     8   8   4   8   8
#     4  11  23  42  67 101 136 177 227 278 344 404
#     4  11  21  42  65  95 135 181 220 281 340 402
#     4  12  22  40  74 102 132 186 224 290 334 408
#     4   9  21  41  68  94 133 181 223 281 340 406
#     4  11  21  42  67  96 135 175 227 277 343 404
#
# _framework density 21.778016000000001
#
# number of rings (size 3 to 8) (size 9 to 14) (size 15 to 20)
#    0.000    1.333    4.444    2.000    1.556    0.000 
#    2.000    1.111    0.000    0.000    0.000    0.000 
#    0.000    0.000    0.000    0.000    0.000    0.000 
#
# Total GULP energy -223042.838389 kJ/mol
# GULP energy per Si atom -12391.268799 kJ/mol
# Density = 2.172845 g / cm^3
# Si number density = 21.778016 Si / 1000 Ang^3
#
#
#
# Elastic Constant Matrix: (Units=GPa)
#
#
# Indices 1 2 3 4 5 6 
#
# 1 79.9930 33.4396 31.3104 0.0000 0.0000 0.0000
# 2 33.4396 153.4113 75.2610 0.0000 0.0000 0.0000
# 3 31.3104 75.2610 186.9056 0.0000 0.0000 0.0000
# 4 0.0000 0.0000 0.0000 20.6881 0.0000 0.0000
# 5 0.0000 0.0000 0.0000 0.0000 -3.0749 0.0000
# 6 0.0000 0.0000 0.0000 0.0000 0.0000 44.1435
#
#
#
# Elastic Compliance Matrix: (Units=1/GPa)
#
#
# Indices 1 2 3 4 5 6 
#
# 1 0.014040 -0.002376 -0.001395 0.000000 0.000000 0.000000
# 2 -0.002376 0.008525 -0.003035 0.000000 0.000000 0.000000
# 3 -0.001395 -0.003035 0.006806 0.000000 0.000000 0.000000
# 4 0.000000 0.000000 0.000000 0.048337 0.000000 0.000000
# 5 0.000000 0.000000 0.000000 0.000000 -0.325209 0.000000
# 6 0.000000 0.000000 0.000000 0.000000 0.000000 0.022653
#
#
# Mechanical properties :
#
#
# Convention : Reuss Voigt Hill
#
# Bulk Modulus (GPa) = 63.45361 77.81465 70.63413
# Shear Modulus (GPa) = -24.27394 31.03794 3.38200
#
# Velocity S-wave (km/s) = -3.34220 3.77927 1.24752
# Velocity P-wave (km/s) = 3.78234 7.40623 5.88041
#
# Compressibility (1/GPa) = 0.01575954
#
# Stress axis : x y z
#
# Youngs Moduli (GPa) = 71.22274 117.30030 146.92796
#
# Poissons Ratio (x) = 0.27869 0.20502
# Poissons Ratio (y) = 0.16922 0.44590
# Poissons Ratio (z) = 0.09938 0.35598
#
# Static dielectric constant tensor:
#      x y z
#    x 3.985140 0.000000 0.000000 
#    y 0.000000 3.961920 0.000000 
#    z 0.000000 0.000000 4.205820 
# 
# 
# High freq. dielectric constant tensor:
#      x y z
#    x 1.854790 0.000000 0.000000 
#    y 0.000000 1.854230 0.000000 
#    z 0.000000 0.000000 1.851570 
# 
# From -- ./inp_files/10250.got.cif
#   From: 2010.03.12/outbox.cif.g09.slc.cpg/sg37_6_cif.got.tgz:10250.got - 2010.04.14 02:25:27.
