data_PCOD8177483
_publ_section_title
;
Structure prediction by ZEFSAII (Michael W. Deem and Ramdas Pophale) SiO2 
 PCOD8177483
Probable space group: A M M 2
;
_chemical_formula_sum "Si O2"
_cell_formula_units_Z 40
_cell_length_a 9.072670
_cell_length_b 21.008624
_cell_length_c 12.427948
_cell_angle_alpha 90.000000
_cell_angle_beta 90.000000
_cell_angle_gamma 90.000000
_cell_volume 2368.820487
_symmetry_space_group_name_H-M "A M M 2"
_symmetry_group_IT_number 38
_symmetry_cell_setting 'orthorhombic'
loop_
_space_group_symop_operation_xyz
x,y,z
-x,-y,z
-x,y,z
x,-y,z
x,1/2+y,1/2+z
-x,1/2-y,1/2+z
-x,1/2+y,1/2+z
x,1/2-y,1/2+z
loop_
_atom_site_type_symbol
_atom_site_label
_atom_site_fract_x
_atom_site_fract_y
_atom_site_fract_z
Si Si1 0.831253 0.673169 0.444420
Si Si2 0.829029 0.794898 0.178434
Si Si3 0.829422 0.427299 0.268770
Si Si4 0.672330 0.165781 0.618420
Si Si5 0.670651 0.701160 0.883180
O O1 0.800264 0.662967 0.571706
O O2 0.798592 0.607750 0.382233
O O3 0.724446 0.726680 0.398341
O O4 0.000000 0.695721 0.427721
O O5 0.758706 0.725261 0.167193
O O6 0.755578 0.829851 0.281313
O O7 0.000000 0.785204 0.201777
O O8 0.781376 0.500000 0.284725
O O9 0.731751 0.398204 0.173102
O O10 0.000000 0.421241 0.235769
O O11 0.500000 0.174934 0.641985
O O12 0.702427 0.160293 0.490387
O O13 0.500000 0.702973 0.854865
#
# Coordination Sequence:
#
# PCOD8177483 Si02
#       5
#     8   8   8   8   8
#     4   9  18  31  47  70  98 129 162 198 245 294
#     4  10  18  29  48  72  99 129 161 201 248 298
#     4  10  20  34  52  73  99 131 167 205 244 291
#     4  10  20  32  47  71 100 130 166 203 245 294
#     4  10  19  30  47  72 101 129 158 202 249 292
#
# _framework density 16.886040000000001
#
# number of rings (size 3 to 8) (size 9 to 14) (size 15 to 20)
#    0.000    2.200    2.000    1.800    0.000    3.600 
#    0.000    0.000    0.000    1.200    0.000    2.800 
#    0.000    0.000    0.000    0.000    0.000    0.000 
#
# Total GULP energy -247984.960902 kJ/mol
# GULP energy per Si atom -12399.248045 kJ/mol
# Density = 1.684761 g / cm^3
# Si number density = 16.886040 Si / 1000 Ang^3
#
#
#
# Elastic Constant Matrix: (Units=GPa)
#
#
# Indices 1 2 3 4 5 6 
#
# 1 97.4491 36.4538 71.2115 0.0000 0.0000 0.0000
# 2 36.4538 81.6020 53.1190 0.0000 0.0000 0.0000
# 3 71.2115 53.1190 154.0915 0.0000 0.0000 0.0000
# 4 0.0000 0.0000 0.0000 22.2100 0.0000 0.0000
# 5 0.0000 0.0000 0.0000 0.0000 32.5182 0.0000
# 6 0.0000 0.0000 0.0000 0.0000 0.0000 11.6005
#
#
#
# Elastic Compliance Matrix: (Units=1/GPa)
#
#
# Indices 1 2 3 4 5 6 
#
# 1 0.016051 -0.003019 -0.006377 0.000000 0.000000 0.000000
# 2 -0.003019 0.016368 -0.004247 0.000000 0.000000 0.000000
# 3 -0.006377 -0.004247 0.010901 0.000000 0.000000 0.000000
# 4 0.000000 0.000000 0.000000 0.045025 0.000000 0.000000
# 5 0.000000 0.000000 0.000000 0.000000 0.030752 0.000000
# 6 0.000000 0.000000 0.000000 0.000000 0.000000 0.086203
#
#
# Mechanical properties :
#
#
# Convention : Reuss Voigt Hill
#
# Bulk Modulus (GPa) = 62.37085 72.74568 67.55827
# Shear Modulus (GPa) = 21.01446 24.75632 22.88539
#
# Velocity S-wave (km/s) = 3.53156 3.83310 3.68541
# Velocity P-wave (km/s) = 7.32432 7.92238 7.62921
#
# Compressibility (1/GPa) = 0.01603313
#
# Stress axis : x y z
#
# Youngs Moduli (GPa) = 62.30005 61.09449 91.73620
#
# Poissons Ratio (x) = 0.18447 0.58501
# Poissons Ratio (y) = 0.18811 0.38961
# Poissons Ratio (z) = 0.39729 0.25947
#
# Static dielectric constant tensor:
#      x y z
#    x 3.265860 0.000000 0.000000 
#    y 0.000000 2.753840 0.000000 
#    z 0.000000 0.000000 3.608700 
# 
# 
# High freq. dielectric constant tensor:
#      x y z
#    x 1.662660 0.000000 0.000000 
#    y 0.000000 1.593830 0.000000 
#    z 0.000000 0.000000 1.671790 
# 
# From -- ./inp_files/7946.got.cif
#   From: 2010.03.12/outbox.cif.g09.slc.cpg/sg38_4_cif.got.tgz:7946.got - 2010.04.14 02:38:36.
