data_PCOD8177246
_publ_section_title
;
Structure prediction by ZEFSAII (Michael W. Deem and Ramdas Pophale) SiO2 
 PCOD8177246
Probable space group: A M M 2
;
_chemical_formula_sum "Si O2"
_cell_formula_units_Z 64
_cell_length_a 8.738456
_cell_length_b 14.770060
_cell_length_c 28.545569
_cell_angle_alpha 90.000000
_cell_angle_beta 90.000000
_cell_angle_gamma 90.000000
_cell_volume 3684.305781
_symmetry_space_group_name_H-M "A M M 2"
_symmetry_group_IT_number 38
_symmetry_cell_setting 'orthorhombic'
loop_
_space_group_symop_operation_xyz
x,y,z
-x,-y,z
-x,y,z
x,-y,z
x,1/2+y,1/2+z
-x,1/2-y,1/2+z
-x,1/2+y,1/2+z
x,1/2-y,1/2+z
loop_
_atom_site_type_symbol
_atom_site_label
_atom_site_fract_x
_atom_site_fract_y
_atom_site_fract_z
Si Si1 0.178578 0.101268 0.294040
Si Si2 0.817878 0.602077 0.164268
Si Si3 0.181161 0.283564 0.975087
Si Si4 0.819939 0.601530 0.332526
Si Si5 0.817891 0.601646 0.060340
Si Si6 0.323030 0.604587 0.892729
Si Si7 0.817632 0.400576 0.436719
Si Si8 0.180833 0.719573 0.248690
O O1 0.270645 0.128149 0.340338
O O2 0.220882 0.173387 0.253041
O O3 0.000000 0.107581 0.306649
O O4 0.221959 0.000000 0.276525
O O5 0.763264 0.500000 0.177016
O O6 0.758759 0.628914 0.112238
O O7 0.749499 0.674619 0.201482
O O8 0.000000 0.604454 0.164574
O O9 0.226969 0.337209 0.928922
O O10 0.239969 0.179272 0.971265
O O11 0.000000 0.285787 0.978328
O O12 0.252155 0.329435 0.021809
O O13 0.780156 0.500000 0.316265
O O14 0.752548 0.619717 0.384475
O O15 0.748372 0.669566 0.294299
O O16 0.000000 0.616395 0.334751
O O17 0.762285 0.500000 0.048060
O O18 0.000000 0.604942 0.059298
O O19 0.500000 0.628916 0.897987
O O20 0.289982 0.500000 0.903656
O O21 0.759631 0.500000 0.453960
O O22 0.000000 0.401660 0.434467
O O23 0.000000 0.704228 0.247478
#
# Coordination Sequence:
#
# PCOD8177246 Si02
#       8
#     8   8   8   8   8   8   8   8
#     4   9  17  28  41  58  81 109 140 170 199 239
#     4   8  13  21  33  53  83 111 132 163 210 255
#     4  10  17  26  44  64  82 110 146 179 210 247
#     4   8  12  17  26  44  70  95 119 151 191 230
#     4   8  14  23  35  55  82 108 135 169 209 251
#     4  10  20  31  42  60  87 114 139 171 212 256
#     4   8  14  23  35  55  82 106 131 168 207 240
#     4   9  14  20  34  54  75 101 132 162 194 235
#
# _framework density 17.370978999999998
#
# number of rings (size 3 to 8) (size 9 to 14) (size 15 to 20)
#    0.000    3.250    0.000    3.375    0.000    4.750 
#    0.000    0.000    0.000    1.125    0.000    6.125 
#    0.000    1.000    0.000    0.000    0.000    0.000 
#
# Total GULP energy -396477.184654 kJ/mol
# GULP energy per Si atom -12389.912020 kJ/mol
# Density = 1.733144 g / cm^3
# Si number density = 17.370979 Si / 1000 Ang^3
#
#
#
# Elastic Constant Matrix: (Units=GPa)
#
#
# Indices 1 2 3 4 5 6 
#
# 1 2.3541 7.0029 3.3084 0.0000 0.0000 0.0000
# 2 7.0029 144.2859 97.3594 0.0000 0.0000 0.0000
# 3 3.3084 97.3594 115.1914 0.0000 0.0000 0.0000
# 4 0.0000 0.0000 0.0000 33.6483 0.0000 0.0000
# 5 0.0000 0.0000 0.0000 0.0000 1.6075 0.0000
# 6 0.0000 0.0000 0.0000 0.0000 0.0000 4.8837
#
#
#
# Elastic Compliance Matrix: (Units=1/GPa)
#
#
# Indices 1 2 3 4 5 6 
#
# 1 0.506679 -0.034379 0.014504 0.000000 0.000000 0.000000
# 2 -0.034379 0.018462 -0.014617 0.000000 0.000000 0.000000
# 3 0.014504 -0.014617 0.020619 0.000000 0.000000 0.000000
# 4 0.000000 0.000000 0.000000 0.029719 0.000000 0.000000
# 5 0.000000 0.000000 0.000000 0.000000 0.622091 0.000000
# 6 0.000000 0.000000 0.000000 0.000000 0.000000 0.204762
#
#
# Mechanical properties :
#
#
# Convention : Reuss Voigt Hill
#
# Bulk Modulus (GPa) = 2.09741 53.01919 27.55830
# Shear Modulus (GPa) = 3.06703 18.30529 10.68616
#
# Velocity S-wave (km/s) = 1.33020 3.24973 2.48296
# Velocity P-wave (km/s) = 1.88926 6.68348 4.91112
#
# Compressibility (1/GPa) = 0.47677831
#
# Stress axis : x y z
#
# Youngs Moduli (GPa) = 1.97363 54.16485 48.49966
#
# Poissons Ratio (x) = 1.86211 -0.70346
# Poissons Ratio (y) = 0.06785 0.70891
# Poissons Ratio (z) = -0.02863 0.79172
#
# Static dielectric constant tensor:
#      x y z
#    x 2.603280 0.000000 0.000000 
#    y 0.000000 3.616450 0.000000 
#    z 0.000000 0.000000 3.485940 
# 
# 
# High freq. dielectric constant tensor:
#      x y z
#    x 1.603180 0.000000 0.000000 
#    y 0.000000 1.678030 0.000000 
#    z 0.000000 0.000000 1.654790 
# 
# From -- ./inp_files/24720.got.cif
#   From: 2010.03.12/outbox.cif.g09.slc.cpg/sg38_13_cif.got.tgz:24720.got - 2010.04.14 02:38:36.
