data_PCOD8177604
_publ_section_title
;
Structure prediction by ZEFSAII (Michael W. Deem and Ramdas Pophale) SiO2 
 PCOD8177604
Probable space group: A M M 2
;
_chemical_formula_sum "Si O2"
_cell_formula_units_Z 64
_cell_length_a 9.076826
_cell_length_b 18.495449
_cell_length_c 20.730740
_cell_angle_alpha 90.000000
_cell_angle_beta 90.000000
_cell_angle_gamma 90.000000
_cell_volume 3480.276058
_symmetry_space_group_name_H-M "A M M 2"
_symmetry_group_IT_number 38
_symmetry_cell_setting 'orthorhombic'
loop_
_space_group_symop_operation_xyz
x,y,z
-x,-y,z
-x,y,z
x,-y,z
x,1/2+y,1/2+z
-x,1/2-y,1/2+z
-x,1/2+y,1/2+z
x,1/2-y,1/2+z
loop_
_atom_site_type_symbol
_atom_site_label
_atom_site_fract_x
_atom_site_fract_y
_atom_site_fract_z
Si Si1 0.173263 0.675058 0.966040
Si Si2 0.337403 0.169735 0.341580
Si Si3 0.330681 0.415961 0.580148
Si Si4 0.174721 0.668273 0.208228
Si Si5 0.173989 0.840912 0.964093
Si Si6 0.174891 0.080931 0.583509
Si Si7 0.327319 0.819073 0.201209
Si Si8 0.665696 0.841577 0.836678
O O1 0.230958 0.642474 0.898268
O O2 0.222571 0.757966 0.976263
O O3 0.000000 0.668603 0.963835
O O4 0.240138 0.628330 0.024629
O O5 0.500000 0.140005 0.357305
O O6 0.285916 0.143878 0.270299
O O7 0.337073 0.255822 0.339161
O O8 0.500000 0.400333 0.561319
O O9 0.301904 0.500000 0.591810
O O10 0.225819 0.388592 0.523734
O O11 0.287403 0.375871 0.646020
O O12 0.223714 0.615443 0.150884
O O13 0.232296 0.747530 0.189841
O O14 0.246760 0.634925 0.272625
O O15 0.000000 0.672131 0.217537
O O16 0.250413 0.871900 0.899553
O O17 0.000000 0.847843 0.955712
O O18 0.000000 0.080017 0.578630
O O19 0.239343 0.000000 0.578907
O O20 0.500000 0.797720 0.201684
O O21 0.500000 0.873328 0.835058
#
# Coordination Sequence:
#
# PCOD8177604 Si02
#       8
#     8   8   8   8   8   8   8   8
#     4   9  17  30  50  74  97 125 162 200 239 288
#     4   8  15  28  47  72  98 123 155 197 244 289
#     4  10  21  36  52  71  98 134 173 209 249 302
#     4  10  18  30  52  78  99 125 166 212 252 294
#     4  10  19  32  52  78 103 127 161 206 253 299
#     4   9  18  32  48  68  98 133 164 196 239 290
#     4   9  18  33  52  73  99 132 166 203 251 303
#     4   9  17  31  51  75 102 130 161 201 249 300
#
# _framework density 18.389347000000001
#
# number of rings (size 3 to 8) (size 9 to 14) (size 15 to 20)
#    0.000    2.750    0.000    2.625    0.000    5.250 
#    0.000    2.500    0.000    6.375    0.000    0.000 
#    0.000    0.000    0.000    0.000    0.000    0.000 
#
# Total GULP energy -396743.397162 kJ/mol
# GULP energy per Si atom -12398.231161 kJ/mol
# Density = 1.834749 g / cm^3
# Si number density = 18.389347 Si / 1000 Ang^3
#
#
#
# Elastic Constant Matrix: (Units=GPa)
#
#
# Indices 1 2 3 4 5 6 
#
# 1 59.7814 22.5232 40.4741 0.0000 0.0000 0.0000
# 2 22.5232 58.1306 40.7447 0.0000 0.0000 0.0000
# 3 40.4741 40.7447 147.3040 0.0000 0.0000 0.0000
# 4 0.0000 0.0000 0.0000 3.3074 0.0000 0.0000
# 5 0.0000 0.0000 0.0000 0.0000 34.8715 0.0000
# 6 0.0000 0.0000 0.0000 0.0000 0.0000 14.4480
#
#
#
# Elastic Compliance Matrix: (Units=1/GPa)
#
#
# Indices 1 2 3 4 5 6 
#
# 1 0.021776 -0.005264 -0.004527 0.000000 0.000000 0.000000
# 2 -0.005264 0.022612 -0.004808 0.000000 0.000000 0.000000
# 3 -0.004527 -0.004808 0.009363 0.000000 0.000000 0.000000
# 4 0.000000 0.000000 0.000000 0.302348 0.000000 0.000000
# 5 0.000000 0.000000 0.000000 0.000000 0.028677 0.000000
# 6 0.000000 0.000000 0.000000 0.000000 0.000000 0.069214
#
#
# Mechanical properties :
#
#
# Convention : Reuss Voigt Hill
#
# Bulk Modulus (GPa) = 40.73011 52.52220 46.62616
# Shear Modulus (GPa) = 10.17559 21.29034 15.73297
#
# Velocity S-wave (km/s) = 2.35487 3.40627 2.92815
# Velocity P-wave (km/s) = 5.43974 6.64029 6.06977
#
# Compressibility (1/GPa) = 0.02455186
#
# Stress axis : x y z
#
# Youngs Moduli (GPa) = 45.92217 44.22344 106.80802
#
# Poissons Ratio (x) = 0.23279 0.48355
# Poissons Ratio (y) = 0.24174 0.51356
# Poissons Ratio (z) = 0.20790 0.21264
#
# Static dielectric constant tensor:
#      x y z
#    x 3.317420 0.000000 0.000000 
#    y 0.000000 3.135030 0.000000 
#    z 0.000000 0.000000 3.773840 
# 
# 
# High freq. dielectric constant tensor:
#      x y z
#    x 1.702240 0.000000 0.000000 
#    y 0.000000 1.675490 0.000000 
#    z 0.000000 0.000000 1.733610 
# 
# From -- ./inp_files/20019.got.cif
#   From: 2010.03.12/outbox.cif.g09.slc.cpg/sg38_11_cif.got.tgz:20019.got - 2010.04.14 02:38:36.
