data_PCOD8177921
_publ_section_title
;
Structure prediction by ZEFSAII (Michael W. Deem and Ramdas Pophale) SiO2 
 PCOD8177921
Probable space group: A M M 2
;
_chemical_formula_sum "Si O2"
_cell_formula_units_Z 52
_cell_length_a 22.779180
_cell_length_b 25.513233
_cell_length_c 5.125825
_cell_angle_alpha 90.000000
_cell_angle_beta 90.000000
_cell_angle_gamma 90.000000
_cell_volume 2978.978416
_symmetry_space_group_name_H-M "A M M 2"
_symmetry_group_IT_number 38
_symmetry_cell_setting 'orthorhombic'
loop_
_space_group_symop_operation_xyz
x,y,z
-x,-y,z
-x,y,z
x,-y,z
x,1/2+y,1/2+z
-x,1/2-y,1/2+z
-x,1/2+y,1/2+z
x,1/2-y,1/2+z
loop_
_atom_site_type_symbol
_atom_site_label
_atom_site_fract_x
_atom_site_fract_y
_atom_site_fract_z
Si Si1 0.771579 0.621630 0.475230
Si Si2 0.000000 0.714259 0.509574
Si Si3 0.771211 0.558236 0.977735
Si Si4 0.089476 0.376901 0.480180
Si Si5 0.686806 0.715438 0.454733
Si Si6 0.089919 0.441409 0.982742
Si Si7 0.437301 0.783894 0.057462
O O1 0.751665 0.583904 0.707994
O O2 0.840921 0.632646 0.475583
O O3 0.740255 0.676894 0.507111
O O4 0.748575 0.594033 0.213378
O O5 0.941508 0.679365 0.482781
O O6 0.000000 0.758760 0.290858
O O7 0.743794 0.500000 0.997613
O O8 0.840669 0.554061 0.992756
O O9 0.068955 0.410268 0.728822
O O10 0.067115 0.409549 0.231824
O O11 0.691544 0.737206 0.161555
O O12 0.623585 0.685143 0.497086
O O13 0.062787 0.500000 0.981281
O O14 0.500000 0.814732 0.013733
O O15 0.436005 0.734937 0.856709
#
# Coordination Sequence:
#
# PCOD8177921 Si02
#       7
#     8   4   8   8   8   8   8
#     4  10  19  31  49  71  95 120 151 191 229 269
#     4  12  26  42  55  66  89 128 168 198 218 252
#     4   9  17  30  49  71  95 122 149 183 230 278
#     4  10  21  36  52  72  94 120 156 190 225 273
#     4  10  19  29  43  66  96 125 153 187 225 267
#     4   9  17  33  56  78  98 116 137 180 242 293
#     4   8  14  25  40  58  84 119 152 182 221 267
#
# _framework density 17.455646999999999
#
# number of rings (size 3 to 8) (size 9 to 14) (size 15 to 20)
#    0.000    2.462    0.000    2.769    0.000    4.923 
#    0.000    2.308    0.000    0.000    0.000    0.000 
#    0.000    3.692    0.000    0.000    0.000    0.000 
#
# Total GULP energy -322225.031548 kJ/mol
# GULP energy per Si atom -12393.270444 kJ/mol
# Density = 1.741592 g / cm^3
# Si number density = 17.455647 Si / 1000 Ang^3
#
#
#
# Elastic Constant Matrix: (Units=GPa)
#
#
# Indices 1 2 3 4 5 6 
#
# 1 78.3975 38.8009 21.5397 0.0000 0.0000 0.0000
# 2 38.8009 81.9439 24.3151 0.0000 0.0000 0.0000
# 3 21.5397 24.3151 102.7555 0.0000 0.0000 0.0000
# 4 0.0000 0.0000 0.0000 20.1240 0.0000 0.0000
# 5 0.0000 0.0000 0.0000 0.0000 -19.7942 0.0000
# 6 0.0000 0.0000 0.0000 0.0000 0.0000 0.2475
#
#
#
# Elastic Compliance Matrix: (Units=1/GPa)
#
#
# Indices 1 2 3 4 5 6 
#
# 1 0.016957 -0.007501 -0.001780 0.000000 0.000000 0.000000
# 2 -0.007501 0.016443 -0.002319 0.000000 0.000000 0.000000
# 3 -0.001780 -0.002319 0.010654 0.000000 0.000000 0.000000
# 4 0.000000 0.000000 0.000000 0.049692 0.000000 0.000000
# 5 0.000000 0.000000 0.000000 0.000000 -0.050520 0.000000
# 6 0.000000 0.000000 0.000000 0.000000 0.000000 4.040750
#
#
# Mechanical properties :
#
#
# Convention : Reuss Voigt Hill
#
# Bulk Modulus (GPa) = 47.94967 48.04537 47.99752
# Shear Modulus (GPa) = 1.21532 12.01154 6.61343
#
# Velocity S-wave (km/s) = 0.83531 2.62605 1.94857
# Velocity P-wave (km/s) = 5.33473 6.06456 5.71131
#
# Compressibility (1/GPa) = 0.02085520
#
# Stress axis : x y z
#
# Youngs Moduli (GPa) = 58.97286 60.81497 93.86580
#
# Poissons Ratio (x) = 0.45618 0.16704
# Poissons Ratio (y) = 0.44237 0.21764
# Poissons Ratio (z) = 0.10494 0.14100
#
# Static dielectric constant tensor:
#      x y z
#    x 3.330900 0.000000 0.000000 
#    y 0.000000 3.044330 0.000000 
#    z 0.000000 0.000000 3.550080 
# 
# 
# High freq. dielectric constant tensor:
#      x y z
#    x 1.657990 0.000000 0.000000 
#    y 0.000000 1.639420 0.000000 
#    z 0.000000 0.000000 1.701360 
# 
# From -- ./inp_files/1898.got.cif
#   From: 2010.03.12/outbox.cif.g09.slc.cpg/sg38_1_cif.got.tgz:1898.got - 2010.04.14 02:38:36.
