data_PCOD8177848
_publ_section_title
;
Structure prediction by ZEFSAII (Michael W. Deem and Ramdas Pophale) SiO2 
 PCOD8177848
Probable space group: A M M 2
;
_chemical_formula_sum "Si O2"
_cell_formula_units_Z 38
_cell_length_a 12.170981
_cell_length_b 17.289466
_cell_length_c 9.038416
_cell_angle_alpha 90.000000
_cell_angle_beta 90.000000
_cell_angle_gamma 90.000000
_cell_volume 1901.951729
_symmetry_space_group_name_H-M "A M M 2"
_symmetry_group_IT_number 38
_symmetry_cell_setting 'orthorhombic'
loop_
_space_group_symop_operation_xyz
x,y,z
-x,-y,z
-x,y,z
x,-y,z
x,1/2+y,1/2+z
-x,1/2-y,1/2+z
-x,1/2+y,1/2+z
x,1/2-y,1/2+z
loop_
_atom_site_type_symbol
_atom_site_label
_atom_site_fract_x
_atom_site_fract_y
_atom_site_fract_z
Si Si1 0.000000 0.500000 0.325990
Si Si2 0.616788 0.140481 0.657823
Si Si3 0.634618 0.000000 0.052451
Si Si4 0.232583 0.354068 0.650139
Si Si5 0.314578 0.250821 0.906110
Si Si6 0.246538 0.500000 0.234298
Si Si7 0.000000 0.916346 0.110295
O O1 0.113521 0.500000 0.232817
O O2 0.000000 0.423687 0.430304
O O3 0.500000 0.095871 0.657888
O O4 0.615777 0.191321 0.807578
O O5 0.614106 0.197248 0.517104
O O6 0.714748 0.077739 0.649659
O O7 0.678393 0.923887 0.137956
O O8 0.500000 0.000000 0.042764
O O9 0.695301 0.000000 0.894216
O O10 0.250521 0.307792 0.799511
O O11 0.233403 0.300189 0.505779
O O12 0.107977 0.377070 0.669317
O O13 0.000000 0.000000 0.185263
#
# Coordination Sequence:
#
# PCOD8177848 Si02
#       7
#     2   8   4   8   8   4   4
#     4  10  18  38  64  92 118 158 206 262 300 358
#     4  11  22  40  63  92 128 165 205 255 313 375
#     4  12  22  37  64  92 121 162 216 252 298 380
#     4  11  22  42  63  96 122 168 210 258 316 373
#     4  10  24  39  60  93 134 161 204 255 319 375
#     4  12  22  39  64  92 119 163 212 255 306 367
#     4  10  18  38  69  88 120 160 212 262 301 363
#
# _framework density 19.979475999999998
#
# number of rings (size 3 to 8) (size 9 to 14) (size 15 to 20)
#    0.316    0.842    5.263    1.579    0.000    5.895 
#    0.000    5.263    0.000    0.000    0.000    0.000 
#    0.000    0.000    0.000    0.000    0.000    0.000 
#
# Total GULP energy -235407.928710 kJ/mol
# GULP energy per Si atom -12389.890985 kJ/mol
# Density = 1.993400 g / cm^3
# Si number density = 19.979476 Si / 1000 Ang^3
#
#
#
# Elastic Constant Matrix: (Units=GPa)
#
#
# Indices 1 2 3 4 5 6 
#
# 1 184.5621 57.8256 32.7776 0.0000 0.0000 0.0000
# 2 57.8256 120.7441 44.7241 0.0000 0.0000 0.0000
# 3 32.7776 44.7241 99.5587 0.0000 0.0000 0.0000
# 4 0.0000 0.0000 0.0000 -411.1370 0.0000 0.0000
# 5 0.0000 0.0000 0.0000 0.0000 6.0270 0.0000
# 6 0.0000 0.0000 0.0000 0.0000 0.0000 17.4522
#
#
#
# Elastic Compliance Matrix: (Units=1/GPa)
#
#
# Indices 1 2 3 4 5 6 
#
# 1 0.006439 -0.002757 -0.000881 0.000000 0.000000 0.000000
# 2 -0.002757 0.011116 -0.004086 0.000000 0.000000 0.000000
# 3 -0.000881 -0.004086 0.012170 0.000000 0.000000 0.000000
# 4 0.000000 0.000000 0.000000 -0.002432 0.000000 0.000000
# 5 0.000000 0.000000 0.000000 0.000000 0.165919 0.000000
# 6 0.000000 0.000000 0.000000 0.000000 0.000000 0.057299
#
#
# Mechanical properties :
#
#
# Convention : Reuss Voigt Hill
#
# Bulk Modulus (GPa) = 70.04721 75.05771 72.55246
# Shear Modulus (GPa) = 18.46943 -59.56239 -20.54648
#
# Velocity S-wave (km/s) = 3.04373 -5.46594 -3.21031
# Velocity P-wave (km/s) = 6.89116 1.47864 4.75929
#
# Compressibility (1/GPa) = 0.01427609
#
# Stress axis : x y z
#
# Youngs Moduli (GPa) = 155.31419 89.96245 82.17024
#
# Poissons Ratio (x) = 0.24803 0.07241
# Poissons Ratio (y) = 0.42821 0.33573
# Poissons Ratio (z) = 0.13687 0.36756
#
# Static dielectric constant tensor:
#      x y z
#    x 3.474770 0.000000 0.000000 
#    y 0.000000 3.886400 0.000000 
#    z 0.000000 0.000000 3.600660 
# 
# 
# High freq. dielectric constant tensor:
#      x y z
#    x 1.775110 0.000000 0.000000 
#    y 0.000000 1.790950 0.000000 
#    z 0.000000 0.000000 1.768150 
# 
# From -- ./inp_files/4326.got.cif
#   From: 2010.03.12/outbox.cif.g09.slc.cpg/sg38_3_cif.got.tgz:4326.got - 2010.04.14 02:38:36.
