data_PCOD8177421
_publ_section_title
;
Structure prediction by ZEFSAII (Michael W. Deem and Ramdas Pophale) SiO2 
 PCOD8177421
Probable space group: A M M 2
;
_chemical_formula_sum "Si O2"
_cell_formula_units_Z 64
_cell_length_a 20.020783
_cell_length_b 9.146984
_cell_length_c 20.343741
_cell_angle_alpha 90.000000
_cell_angle_beta 90.000000
_cell_angle_gamma 90.000000
_cell_volume 3725.544850
_symmetry_space_group_name_H-M "A M M 2"
_symmetry_group_IT_number 38
_symmetry_cell_setting 'orthorhombic'
loop_
_space_group_symop_operation_xyz
x,y,z
-x,-y,z
-x,y,z
x,-y,z
x,1/2+y,1/2+z
-x,1/2-y,1/2+z
-x,1/2+y,1/2+z
x,1/2-y,1/2+z
loop_
_atom_site_type_symbol
_atom_site_label
_atom_site_fract_x
_atom_site_fract_y
_atom_site_fract_z
Si Si1 0.325668 0.327109 0.142420
Si Si2 0.337194 0.172958 0.926029
Si Si3 0.158850 0.326839 0.322181
Si Si4 0.821428 0.172702 0.595235
Si Si5 0.925657 0.325832 0.203669
Si Si6 0.576254 0.326507 0.544367
Si Si7 0.189858 0.672130 0.464089
Si Si8 0.303720 0.826133 0.787025
O O1 0.335374 0.500000 0.134989
O O2 0.252589 0.278941 0.117378
O O3 0.383030 0.245787 0.102956
O O4 0.334577 0.273537 0.218014
O O5 0.266078 0.225331 0.954288
O O6 0.347098 0.228533 0.850452
O O7 0.337465 0.000000 0.924813
O O8 0.395430 0.230669 0.974053
O O9 0.163474 0.500000 0.317707
O O10 0.099518 0.269141 0.275262
O O11 0.147959 0.282908 0.398602
O O12 0.228858 0.263123 0.295095
O O13 0.875283 0.231722 0.647800
O O14 0.841006 0.244069 0.525875
O O15 0.825935 0.000000 0.588318
O O16 0.926677 0.500000 0.202823
O O17 0.000000 0.262977 0.191428
O O18 0.500000 0.275313 0.549405
O O19 0.583487 0.500000 0.550242
O O20 0.186003 0.500000 0.477461
O O21 0.299991 0.000000 0.786167
#
# Coordination Sequence:
#
# PCOD8177421 Si02
#       8
#     8   8   8   8   8   8   8   8
#     4  10  18  29  48  72  96 120 151 195 238 275
#     4   8  14  26  45  68  89 113 149 189 228 268
#     4   8  13  24  43  67  89 114 153 196 232 266
#     4  10  18  28  45  71  98 123 154 193 233 276
#     4   9  16  27  44  67  96 127 158 193 236 283
#     4  10  20  33  48  67  94 126 157 188 228 284
#     4   9  16  27  47  70  92 118 151 192 234 274
#     4   8  13  24  44  68  91 111 143 195 236 259
#
# _framework density 17.178695999999999
#
# number of rings (size 3 to 8) (size 9 to 14) (size 15 to 20)
#    0.000    3.000    2.500    1.500    0.000    0.250 
#    0.000    1.250    0.000    7.875    0.000    0.000 
#    0.000    0.000    0.000    0.000    0.000    0.000 
#
# Total GULP energy -396520.950580 kJ/mol
# GULP energy per Si atom -12391.279706 kJ/mol
# Density = 1.713960 g / cm^3
# Si number density = 17.178696 Si / 1000 Ang^3
#
#
#
# Elastic Constant Matrix: (Units=GPa)
#
#
# Indices 1 2 3 4 5 6 
#
# 1 116.7036 17.9775 81.0102 0.0000 0.0000 0.0000
# 2 17.9775 12.5514 24.6640 0.0000 0.0000 0.0000
# 3 81.0102 24.6640 181.1743 0.0000 0.0000 0.0000
# 4 0.0000 0.0000 0.0000 24.1879 0.0000 0.0000
# 5 0.0000 0.0000 0.0000 0.0000 27.6564 0.0000
# 6 0.0000 0.0000 0.0000 0.0000 0.0000 12.8677
#
#
#
# Elastic Compliance Matrix: (Units=1/GPa)
#
#
# Indices 1 2 3 4 5 6 
#
# 1 0.013293 -0.010048 -0.004576 0.000000 0.000000 0.000000
# 2 -0.010048 0.116363 -0.011348 0.000000 0.000000 0.000000
# 3 -0.004576 -0.011348 0.009111 0.000000 0.000000 0.000000
# 4 0.000000 0.000000 0.000000 0.041343 0.000000 0.000000
# 5 0.000000 0.000000 0.000000 0.000000 0.036158 0.000000
# 6 0.000000 0.000000 0.000000 0.000000 0.000000 0.077714
#
#
# Mechanical properties :
#
#
# Convention : Reuss Voigt Hill
#
# Bulk Modulus (GPa) = 11.51768 61.97030 36.74399
# Shear Modulus (GPa) = 13.33808 25.39425 19.36616
#
# Velocity S-wave (km/s) = 2.78947 3.84896 3.36123
# Velocity P-wave (km/s) = 4.13450 7.47696 6.04148
#
# Compressibility (1/GPa) = 0.08682301
#
# Stress axis : x y z
#
# Youngs Moduli (GPa) = 75.22799 8.59377 109.76320
#
# Poissons Ratio (x) = 0.08635 0.50227
# Poissons Ratio (y) = 0.75587 1.24562
# Poissons Ratio (z) = 0.34424 0.09752
#
# Static dielectric constant tensor:
#      x y z
#    x 3.232390 0.000000 0.000000 
#    y 0.000000 2.654580 0.000000 
#    z 0.000000 0.000000 3.711870 
# 
# 
# High freq. dielectric constant tensor:
#      x y z
#    x 1.639280 0.000000 0.000000 
#    y 0.000000 1.604250 0.000000 
#    z 0.000000 0.000000 1.684910 
# 
# From -- ./inp_files/18767.got.cif
#   From: 2010.03.12/outbox.cif.g09.slc.cpg/sg38_10_cif.got.tgz:18767.got - 2010.04.14 02:38:36.
