data_PCOD8177878
_publ_section_title
;
Structure prediction by ZEFSAII (Michael W. Deem and Ramdas Pophale) SiO2 
 PCOD8177878
Probable space group: A M M 2
;
_chemical_formula_sum "Si O2"
_cell_formula_units_Z 40
_cell_length_a 11.617101
_cell_length_b 28.904477
_cell_length_c 7.430041
_cell_angle_alpha 90.000000
_cell_angle_beta 90.000000
_cell_angle_gamma 90.000000
_cell_volume 2494.905446
_symmetry_space_group_name_H-M "A M M 2"
_symmetry_group_IT_number 38
_symmetry_cell_setting 'orthorhombic'
loop_
_space_group_symop_operation_xyz
x,y,z
-x,-y,z
-x,y,z
x,-y,z
x,1/2+y,1/2+z
-x,1/2-y,1/2+z
-x,1/2+y,1/2+z
x,1/2-y,1/2+z
loop_
_atom_site_type_symbol
_atom_site_label
_atom_site_fract_x
_atom_site_fract_y
_atom_site_fract_z
Si Si1 0.636277 0.800074 0.735990
Si Si2 0.000000 0.554598 0.832565
Si Si3 0.180902 0.554555 0.536312
Si Si4 0.636286 0.869949 0.036423
Si Si5 0.363724 0.800100 0.336921
Si Si6 0.000000 0.054597 0.740054
O O1 0.500000 0.796238 0.753618
O O2 0.675863 0.813694 0.536467
O O3 0.689537 0.749983 0.786403
O O4 0.679680 0.840580 0.865402
O O5 0.888098 0.569467 0.716928
O O6 0.000000 0.500000 0.850132
O O7 0.000000 0.576264 0.036310
O O8 0.205574 0.500000 0.536312
O O9 0.302643 0.580516 0.536321
O O10 0.111904 0.569465 0.355690
O O11 0.500000 0.878941 0.036381
O O12 0.679657 0.840628 0.207587
O O13 0.500000 0.796260 0.319285
O O14 0.000000 0.000000 0.722470
#
# Coordination Sequence:
#
# PCOD8177878 Si02
#       6
#     8   4   8   8   8   4
#     4   9  15  25  41  60  86 120 157 195 226 255
#     4   8  15  31  54  71  83 109 155 210 247 258
#     4   9  18  31  47  71  97 120 155 192 224 276
#     4  10  19  28  42  68 101 132 154 178 225 283
#     4   9  15  25  41  60  86 120 157 195 226 255
#     4   8  15  31  54  71  83 109 155 210 247 258
#
# _framework density 16.032672000000002
#
# number of rings (size 3 to 8) (size 9 to 14) (size 15 to 20)
#    0.000    3.000    2.000    1.200    0.000    2.000 
#    0.000    0.000    0.000    0.000    0.000   16.800 
#    0.000    0.000    0.000    0.000    0.000    0.000 
#
# Total GULP energy -247834.475012 kJ/mol
# GULP energy per Si atom -12391.723751 kJ/mol
# Density = 1.599618 g / cm^3
# Si number density = 16.032672 Si / 1000 Ang^3
#
#
#
# Elastic Constant Matrix: (Units=GPa)
#
#
# Indices 1 2 3 4 5 6 
#
# 1 53.3442 43.5478 33.8140 0.0000 0.0000 0.0000
# 2 43.5478 83.6916 46.2878 0.0000 0.0000 0.0000
# 3 33.8140 46.2878 151.6330 0.0000 0.0000 0.0000
# 4 0.0000 0.0000 0.0000 20.3757 0.0000 0.0000
# 5 0.0000 0.0000 0.0000 0.0000 7.9426 0.0000
# 6 0.0000 0.0000 0.0000 0.0000 0.0000 6.8920
#
#
#
# Elastic Compliance Matrix: (Units=1/GPa)
#
#
# Indices 1 2 3 4 5 6 
#
# 1 0.033407 -0.015957 -0.002579 0.000000 0.000000 0.000000
# 2 -0.015957 0.021997 -0.003157 0.000000 0.000000 0.000000
# 3 -0.002579 -0.003157 0.008134 0.000000 0.000000 0.000000
# 4 0.000000 0.000000 0.000000 0.049078 0.000000 0.000000
# 5 0.000000 0.000000 0.000000 0.000000 0.125903 0.000000
# 6 0.000000 0.000000 0.000000 0.000000 0.000000 0.145095
#
#
# Mechanical properties :
#
#
# Convention : Reuss Voigt Hill
#
# Bulk Modulus (GPa) = 49.61840 59.55200 54.58520
# Shear Modulus (GPa) = 11.52828 18.04336 14.78582
#
# Velocity S-wave (km/s) = 2.68442 3.35836 3.04012
# Velocity P-wave (km/s) = 6.37367 7.22931 6.81493
#
# Compressibility (1/GPa) = 0.02015381
#
# Stress axis : x y z
#
# Youngs Moduli (GPa) = 29.93364 45.46006 122.94778
#
# Poissons Ratio (x) = 0.72539 0.31706
# Poissons Ratio (y) = 0.47764 0.38810
# Poissons Ratio (z) = 0.07719 0.14350
#
# Static dielectric constant tensor:
#      x y z
#    x 2.530090 0.000000 0.000000 
#    y 0.000000 2.813850 0.000000 
#    z 0.000000 0.000000 3.552100 
# 
# 
# High freq. dielectric constant tensor:
#      x y z
#    x 1.560380 0.000000 0.000000 
#    y 0.000000 1.598350 0.000000 
#    z 0.000000 0.000000 1.637020 
# 
# From -- ./inp_files/4692.got.cif
#   From: 2010.03.12/outbox.cif.g09.slc.cpg/sg38_3_cif.got.tgz:4692.got - 2010.04.14 02:38:36.
