data_PCOD8177208
_publ_section_title
;
Structure prediction by ZEFSAII (Michael W. Deem and Ramdas Pophale) SiO2 
 PCOD8177208
Probable space group: A M M 2
;
_chemical_formula_sum "Si O2"
_cell_formula_units_Z 48
_cell_length_a 9.385023
_cell_length_b 11.804587
_cell_length_c 25.473055
_cell_angle_alpha 90.000000
_cell_angle_beta 90.000000
_cell_angle_gamma 90.000000
_cell_volume 2822.066035
_symmetry_space_group_name_H-M "A M M 2"
_symmetry_group_IT_number 38
_symmetry_cell_setting 'orthorhombic'
loop_
_space_group_symop_operation_xyz
x,y,z
-x,-y,z
-x,y,z
x,-y,z
x,1/2+y,1/2+z
-x,1/2-y,1/2+z
-x,1/2+y,1/2+z
x,1/2-y,1/2+z
loop_
_atom_site_type_symbol
_atom_site_label
_atom_site_fract_x
_atom_site_fract_y
_atom_site_fract_z
Si Si1 0.332013 0.283063 0.767460
Si Si2 0.330849 0.000000 0.325772
Si Si3 0.840938 0.500000 0.927317
Si Si4 0.164490 0.368155 0.556987
Si Si5 0.666082 0.367874 0.658548
Si Si6 0.836004 0.749272 0.952422
Si Si7 0.331586 0.370235 0.360141
O O1 0.500000 0.298244 0.765459
O O2 0.265949 0.390150 0.797648
O O3 0.278972 0.288551 0.706989
O O4 0.290274 0.171032 0.800824
O O5 0.500000 0.000000 0.325292
O O6 0.281333 0.000000 0.384899
O O7 0.820750 0.614170 0.961202
O O8 0.000000 0.500000 0.902130
O O9 0.191034 0.500000 0.547613
O O10 0.250317 0.325164 0.607525
O O11 0.223667 0.305410 0.505473
O O12 0.000000 0.339361 0.566760
O O13 0.500000 0.350163 0.647405
O O14 0.698005 0.500000 0.671512
O O15 0.746487 0.793009 0.902851
O O16 0.000000 0.785009 0.943043
O O17 0.500000 0.356618 0.369136
O O18 0.282360 0.500000 0.365636
#
# Coordination Sequence:
#
# PCOD8177208 Si02
#       7
#     8   4   4   8   8   8   8
#     4   9  16  28  48  72  97 124 154 191 238 287
#     4  10  16  28  50  72  96 128 156 185 236 291
#     4  10  20  32  48  74  98 122 160 199 236 281
#     4   9  18  32  48  67  92 123 157 194 239 284
#     4   9  16  28  48  71  92 119 157 197 236 278
#     4  10  20  34  51  70  97 129 159 196 242 288
#     4  10  20  32  49  74 100 128 162 196 232 281
#
# _framework density 17.008814999999998
#
# number of rings (size 3 to 8) (size 9 to 14) (size 15 to 20)
#    0.000    2.500    2.500    0.500    0.000    1.667 
#    0.000    3.333    1.833    0.000    0.000    0.000 
#    0.000    0.000    0.000    0.000    0.000    0.000 
#
# Total GULP energy -297463.868826 kJ/mol
# GULP energy per Si atom -12394.327868 kJ/mol
# Density = 1.697010 g / cm^3
# Si number density = 17.008815 Si / 1000 Ang^3
#
#
#
# Elastic Constant Matrix: (Units=GPa)
#
#
# Indices 1 2 3 4 5 6 
#
# 1 33.1888 24.7950 40.2758 0.0000 0.0000 0.0000
# 2 24.7950 88.0611 51.0818 0.0000 0.0000 0.0000
# 3 40.2758 51.0818 145.2884 0.0000 0.0000 0.0000
# 4 0.0000 0.0000 0.0000 29.7776 0.0000 0.0000
# 5 0.0000 0.0000 0.0000 0.0000 1.8848 0.0000
# 6 0.0000 0.0000 0.0000 0.0000 0.0000 14.5120
#
#
#
# Elastic Compliance Matrix: (Units=1/GPa)
#
#
# Indices 1 2 3 4 5 6 
#
# 1 0.048994 -0.007432 -0.010969 0.000000 0.000000 0.000000
# 2 -0.007432 0.015393 -0.003351 0.000000 0.000000 0.000000
# 3 -0.010969 -0.003351 0.011102 0.000000 0.000000 0.000000
# 4 0.000000 0.000000 0.000000 0.033582 0.000000 0.000000
# 5 0.000000 0.000000 0.000000 0.000000 0.530558 0.000000
# 6 0.000000 0.000000 0.000000 0.000000 0.000000 0.068908
#
#
# Mechanical properties :
#
#
# Convention : Reuss Voigt Hill
#
# Bulk Modulus (GPa) = 31.26617 55.42706 43.34662
# Shear Modulus (GPa) = 6.55562 19.26059 12.90811
#
# Velocity S-wave (km/s) = 1.96535 3.36875 2.75781
# Velocity P-wave (km/s) = 4.85514 6.91298 5.97334
#
# Compressibility (1/GPa) = 0.03198345
#
# Stress axis : x y z
#
# Youngs Moduli (GPa) = 20.41056 64.96629 90.07498
#
# Poissons Ratio (x) = 0.48286 0.98800
# Poissons Ratio (y) = 0.15170 0.30189
# Poissons Ratio (z) = 0.22388 0.21773
#
# Static dielectric constant tensor:
#      x y z
#    x 2.992320 0.000000 0.000000 
#    y 0.000000 3.277420 0.000000 
#    z 0.000000 0.000000 3.311360 
# 
# 
# High freq. dielectric constant tensor:
#      x y z
#    x 1.634250 0.000000 0.000000 
#    y 0.000000 1.644300 0.000000 
#    z 0.000000 0.000000 1.656300 
# 
# From -- ./inp_files/20614.got.cif
#   From: 2010.03.12/outbox.cif.g09.slc.cpg/sg38_11_cif.got.tgz:20614.got - 2010.04.14 02:38:36.
