data_PCOD8177403
_publ_section_title
;
Structure prediction by ZEFSAII (Michael W. Deem and Ramdas Pophale) SiO2 
 PCOD8177403
Probable space group: A M M 2
;
_chemical_formula_sum "Si O2"
_cell_formula_units_Z 64
_cell_length_a 19.208888
_cell_length_b 9.482280
_cell_length_c 20.440591
_cell_angle_alpha 90.000000
_cell_angle_beta 90.000000
_cell_angle_gamma 90.000000
_cell_volume 3723.132121
_symmetry_space_group_name_H-M "A M M 2"
_symmetry_group_IT_number 38
_symmetry_cell_setting 'orthorhombic'
loop_
_space_group_symop_operation_xyz
x,y,z
-x,-y,z
-x,y,z
x,-y,z
x,1/2+y,1/2+z
-x,1/2-y,1/2+z
-x,1/2+y,1/2+z
x,1/2-y,1/2+z
loop_
_atom_site_type_symbol
_atom_site_label
_atom_site_fract_x
_atom_site_fract_y
_atom_site_fract_z
Si Si1 0.578146 0.832896 0.262070
Si Si2 0.335698 0.666246 0.887059
Si Si3 0.077054 0.658120 0.927495
Si Si4 0.646215 0.333512 0.628031
Si Si5 0.205907 0.665171 0.425784
Si Si6 0.795096 0.337090 0.578876
Si Si7 0.076390 0.158459 0.582907
Si Si8 0.419865 0.840109 0.515631
O O1 0.500000 0.768790 0.260493
O O2 0.617792 0.780611 0.326574
O O3 0.621502 0.781468 0.199075
O O4 0.573124 0.000000 0.262534
O O5 0.319011 0.500000 0.882527
O O6 0.264851 0.754562 0.885069
O O7 0.376186 0.705777 0.952760
O O8 0.097445 0.500000 0.904344
O O9 0.132328 0.771670 0.900908
O O10 0.000000 0.697822 0.900983
O O11 0.076425 0.662861 0.005229
O O12 0.637717 0.500000 0.618717
O O13 0.726362 0.288026 0.617718
O O14 0.596732 0.261513 0.575339
O O15 0.208009 0.500000 0.409978
O O16 0.216760 0.696554 0.502556
O O17 0.811103 0.500000 0.589802
O O18 0.861245 0.255753 0.609505
O O19 0.000000 0.210922 0.607810
O O20 0.089795 0.000000 0.607962
O O21 0.500000 0.825004 0.496096
O O22 0.401725 0.000000 0.536132
#
# Coordination Sequence:
#
# PCOD8177403 Si02
#       8
#     8   8   8   8   8   8   8   8
#     4   9  18  33  53  73  92 121 163 207 246 287
#     4  10  19  32  50  70  93 124 162 202 243 287
#     4   8  14  25  41  63  93 128 163 196 233 280
#     4  10  19  33  51  72  97 125 159 198 242 291
#     4  10  18  28  43  67  99 129 159 196 240 290
#     4   9  17  27  41  65  96 125 154 190 232 282
#     4   8  14  24  39  61  90 124 159 191 226 272
#     4  10  20  32  48  71  96 121 153 196 244 293
#
# _framework density 17.189827999999999
#
# number of rings (size 3 to 8) (size 9 to 14) (size 15 to 20)
#    0.000    2.750    1.250    1.875    0.000    3.750 
#    0.000    3.125    0.000    1.875    0.000    0.875 
#    0.000    3.000    0.000    0.000    0.000    0.000 
#
# Total GULP energy -396718.442507 kJ/mol
# GULP energy per Si atom -12397.451328 kJ/mol
# Density = 1.715070 g / cm^3
# Si number density = 17.189828 Si / 1000 Ang^3
#
#
#
# Elastic Constant Matrix: (Units=GPa)
#
#
# Indices 1 2 3 4 5 6 
#
# 1 148.1543 56.2096 40.1794 0.0000 0.0000 0.0000
# 2 56.2096 58.9619 26.4671 0.0000 0.0000 0.0000
# 3 40.1794 26.4671 65.6202 0.0000 0.0000 0.0000
# 4 0.0000 0.0000 0.0000 14.0473 0.0000 0.0000
# 5 0.0000 0.0000 0.0000 0.0000 19.6615 0.0000
# 6 0.0000 0.0000 0.0000 0.0000 0.0000 29.2899
#
#
#
# Elastic Compliance Matrix: (Units=1/GPa)
#
#
# Indices 1 2 3 4 5 6 
#
# 1 0.011061 -0.009163 -0.003077 0.000000 0.000000 0.000000
# 2 -0.009163 0.028301 -0.005804 0.000000 0.000000 0.000000
# 3 -0.003077 -0.005804 0.019464 0.000000 0.000000 0.000000
# 4 0.000000 0.000000 0.000000 0.071188 0.000000 0.000000
# 5 0.000000 0.000000 0.000000 0.000000 0.050861 0.000000
# 6 0.000000 0.000000 0.000000 0.000000 0.000000 0.034141
#
#
# Mechanical properties :
#
#
# Convention : Reuss Voigt Hill
#
# Bulk Modulus (GPa) = 43.97987 57.60539 50.79263
# Shear Modulus (GPa) = 19.32867 22.59177 20.96022
#
# Velocity S-wave (km/s) = 3.35688 3.62919 3.49569
# Velocity P-wave (km/s) = 6.37693 7.15161 6.77535
#
# Compressibility (1/GPa) = 0.02273768
#
# Stress axis : x y z
#
# Youngs Moduli (GPa) = 90.41082 35.33435 51.37683
#
# Poissons Ratio (x) = 0.32378 0.15806
# Poissons Ratio (y) = 0.82846 0.29820
# Poissons Ratio (z) = 0.27815 0.20509
#
# Static dielectric constant tensor:
#      x y z
#    x 3.558690 0.000000 0.000000 
#    y 0.000000 3.108730 0.000000 
#    z 0.000000 0.000000 2.890540 
# 
# 
# High freq. dielectric constant tensor:
#      x y z
#    x 1.681930 0.000000 0.000000 
#    y 0.000000 1.648660 0.000000 
#    z 0.000000 0.000000 1.616450 
# 
# From -- ./inp_files/18770.got.cif
#   From: 2010.03.12/outbox.cif.g09.slc.cpg/sg38_10_cif.got.tgz:18770.got - 2010.04.14 02:38:36.
