data_PCOD8177399
_publ_section_title
;
Structure prediction by ZEFSAII (Michael W. Deem and Ramdas Pophale) SiO2 
 PCOD8177399
Probable space group: A M M 2
;
_chemical_formula_sum "Si O2"
_cell_formula_units_Z 56
_cell_length_a 9.190079
_cell_length_b 28.648020
_cell_length_c 13.657274
_cell_angle_alpha 90.000000
_cell_angle_beta 90.000000
_cell_angle_gamma 90.000000
_cell_volume 3595.653870
_symmetry_space_group_name_H-M "A M M 2"
_symmetry_group_IT_number 38
_symmetry_cell_setting 'orthorhombic'
loop_
_space_group_symop_operation_xyz
x,y,z
-x,-y,z
-x,y,z
x,-y,z
x,1/2+y,1/2+z
-x,1/2-y,1/2+z
-x,1/2+y,1/2+z
x,1/2-y,1/2+z
loop_
_atom_site_type_symbol
_atom_site_label
_atom_site_fract_x
_atom_site_fract_y
_atom_site_fract_z
Si Si1 0.671247 0.185743 0.698420
Si Si2 0.668901 0.409713 0.300674
Si Si3 0.165714 0.676476 0.614452
Si Si4 0.168272 0.725372 0.022397
Si Si5 0.836383 0.000000 0.796186
Si Si6 0.167349 0.267122 0.802267
Si Si7 0.329336 0.908388 0.026840
Si Si8 0.835010 0.000000 0.028996
O O1 0.500000 0.193109 0.693919
O O2 0.713632 0.134751 0.736834
O O3 0.736631 0.191383 0.589974
O O4 0.735004 0.223270 0.773570
O O5 0.500000 0.421891 0.291213
O O6 0.756501 0.453672 0.257437
O O7 0.709477 0.399527 0.413410
O O8 0.202670 0.720826 0.546743
O O9 0.191009 0.690084 0.727834
O O10 0.276025 0.635545 0.589017
O O11 0.000000 0.659870 0.596509
O O12 0.000000 0.714569 0.044326
O O13 0.210887 0.715395 0.910205
O O14 0.831322 0.000000 0.912603
O O15 0.000000 0.000000 0.755606
O O16 0.000000 0.250211 0.799747
O O17 0.500000 0.915248 0.043056
O O18 0.248093 0.954217 0.067733
O O19 0.000000 0.000000 0.068957
#
# Coordination Sequence:
#
# PCOD8177399 Si02
#       8
#     8   8   8   8   4   8   8   4
#     4  10  19  29  44  67  91 117 149 181 219 264
#     4   9  18  30  42  60  90 121 143 171 215 262
#     4   9  17  28  43  64  87 113 146 180 217 257
#     4   9  18  32  47  63  87 119 152 186 220 255
#     4   9  17  27  43  65  84 109 146 181 211 250
#     4   9  18  32  47  63  87 119 152 185 220 257
#     4  10  18  28  43  63  88 117 146 175 211 257
#     4   9  17  29  43  61  86 113 142 177 215 254
#
# _framework density 15.574356999999999
#
# number of rings (size 3 to 8) (size 9 to 14) (size 15 to 20)
#    0.000    2.714    0.000    3.000    0.000    6.286 
#    0.000    0.000    0.000    0.000    0.000    1.000 
#    0.000    5.714    0.000    0.000    0.000    0.000 
#
# Total GULP energy -347228.005608 kJ/mol
# GULP energy per Si atom -12401.000200 kJ/mol
# Density = 1.553891 g / cm^3
# Si number density = 15.574357 Si / 1000 Ang^3
#
#
#
# Elastic Constant Matrix: (Units=GPa)
#
#
# Indices 1 2 3 4 5 6 
#
# 1 88.2420 67.7595 40.7053 0.0000 0.0000 0.0000
# 2 67.7595 116.4980 49.9658 0.0000 0.0000 0.0000
# 3 40.7053 49.9658 90.2566 0.0000 0.0000 0.0000
# 4 0.0000 0.0000 0.0000 19.9362 0.0000 0.0000
# 5 0.0000 0.0000 0.0000 0.0000 21.4685 0.0000
# 6 0.0000 0.0000 0.0000 0.0000 0.0000 31.4485
#
#
#
# Elastic Compliance Matrix: (Units=1/GPa)
#
#
# Indices 1 2 3 4 5 6 
#
# 1 0.021340 -0.010864 -0.003610 0.000000 0.000000 0.000000
# 2 -0.010864 0.016787 -0.004394 0.000000 0.000000 0.000000
# 3 -0.003610 -0.004394 0.015140 0.000000 0.000000 0.000000
# 4 0.000000 0.000000 0.000000 0.050160 0.000000 0.000000
# 5 0.000000 0.000000 0.000000 0.000000 0.046580 0.000000
# 6 0.000000 0.000000 0.000000 0.000000 0.000000 0.031798
#
#
# Mechanical properties :
#
#
# Convention : Reuss Voigt Hill
#
# Bulk Modulus (GPa) = 64.38388 67.98420 66.18404
# Shear Modulus (GPa) = 22.25021 23.67505 22.96263
#
# Velocity S-wave (km/s) = 3.78384 3.90311 3.84394
# Velocity P-wave (km/s) = 7.77942 8.00366 7.89233
#
# Compressibility (1/GPa) = 0.01553184
#
# Stress axis : x y z
#
# Youngs Moduli (GPa) = 46.86082 59.56976 66.05005
#
# Poissons Ratio (x) = 0.64715 0.23844
# Poissons Ratio (y) = 0.50908 0.29021
# Poissons Ratio (z) = 0.16917 0.26174
#
# Static dielectric constant tensor:
#      x y z
#    x 3.024680 0.000000 0.000000 
#    y 0.000000 2.908610 0.000000 
#    z 0.000000 0.000000 2.872590 
# 
# 
# High freq. dielectric constant tensor:
#      x y z
#    x 1.606760 0.000000 0.000000 
#    y 0.000000 1.589210 0.000000 
#    z 0.000000 0.000000 1.569620 
# 
# From -- ./inp_files/13014.got.cif
#   From: 2010.03.12/outbox.cif.g09.slc.cpg/sg38_7_cif.got.tgz:13014.got - 2010.04.14 02:38:36.
