data_PCOD8177865
_publ_section_title
;
Structure prediction by ZEFSAII (Michael W. Deem and Ramdas Pophale) SiO2 
 PCOD8177865
Probable space group: A M M 2
;
_chemical_formula_sum "Si O2"
_cell_formula_units_Z 64
_cell_length_a 8.805871
_cell_length_b 18.539972
_cell_length_c 26.200285
_cell_angle_alpha 90.000000
_cell_angle_beta 90.000000
_cell_angle_gamma 90.000000
_cell_volume 4277.474296
_symmetry_space_group_name_H-M "A M M 2"
_symmetry_group_IT_number 38
_symmetry_cell_setting 'orthorhombic'
loop_
_space_group_symop_operation_xyz
x,y,z
-x,-y,z
-x,y,z
x,-y,z
x,1/2+y,1/2+z
-x,1/2-y,1/2+z
-x,1/2+y,1/2+z
x,1/2-y,1/2+z
loop_
_atom_site_type_symbol
_atom_site_label
_atom_site_fract_x
_atom_site_fract_y
_atom_site_fract_z
Si Si1 0.675068 0.916714 0.168240
Si Si2 0.676839 0.581653 0.785311
Si Si3 0.322666 0.782090 0.524119
Si Si4 0.678021 0.582522 0.485462
Si Si5 0.176796 0.201859 0.931361
Si Si6 0.323430 0.579813 0.969586
Si Si7 0.178544 0.834344 0.079495
Si Si8 0.821909 0.839463 0.375717
O O1 0.500000 0.900675 0.155081
O O2 0.710297 0.898087 0.226889
O O3 0.783071 0.867117 0.134388
O O4 0.712057 0.000000 0.157026
O O5 0.500000 0.588311 0.797538
O O6 0.731712 0.500000 0.796603
O O7 0.766705 0.638013 0.819981
O O8 0.500000 0.763751 0.515735
O O9 0.217468 0.745700 0.481867
O O10 0.294361 0.868256 0.518911
O O11 0.261627 0.744761 0.576040
O O12 0.500000 0.591563 0.494292
O O13 0.724368 0.500000 0.476700
O O14 0.729367 0.626832 0.434468
O O15 0.762241 0.611920 0.535577
O O16 0.222268 0.254750 0.884376
O O17 0.000000 0.182586 0.930366
O O18 0.500000 0.576689 0.956943
O O19 0.260596 0.500000 0.982884
O O20 0.247704 0.608895 0.918419
O O21 0.000000 0.824084 0.074289
O O22 0.000000 0.848945 0.379906
#
# Coordination Sequence:
#
# PCOD8177865 Si02
#       8
#     8   8   8   8   8   8   8   8
#     4   9  18  32  46  59  78 105 138 173 204 235
#     4   9  18  31  45  60  79 106 139 172 203 235
#     4   9  16  27  42  57  77 106 136 167 201 236
#     4  10  19  29  42  60  81 106 137 170 202 238
#     4   9  17  28  40  56  80 107 135 166 198 236
#     4   9  17  28  42  60  81 107 140 172 200 235
#     4  11  20  28  41  60  82 108 137 167 201 242
#     4  10  19  28  40  60  84 110 138 167 201 239
#
# _framework density 14.962101000000001
#
# number of rings (size 3 to 8) (size 9 to 14) (size 15 to 20)
#    0.000    2.500    0.000    5.625    0.000    7.250 
#    0.000    1.250    0.000    0.000    0.000    0.000 
#    0.000    1.000    0.000    9.000    0.000    5.250 
#
# Total GULP energy -396548.038142 kJ/mol
# GULP energy per Si atom -12392.126192 kJ/mol
# Density = 1.492805 g / cm^3
# Si number density = 14.962101 Si / 1000 Ang^3
#
#
#
# Elastic Constant Matrix: (Units=GPa)
#
#
# Indices 1 2 3 4 5 6 
#
# 1 48.5810 41.7074 23.1670 0.0000 0.0000 0.0000
# 2 41.7074 118.5989 50.1985 0.0000 0.0000 0.0000
# 3 23.1670 50.1985 60.5156 0.0000 0.0000 0.0000
# 4 0.0000 0.0000 0.0000 26.3103 0.0000 0.0000
# 5 0.0000 0.0000 0.0000 0.0000 17.2905 0.0000
# 6 0.0000 0.0000 0.0000 0.0000 0.0000 15.4592
#
#
#
# Elastic Compliance Matrix: (Units=1/GPa)
#
#
# Indices 1 2 3 4 5 6 
#
# 1 0.030175 -0.008818 -0.004237 0.000000 0.000000 0.000000
# 2 -0.008818 0.015571 -0.009540 0.000000 0.000000 0.000000
# 3 -0.004237 -0.009540 0.026061 0.000000 0.000000 0.000000
# 4 0.000000 0.000000 0.000000 0.038008 0.000000 0.000000
# 5 0.000000 0.000000 0.000000 0.000000 0.057835 0.000000
# 6 0.000000 0.000000 0.000000 0.000000 0.000000 0.064686
#
#
# Mechanical properties :
#
#
# Convention : Reuss Voigt Hill
#
# Bulk Modulus (GPa) = 37.57224 50.87124 44.22174
# Shear Modulus (GPa) = 17.45811 19.32019 18.38915
#
# Velocity S-wave (km/s) = 3.41958 3.59733 3.50958
# Velocity P-wave (km/s) = 6.38416 7.16437 6.78549
#
# Compressibility (1/GPa) = 0.02661539
#
# Stress axis : x y z
#
# Youngs Moduli (GPa) = 33.13967 64.22185 38.37207
#
# Poissons Ratio (x) = 0.56633 0.16258
# Poissons Ratio (y) = 0.29224 0.36609
# Poissons Ratio (z) = 0.14041 0.61271
#
# Static dielectric constant tensor:
#      x y z
#    x 2.923430 0.000000 0.000000 
#    y 0.000000 3.356560 0.000000 
#    z 0.000000 0.000000 2.782480 
# 
# 
# High freq. dielectric constant tensor:
#      x y z
#    x 1.583360 0.000000 0.000000 
#    y 0.000000 1.568070 0.000000 
#    z 0.000000 0.000000 1.534870 
# 
# From -- ./inp_files/23638.got.cif
#   From: 2010.03.12/outbox.cif.g09.slc.cpg/sg38_12_cif.got.tgz:23638.got - 2010.04.14 02:38:36.
