data_PCOD8177238
_publ_section_title
;
Structure prediction by ZEFSAII (Michael W. Deem and Ramdas Pophale) SiO2 
 PCOD8177238
Probable space group: A M M 2
;
_chemical_formula_sum "Si O2"
_cell_formula_units_Z 56
_cell_length_a 8.759829
_cell_length_b 29.409178
_cell_length_c 13.962195
_cell_angle_alpha 90.000000
_cell_angle_beta 90.000000
_cell_angle_gamma 90.000000
_cell_volume 3596.931884
_symmetry_space_group_name_H-M "A M M 2"
_symmetry_group_IT_number 38
_symmetry_cell_setting 'orthorhombic'
loop_
_space_group_symop_operation_xyz
x,y,z
-x,-y,z
-x,y,z
x,-y,z
x,1/2+y,1/2+z
-x,1/2-y,1/2+z
-x,1/2+y,1/2+z
x,1/2-y,1/2+z
loop_
_atom_site_type_symbol
_atom_site_label
_atom_site_fract_x
_atom_site_fract_y
_atom_site_fract_z
Si Si1 0.679047 0.320432 0.570570
Si Si2 0.318406 0.680454 0.149691
Si Si3 0.166562 0.000000 0.979755
Si Si4 0.181921 0.902914 0.966575
Si Si5 0.319109 0.731364 0.755483
Si Si6 0.681025 0.093081 0.760567
Si Si7 0.680989 0.729009 0.966271
Si Si8 0.168752 0.000000 0.752705
O O1 0.500000 0.330689 0.560666
O O2 0.773260 0.364887 0.542565
O O3 0.724450 0.308027 0.679867
O O4 0.728684 0.279196 0.501527
O O5 0.500000 0.682724 0.150447
O O6 0.254899 0.719953 0.219925
O O7 0.262121 0.631385 0.185432
O O8 0.258288 0.691003 0.041578
O O9 0.247030 0.951952 0.006768
O O10 0.000000 0.000000 0.027966
O O11 0.153616 0.000000 0.865712
O O12 0.254440 0.892543 0.863696
O O13 0.000000 0.905979 0.954214
O O14 0.500000 0.734975 0.762427
O O15 0.249452 0.720047 0.860438
O O16 0.500000 0.091018 0.768501
O O17 0.741570 0.045169 0.720122
O O18 0.500000 0.726361 0.962920
O O19 0.000000 0.000000 0.705874
#
# Coordination Sequence:
#
# PCOD8177238 Si02
#       8
#     8   8   4   8   8   8   8   4
#     4   9  16  25  40  62  82 103 137 171 198 238
#     4   8  14  22  36  61  85 105 134 169 202 238
#     4   7  14  27  39  51  70  99 130 154 183 236
#     4  10  18  28  41  57  81 110 135 162 204 251
#     4   8  13  22  37  58  84 110 133 163 203 243
#     4  10  17  26  42  63  84 106 138 175 202 232
#     4   8  13  23  39  59  84 110 134 164 203 244
#     4   9  17  29  41  57  84 113 136 160 203 254
#
# _framework density 15.568823999999999
#
# number of rings (size 3 to 8) (size 9 to 14) (size 15 to 20)
#    0.000    3.286    0.000    4.500    0.000    2.286 
#    0.000    1.071    0.000   11.143    0.000    1.000 
#    0.000    5.714    0.000    0.000    0.000    0.000 
#
# Total GULP energy -346883.583646 kJ/mol
# GULP energy per Si atom -12388.699416 kJ/mol
# Density = 1.553339 g / cm^3
# Si number density = 15.568824 Si / 1000 Ang^3
#
#
#
# Elastic Constant Matrix: (Units=GPa)
#
#
# Indices 1 2 3 4 5 6 
#
# 1 36.8292 30.3389 16.8739 0.0000 0.0000 0.0000
# 2 30.3389 142.8826 70.0464 0.0000 0.0000 0.0000
# 3 16.8739 70.0464 118.0875 0.0000 0.0000 0.0000
# 4 0.0000 0.0000 0.0000 22.8894 0.0000 0.0000
# 5 0.0000 0.0000 0.0000 0.0000 5.5886 0.0000
# 6 0.0000 0.0000 0.0000 0.0000 0.0000 13.1142
#
#
#
# Elastic Compliance Matrix: (Units=1/GPa)
#
#
# Indices 1 2 3 4 5 6 
#
# 1 0.032960 -0.006613 -0.000787 0.000000 0.000000 0.000000
# 2 -0.006613 0.011195 -0.005696 0.000000 0.000000 0.000000
# 3 -0.000787 -0.005696 0.011959 0.000000 0.000000 0.000000
# 4 0.000000 0.000000 0.000000 0.043688 0.000000 0.000000
# 5 0.000000 0.000000 0.000000 0.000000 0.178935 0.000000
# 6 0.000000 0.000000 0.000000 0.000000 0.000000 0.076253
#
#
# Mechanical properties :
#
#
# Convention : Reuss Voigt Hill
#
# Bulk Modulus (GPa) = 33.41867 59.14641 46.28254
# Shear Modulus (GPa) = 12.78256 20.35443 16.56850
#
# Velocity S-wave (km/s) = 2.86848 3.61970 3.26576
# Velocity P-wave (km/s) = 5.69935 7.45268 6.63419
#
# Compressibility (1/GPa) = 0.02992340
#
# Stress axis : x y z
#
# Youngs Moduli (GPa) = 30.33941 89.32479 83.61642
#
# Poissons Ratio (x) = 0.59067 0.06584
# Poissons Ratio (y) = 0.20062 0.47626
# Poissons Ratio (z) = 0.02389 0.50877
#
# Static dielectric constant tensor:
#      x y z
#    x 2.627350 0.000000 0.000000 
#    y 0.000000 3.226340 0.000000 
#    z 0.000000 0.000000 3.148720 
# 
# 
# High freq. dielectric constant tensor:
#      x y z
#    x 1.562550 0.000000 0.000000 
#    y 0.000000 1.598670 0.000000 
#    z 0.000000 0.000000 1.571650 
# 
# From -- ./inp_files/13035.got.cif
#   From: 2010.03.12/outbox.cif.g09.slc.cpg/sg38_7_cif.got.tgz:13035.got - 2010.04.14 02:38:36.
