data_PCOD8177657
_publ_section_title
;
Structure prediction by ZEFSAII (Michael W. Deem and Ramdas Pophale) SiO2 
 PCOD8177657
Probable space group: A M M 2
;
_chemical_formula_sum "Si O2"
_cell_formula_units_Z 64
_cell_length_a 19.194295
_cell_length_b 9.179931
_cell_length_c 20.830440
_cell_angle_alpha 90.000000
_cell_angle_beta 90.000000
_cell_angle_gamma 90.000000
_cell_volume 3670.371515
_symmetry_space_group_name_H-M "A M M 2"
_symmetry_group_IT_number 38
_symmetry_cell_setting 'orthorhombic'
loop_
_space_group_symop_operation_xyz
x,y,z
-x,-y,z
-x,y,z
x,-y,z
x,1/2+y,1/2+z
-x,1/2-y,1/2+z
-x,1/2+y,1/2+z
x,1/2-y,1/2+z
loop_
_atom_site_type_symbol
_atom_site_label
_atom_site_fract_x
_atom_site_fract_y
_atom_site_fract_z
Si Si1 0.579964 0.328839 0.963240
Si Si2 0.077427 0.170181 0.199470
Si Si3 0.784982 0.671038 0.389381
Si Si4 0.706769 0.173425 0.013947
Si Si5 0.923172 0.669714 0.330908
Si Si6 0.779057 0.170861 0.144192
Si Si7 0.711345 0.168582 0.761374
Si Si8 0.577907 0.333966 0.333324
O O1 0.500000 0.292804 0.981834
O O2 0.594261 0.500000 0.964674
O O3 0.597244 0.270179 0.892286
O O4 0.630702 0.248676 0.013921
O O5 0.095367 0.248648 0.265668
O O6 0.138453 0.212330 0.149070
O O7 0.000000 0.216368 0.173847
O O8 0.078671 0.000000 0.214079
O O9 0.772699 0.500000 0.392482
O O10 0.750407 0.736640 0.453276
O O11 0.867309 0.710971 0.386034
O O12 0.749675 0.731199 0.324619
O O13 0.749758 0.224842 0.076171
O O14 0.697400 0.000000 0.012455
O O15 0.918266 0.500000 0.314193
O O16 0.000000 0.712494 0.356418
O O17 0.733727 0.243748 0.199386
O O18 0.768967 0.000000 0.151948
O O19 0.628867 0.193203 0.773186
O O20 0.730025 0.000000 0.750090
O O21 0.500000 0.303359 0.308289
O O22 0.586567 0.500000 0.358428
#
# Coordination Sequence:
#
# PCOD8177657 Si02
#       8
#     8   8   8   8   8   8   8   8
#     4  10  20  33  51  77 104 128 161 208 254 294
#     4   9  17  30  47  69  98 129 162 200 246 298
#     4   9  16  29  49  73  97 125 164 206 245 289
#     4  10  20  36  53  71 101 138 172 204 245 302
#     4   9  16  27  46  72  98 125 162 207 251 291
#     4  10  21  34  50  74 102 134 170 208 248 295
#     4  10  18  31  52  75 100 130 164 206 250 295
#     4   9  17  31  52  76 100 131 169 203 245 302
#
# _framework density 17.436927000000001
#
# number of rings (size 3 to 8) (size 9 to 14) (size 15 to 20)
#    0.000    2.500    2.500    0.375    0.000    1.750 
#    0.000    1.875    0.000    6.000    0.000    0.000 
#    0.000    5.000    0.000    0.000    0.000    0.000 
#
# Total GULP energy -396648.841103 kJ/mol
# GULP energy per Si atom -12395.276284 kJ/mol
# Density = 1.739724 g / cm^3
# Si number density = 17.436927 Si / 1000 Ang^3
#
#
#
# Elastic Constant Matrix: (Units=GPa)
#
#
# Indices 1 2 3 4 5 6 
#
# 1 144.6572 37.0804 73.8138 0.0000 0.0000 0.0000
# 2 37.0804 34.2117 31.1265 0.0000 0.0000 0.0000
# 3 73.8138 31.1265 111.9340 0.0000 0.0000 0.0000
# 4 0.0000 0.0000 0.0000 21.9430 0.0000 0.0000
# 5 0.0000 0.0000 0.0000 0.0000 28.7647 0.0000
# 6 0.0000 0.0000 0.0000 0.0000 0.0000 22.1931
#
#
#
# Elastic Compliance Matrix: (Units=1/GPa)
#
#
# Indices 1 2 3 4 5 6 
#
# 1 0.011729 -0.007598 -0.005622 0.000000 0.000000 0.000000
# 2 -0.007598 0.044051 -0.007239 0.000000 0.000000 0.000000
# 3 -0.005622 -0.007239 0.014654 0.000000 0.000000 0.000000
# 4 0.000000 0.000000 0.000000 0.045573 0.000000 0.000000
# 5 0.000000 0.000000 0.000000 0.000000 0.034765 0.000000
# 6 0.000000 0.000000 0.000000 0.000000 0.000000 0.045059
#
#
# Mechanical properties :
#
#
# Convention : Reuss Voigt Hill
#
# Bulk Modulus (GPa) = 33.87948 63.87160 48.87554
# Shear Modulus (GPa) = 20.27676 24.49899 22.38788
#
# Velocity S-wave (km/s) = 3.41378 3.75241 3.58709
# Velocity P-wave (km/s) = 5.91696 7.44874 6.72659
#
# Compressibility (1/GPa) = 0.02951639
#
# Stress axis : x y z
#
# Youngs Moduli (GPa) = 85.25810 22.70090 68.23950
#
# Poissons Ratio (x) = 0.17247 0.38363
# Poissons Ratio (y) = 0.64777 0.49402
# Poissons Ratio (z) = 0.47931 0.16434
#
# Static dielectric constant tensor:
#      x y z
#    x 3.709650 0.000000 0.000000 
#    y 0.000000 3.094040 0.000000 
#    z 0.000000 0.000000 3.082740 
# 
# 
# High freq. dielectric constant tensor:
#      x y z
#    x 1.696340 0.000000 0.000000 
#    y 0.000000 1.655340 0.000000 
#    z 0.000000 0.000000 1.638970 
# 
# From -- ./inp_files/18915.got.cif
#   From: 2010.03.12/outbox.cif.g09.slc.cpg/sg38_10_cif.got.tgz:18915.got - 2010.04.14 02:38:36.
