data_PCOD8177289
_publ_section_title
;
Structure prediction by ZEFSAII (Michael W. Deem and Ramdas Pophale) SiO2 
 PCOD8177289
Probable space group: A M M 2
;
_chemical_formula_sum "Si O2"
_cell_formula_units_Z 48
_cell_length_a 12.538055
_cell_length_b 11.911516
_cell_length_c 18.695397
_cell_angle_alpha 90.000000
_cell_angle_beta 90.000000
_cell_angle_gamma 90.000000
_cell_volume 2792.105994
_symmetry_space_group_name_H-M "A M M 2"
_symmetry_group_IT_number 38
_symmetry_cell_setting 'orthorhombic'
loop_
_space_group_symop_operation_xyz
x,y,z
-x,-y,z
-x,y,z
x,-y,z
x,1/2+y,1/2+z
-x,1/2-y,1/2+z
-x,1/2+y,1/2+z
x,1/2-y,1/2+z
loop_
_atom_site_type_symbol
_atom_site_label
_atom_site_fract_x
_atom_site_fract_y
_atom_site_fract_z
Si Si1 0.876000 0.128582 0.959150
Si Si2 0.500000 0.626444 0.880191
Si Si3 0.500000 0.373219 0.710126
Si Si4 0.619381 0.500000 0.203465
Si Si5 0.123478 0.626952 0.624567
Si Si6 0.705125 0.738353 0.207224
Si Si7 0.615369 0.500000 0.372356
Si Si8 0.296142 0.766297 0.876424
O O1 0.817200 0.233110 0.917605
O O2 0.000000 0.152023 0.947040
O O3 0.850250 0.000000 0.932877
O O4 0.845400 0.139432 0.042085
O O5 0.500000 0.500000 0.909657
O O6 0.500000 0.632153 0.795277
O O7 0.389452 0.684379 0.906595
O O8 0.500000 0.500000 0.681477
O O9 0.604461 0.311137 0.680863
O O10 0.500000 0.500000 0.168955
O O11 0.685630 0.610586 0.181350
O O12 0.604612 0.500000 0.287573
O O13 0.148503 0.500000 0.650557
O O14 0.188907 0.715930 0.670895
O O15 0.000000 0.654994 0.636906
O O16 0.720341 0.749639 0.292283
O O17 0.500000 0.500000 0.407889
O O18 0.672460 0.609398 0.399844
#
# Coordination Sequence:
#
# PCOD8177289 Si02
#       8
#     8   4   4   4   8   8   4   8
#     4   9  18  33  53  75  98 125 160 208 261 297
#     4   9  18  29  44  71 103 137 165 189 236 293
#     4   9  16  27  46  73 103 131 161 203 248 289
#     4   9  16  28  45  71 105 137 159 185 238 300
#     4   9  19  36  54  71  96 130 166 208 255 294
#     4  10  18  29  50  76 103 132 164 200 240 294
#     4   9  14  24  45  75 103 127 155 193 250 296
#     4  10  17  28  51  76 103 128 158 206 244 288
#
# _framework density 17.191324000000002
#
# number of rings (size 3 to 8) (size 9 to 14) (size 15 to 20)
#    0.000    2.667    2.500    1.500    0.000    1.333 
#    0.000    1.250    1.833    2.500    0.000    0.000 
#    0.000    0.000    0.000    0.000    0.000    0.000 
#
# Total GULP energy -297362.172036 kJ/mol
# GULP energy per Si atom -12390.090501 kJ/mol
# Density = 1.715220 g / cm^3
# Si number density = 17.191324 Si / 1000 Ang^3
#
#
#
# Elastic Constant Matrix: (Units=GPa)
#
#
# Indices 1 2 3 4 5 6 
#
# 1 108.1208 63.3651 41.2035 0.0000 0.0000 0.0000
# 2 63.3651 126.9464 31.4182 0.0000 0.0000 0.0000
# 3 41.2035 31.4182 36.9656 0.0000 0.0000 0.0000
# 4 0.0000 0.0000 0.0000 22.0240 0.0000 0.0000
# 5 0.0000 0.0000 0.0000 0.0000 7.8489 0.0000
# 6 0.0000 0.0000 0.0000 0.0000 0.0000 35.6855
#
#
#
# Elastic Compliance Matrix: (Units=1/GPa)
#
#
# Indices 1 2 3 4 5 6 
#
# 1 0.018457 -0.005219 -0.016138 0.000000 0.000000 0.000000
# 2 -0.005219 0.011452 -0.003916 0.000000 0.000000 0.000000
# 3 -0.016138 -0.003916 0.048368 0.000000 0.000000 0.000000
# 4 0.000000 0.000000 0.000000 0.045405 0.000000 0.000000
# 5 0.000000 0.000000 0.000000 0.000000 0.127406 0.000000
# 6 0.000000 0.000000 0.000000 0.000000 0.000000 0.028023
#
#
# Mechanical properties :
#
#
# Convention : Reuss Voigt Hill
#
# Bulk Modulus (GPa) = 36.05911 60.44519 48.25215
# Shear Modulus (GPa) = 14.75365 22.18141 18.46753
#
# Velocity S-wave (km/s) = 2.93269 3.59593 3.28111
# Velocity P-wave (km/s) = 5.69985 7.24414 6.51789
#
# Compressibility (1/GPa) = 0.02773224
#
# Stress axis : x y z
#
# Youngs Moduli (GPa) = 54.17856 87.32471 20.67486
#
# Poissons Ratio (x) = 0.45575 0.33364
# Poissons Ratio (y) = 0.28276 0.08095
# Poissons Ratio (z) = 0.87432 0.34193
#
# Static dielectric constant tensor:
#      x y z
#    x 3.298040 0.000000 0.000000 
#    y 0.000000 3.228550 0.000000 
#    z 0.000000 0.000000 2.756460 
# 
# 
# High freq. dielectric constant tensor:
#      x y z
#    x 1.673450 0.000000 0.000000 
#    y 0.000000 1.657750 0.000000 
#    z 0.000000 0.000000 1.620530 
# 
# From -- ./inp_files/20655.got.cif
#   From: 2010.03.12/outbox.cif.g09.slc.cpg/sg38_11_cif.got.tgz:20655.got - 2010.04.14 02:38:36.
