data_PCOD8177978
_publ_section_title
;
Structure prediction by ZEFSAII (Michael W. Deem and Ramdas Pophale) SiO2 
 PCOD8177978
Probable space group: A M M 2
;
_chemical_formula_sum "Si O2"
_cell_formula_units_Z 40
_cell_length_a 7.912338
_cell_length_b 9.784907
_cell_length_c 29.064466
_cell_angle_alpha 90.000000
_cell_angle_beta 90.000000
_cell_angle_gamma 90.000000
_cell_volume 2250.214307
_symmetry_space_group_name_H-M "A M M 2"
_symmetry_group_IT_number 38
_symmetry_cell_setting 'orthorhombic'
loop_
_space_group_symop_operation_xyz
x,y,z
-x,-y,z
-x,y,z
x,-y,z
x,1/2+y,1/2+z
-x,1/2-y,1/2+z
-x,1/2+y,1/2+z
x,1/2-y,1/2+z
loop_
_atom_site_type_symbol
_atom_site_label
_atom_site_fract_x
_atom_site_fract_y
_atom_site_fract_z
Si Si1 0.813848 0.337666 0.278360
Si Si2 0.187354 0.162557 0.999677
Si Si3 0.500000 0.336750 0.336586
Si Si4 0.196990 0.654191 0.603238
Si Si5 0.500000 0.663168 0.440623
Si Si6 0.692741 0.847838 0.681968
O O1 0.797041 0.500000 0.278001
O O2 0.668346 0.277990 0.311699
O O3 0.792440 0.285987 0.225807
O O4 0.000000 0.291965 0.296138
O O5 0.331195 0.220479 0.965611
O O6 0.000000 0.217819 0.985505
O O7 0.182672 0.000000 0.998079
O O8 0.232058 0.208046 0.051620
O O9 0.500000 0.500000 0.336234
O O10 0.500000 0.281638 0.388679
O O11 0.266292 0.500000 0.609074
O O12 0.293481 0.751857 0.637990
O O13 0.000000 0.658790 0.614462
O O14 0.500000 0.500000 0.442380
O O15 0.500000 0.856630 0.697831
O O16 0.760044 0.000000 0.669299
#
# Coordination Sequence:
#
# PCOD8177978 Si02
#       6
#     8   8   4   8   4   8
#     4   9  16  27  42  58  83 118 148 182 229 270
#     4   8  15  27  40  58  85 114 146 182 221 268
#     4   9  16  26  37  58  85 109 149 189 218 271
#     4   9  18  31  46  66  93 124 158 192 225 271
#     4   9  16  24  39  58  81 115 147 181 226 269
#     4  10  19  30  45  67  95 124 157 193 226 272
#
# _framework density 17.776084000000001
#
# number of rings (size 3 to 8) (size 9 to 14) (size 15 to 20)
#    0.000    3.000    1.000    1.800    1.400    2.400 
#    0.000    4.000    0.000    0.000    0.000    0.000 
#    0.000    3.200    0.000    5.600    0.000    6.400 
#
# Total GULP energy -247879.313574 kJ/mol
# GULP energy per Si atom -12393.965679 kJ/mol
# Density = 1.773562 g / cm^3
# Si number density = 17.776084 Si / 1000 Ang^3
#
#
#
# Elastic Constant Matrix: (Units=GPa)
#
#
# Indices 1 2 3 4 5 6 
#
# 1 134.7149 14.4045 79.2516 0.0000 0.0000 0.0000
# 2 14.4045 24.6611 24.1148 0.0000 0.0000 0.0000
# 3 79.2516 24.1148 136.1758 0.0000 0.0000 0.0000
# 4 0.0000 0.0000 0.0000 15.4847 0.0000 0.0000
# 5 0.0000 0.0000 0.0000 0.0000 27.2804 0.0000
# 6 0.0000 0.0000 0.0000 0.0000 0.0000 11.4136
#
#
#
# Elastic Compliance Matrix: (Units=1/GPa)
#
#
# Indices 1 2 3 4 5 6 
#
# 1 0.011289 -0.000205 -0.006533 0.000000 0.000000 0.000000
# 2 -0.000205 0.049046 -0.008566 0.000000 0.000000 0.000000
# 3 -0.006533 -0.008566 0.012663 0.000000 0.000000 0.000000
# 4 0.000000 0.000000 0.000000 0.064580 0.000000 0.000000
# 5 0.000000 0.000000 0.000000 0.000000 0.036656 0.000000
# 6 0.000000 0.000000 0.000000 0.000000 0.000000 0.087615
#
#
# Mechanical properties :
#
#
# Convention : Reuss Voigt Hill
#
# Bulk Modulus (GPa) = 23.59153 59.01040 41.30097
# Shear Modulus (GPa) = 16.30862 22.68779 19.49821
#
# Velocity S-wave (km/s) = 3.03223 3.57642 3.31551
# Velocity P-wave (km/s) = 5.05564 7.09387 6.15965
#
# Compressibility (1/GPa) = 0.04238809
#
# Stress axis : x y z
#
# Youngs Moduli (GPa) = 88.58533 20.38920 78.97230
#
# Poissons Ratio (x) = 0.00418 0.51596
# Poissons Ratio (y) = 0.01816 0.67647
# Poissons Ratio (z) = 0.57876 0.17465
#
# Static dielectric constant tensor:
#      x y z
#    x 3.560750 0.000000 0.000000 
#    y 0.000000 2.647410 0.000000 
#    z 0.000000 0.000000 3.353170 
# 
# 
# High freq. dielectric constant tensor:
#      x y z
#    x 1.704390 0.000000 0.000000 
#    y 0.000000 1.603540 0.000000 
#    z 0.000000 0.000000 1.688130 
# 
# From -- ./inp_files/23191.got.cif
#   From: 2010.03.12/outbox.cif.g09.slc.cpg/sg38_12_cif.got.tgz:23191.got - 2010.04.14 02:38:36.
