data_PCOD8177182
_publ_section_title
;
Structure prediction by ZEFSAII (Michael W. Deem and Ramdas Pophale) SiO2 
 PCOD8177182
Probable space group: C C C 2
;
_chemical_formula_sum "Si O2"
_cell_formula_units_Z 36
_cell_length_a 19.804813
_cell_length_b 7.616876
_cell_length_c 10.114890
_cell_angle_alpha 90.000000
_cell_angle_beta 90.000000
_cell_angle_gamma 90.000000
_cell_volume 1525.839297
_symmetry_space_group_name_H-M "C C C 2"
_symmetry_group_IT_number 37
_symmetry_cell_setting 'orthorhombic'
loop_
_space_group_symop_operation_xyz
x,y,z
-x,-y,z
-x,y,1/2+z
x,-y,1/2+z
1/2+x,1/2+y,z
1/2-x,1/2-y,z
1/2-x,1/2+y,1/2+z
1/2+x,1/2-y,1/2+z
loop_
_atom_site_type_symbol
_atom_site_label
_atom_site_fract_x
_atom_site_fract_y
_atom_site_fract_z
Si Si1 0.251194 0.453164 0.086130
Si Si2 0.950291 0.842629 0.707095
Si Si3 0.621707 0.852866 0.480050
Si Si4 0.000000 0.500000 0.844429
Si Si5 0.165749 0.957202 0.840413
O O1 0.250000 0.250000 0.056677
O O2 0.180066 0.546255 0.059579
O O3 0.274627 0.493182 0.235619
O O4 0.307688 0.523853 0.988582
O O5 0.911658 0.791403 0.574637
O O6 0.992978 0.676257 0.758334
O O7 0.897025 0.913457 0.815748
O O8 0.000000 0.000000 0.668918
O O9 0.566392 0.994397 0.435727
O O10 0.645270 0.750316 0.345471
#
# Coordination Sequence:
#
# PCOD8177182 Si02
#       5
#     8   8   8   4   8
#     4  12  28  47  80 111 157 205 264 330 406 473
#     4  12  28  50  80 113 161 213 265 331 406 483
#     4  12  28  51  79 115 158 208 272 329 406 488
#     4  12  28  50  80 118 160 208 272 334 408 492
#     4  12  27  50  76 111 157 206 264 328 398 484
#
# _framework density 23.59357
#
# number of rings (size 3 to 8) (size 9 to 14) (size 15 to 20)
#    0.000    0.000    4.444    4.000   12.444    1.778 
#    0.000    0.000    0.000    0.000    0.000    0.000 
#    0.000    0.000    0.000    0.000    0.000    0.000 
#
# Total GULP energy -223230.004363 kJ/mol
# GULP energy per Si atom -12401.666909 kJ/mol
# Density = 2.353987 g / cm^3
# Si number density = 23.593570 Si / 1000 Ang^3
#
#
#
# Elastic Constant Matrix: (Units=GPa)
#
#
# Indices 1 2 3 4 5 6 
#
# 1 142.7448 71.9517 45.0960 0.0000 0.0000 0.0000
# 2 71.9517 158.4985 37.6926 0.0000 0.0000 0.0000
# 3 45.0960 37.6926 101.0336 0.0000 0.0000 0.0000
# 4 0.0000 0.0000 0.0000 43.7032 0.0000 0.0000
# 5 0.0000 0.0000 0.0000 0.0000 14.4192 0.0000
# 6 0.0000 0.0000 0.0000 0.0000 0.0000 52.7139
#
#
#
# Elastic Compliance Matrix: (Units=1/GPa)
#
#
# Indices 1 2 3 4 5 6 
#
# 1 0.009845 -0.003758 -0.002992 0.000000 0.000000 0.000000
# 2 -0.003758 0.008358 -0.001441 0.000000 0.000000 0.000000
# 3 -0.002992 -0.001441 0.011771 0.000000 0.000000 0.000000
# 4 0.000000 0.000000 0.000000 0.022882 0.000000 0.000000
# 5 0.000000 0.000000 0.000000 0.000000 0.069352 0.000000
# 6 0.000000 0.000000 0.000000 0.000000 0.000000 0.018970
#
#
# Mechanical properties :
#
#
# Convention : Reuss Voigt Hill
#
# Bulk Modulus (GPa) = 73.57346 79.08417 76.32882
# Shear Modulus (GPa) = 30.84716 38.66970 34.75843
#
# Velocity S-wave (km/s) = 3.61978 4.05284 3.84241
# Velocity P-wave (km/s) = 6.98010 7.44935 7.21854
#
# Compressibility (1/GPa) = 0.01359186
#
# Stress axis : x y z
#
# Youngs Moduli (GPa) = 101.57546 119.65130 84.95546
#
# Poissons Ratio (x) = 0.44960 0.25422
# Poissons Ratio (y) = 0.38167 0.12240
# Poissons Ratio (z) = 0.30396 0.17239
#
# Static dielectric constant tensor:
#      x y z
#    x 4.666320 0.000000 0.000000 
#    y 0.000000 3.746850 0.000000 
#    z 0.000000 0.000000 4.137940 
# 
# 
# High freq. dielectric constant tensor:
#      x y z
#    x 1.952630 0.000000 0.000000 
#    y 0.000000 1.948360 0.000000 
#    z 0.000000 0.000000 1.931120 
# 
# From -- ./inp_files/2118.got.cif
#   From: 2010.03.12/outbox.cif.g09.slc.cpg/sg37_2_cif.got.tgz:2118.got - 2010.04.14 02:25:27.
