data_PCOD8177749
_publ_section_title
;
Structure prediction by ZEFSAII (Michael W. Deem and Ramdas Pophale) SiO2 
 PCOD8177749
Probable space group: A M M 2
;
_chemical_formula_sum "Si O2"
_cell_formula_units_Z 40
_cell_length_a 9.621163
_cell_length_b 11.533128
_cell_length_c 19.707398
_cell_angle_alpha 90.000000
_cell_angle_beta 90.000000
_cell_angle_gamma 90.000000
_cell_volume 2186.774354
_symmetry_space_group_name_H-M "A M M 2"
_symmetry_group_IT_number 38
_symmetry_cell_setting 'orthorhombic'
loop_
_space_group_symop_operation_xyz
x,y,z
-x,-y,z
-x,y,z
x,-y,z
x,1/2+y,1/2+z
-x,1/2-y,1/2+z
-x,1/2+y,1/2+z
x,1/2-y,1/2+z
loop_
_atom_site_type_symbol
_atom_site_label
_atom_site_fract_x
_atom_site_fract_y
_atom_site_fract_z
Si Si1 0.659581 0.276693 0.657510
Si Si2 0.338007 0.633078 0.284300
Si Si3 0.839576 0.754113 0.900633
Si Si4 0.842996 0.000000 0.374960
Si Si5 0.163176 0.633912 0.540737
Si Si6 0.341818 0.500000 0.744350
O O1 0.500000 0.274355 0.632945
O O2 0.694027 0.167628 0.706123
O O3 0.756965 0.279829 0.591578
O O4 0.694890 0.389474 0.700372
O O5 0.500000 0.655533 0.299800
O O6 0.295995 0.500000 0.294062
O O7 0.250700 0.711005 0.335757
O O8 0.815333 0.617481 0.917973
O O9 0.000000 0.779211 0.882947
O O10 0.792795 0.829249 0.965090
O O11 0.748401 0.000000 0.310266
O O12 0.000000 0.000000 0.347883
O O13 0.207109 0.500000 0.551545
O O14 0.000000 0.651713 0.552332
O O15 0.500000 0.500000 0.768572
#
# Coordination Sequence:
#
# PCOD8177749 Si02
#       6
#     8   8   8   4   8   4
#     4  10  20  35  55  79 107 137 174 221 268 316
#     4  10  21  37  57  81 109 141 178 221 268 318
#     4  10  21  37  56  80 110 142 178 221 267 316
#     4  10  20  34  56  82 108 139 176 219 266 317
#     4  10  21  36  54  77 107 142 179 220 265 314
#     4  10  18  32  56  82 106 133 172 221 268 317
#
# _framework density 18.291782000000001
#
# number of rings (size 3 to 8) (size 9 to 14) (size 15 to 20)
#    0.000    2.000    3.000    0.600    0.000    3.600 
#    1.800    0.000    0.000    0.000    0.000    0.000 
#    0.000    0.000    0.000    0.000    0.000    0.000 
#
# Total GULP energy -247989.962816 kJ/mol
# GULP energy per Si atom -12399.498141 kJ/mol
# Density = 1.825015 g / cm^3
# Si number density = 18.291782 Si / 1000 Ang^3
#
#
#
# Elastic Constant Matrix: (Units=GPa)
#
#
# Indices 1 2 3 4 5 6 
#
# 1 47.1634 22.5095 47.3591 0.0000 0.0000 0.0000
# 2 22.5095 83.9899 28.1015 0.0000 0.0000 0.0000
# 3 47.3591 28.1015 96.7673 0.0000 0.0000 0.0000
# 4 0.0000 0.0000 0.0000 41.4592 0.0000 0.0000
# 5 0.0000 0.0000 0.0000 0.0000 38.8068 0.0000
# 6 0.0000 0.0000 0.0000 0.0000 0.0000 26.0116
#
#
#
# Elastic Compliance Matrix: (Units=1/GPa)
#
#
# Indices 1 2 3 4 5 6 
#
# 1 0.043527 -0.005026 -0.019843 0.000000 0.000000 0.000000
# 2 -0.005026 0.013768 -0.001538 0.000000 0.000000 0.000000
# 3 -0.019843 -0.001538 0.020492 0.000000 0.000000 0.000000
# 4 0.000000 0.000000 0.000000 0.024120 0.000000 0.000000
# 5 0.000000 0.000000 0.000000 0.000000 0.025769 0.000000
# 6 0.000000 0.000000 0.000000 0.000000 0.000000 0.038444
#
#
# Mechanical properties :
#
#
# Convention : Reuss Voigt Hill
#
# Bulk Modulus (GPa) = 40.04485 47.09565 43.57025
# Shear Modulus (GPa) = 22.00123 29.91889 25.96006
#
# Velocity S-wave (km/s) = 3.47189 4.04870 3.77134
# Velocity P-wave (km/s) = 6.16537 6.90353 6.54487
#
# Compressibility (1/GPa) = 0.02497200
#
# Stress axis : x y z
#
# Youngs Moduli (GPa) = 22.97412 72.63247 48.79885
#
# Poissons Ratio (x) = 0.36507 0.96832
# Poissons Ratio (y) = 0.11547 0.07507
# Poissons Ratio (z) = 0.45588 0.11173
#
# Static dielectric constant tensor:
#      x y z
#    x 3.253990 0.000000 0.000000 
#    y 0.000000 3.556790 0.000000 
#    z 0.000000 0.000000 3.299560 
# 
# 
# High freq. dielectric constant tensor:
#      x y z
#    x 1.705810 0.000000 0.000000 
#    y 0.000000 1.716720 0.000000 
#    z 0.000000 0.000000 1.697800 
# 
# From -- ./inp_files/19478.got.cif
#   From: 2010.03.12/outbox.cif.g09.slc.cpg/sg38_10_cif.got.tgz:19478.got - 2010.04.14 02:38:36.
