data_PCOD8177478
_publ_section_title
;
Structure prediction by ZEFSAII (Michael W. Deem and Ramdas Pophale) SiO2 
 PCOD8177478
Probable space group: A M M 2
;
_chemical_formula_sum "Si O2"
_cell_formula_units_Z 56
_cell_length_a 9.321133
_cell_length_b 14.429097
_cell_length_c 22.838757
_cell_angle_alpha 90.000000
_cell_angle_beta 90.000000
_cell_angle_gamma 90.000000
_cell_volume 3071.710778
_symmetry_space_group_name_H-M "A M M 2"
_symmetry_group_IT_number 38
_symmetry_cell_setting 'orthorhombic'
loop_
_space_group_symop_operation_xyz
x,y,z
-x,-y,z
-x,y,z
x,-y,z
x,1/2+y,1/2+z
-x,1/2-y,1/2+z
-x,1/2+y,1/2+z
x,1/2-y,1/2+z
loop_
_atom_site_type_symbol
_atom_site_label
_atom_site_fract_x
_atom_site_fract_y
_atom_site_fract_z
Si Si1 0.329325 0.726204 0.716440
Si Si2 0.669991 0.101160 0.451900
Si Si3 0.669970 0.397133 0.821440
Si Si4 0.670704 0.395034 0.606990
Si Si5 0.669950 0.794370 0.991315
Si Si6 0.162915 0.392813 0.390995
Si Si7 0.167283 0.394687 0.256653
O O1 0.500000 0.737149 0.715498
O O2 0.269199 0.676004 0.774786
O O3 0.275338 0.665768 0.661463
O O4 0.258513 0.827704 0.714445
O O5 0.500000 0.094825 0.447747
O O6 0.729427 0.123634 0.386584
O O7 0.715113 0.185138 0.494919
O O8 0.728867 0.000000 0.473464
O O9 0.500000 0.390497 0.820425
O O10 0.718130 0.500000 0.801898
O O11 0.500000 0.397219 0.605739
O O12 0.730797 0.500000 0.611551
O O13 0.731308 0.347267 0.547952
O O14 0.500000 0.804976 0.987703
O O15 0.731827 0.835872 0.932013
O O16 0.176288 0.500000 0.407803
O O17 0.210846 0.377309 0.324073
O O18 0.000000 0.358886 0.400394
O O19 0.204313 0.500000 0.238815
O O20 0.000000 0.374948 0.247538
#
# Coordination Sequence:
#
# PCOD8177478 Si02
#       7
#     8   8   8   8   8   8   8
#     4  10  18  29  48  71  92 120 162 203 234 274
#     4   8  14  24  39  63  92 117 147 191 237 277
#     4   8  13  22  39  64  91 117 147 188 238 284
#     4   9  18  31  46  69 102 132 156 191 241 286
#     4  10  18  29  48  72  97 129 167 200 231 273
#     4   9  18  32  49  70  97 127 156 191 242 296
#     4   9  19  35  51  68  95 128 156 189 243 301
#
# _framework density 18.230884
#
# number of rings (size 3 to 8) (size 9 to 14) (size 15 to 20)
#    0.000    3.000    0.000    3.429    0.000    4.571 
#    0.000    2.857    0.000    5.571    0.000    6.000 
#    0.000    0.000    0.000    0.000    0.000    0.000 
#
# Total GULP energy -347026.615648 kJ/mol
# GULP energy per Si atom -12393.807702 kJ/mol
# Density = 1.818939 g / cm^3
# Si number density = 18.230884 Si / 1000 Ang^3
#
#
#
# Elastic Constant Matrix: (Units=GPa)
#
#
# Indices 1 2 3 4 5 6 
#
# 1 21.8753 32.5856 21.1482 0.0000 0.0000 0.0000
# 2 32.5856 157.7335 76.7573 0.0000 0.0000 0.0000
# 3 21.1482 76.7573 77.8559 0.0000 0.0000 0.0000
# 4 0.0000 0.0000 0.0000 34.7389 0.0000 0.0000
# 5 0.0000 0.0000 0.0000 0.0000 14.7620 0.0000
# 6 0.0000 0.0000 0.0000 0.0000 0.0000 14.8373
#
#
#
# Elastic Compliance Matrix: (Units=1/GPa)
#
#
# Indices 1 2 3 4 5 6 
#
# 1 0.069193 -0.009896 -0.009039 0.000000 0.000000 0.000000
# 2 -0.009896 0.013602 -0.010722 0.000000 0.000000 0.000000
# 3 -0.009039 -0.010722 0.025870 0.000000 0.000000 0.000000
# 4 0.000000 0.000000 0.000000 0.028786 0.000000 0.000000
# 5 0.000000 0.000000 0.000000 0.000000 0.067742 0.000000
# 6 0.000000 0.000000 0.000000 0.000000 0.000000 0.067397
#
#
# Mechanical properties :
#
#
# Convention : Reuss Voigt Hill
#
# Bulk Modulus (GPa) = 20.26275 57.60521 38.93398
# Shear Modulus (GPa) = 14.35327 21.33255 17.84291
#
# Velocity S-wave (km/s) = 2.80894 3.42443 3.13184
# Velocity P-wave (km/s) = 4.65391 6.87763 5.87200
#
# Compressibility (1/GPa) = 0.04935165
#
# Stress axis : x y z
#
# Youngs Moduli (GPa) = 14.45237 73.52098 38.65504
#
# Poissons Ratio (x) = 0.72754 0.34940
# Poissons Ratio (y) = 0.14302 0.41445
# Poissons Ratio (z) = 0.13063 0.78827
#
# Static dielectric constant tensor:
#      x y z
#    x 2.795810 0.000000 0.000000 
#    y 0.000000 3.713520 0.000000 
#    z 0.000000 0.000000 3.356600 
# 
# 
# High freq. dielectric constant tensor:
#      x y z
#    x 1.649310 0.000000 0.000000 
#    y 0.000000 1.724660 0.000000 
#    z 0.000000 0.000000 1.691060 
# 
# From -- ./inp_files/19813.got.cif
#   From: 2010.03.12/outbox.cif.g09.slc.cpg/sg38_10_cif.got.tgz:19813.got - 2010.04.14 02:38:36.
