data_PCOD8177355
_publ_section_title
;
Structure prediction by ZEFSAII (Michael W. Deem and Ramdas Pophale) SiO2 
 PCOD8177355
Probable space group: A M M 2
;
_chemical_formula_sum "Si O2"
_cell_formula_units_Z 64
_cell_length_a 8.482923
_cell_length_b 18.710473
_cell_length_c 26.520384
_cell_angle_alpha 90.000000
_cell_angle_beta 90.000000
_cell_angle_gamma 90.000000
_cell_volume 4209.302135
_symmetry_space_group_name_H-M "A M M 2"
_symmetry_group_IT_number 38
_symmetry_cell_setting 'orthorhombic'
loop_
_space_group_symop_operation_xyz
x,y,z
-x,-y,z
-x,y,z
x,-y,z
x,1/2+y,1/2+z
-x,1/2-y,1/2+z
-x,1/2+y,1/2+z
x,1/2-y,1/2+z
loop_
_atom_site_type_symbol
_atom_site_label
_atom_site_fract_x
_atom_site_fract_y
_atom_site_fract_z
Si Si1 0.811778 0.579109 0.350340
Si Si2 0.683515 0.581585 0.536745
Si Si3 0.182365 0.082780 0.142994
Si Si4 0.817502 0.789875 0.795206
Si Si5 0.811865 0.343893 0.742973
Si Si6 0.813352 0.581149 0.845210
Si Si7 0.184054 0.332297 0.446732
Si Si8 0.316768 0.712888 0.889159
O O1 0.738540 0.500000 0.344031
O O2 0.747429 0.629941 0.304087
O O3 0.757195 0.611994 0.403768
O O4 0.000000 0.575642 0.349042
O O5 0.500000 0.588977 0.525533
O O6 0.741584 0.500000 0.528234
O O7 0.718941 0.604860 0.593970
O O8 0.778045 0.634326 0.500691
O O9 0.254265 0.126696 0.190219
O O10 0.000000 0.101349 0.133206
O O11 0.203781 0.000000 0.156353
O O12 0.747747 0.738435 0.751088
O O13 0.795074 0.748222 0.847345
O O14 0.000000 0.798869 0.784160
O O15 0.755612 0.392788 0.789801
O O16 0.000000 0.345674 0.741425
O O17 0.756704 0.500000 0.852887
O O18 0.730533 0.628968 0.889143
O O19 0.000000 0.587783 0.850472
O O20 0.274197 0.255836 0.440578
O O21 0.000000 0.317564 0.442680
O O22 0.500000 0.721971 0.876431
#
# Coordination Sequence:
#
# PCOD8177355 Si02
#       8
#     8   8   8   8   8   8   8   8
#     4   8  13  21  36  58  79  99 127 162 195 229
#     4  10  20  31  41  57  82 106 129 164 209 248
#     4   9  16  26  40  56  74 100 135 170 201 236
#     4   8  14  25  39  55  77 105 136 168 200 237
#     4   8  13  23  40  59  77 102 138 173 201 230
#     4   9  16  27  43  61  82 109 140 171 201 235
#     4  10  18  29  44  58  75 104 141 171 197 235
#     4  10  18  27  39  57  82 107 132 165 204 243
#
# _framework density 15.204420000000001
#
# number of rings (size 3 to 8) (size 9 to 14) (size 15 to 20)
#    0.000    3.000    0.000    4.125    0.000    3.000 
#    0.000    2.500    0.000    6.375    0.000    0.000 
#    0.000    1.000    0.000    7.500    0.000    1.750 
#
# Total GULP energy -396430.331281 kJ/mol
# GULP energy per Si atom -12388.447853 kJ/mol
# Density = 1.516981 g / cm^3
# Si number density = 15.204420 Si / 1000 Ang^3
#
#
#
# Elastic Constant Matrix: (Units=GPa)
#
#
# Indices 1 2 3 4 5 6 
#
# 1 23.6376 20.1138 13.0531 0.0000 0.0000 0.0000
# 2 20.1138 125.7896 57.2470 0.0000 0.0000 0.0000
# 3 13.0531 57.2470 73.7040 0.0000 0.0000 0.0000
# 4 0.0000 0.0000 0.0000 27.9452 0.0000 0.0000
# 5 0.0000 0.0000 0.0000 0.0000 9.5133 0.0000
# 6 0.0000 0.0000 0.0000 0.0000 0.0000 13.1285
#
#
#
# Elastic Compliance Matrix: (Units=1/GPa)
#
#
# Indices 1 2 3 4 5 6 
#
# 1 0.049745 -0.006102 -0.004071 0.000000 0.000000 0.000000
# 2 -0.006102 0.013045 -0.009051 0.000000 0.000000 0.000000
# 3 -0.004071 -0.009051 0.021319 0.000000 0.000000 0.000000
# 4 0.000000 0.000000 0.000000 0.035784 0.000000 0.000000
# 5 0.000000 0.000000 0.000000 0.000000 0.105116 0.000000
# 6 0.000000 0.000000 0.000000 0.000000 0.000000 0.076170
#
#
# Mechanical properties :
#
#
# Convention : Reuss Voigt Hill
#
# Bulk Modulus (GPa) = 21.90024 44.88432 33.39228
# Shear Modulus (GPa) = 14.09053 18.96522 16.52787
#
# Velocity S-wave (km/s) = 3.04754 3.53561 3.30061
# Velocity P-wave (km/s) = 5.17866 6.80089 6.04444
#
# Compressibility (1/GPa) = 0.04566160
#
# Stress axis : x y z
#
# Youngs Moduli (GPa) = 20.10234 76.65913 46.90627
#
# Poissons Ratio (x) = 0.46775 0.19094
# Poissons Ratio (y) = 0.12266 0.42457
# Poissons Ratio (z) = 0.08183 0.69388
#
# Static dielectric constant tensor:
#      x y z
#    x 2.661270 0.000000 0.000000 
#    y 0.000000 3.349170 0.000000 
#    z 0.000000 0.000000 2.825400 
# 
# 
# High freq. dielectric constant tensor:
#      x y z
#    x 1.564830 0.000000 0.000000 
#    y 0.000000 1.579320 0.000000 
#    z 0.000000 0.000000 1.544790 
# 
# From -- ./inp_files/22293.got.cif
#   From: 2010.03.12/outbox.cif.g09.slc.cpg/sg38_12_cif.got.tgz:22293.got - 2010.04.14 02:38:36.
