data_PCOD8177072
_publ_section_title
;
Structure prediction by ZEFSAII (Michael W. Deem and Ramdas Pophale) SiO2 
 PCOD8177072
Probable space group: C C C 2
;
_chemical_formula_sum "Si O2"
_cell_formula_units_Z 60
_cell_length_a 18.484484
_cell_length_b 18.699132
_cell_length_c 7.965678
_cell_angle_alpha 90.000000
_cell_angle_beta 90.000000
_cell_angle_gamma 90.000000
_cell_volume 2753.287263
_symmetry_space_group_name_H-M "C C C 2"
_symmetry_group_IT_number 37
_symmetry_cell_setting 'orthorhombic'
loop_
_space_group_symop_operation_xyz
x,y,z
-x,-y,z
-x,y,1/2+z
x,-y,1/2+z
1/2+x,1/2+y,z
1/2-x,1/2-y,z
1/2-x,1/2+y,1/2+z
1/2+x,1/2-y,1/2+z
loop_
_atom_site_type_symbol
_atom_site_label
_atom_site_fract_x
_atom_site_fract_y
_atom_site_fract_z
Si Si1 0.084941 0.576229 0.357040
Si Si2 0.845859 0.342517 0.055372
Si Si3 0.550771 0.353648 0.652193
Si Si4 0.500000 0.500000 0.300871
Si Si5 0.910281 0.194933 0.995113
Si Si6 0.698178 0.415110 0.107907
Si Si7 0.853670 0.947383 0.951131
Si Si8 0.919062 0.578445 0.256916
O O1 0.127047 0.629885 0.235842
O O2 0.114851 0.497427 0.312868
O O3 0.094395 0.593173 0.556965
O O4 0.003090 0.579906 0.296950
O O5 0.763499 0.367898 0.035468
O O6 0.858807 0.257634 0.064640
O O7 0.884647 0.364199 0.881978
O O8 0.509011 0.426995 0.697761
O O9 0.583142 0.303750 0.795696
O O10 0.493333 0.302699 0.558757
O O11 0.621500 0.375798 0.546873
O O12 0.573933 0.491242 0.403674
O O13 0.875996 0.119992 0.047578
O O14 0.698382 0.417174 0.307976
O O15 0.697606 0.498482 0.053844
#
# Coordination Sequence:
#
# PCOD8177072 Si02
#       8
#     8   8   8   4   8   8   8   8
#     4  11  21  42  70  97 127 167 239 316 357 402
#     4  12  29  43  70  98 146 196 232 285 371 448
#     4  12  22  40  75 108 137 183 242 304 358 414
#     4  12  18  36  70 112 134 168 242 312 354 376
#     4  12  25  45  65 100 150 186 229 292 368 438
#     4  12  25  45  65 100 150 186 229 292 368 438
#     4  12  22  40  75 108 137 183 242 304 358 414
#     4  11  21  42  70  97 127 167 239 316 357 402
#
# _framework density 21.792133
#
# number of rings (size 3 to 8) (size 9 to 14) (size 15 to 20)
#    0.000    0.267    8.000    1.600    3.733    0.000 
#    4.800    0.000    0.000    0.000    0.000    0.000 
#    0.000    0.000    0.000    0.000    0.000    0.000 
#
# Total GULP energy -371764.847124 kJ/mol
# GULP energy per Si atom -12392.161571 kJ/mol
# Density = 2.174253 g / cm^3
# Si number density = 21.792133 Si / 1000 Ang^3
#
#
#
# Elastic Constant Matrix: (Units=GPa)
#
#
# Indices 1 2 3 4 5 6 
#
# 1 58.0321 33.7739 24.4505 0.0000 0.0000 0.0000
# 2 33.7739 51.5938 18.5638 0.0000 0.0000 0.0000
# 3 24.4505 18.5638 152.5988 0.0000 0.0000 0.0000
# 4 0.0000 0.0000 0.0000 20.4418 0.0000 0.0000
# 5 0.0000 0.0000 0.0000 0.0000 19.9982 0.0000
# 6 0.0000 0.0000 0.0000 0.0000 0.0000 43.7102
#
#
#
# Elastic Compliance Matrix: (Units=1/GPa)
#
#
# Indices 1 2 3 4 5 6 
#
# 1 0.028664 -0.017895 -0.002416 0.000000 0.000000 0.000000
# 2 -0.017895 0.031441 -0.000958 0.000000 0.000000 0.000000
# 3 -0.002416 -0.000958 0.007057 0.000000 0.000000 0.000000
# 4 0.000000 0.000000 0.000000 0.048919 0.000000 0.000000
# 5 0.000000 0.000000 0.000000 0.000000 0.050005 0.000000
# 6 0.000000 0.000000 0.000000 0.000000 0.000000 0.022878
#
#
# Mechanical properties :
#
#
# Convention : Reuss Voigt Hill
#
# Bulk Modulus (GPa) = 40.60846 46.20013 43.40430
# Shear Modulus (GPa) = 20.85870 29.19247 25.02558
#
# Velocity S-wave (km/s) = 3.09717 3.66401 3.39245
# Velocity P-wave (km/s) = 5.60935 6.25670 5.94185
#
# Compressibility (1/GPa) = 0.02462541
#
# Stress axis : x y z
#
# Youngs Moduli (GPa) = 34.88677 31.80585 141.70900
#
# Poissons Ratio (x) = 0.56915 0.34235
# Poissons Ratio (y) = 0.62429 0.13570
# Poissons Ratio (z) = 0.08428 0.03046
#
# Static dielectric constant tensor:
#      x y z
#    x 3.894770 0.000000 0.000000 
#    y 0.000000 3.986700 0.000000 
#    z 0.000000 0.000000 4.228720 
# 
# 
# High freq. dielectric constant tensor:
#      x y z
#    x 1.843650 0.000000 0.000000 
#    y 0.000000 1.842530 0.000000 
#    z 0.000000 0.000000 1.868690 
# 
# From -- ./inp_files/4094.got.cif
#   From: 2010.03.12/outbox.cif.g09.slc.cpg/sg37_3_cif.got.tgz:4094.got - 2010.04.14 02:25:27.
