data_PCOD8177102
_publ_section_title
;
Structure prediction by ZEFSAII (Michael W. Deem and Ramdas Pophale) SiO2 
 PCOD8177102
Probable space group: C C C 2
;
_chemical_formula_sum "Si O2"
_cell_formula_units_Z 64
_cell_length_a 14.747573
_cell_length_b 12.144022
_cell_length_c 16.197220
_cell_angle_alpha 90.000000
_cell_angle_beta 90.000000
_cell_angle_gamma 90.000000
_cell_volume 2900.838702
_symmetry_space_group_name_H-M "C C C 2"
_symmetry_group_IT_number 37
_symmetry_cell_setting 'orthorhombic'
loop_
_space_group_symop_operation_xyz
x,y,z
-x,-y,z
-x,y,1/2+z
x,-y,1/2+z
1/2+x,1/2+y,z
1/2-x,1/2-y,z
1/2-x,1/2+y,1/2+z
1/2+x,1/2-y,1/2+z
loop_
_atom_site_type_symbol
_atom_site_label
_atom_site_fract_x
_atom_site_fract_y
_atom_site_fract_z
Si Si1 0.076893 0.416437 0.599640
Si Si2 0.345706 0.750427 0.462573
Si Si3 0.238099 0.001889 0.169472
Si Si4 0.681990 0.841523 0.290478
Si Si5 0.099191 0.499468 0.419323
Si Si6 0.491136 0.260301 0.207133
Si Si7 0.829812 0.174522 0.285658
Si Si8 0.075283 0.916324 0.579666
O O1 0.173456 0.434282 0.642792
O O2 0.091946 0.425011 0.501598
O O3 0.000000 0.500000 0.631204
O O4 0.034286 0.301132 0.627527
O O5 0.250000 0.750000 0.512522
O O6 0.323743 0.671474 0.384496
O O7 0.419405 0.688513 0.518491
O O8 0.373988 0.874890 0.440148
O O9 0.181747 0.942502 0.242100
O O10 0.269664 0.117472 0.207133
O O11 0.172122 0.021721 0.090807
O O12 0.750000 0.750000 0.329585
O O13 0.669020 0.941516 0.356189
O O14 0.584716 0.797456 0.262520
O O15 0.000000 0.500000 0.376965
O O16 0.571249 0.277421 0.270975
O O17 0.453069 0.374216 0.170559
O O18 0.750000 0.250000 0.248352
O O19 0.000000 0.000000 0.544205
#
# Coordination Sequence:
#
# PCOD8177102 Si02
#       8
#     8   8   8   8   8   8   8   8
#     4  11  23  41  70 100 133 175 229 291 343 404
#     4  11  25  46  72  97 139 186 231 282 355 428
#     4  12  24  42  69 102 132 180 236 283 342 415
#     4  12  26  43  69 102 143 182 229 292 353 414
#     4  11  25  46  68 104 138 180 234 289 349 425
#     4  12  24  42  69 102 135 181 230 288 344 408
#     4  11  23  44  67 100 135 176 227 284 344 412
#     4  12  26  46  66 103 143 182 234 289 350 422
#
# _framework density 22.062584000000001
#
# number of rings (size 3 to 8) (size 9 to 14) (size 15 to 20)
#    0.000    0.500    5.000    4.500    3.500    0.000 
#    4.500    3.750    0.000    0.000    0.000    0.000 
#    0.000    0.000    0.000    0.000    0.000    0.000 
#
# Total GULP energy -396695.245324 kJ/mol
# GULP energy per Si atom -12396.726416 kJ/mol
# Density = 2.201237 g / cm^3
# Si number density = 22.062584 Si / 1000 Ang^3
#
#
#
# Elastic Constant Matrix: (Units=GPa)
#
#
# Indices 1 2 3 4 5 6 
#
# 1 158.7175 60.0264 36.4150 0.0000 0.0000 0.0000
# 2 60.0264 96.3515 30.0456 0.0000 0.0000 0.0000
# 3 36.4150 30.0456 75.0152 0.0000 0.0000 0.0000
# 4 0.0000 0.0000 0.0000 34.7441 0.0000 0.0000
# 5 0.0000 0.0000 0.0000 0.0000 26.4215 0.0000
# 6 0.0000 0.0000 0.0000 0.0000 0.0000 43.4178
#
#
#
# Elastic Compliance Matrix: (Units=1/GPa)
#
#
# Indices 1 2 3 4 5 6 
#
# 1 0.008580 -0.004624 -0.002313 0.000000 0.000000 0.000000
# 2 -0.004624 0.014352 -0.003504 0.000000 0.000000 0.000000
# 3 -0.002313 -0.003504 0.015857 0.000000 0.000000 0.000000
# 4 0.000000 0.000000 0.000000 0.028782 0.000000 0.000000
# 5 0.000000 0.000000 0.000000 0.000000 0.037848 0.000000
# 6 0.000000 0.000000 0.000000 0.000000 0.000000 0.023032
#
#
# Mechanical properties :
#
#
# Convention : Reuss Voigt Hill
#
# Bulk Modulus (GPa) = 55.84304 64.78426 60.31365
# Shear Modulus (GPa) = 32.19555 34.48982 33.34268
#
# Velocity S-wave (km/s) = 3.82420 3.95811 3.89173
# Velocity P-wave (km/s) = 6.69817 7.09341 6.89862
#
# Compressibility (1/GPa) = 0.01790733
#
# Stress axis : x y z
#
# Youngs Moduli (GPa) = 116.55070 69.67694 63.06458
#
# Poissons Ratio (x) = 0.32219 0.14587
# Poissons Ratio (y) = 0.53893 0.22096
# Poissons Ratio (z) = 0.26958 0.24413
#
# Static dielectric constant tensor:
#      x y z
#    x 4.358330 0.000000 0.000000 
#    y 0.000000 3.861640 0.000000 
#    z 0.000000 0.000000 3.731510 
# 
# 
# High freq. dielectric constant tensor:
#      x y z
#    x 1.891800 0.000000 0.000000 
#    y 0.000000 1.862320 0.000000 
#    z 0.000000 0.000000 1.852270 
# 
# From -- ./inp_files/15297.got.cif
#   From: 2010.03.12/outbox.cif.g09.slc.cpg/sg37_8_cif.got.tgz:15297.got - 2010.04.14 02:25:27.
