data_PCOD8177787
_publ_section_title
;
Structure prediction by ZEFSAII (Michael W. Deem and Ramdas Pophale) SiO2 
 PCOD8177787
Probable space group: A M M 2
;
_chemical_formula_sum "Si O2"
_cell_formula_units_Z 40
_cell_length_a 8.463044
_cell_length_b 10.383163
_cell_length_c 23.180693
_cell_angle_alpha 90.000000
_cell_angle_beta 90.000000
_cell_angle_gamma 90.000000
_cell_volume 2036.960868
_symmetry_space_group_name_H-M "A M M 2"
_symmetry_group_IT_number 38
_symmetry_cell_setting 'orthorhombic'
loop_
_space_group_symop_operation_xyz
x,y,z
-x,-y,z
-x,y,z
x,-y,z
x,1/2+y,1/2+z
-x,1/2-y,1/2+z
-x,1/2+y,1/2+z
x,1/2-y,1/2+z
loop_
_atom_site_type_symbol
_atom_site_label
_atom_site_fract_x
_atom_site_fract_y
_atom_site_fract_z
Si Si1 0.317111 0.000000 0.495090
Si Si2 0.812553 0.248179 0.937877
Si Si3 0.811355 0.000000 0.138254
Si Si4 0.188511 0.260998 0.193811
Si Si5 0.187539 0.500000 0.508048
Si Si6 0.187477 0.144395 0.815969
Si Si7 0.814340 0.000000 0.621318
O O1 0.274623 0.875488 0.458147
O O2 0.220834 0.000000 0.554101
O O3 0.500000 0.000000 0.510533
O O4 0.759992 0.224467 0.871923
O O5 0.000000 0.266776 0.943884
O O6 0.751917 0.127756 0.975781
O O7 0.744899 0.874862 0.171182
O O8 0.746074 0.000000 0.072992
O O9 0.000000 0.000000 0.137389
O O10 0.250923 0.284036 0.258770
O O11 0.255764 0.372966 0.152115
O O12 0.000000 0.260145 0.192412
O O13 0.000000 0.500000 0.507010
O O14 0.000000 0.134261 0.814083
O O15 0.258085 0.000000 0.818670
O O16 0.000000 0.000000 0.630467
#
# Coordination Sequence:
#
# PCOD8177787 Si02
#       7
#     4   8   4   8   4   8   4
#     4  12  26  39  50  74 114 150 187 236 275 316
#     4  10  19  34  58  82 105 140 181 225 277 331
#     4   9  16  23  34  64 107 139 160 195 252 310
#     4   9  16  26  46  78 113 138 162 207 266 322
#     4   9  16  29  52  80 106 131 174 225 262 312
#     4   9  15  27  49  80 112 135 166 216 270 321
#     4  10  18  33  57  78 101 142 185 220 267 328
#
# _framework density 19.637097000000001
#
# number of rings (size 3 to 8) (size 9 to 14) (size 15 to 20)
#    0.000    2.400    2.000    2.100    0.000    4.000 
#    0.000    3.500    0.000    1.200    0.000    0.000 
#    0.000    0.000    0.000    0.000    0.000    0.000 
#
# Total GULP energy -247981.175851 kJ/mol
# GULP energy per Si atom -12399.058793 kJ/mol
# Density = 1.959240 g / cm^3
# Si number density = 19.637097 Si / 1000 Ang^3
#
#
#
# Elastic Constant Matrix: (Units=GPa)
#
#
# Indices 1 2 3 4 5 6 
#
# 1 9.2028 9.4975 -0.3899 0.0000 0.0000 0.0000
# 2 9.4975 188.9872 92.7122 0.0000 0.0000 0.0000
# 3 -0.3899 92.7122 181.4653 0.0000 0.0000 0.0000
# 4 0.0000 0.0000 0.0000 -52.6785 0.0000 0.0000
# 5 0.0000 0.0000 0.0000 0.0000 0.8613 0.0000
# 6 0.0000 0.0000 0.0000 0.0000 0.0000 -3.2373
#
#
#
# Elastic Compliance Matrix: (Units=1/GPa)
#
#
# Indices 1 2 3 4 5 6 
#
# 1 0.117123 -0.008019 0.004349 0.000000 0.000000 0.000000
# 2 -0.008019 0.007610 -0.003905 0.000000 0.000000 0.000000
# 3 0.004349 -0.003905 0.007515 0.000000 0.000000 0.000000
# 4 0.000000 0.000000 0.000000 -0.018983 0.000000 0.000000
# 5 0.000000 0.000000 0.000000 0.000000 1.161095 0.000000
# 6 0.000000 0.000000 0.000000 0.000000 0.000000 -0.308902
#
#
# Mechanical properties :
#
#
# Convention : Reuss Voigt Hill
#
# Bulk Modulus (GPa) = 8.53995 64.81055 36.67525
# Shear Modulus (GPa) = 4.90368 7.51146 6.20757
#
# Velocity S-wave (km/s) = 1.58195 1.95792 1.77989
# Velocity P-wave (km/s) = 2.77400 6.17957 4.78968
#
# Compressibility (1/GPa) = 0.11709671
#
# Stress axis : x y z
#
# Youngs Moduli (GPa) = 8.53803 131.40175 133.06136
#
# Poissons Ratio (x) = 1.05376 -0.57866
# Poissons Ratio (y) = 0.06847 0.51965
# Poissons Ratio (z) = -0.03713 0.51317
#
# Static dielectric constant tensor:
#      x y z
#    x 2.799250 0.000000 0.000000 
#    y 0.000000 3.794380 0.000000 
#    z 0.000000 0.000000 3.850880 
# 
# 
# High freq. dielectric constant tensor:
#      x y z
#    x 1.689420 0.000000 0.000000 
#    y 0.000000 1.777370 0.000000 
#    z 0.000000 0.000000 1.783450 
# 
# From -- ./inp_files/23307.got.cif
#   From: 2010.03.12/outbox.cif.g09.slc.cpg/sg38_12_cif.got.tgz:23307.got - 2010.04.14 02:38:36.
