data_PCOD8177297
_publ_section_title
;
Structure prediction by ZEFSAII (Michael W. Deem and Ramdas Pophale) SiO2 
 PCOD8177297
Probable space group: A M M 2
;
_chemical_formula_sum "Si O2"
_cell_formula_units_Z 64
_cell_length_a 9.147058
_cell_length_b 20.851036
_cell_length_c 19.874194
_cell_angle_alpha 90.000000
_cell_angle_beta 90.000000
_cell_angle_gamma 90.000000
_cell_volume 3790.518284
_symmetry_space_group_name_H-M "A M M 2"
_symmetry_group_IT_number 38
_symmetry_cell_setting 'orthorhombic'
loop_
_space_group_symop_operation_xyz
x,y,z
-x,-y,z
-x,y,z
x,-y,z
x,1/2+y,1/2+z
-x,1/2-y,1/2+z
-x,1/2+y,1/2+z
x,1/2-y,1/2+z
loop_
_atom_site_type_symbol
_atom_site_label
_atom_site_fract_x
_atom_site_fract_y
_atom_site_fract_z
Si Si1 0.171640 0.689543 0.710730
Si Si2 0.170915 0.236915 0.351330
Si Si3 0.329189 0.629895 0.356435
Si Si4 0.170895 0.731913 0.997990
Si Si5 0.827486 0.377047 0.488021
Si Si6 0.668996 0.072942 0.714696
Si Si7 0.173870 0.317076 0.136603
Si Si8 0.826349 0.429741 0.629275
O O1 0.208375 0.688403 0.790482
O O2 0.232566 0.754828 0.677378
O O3 0.242101 0.625932 0.676829
O O4 0.000000 0.687890 0.697222
O O5 0.261939 0.300970 0.340476
O O6 0.209929 0.203881 0.423546
O O7 0.000000 0.256227 0.350088
O O8 0.500000 0.637793 0.370381
O O9 0.254122 0.597193 0.421514
O O10 0.296199 0.584819 0.292991
O O11 0.233826 0.689552 0.059453
O O12 0.000000 0.733958 0.010115
O O13 0.227914 0.804741 0.002121
O O14 0.780370 0.419207 0.551847
O O15 0.000000 0.379825 0.474635
O O16 0.500000 0.086857 0.700020
O O17 0.762050 0.118258 0.666620
O O18 0.711238 0.000000 0.697532
O O19 0.000000 0.322083 0.141145
O O20 0.768009 0.500000 0.651854
O O21 0.000000 0.427547 0.634938
#
# Coordination Sequence:
#
# PCOD8177297 Si02
#       8
#     8   8   8   8   8   8   8   8
#     4   9  15  25  45  71  95 123 158 194 230 269
#     4   9  16  28  48  70  94 124 154 187 231 279
#     4  10  19  30  45  66  92 122 156 192 229 273
#     4   8  14  25  44  68  93 118 146 189 239 273
#     4   9  16  28  45  66  95 129 158 184 222 273
#     4  10  22  37  48  63  93 128 156 190 241 287
#     4  10  17  29  50  72  91 117 159 201 232 271
#     4   9  16  26  43  70 101 129 157 191 230 271
#
# _framework density 16.884235
#
# number of rings (size 3 to 8) (size 9 to 14) (size 15 to 20)
#    0.000    2.750    2.500    1.125    0.000    1.250 
#    0.000    2.500    0.000    1.500    0.000    3.500 
#    0.000    0.000    0.000    0.000    0.000    0.000 
#
# Total GULP energy -396561.098440 kJ/mol
# GULP energy per Si atom -12392.534326 kJ/mol
# Density = 1.684581 g / cm^3
# Si number density = 16.884235 Si / 1000 Ang^3
#
#
#
# Elastic Constant Matrix: (Units=GPa)
#
#
# Indices 1 2 3 4 5 6 
#
# 1 32.0643 24.0258 32.0107 0.0000 0.0000 0.0000
# 2 24.0258 107.1693 72.8688 0.0000 0.0000 0.0000
# 3 32.0107 72.8688 141.1212 0.0000 0.0000 0.0000
# 4 0.0000 0.0000 0.0000 25.3042 0.0000 0.0000
# 5 0.0000 0.0000 0.0000 0.0000 14.0875 0.0000
# 6 0.0000 0.0000 0.0000 0.0000 0.0000 11.4768
#
#
#
# Elastic Compliance Matrix: (Units=1/GPa)
#
#
# Indices 1 2 3 4 5 6 
#
# 1 0.041675 -0.004493 -0.007133 0.000000 0.000000 0.000000
# 2 -0.004493 0.014864 -0.006656 0.000000 0.000000 0.000000
# 3 -0.007133 -0.006656 0.012141 0.000000 0.000000 0.000000
# 4 0.000000 0.000000 0.000000 0.039519 0.000000 0.000000
# 5 0.000000 0.000000 0.000000 0.000000 0.070985 0.000000
# 6 0.000000 0.000000 0.000000 0.000000 0.000000 0.087132
#
#
# Mechanical properties :
#
#
# Convention : Reuss Voigt Hill
#
# Bulk Modulus (GPa) = 31.13711 59.79615 45.46663
# Shear Modulus (GPa) = 15.94456 20.27031 18.10744
#
# Velocity S-wave (km/s) = 3.07636 3.46865 3.27838
# Velocity P-wave (km/s) = 5.57675 7.17874 6.42785
#
# Compressibility (1/GPa) = 0.03211602
#
# Stress axis : x y z
#
# Youngs Moduli (GPa) = 23.99504 67.27712 82.36520
#
# Poissons Ratio (x) = 0.30226 0.58755
# Poissons Ratio (y) = 0.10780 0.54822
# Poissons Ratio (z) = 0.17117 0.44780
#
# Static dielectric constant tensor:
#      x y z
#    x 2.793780 0.000000 0.000000 
#    y 0.000000 3.092610 0.000000 
#    z 0.000000 0.000000 3.525060 
# 
# 
# High freq. dielectric constant tensor:
#      x y z
#    x 1.608570 0.000000 0.000000 
#    y 0.000000 1.625020 0.000000 
#    z 0.000000 0.000000 1.664690 
# 
# From -- ./inp_files/20049.got.cif
#   From: 2010.03.12/outbox.cif.g09.slc.cpg/sg38_11_cif.got.tgz:20049.got - 2010.04.14 02:38:36.
