data_PCOD8177186
_publ_section_title
;
Structure prediction by ZEFSAII (Michael W. Deem and Ramdas Pophale) SiO2 
 PCOD8177186
Probable space group: A M M 2
;
_chemical_formula_sum "Si O2"
_cell_formula_units_Z 64
_cell_length_a 36.096385
_cell_length_b 17.318949
_cell_length_c 5.312304
_cell_angle_alpha 90.000000
_cell_angle_beta 90.000000
_cell_angle_gamma 90.000000
_cell_volume 3320.994553
_symmetry_space_group_name_H-M "A M M 2"
_symmetry_group_IT_number 38
_symmetry_cell_setting 'orthorhombic'
loop_
_space_group_symop_operation_xyz
x,y,z
-x,-y,z
-x,y,z
x,-y,z
x,1/2+y,1/2+z
-x,1/2-y,1/2+z
-x,1/2+y,1/2+z
x,1/2-y,1/2+z
loop_
_atom_site_type_symbol
_atom_site_label
_atom_site_fract_x
_atom_site_fract_y
_atom_site_fract_z
Si Si1 0.736030 0.702882 0.174110
Si Si2 0.846275 0.590641 0.701772
Si Si3 0.540330 0.799475 0.161433
Si Si4 0.801690 0.589921 0.201522
Si Si5 0.043159 0.829371 0.699659
Si Si6 0.380602 0.841263 0.182810
Si Si7 0.073824 0.658951 0.699662
Si Si8 0.650165 0.168082 0.682958
O O1 0.744679 0.759614 0.404836
O O2 0.761774 0.628872 0.201713
O O3 0.693882 0.676499 0.188620
O O4 0.856201 0.500000 0.701512
O O5 0.823519 0.614145 0.453415
O O6 0.883017 0.641388 0.698808
O O7 0.824291 0.614463 0.953051
O O8 0.500000 0.841773 0.180710
O O9 0.543522 0.738849 0.387894
O O10 0.575135 0.857225 0.186441
O O11 0.793556 0.500000 0.199797
O O12 0.066703 0.750572 0.700127
O O13 0.054665 0.877409 0.450114
O O14 0.000000 0.809077 0.699008
O O15 0.054540 0.877353 0.949562
O O16 0.362223 0.878669 0.432342
O O17 0.370803 0.750176 0.178083
O O18 0.362802 0.878883 0.931566
#
# Coordination Sequence:
#
# PCOD8177186 Si02
#       8
#     8   8   8   8   8   8   8   8
#     4  12  21  35  52  82 102 126 168 223 253 296
#     4  10  21  40  59  74 100 139 176 208 244 300
#     4  10  16  20  29  45  67 105 157 189 211 274
#     4  10  23  42  57  73 105 147 172 201 266 323
#     4  10  19  33  53  76 112 143 160 198 257 297
#     4  10  14  25  36  51  83 119 145 185 248 297
#     4  10  18  32  53  79  98 132 174 202 237 292
#     4  10  16  25  41  58  86 113 146 191 244 296
#
# _framework density 19.271336999999999
#
# number of rings (size 3 to 8) (size 9 to 14) (size 15 to 20)
#    0.000    1.750    5.000    3.375    0.000    0.000 
#   13.500    0.000    0.000    4.125    0.000    0.000 
#    0.000    0.000    0.000    0.000    0.000    6.875 
#
# Total GULP energy -396545.097248 kJ/mol
# GULP energy per Si atom -12392.034289 kJ/mol
# Density = 1.922747 g / cm^3
# Si number density = 19.271337 Si / 1000 Ang^3
#
#
#
# Elastic Constant Matrix: (Units=GPa)
#
#
# Indices 1 2 3 4 5 6 
#
# 1 167.0218 42.4802 58.7052 0.0000 0.0000 0.0000
# 2 42.4802 16.4664 13.3555 0.0000 0.0000 0.0000
# 3 58.7052 13.3555 196.0331 0.0000 0.0000 0.0000
# 4 0.0000 0.0000 0.0000 5.5241 0.0000 0.0000
# 5 0.0000 0.0000 0.0000 0.0000 31.0266 0.0000
# 6 0.0000 0.0000 0.0000 0.0000 0.0000 0.5561
#
#
#
# Elastic Compliance Matrix: (Units=1/GPa)
#
#
# Indices 1 2 3 4 5 6 
#
# 1 0.018431 -0.045592 -0.002413 0.000000 0.000000 0.000000
# 2 -0.045592 0.177059 0.001590 0.000000 0.000000 0.000000
# 3 -0.002413 0.001590 0.005716 0.000000 0.000000 0.000000
# 4 0.000000 0.000000 0.000000 0.181024 0.000000 0.000000
# 5 0.000000 0.000000 0.000000 0.000000 0.032230 0.000000
# 6 0.000000 0.000000 0.000000 0.000000 0.000000 1.798128
#
#
# Mechanical properties :
#
#
# Convention : Reuss Voigt Hill
#
# Bulk Modulus (GPa) = 9.22715 67.62258 38.42486
# Shear Modulus (GPa) = 2.13534 25.08672 13.61103
#
# Velocity S-wave (km/s) = 1.05378 3.61191 2.66048
# Velocity P-wave (km/s) = 2.50579 7.24986 5.42399
#
# Compressibility (1/GPa) = 0.10837581
#
# Stress axis : x y z
#
# Youngs Moduli (GPa) = 54.25531 5.64783 174.96083
#
# Poissons Ratio (x) = 0.25750 0.42225
# Poissons Ratio (y) = 2.47361 -0.27826
# Poissons Ratio (z) = 0.13094 -0.00898
#
# Static dielectric constant tensor:
#      x y z
#    x 3.765400 0.000000 0.000000 
#    y 0.000000 2.728720 0.000000 
#    z 0.000000 0.000000 5.555810 
# 
# 
# High freq. dielectric constant tensor:
#      x y z
#    x 1.766790 0.000000 0.000000 
#    y 0.000000 1.654540 0.000000 
#    z 0.000000 0.000000 1.797410 
# 
# From -- ./inp_files/2308.got.cif
#   From: 2010.03.12/outbox.cif.g09.slc.cpg/sg38_2_cif.got.tgz:2308.got - 2010.04.14 02:38:36.
