data_PCOD8177372
_publ_section_title
;
Structure prediction by ZEFSAII (Michael W. Deem and Ramdas Pophale) SiO2 
 PCOD8177372
Probable space group: A M M 2
;
_chemical_formula_sum "Si O2"
_cell_formula_units_Z 48
_cell_length_a 12.763990
_cell_length_b 9.316291
_cell_length_c 23.717540
_cell_angle_alpha 90.000000
_cell_angle_beta 90.000000
_cell_angle_gamma 90.000000
_cell_volume 2820.324905
_symmetry_space_group_name_H-M "A M M 2"
_symmetry_group_IT_number 38
_symmetry_cell_setting 'orthorhombic'
loop_
_space_group_symop_operation_xyz
x,y,z
-x,-y,z
-x,y,z
x,-y,z
x,1/2+y,1/2+z
-x,1/2-y,1/2+z
-x,1/2+y,1/2+z
x,1/2-y,1/2+z
loop_
_atom_site_type_symbol
_atom_site_label
_atom_site_fract_x
_atom_site_fract_y
_atom_site_fract_z
Si Si1 0.702956 0.168770 0.417950
Si Si2 0.618221 0.170910 0.299465
Si Si3 0.500000 0.332342 0.989952
Si Si4 0.500000 0.830042 0.106395
Si Si5 0.115302 0.670946 0.609038
Si Si6 0.694251 0.170748 0.180504
Si Si7 0.878799 0.666826 0.482011
O O1 0.681687 0.222540 0.354252
O O2 0.602477 0.211158 0.454879
O O3 0.807146 0.245561 0.439277
O O4 0.723147 0.000000 0.419788
O O5 0.500000 0.232666 0.300670
O O6 0.677910 0.229698 0.243855
O O7 0.611736 0.000000 0.298307
O O8 0.500000 0.500000 0.004371
O O9 0.500000 0.242078 0.046224
O O10 0.399522 0.776541 0.140875
O O11 0.500000 0.000000 0.097870
O O12 0.114560 0.500000 0.609733
O O13 0.198096 0.732984 0.654179
O O14 0.144832 0.720379 0.545738
O O15 0.000000 0.729260 0.625531
O O16 0.696928 0.000000 0.181576
O O17 0.851224 0.500000 0.475887
O O18 0.000000 0.695309 0.466833
#
# Coordination Sequence:
#
# PCOD8177372 Si02
#       7
#     8   8   4   4   8   8   8
#     4  10  19  31  48  69  95 128 164 196 230 280
#     4   9  15  27  44  63  91 127 158 186 230 283
#     4  10  20  31  43  65  99 132 155 188 242 288
#     4  10  18  27  45  71  91 112 153 202 236 278
#     4   8  14  25  41  62  90 120 146 180 232 284
#     4   9  15  24  42  68  91 114 150 192 233 275
#     4   9  18  33  51  70  96 128 157 193 243 288
#
# _framework density 17.019314999999999
#
# number of rings (size 3 to 8) (size 9 to 14) (size 15 to 20)
#    0.000    2.833    1.667    2.000    0.000    2.333 
#    0.000    0.833    0.000    4.000    0.000    0.000 
#    0.000    0.000    0.000    0.000    0.000    0.000 
#
# Total GULP energy -297512.806646 kJ/mol
# GULP energy per Si atom -12396.366944 kJ/mol
# Density = 1.698058 g / cm^3
# Si number density = 17.019315 Si / 1000 Ang^3
#
#
#
# Elastic Constant Matrix: (Units=GPa)
#
#
# Indices 1 2 3 4 5 6 
#
# 1 141.0685 27.3893 96.0968 0.0000 0.0000 0.0000
# 2 27.3893 19.1080 32.2774 0.0000 0.0000 0.0000
# 3 96.0968 32.2774 172.4249 0.0000 0.0000 0.0000
# 4 0.0000 0.0000 0.0000 20.3155 0.0000 0.0000
# 5 0.0000 0.0000 0.0000 0.0000 29.2136 0.0000
# 6 0.0000 0.0000 0.0000 0.0000 0.0000 18.9031
#
#
#
# Elastic Compliance Matrix: (Units=1/GPa)
#
#
# Indices 1 2 3 4 5 6 
#
# 1 0.012384 -0.008910 -0.005234 0.000000 0.000000 0.000000
# 2 -0.008910 0.082946 -0.010562 0.000000 0.000000 0.000000
# 3 -0.005234 -0.010562 0.010694 0.000000 0.000000 0.000000
# 4 0.000000 0.000000 0.000000 0.049224 0.000000 0.000000
# 5 0.000000 0.000000 0.000000 0.000000 0.034231 0.000000
# 6 0.000000 0.000000 0.000000 0.000000 0.000000 0.052901
#
#
# Mechanical properties :
#
#
# Convention : Reuss Voigt Hill
#
# Bulk Modulus (GPa) = 17.66375 71.56983 44.61679
# Shear Modulus (GPa) = 16.09465 25.47561 20.78513
#
# Velocity S-wave (km/s) = 3.07851 3.87313 3.49845
# Velocity P-wave (km/s) = 4.79974 7.88321 6.52619
#
# Compressibility (1/GPa) = 0.05661312
#
# Stress axis : x y z
#
# Youngs Moduli (GPa) = 80.74812 12.05599 93.51194
#
# Poissons Ratio (x) = 0.10742 0.48945
# Poissons Ratio (y) = 0.71946 0.98763
# Poissons Ratio (z) = 0.42264 0.12733
#
# Static dielectric constant tensor:
#      x y z
#    x 3.389690 0.000000 0.000000 
#    y 0.000000 2.631290 0.000000 
#    z 0.000000 0.000000 3.375630 
# 
# 
# High freq. dielectric constant tensor:
#      x y z
#    x 1.664340 0.000000 0.000000 
#    y 0.000000 1.597240 0.000000 
#    z 0.000000 0.000000 1.663300 
# 
# From -- ./inp_files/20620.got.cif
#   From: 2010.03.12/outbox.cif.g09.slc.cpg/sg38_11_cif.got.tgz:20620.got - 2010.04.14 02:38:36.
