data_PCOD8177169
_publ_section_title
;
Structure prediction by ZEFSAII (Michael W. Deem and Ramdas Pophale) SiO2 
 PCOD8177169
Probable space group: C C C 2
;
_chemical_formula_sum "Si O2"
_cell_formula_units_Z 56
_cell_length_a 20.099799
_cell_length_b 13.237879
_cell_length_c 9.154829
_cell_angle_alpha 90.000000
_cell_angle_beta 90.000000
_cell_angle_gamma 90.000000
_cell_volume 2435.905064
_symmetry_space_group_name_H-M "C C C 2"
_symmetry_group_IT_number 37
_symmetry_cell_setting 'orthorhombic'
loop_
_space_group_symop_operation_xyz
x,y,z
-x,-y,z
-x,y,1/2+z
x,-y,1/2+z
1/2+x,1/2+y,z
1/2-x,1/2-y,z
1/2-x,1/2+y,1/2+z
1/2+x,1/2-y,1/2+z
loop_
_atom_site_type_symbol
_atom_site_label
_atom_site_fract_x
_atom_site_fract_y
_atom_site_fract_z
Si Si1 0.236304 0.935549 0.334660
Si Si2 0.549656 0.303605 0.763040
Si Si3 0.349697 0.557588 0.606470
Si Si4 0.813940 0.291233 0.129843
Si Si5 0.441162 0.072638 0.197284
Si Si6 0.138758 0.476656 0.469105
Si Si7 0.925010 0.139298 0.090959
O O1 0.183271 0.900191 0.457269
O O2 0.278727 0.840989 0.272773
O O3 0.204174 0.002801 0.207883
O O4 0.287273 0.010071 0.413010
O O5 0.616593 0.348864 0.691324
O O6 0.538433 0.188212 0.714858
O O7 0.485093 0.362474 0.705864
O O8 0.554016 0.310022 0.937909
O O9 0.405747 0.476442 0.560451
O O10 0.750000 0.250000 0.036084
O O11 0.861992 0.196511 0.167602
O O12 0.861370 0.367769 0.046143
O O13 0.417047 0.023769 0.346834
O O14 0.500000 0.000000 0.139818
O O15 0.381130 0.065445 0.080851
#
# Coordination Sequence:
#
# PCOD8177169 Si02
#       7
#     8   8   8   8   8   8   8
#     4  12  24  45  77 107 149 197 251 316 388 458
#     4  12  30  47  79 109 150 206 254 316 390 465
#     4  12  26  50  73 110 154 195 253 320 385 465
#     4  12  24  44  75 104 146 196 245 305 385 446
#     4  12  27  47  72 104 149 191 255 313 376 459
#     4  12  24  45  70 104 144 189 240 314 373 442
#     4  12  27  49  74 111 154 203 256 319 387 460
#
# _framework density 22.989401999999998
#
# number of rings (size 3 to 8) (size 9 to 14) (size 15 to 20)
#    0.000    0.000    7.143    1.714    4.000    2.286 
#    0.000    1.429    0.000    0.000    0.000    0.000 
#    0.000    0.000    0.000    0.000    0.000    0.000 
#
# Total GULP energy -347233.222191 kJ/mol
# GULP energy per Si atom -12401.186507 kJ/mol
# Density = 2.293708 g / cm^3
# Si number density = 22.989402 Si / 1000 Ang^3
#
#
#
# Elastic Constant Matrix: (Units=GPa)
#
#
# Indices 1 2 3 4 5 6 
#
# 1 104.5160 25.9129 47.1193 0.0000 0.0000 0.0000
# 2 25.9129 98.3616 27.3979 0.0000 0.0000 0.0000
# 3 47.1193 27.3979 120.3261 0.0000 0.0000 0.0000
# 4 0.0000 0.0000 0.0000 10.9333 0.0000 0.0000
# 5 0.0000 0.0000 0.0000 0.0000 47.2659 0.0000
# 6 0.0000 0.0000 0.0000 0.0000 0.0000 43.9207
#
#
#
# Elastic Compliance Matrix: (Units=1/GPa)
#
#
# Indices 1 2 3 4 5 6 
#
# 1 0.011967 -0.001972 -0.004237 0.000000 0.000000 0.000000
# 2 -0.001972 0.011180 -0.001773 0.000000 0.000000 0.000000
# 3 -0.004237 -0.001773 0.010374 0.000000 0.000000 0.000000
# 4 0.000000 0.000000 0.000000 0.091464 0.000000 0.000000
# 5 0.000000 0.000000 0.000000 0.000000 0.021157 0.000000
# 6 0.000000 0.000000 0.000000 0.000000 0.000000 0.022768
#
#
# Mechanical properties :
#
#
# Convention : Reuss Voigt Hill
#
# Bulk Modulus (GPa) = 56.96295 58.22932 57.59614
# Shear Modulus (GPa) = 26.21534 35.27554 30.74544
#
# Velocity S-wave (km/s) = 3.38053 3.92142 3.66098
# Velocity P-wave (km/s) = 6.33001 6.77401 6.55577
#
# Compressibility (1/GPa) = 0.01755527
#
# Stress axis : x y z
#
# Youngs Moduli (GPa) = 83.56161 89.44428 96.39685
#
# Poissons Ratio (x) = 0.17643 0.40845
# Poissons Ratio (y) = 0.16482 0.17094
# Poissons Ratio (z) = 0.35407 0.15861
#
# Static dielectric constant tensor:
#      x y z
#    x 4.275150 0.000000 0.000000 
#    y 0.000000 4.141760 0.000000 
#    z 0.000000 0.000000 4.176890 
# 
# 
# High freq. dielectric constant tensor:
#      x y z
#    x 1.924410 0.000000 0.000000 
#    y 0.000000 1.908840 0.000000 
#    z 0.000000 0.000000 1.906850 
# 
# From -- ./inp_files/4380.got.cif
#   From: 2010.03.12/outbox.cif.g09.slc.cpg/sg37_3_cif.got.tgz:4380.got - 2010.04.14 02:25:27.
