data_PCOD8177171
_publ_section_title
;
Structure prediction by ZEFSAII (Michael W. Deem and Ramdas Pophale) SiO2 
 PCOD8177171
Probable space group: C C C 2
;
_chemical_formula_sum "Si O2"
_cell_formula_units_Z 48
_cell_length_a 9.799103
_cell_length_b 9.799103
_cell_length_c 24.012372
_cell_angle_alpha 90.000000
_cell_angle_beta 90.000000
_cell_angle_gamma 90.000000
_cell_volume 2305.726060
_symmetry_space_group_name_H-M "C C C 2"
_symmetry_group_IT_number 37
_symmetry_cell_setting 'orthorhombic'
loop_
_space_group_symop_operation_xyz
x,y,z
-x,-y,z
-x,y,1/2+z
x,-y,1/2+z
1/2+x,1/2+y,z
1/2-x,1/2-y,z
1/2-x,1/2+y,1/2+z
1/2+x,1/2-y,1/2+z
loop_
_atom_site_type_symbol
_atom_site_label
_atom_site_fract_x
_atom_site_fract_y
_atom_site_fract_z
Si Si1 0.730810 0.410363 0.729450
Si Si2 0.520503 0.843600 0.480006
Si Si3 0.750000 0.250000 0.061741
Si Si4 0.589637 0.230810 0.857347
Si Si5 0.000000 0.000000 0.811692
Si Si6 0.000000 0.500000 0.775105
Si Si7 0.250000 0.750000 0.525056
Si Si8 0.656400 0.479497 0.606791
O O1 0.750000 0.250000 0.743980
O O2 0.631994 0.485593 0.772899
O O3 0.668494 0.419057 0.668285
O O4 0.870114 0.497649 0.733892
O O5 0.618871 0.769535 0.523274
O O6 0.580943 0.831506 0.418512
O O7 0.376274 0.768353 0.483705
O O8 0.500000 0.000000 0.496415
O O9 0.731647 0.376274 0.103092
O O10 0.750000 0.250000 0.842817
O O11 0.502351 0.370114 0.852905
O O12 0.514407 0.131993 0.813898
O O13 0.269534 0.618871 0.563523
O O14 0.500000 0.500000 0.590382
#
# Coordination Sequence:
#
# PCOD8177171 Si02
#       8
#     8   8   4   8   4   4   4   8
#     4  12  26  46  72 105 143 182 234 296 347 414
#     4  12  26  44  74 105 142 184 234 291 353 417
#     4  12  26  44  72 108 140 184 236 290 350 416
#     4  12  26  46  72 105 143 182 234 296 347 414
#     4  12  24  46  72 102 140 180 230 290 350 408
#     4  12  24  46  72 102 140 180 230 290 350 408
#     4  12  26  44  72 108 140 184 236 290 350 416
#     4  12  26  44  74 105 142 184 234 291 353 417
#
# _framework density 20.817737999999999
#
# number of rings (size 3 to 8) (size 9 to 14) (size 15 to 20)
#    0.000    0.000   10.000    0.000    0.000    8.667 
#    0.000    0.000    0.000    0.000    0.000    0.000 
#    0.000    0.000    0.000    0.000    0.000    0.000 
#
# Total GULP energy -297637.422631 kJ/mol
# GULP energy per Si atom -12401.559276 kJ/mol
# Density = 2.077036 g / cm^3
# Si number density = 20.817738 Si / 1000 Ang^3
#
#
#
# Elastic Constant Matrix: (Units=GPa)
#
#
# Indices 1 2 3 4 5 6 
#
# 1 126.4431 39.5261 12.9455 0.0000 0.0000 0.0000
# 2 39.5261 126.4430 12.9453 0.0000 0.0000 0.0000
# 3 12.9455 12.9453 64.0833 0.0000 0.0000 0.0000
# 4 0.0000 0.0000 0.0000 38.3101 0.0000 0.0000
# 5 0.0000 0.0000 0.0000 0.0000 38.3097 0.0000
# 6 0.0000 0.0000 0.0000 0.0000 0.0000 39.5631
#
#
#
# Elastic Compliance Matrix: (Units=1/GPa)
#
#
# Indices 1 2 3 4 5 6 
#
# 1 0.008863 -0.002642 -0.001257 0.000000 0.000000 0.000000
# 2 -0.002642 0.008863 -0.001257 0.000000 0.000000 0.000000
# 3 -0.001257 -0.001257 0.016112 0.000000 0.000000 0.000000
# 4 0.000000 0.000000 0.000000 0.026103 0.000000 0.000000
# 5 0.000000 0.000000 0.000000 0.000000 0.026103 0.000000
# 6 0.000000 0.000000 0.000000 0.000000 0.000000 0.025276
#
#
# Mechanical properties :
#
#
# Convention : Reuss Voigt Hill
#
# Bulk Modulus (GPa) = 42.50262 49.75592 46.12927
# Shear Modulus (GPa) = 38.61766 40.00676 39.31221
#
# Velocity S-wave (km/s) = 4.31169 4.38855 4.35029
# Velocity P-wave (km/s) = 6.72669 7.04498 6.88767
#
# Compressibility (1/GPa) = 0.02352796
#
# Stress axis : x y z
#
# Youngs Moduli (GPa) = 112.82548 112.82536 62.06388
#
# Poissons Ratio (x) = 0.29808 0.07800
# Poissons Ratio (y) = 0.29808 0.07800
# Poissons Ratio (z) = 0.14179 0.14179
#
# Static dielectric constant tensor:
#      x y z
#    x 3.952080 0.000000 0.000000 
#    y 0.000000 3.952220 0.000000 
#    z 0.000000 0.000000 3.671640 
# 
# 
# High freq. dielectric constant tensor:
#      x y z
#    x 1.824260 0.000000 0.000000 
#    y 0.000000 1.824260 0.000000 
#    z 0.000000 0.000000 1.822960 
# 
# From -- ./inp_files/20388.got.cif
#   From: 2010.03.12/outbox.cif.g09.slc.cpg/sg37_11_cif.got.tgz:20388.got - 2010.04.14 02:25:27.
