data_PCOD8177919
_publ_section_title
;
Structure prediction by ZEFSAII (Michael W. Deem and Ramdas Pophale) SiO2 
 PCOD8177919
Probable space group: A M M 2
;
_chemical_formula_sum "Si O2"
_cell_formula_units_Z 64
_cell_length_a 14.718751
_cell_length_b 9.748091
_cell_length_c 25.148056
_cell_angle_alpha 90.000000
_cell_angle_beta 90.000000
_cell_angle_gamma 90.000000
_cell_volume 3608.236138
_symmetry_space_group_name_H-M "A M M 2"
_symmetry_group_IT_number 38
_symmetry_cell_setting 'orthorhombic'
loop_
_space_group_symop_operation_xyz
x,y,z
-x,-y,z
-x,y,z
x,-y,z
x,1/2+y,1/2+z
-x,1/2-y,1/2+z
-x,1/2+y,1/2+z
x,1/2-y,1/2+z
loop_
_atom_site_type_symbol
_atom_site_label
_atom_site_fract_x
_atom_site_fract_y
_atom_site_fract_z
Si Si1 0.843563 0.346737 0.526690
Si Si2 0.600841 0.841649 0.660619
Si Si3 0.784625 0.838240 0.708959
Si Si4 0.210926 0.162907 0.910955
Si Si5 0.640373 0.845524 0.060986
Si Si6 0.899876 0.153076 0.612170
Si Si7 0.895869 0.336094 0.309152
Si Si8 0.401899 0.162902 0.944443
O O1 0.885311 0.500000 0.527464
O O2 0.836179 0.293589 0.466151
O O3 0.748134 0.346044 0.556663
O O4 0.906793 0.243394 0.558973
O O5 0.500000 0.821252 0.685672
O O6 0.677390 0.798817 0.704494
O O7 0.607767 0.752824 0.607650
O O8 0.616825 0.000000 0.644466
O O9 0.833420 0.780600 0.656071
O O10 0.834173 0.776266 0.760934
O O11 0.799036 0.000000 0.711519
O O12 0.151788 0.223070 0.862502
O O13 0.315723 0.220264 0.910607
O O14 0.214284 0.000000 0.906832
O O15 0.605052 0.000000 0.072643
O O16 0.600593 0.787063 0.005602
O O17 0.000000 0.147297 0.637778
O O18 0.866652 0.000000 0.596635
O O19 0.895806 0.500000 0.309741
O O20 0.000000 0.282381 0.305208
O O21 0.500000 0.207749 0.919582
O O22 0.392313 0.000000 0.945876
#
# Coordination Sequence:
#
# PCOD8177919 Si02
#       8
#     8   8   8   8   8   8   8   8
#     4   9  17  29  45  68  98 124 146 185 237 278
#     4  10  19  29  43  65  93 123 151 184 231 275
#     4   9  17  30  44  60  87 117 149 193 230 263
#     4   8  15  26  40  63  91 115 147 189 229 270
#     4   9  16  27  44  65  90 124 160 185 213 266
#     4  10  19  30  46  67  90 121 157 187 225 280
#     4   9  16  27  44  62  81 114 158 195 227 267
#     4   8  13  22  37  58  86 118 148 180 220 265
#
# _framework density 17.737197999999999
#
# number of rings (size 3 to 8) (size 9 to 14) (size 15 to 20)
#    0.000    3.000    1.250    2.250    0.000    3.000 
#    0.000    1.875    0.000    3.750    0.000    1.750 
#    0.000    2.000    0.000    3.500    0.000    4.500 
#
# Total GULP energy -396457.625446 kJ/mol
# GULP energy per Si atom -12389.300795 kJ/mol
# Density = 1.769683 g / cm^3
# Si number density = 17.737198 Si / 1000 Ang^3
#
#
#
# Elastic Constant Matrix: (Units=GPa)
#
#
# Indices 1 2 3 4 5 6 
#
# 1 138.2799 18.5217 70.5406 0.0000 0.0000 0.0000
# 2 18.5217 28.4203 23.9144 0.0000 0.0000 0.0000
# 3 70.5406 23.9144 116.0884 0.0000 0.0000 0.0000
# 4 0.0000 0.0000 0.0000 14.9977 0.0000 0.0000
# 5 0.0000 0.0000 0.0000 0.0000 23.2766 0.0000
# 6 0.0000 0.0000 0.0000 0.0000 0.0000 12.1666
#
#
#
# Elastic Compliance Matrix: (Units=1/GPa)
#
#
# Indices 1 2 3 4 5 6 
#
# 1 0.010555 -0.001793 -0.006045 0.000000 0.000000 0.000000
# 2 -0.001793 0.042869 -0.007742 0.000000 0.000000 0.000000
# 3 -0.006045 -0.007742 0.013882 0.000000 0.000000 0.000000
# 4 0.000000 0.000000 0.000000 0.066677 0.000000 0.000000
# 5 0.000000 0.000000 0.000000 0.000000 0.042962 0.000000
# 6 0.000000 0.000000 0.000000 0.000000 0.000000 0.082192
#
#
# Mechanical properties :
#
#
# Convention : Reuss Voigt Hill
#
# Bulk Modulus (GPa) = 27.66412 56.52688 42.09550
# Shear Modulus (GPa) = 16.53744 21.40896 18.97320
#
# Velocity S-wave (km/s) = 3.05677 3.47797 3.27415
# Velocity P-wave (km/s) = 5.29990 6.93301 6.17072
#
# Compressibility (1/GPa) = 0.03614790
#
# Stress axis : x y z
#
# Youngs Moduli (GPa) = 94.73849 23.32706 72.03625
#
# Poissons Ratio (x) = 0.04182 0.43543
# Poissons Ratio (y) = 0.16984 0.55768
# Poissons Ratio (z) = 0.57266 0.18059
#
# Static dielectric constant tensor:
#      x y z
#    x 3.624490 0.000000 0.000000 
#    y 0.000000 2.807950 0.000000 
#    z 0.000000 0.000000 3.282640 
# 
# 
# High freq. dielectric constant tensor:
#      x y z
#    x 1.705980 0.000000 0.000000 
#    y 0.000000 1.619060 0.000000 
#    z 0.000000 0.000000 1.665230 
# 
# From -- ./inp_files/25125.got.cif
#   From: 2010.03.12/outbox.cif.g09.slc.cpg/sg38_13_cif.got.tgz:25125.got - 2010.04.14 02:38:36.
