data_PCOD8177472
_publ_section_title
;
Structure prediction by ZEFSAII (Michael W. Deem and Ramdas Pophale) SiO2 
 PCOD8177472
Probable space group: A M M 2
;
_chemical_formula_sum "Si O2"
_cell_formula_units_Z 64
_cell_length_a 14.175037
_cell_length_b 9.020618
_cell_length_c 31.347621
_cell_angle_alpha 90.000000
_cell_angle_beta 90.000000
_cell_angle_gamma 90.000000
_cell_volume 4008.344872
_symmetry_space_group_name_H-M "A M M 2"
_symmetry_group_IT_number 38
_symmetry_cell_setting 'orthorhombic'
loop_
_space_group_symop_operation_xyz
x,y,z
-x,-y,z
-x,y,z
x,-y,z
x,1/2+y,1/2+z
-x,1/2-y,1/2+z
-x,1/2+y,1/2+z
x,1/2-y,1/2+z
loop_
_atom_site_type_symbol
_atom_site_label
_atom_site_fract_x
_atom_site_fract_y
_atom_site_fract_z
Si Si1 0.703739 0.327251 0.781120
Si Si2 0.387578 0.334980 0.604129
Si Si3 0.605240 0.823680 0.196632
Si Si4 0.392923 0.825452 0.521110
Si Si5 0.893043 0.672662 0.409098
Si Si6 0.389649 0.173139 0.860190
Si Si7 0.283244 0.823972 0.438024
Si Si8 0.104674 0.168958 0.321482
O O1 0.677947 0.500000 0.787164
O O2 0.674988 0.270245 0.734086
O O3 0.644862 0.234159 0.815039
O O4 0.816183 0.300031 0.785776
O O5 0.500000 0.337527 0.603878
O O6 0.346792 0.500000 0.597871
O O7 0.356419 0.267692 0.650322
O O8 0.348773 0.237267 0.564987
O O9 0.500000 0.761382 0.205968
O O10 0.600650 0.000000 0.194139
O O11 0.500000 0.769343 0.514615
O O12 0.333169 0.767563 0.481053
O O13 0.388864 0.000000 0.524318
O O14 0.869359 0.500000 0.412375
O O15 0.823816 0.764353 0.439804
O O16 0.875969 0.721850 0.360538
O O17 0.000000 0.707041 0.423360
O O18 0.500000 0.204632 0.864914
O O19 0.336435 0.258107 0.897549
O O20 0.365915 0.000000 0.863229
O O21 0.284262 0.000000 0.434218
O O22 0.000000 0.197082 0.302017
O O23 0.113186 0.000000 0.338406
#
# Coordination Sequence:
#
# PCOD8177472 Si02
#       8
#     8   8   8   8   8   8   8   8
#     4  10  18  29  47  67  88 122 159 190 226 270
#     4   8  14  26  44  64  86 114 149 190 232 271
#     4   8  14  25  42  65  90 115 150 192 228 269
#     4   9  18  31  46  66  92 119 150 189 229 271
#     4  10  20  33  49  68  91 119 150 190 237 277
#     4  11  23  34  43  61  93 127 157 190 226 268
#     4  11  21  33  49  68  90 121 157 191 228 274
#     4   9  17  29  45  66  90 117 153 194 231 268
#
# _framework density 15.96669
#
# number of rings (size 3 to 8) (size 9 to 14) (size 15 to 20)
#    0.000    2.500    1.250    2.625    0.000    3.750 
#    0.000    1.875    0.000    2.250    0.000    0.875 
#    0.000    3.000    0.000    0.000    0.000    0.250 
#
# Total GULP energy -396685.528835 kJ/mol
# GULP energy per Si atom -12396.422776 kJ/mol
# Density = 1.593035 g / cm^3
# Si number density = 15.966690 Si / 1000 Ang^3
#
#
#
# Elastic Constant Matrix: (Units=GPa)
#
#
# Indices 1 2 3 4 5 6 
#
# 1 90.9109 33.8200 57.1341 0.0000 0.0000 0.0000
# 2 33.8200 50.5665 37.2392 0.0000 0.0000 0.0000
# 3 57.1341 37.2392 133.2970 0.0000 0.0000 0.0000
# 4 0.0000 0.0000 0.0000 21.8704 0.0000 0.0000
# 5 0.0000 0.0000 0.0000 0.0000 12.1361 0.0000
# 6 0.0000 0.0000 0.0000 0.0000 0.0000 20.5372
#
#
#
# Elastic Compliance Matrix: (Units=1/GPa)
#
#
# Indices 1 2 3 4 5 6 
#
# 1 0.017100 -0.007603 -0.005205 0.000000 0.000000 0.000000
# 2 -0.007603 0.028279 -0.004641 0.000000 0.000000 0.000000
# 3 -0.005205 -0.004641 0.011030 0.000000 0.000000 0.000000
# 4 0.000000 0.000000 0.000000 0.045724 0.000000 0.000000
# 5 0.000000 0.000000 0.000000 0.000000 0.082399 0.000000
# 6 0.000000 0.000000 0.000000 0.000000 0.000000 0.048692
#
#
# Mechanical properties :
#
#
# Convention : Reuss Voigt Hill
#
# Bulk Modulus (GPa) = 46.49240 59.01789 52.75514
# Shear Modulus (GPa) = 18.16247 20.68081 19.42164
#
# Velocity S-wave (km/s) = 3.37638 3.60286 3.49145
# Velocity P-wave (km/s) = 6.66194 7.37230 7.02610
#
# Compressibility (1/GPa) = 0.02150889
#
# Stress axis : x y z
#
# Youngs Moduli (GPa) = 58.48123 35.36155 90.66388
#
# Poissons Ratio (x) = 0.26886 0.47191
# Poissons Ratio (y) = 0.44465 0.42081
# Poissons Ratio (z) = 0.30440 0.16413
#
# Static dielectric constant tensor:
#      x y z
#    x 3.129460 0.000000 0.000000 
#    y 0.000000 2.991650 0.000000 
#    z 0.000000 0.000000 3.202030 
# 
# 
# High freq. dielectric constant tensor:
#      x y z
#    x 1.597400 0.000000 0.000000 
#    y 0.000000 1.606890 0.000000 
#    z 0.000000 0.000000 1.602470 
# 
# From -- ./inp_files/25039.got.cif
#   From: 2010.03.12/outbox.cif.g09.slc.cpg/sg38_13_cif.got.tgz:25039.got - 2010.04.14 02:38:36.
