data_PCOD8177816
_publ_section_title
;
Structure prediction by ZEFSAII (Michael W. Deem and Ramdas Pophale) SiO2 
 PCOD8177816
Probable space group: A M M 2
;
_chemical_formula_sum "Si O2"
_cell_formula_units_Z 48
_cell_length_a 7.690613
_cell_length_b 16.242588
_cell_length_c 20.063696
_cell_angle_alpha 90.000000
_cell_angle_beta 90.000000
_cell_angle_gamma 90.000000
_cell_volume 2506.265784
_symmetry_space_group_name_H-M "A M M 2"
_symmetry_group_IT_number 38
_symmetry_cell_setting 'orthorhombic'
loop_
_space_group_symop_operation_xyz
x,y,z
-x,-y,z
-x,y,z
x,-y,z
x,1/2+y,1/2+z
-x,1/2-y,1/2+z
-x,1/2+y,1/2+z
x,1/2-y,1/2+z
loop_
_atom_site_type_symbol
_atom_site_label
_atom_site_fract_x
_atom_site_fract_y
_atom_site_fract_z
Si Si1 0.702847 0.794809 0.191950
Si Si2 0.294066 0.715138 0.922295
Si Si3 0.000000 0.091200 0.400537
Si Si4 0.000000 0.091271 0.243725
Si Si5 0.809563 0.500000 0.356103
Si Si6 0.303789 0.500000 0.501725
Si Si7 0.299399 0.167939 0.801038
Si Si8 0.296417 0.826663 0.042724
O O1 0.500000 0.818960 0.202995
O O2 0.822418 0.865694 0.221380
O O3 0.744107 0.708146 0.228918
O O4 0.749793 0.787125 0.114036
O O5 0.500000 0.693347 0.923091
O O6 0.178952 0.633371 0.924174
O O7 0.240698 0.767629 0.857423
O O8 0.228922 0.765480 0.986392
O O9 0.000000 0.087208 0.321976
O O10 0.000000 0.000000 0.431677
O O11 0.000000 0.000000 0.212550
O O12 0.686490 0.500000 0.420765
O O13 0.792027 0.419911 0.309103
O O14 0.000000 0.500000 0.387547
O O15 0.500000 0.500000 0.528087
O O16 0.211315 0.417502 0.531049
O O17 0.500000 0.148801 0.809341
O O18 0.500000 0.836856 0.032600
#
# Coordination Sequence:
#
# PCOD8177816 Si02
#       8
#     8   8   4   4   4   4   8   8
#     4  10  22  40  61  84 117 161 198 235 292 356
#     4  10  20  37  63  87 113 151 194 246 301 351
#     4  11  24  39  60  84 114 150 201 249 292 342
#     4  11  24  37  54  86 120 152 191 243 280 336
#     4  12  24  32  56  90 122 153 194 249 292 347
#     4  10  18  34  56  86 126 153 184 233 294 359
#     4  10  20  37  59  83 113 154 197 237 290 350
#     4   9  19  35  59  88 118 154 193 238 295 360
#
# _framework density 19.151999
#
# number of rings (size 3 to 8) (size 9 to 14) (size 15 to 20)
#    0.000    1.833    3.333    0.750    3.500    1.333 
#    1.500    1.667    1.833    0.000    0.000    0.000 
#    0.000    0.000    0.000    0.000    0.000    0.000 
#
# Total GULP energy -297511.811000 kJ/mol
# GULP energy per Si atom -12396.325458 kJ/mol
# Density = 1.910841 g / cm^3
# Si number density = 19.151999 Si / 1000 Ang^3
#
#
#
# Elastic Constant Matrix: (Units=GPa)
#
#
# Indices 1 2 3 4 5 6 
#
# 1 71.7085 50.9455 20.0368 0.0000 0.0000 0.0000
# 2 50.9455 155.2252 66.6029 0.0000 0.0000 0.0000
# 3 20.0368 66.6029 125.7011 0.0000 0.0000 0.0000
# 4 0.0000 0.0000 0.0000 28.5179 0.0000 0.0000
# 5 0.0000 0.0000 0.0000 0.0000 13.6196 0.0000
# 6 0.0000 0.0000 0.0000 0.0000 0.0000 8.4205
#
#
#
# Elastic Compliance Matrix: (Units=1/GPa)
#
#
# Indices 1 2 3 4 5 6 
#
# 1 0.018197 -0.006119 0.000341 0.000000 0.000000 0.000000
# 2 -0.006119 0.010395 -0.004533 0.000000 0.000000 0.000000
# 3 0.000341 -0.004533 0.010303 0.000000 0.000000 0.000000
# 4 0.000000 0.000000 0.000000 0.035066 0.000000 0.000000
# 5 0.000000 0.000000 0.000000 0.000000 0.073424 0.000000
# 6 0.000000 0.000000 0.000000 0.000000 0.000000 0.118758
#
#
# Mechanical properties :
#
#
# Convention : Reuss Voigt Hill
#
# Bulk Modulus (GPa) = 54.71976 69.75615 62.23795
# Shear Modulus (GPa) = 17.07337 24.44823 20.76080
#
# Velocity S-wave (km/s) = 2.98898 3.57674 3.29599
# Velocity P-wave (km/s) = 6.36752 7.31839 6.85946
#
# Compressibility (1/GPa) = 0.01827494
#
# Stress axis : x y z
#
# Youngs Moduli (GPa) = 54.95373 96.19719 97.06325
#
# Poissons Ratio (x) = 0.58862 -0.03314
# Poissons Ratio (y) = 0.33626 0.43995
# Poissons Ratio (z) = -0.01876 0.43603
#
# Static dielectric constant tensor:
#      x y z
#    x 3.384180 0.000000 0.000000 
#    y 0.000000 3.674020 0.000000 
#    z 0.000000 0.000000 3.601470 
# 
# 
# High freq. dielectric constant tensor:
#      x y z
#    x 1.743270 0.000000 0.000000 
#    y 0.000000 1.736730 0.000000 
#    z 0.000000 0.000000 1.736750 
# 
# From -- ./inp_files/16765.got.cif
#   From: 2010.03.12/outbox.cif.g09.slc.cpg/sg38_9_cif.got.tgz:16765.got - 2010.04.14 02:38:36.
