data_PCOD8177113
_publ_section_title
;
Structure prediction by ZEFSAII (Michael W. Deem and Ramdas Pophale) SiO2 
 PCOD8177113
Probable space group: C C C 2
;
_chemical_formula_sum "Si O2"
_cell_formula_units_Z 44
_cell_length_a 4.961931
_cell_length_b 26.359523
_cell_length_c 15.525060
_cell_angle_alpha 90.000000
_cell_angle_beta 90.000000
_cell_angle_gamma 90.000000
_cell_volume 2030.586783
_symmetry_space_group_name_H-M "C C C 2"
_symmetry_group_IT_number 37
_symmetry_cell_setting 'orthorhombic'
loop_
_space_group_symop_operation_xyz
x,y,z
-x,-y,z
-x,y,1/2+z
x,-y,1/2+z
1/2+x,1/2+y,z
1/2-x,1/2-y,z
1/2-x,1/2+y,1/2+z
1/2+x,1/2-y,1/2+z
loop_
_atom_site_type_symbol
_atom_site_label
_atom_site_fract_x
_atom_site_fract_y
_atom_site_fract_z
Si Si1 0.125768 0.699844 0.953460
Si Si2 0.510368 0.656954 0.720840
Si Si3 0.489886 0.862331 0.608305
Si Si4 0.750000 0.250000 0.315258
Si Si5 0.069372 0.441523 0.974076
Si Si6 0.423175 0.607383 0.891962
O O1 0.250000 0.750000 0.995496
O O2 0.382245 0.664803 0.927392
O O3 0.944959 0.713606 0.870648
O O4 0.941857 0.673598 0.025373
O O5 0.709979 0.642241 0.644381
O O6 0.568515 0.713394 0.755820
O O7 0.521266 0.613132 0.793795
O O8 0.210684 0.654791 0.682754
O O9 0.461225 0.919298 0.571033
O O10 0.370973 0.428301 0.943570
O O11 0.000000 0.500000 0.980622
O O12 0.870796 0.417613 0.902560
#
# Coordination Sequence:
#
# PCOD8177113 Si02
#       6
#     8   8   8   4   8   8
#     4  11  24  42  66  94 136 193 236 270 329 412
#     4  12  25  44  61 102 142 174 220 280 345 391
#     4  11  26  42  66  97 140 173 220 289 340 398
#     4  12  26  40  68  92 144 202 236 268 322 426
#     4  11  24  48  75  98 125 180 235 282 347 420
#     4  11  23  45  70  98 133 175 229 284 332 408
#
# _framework density 21.668614999999999
#
# number of rings (size 3 to 8) (size 9 to 14) (size 15 to 20)
#    0.000    0.727    1.818    7.091    3.818    0.000 
#    0.000    5.455    0.000    0.000    0.000    0.000 
#    0.000    0.000    0.000    0.000    0.000    0.000 
#
# Total GULP energy -272801.870190 kJ/mol
# GULP energy per Si atom -12400.085009 kJ/mol
# Density = 2.161930 g / cm^3
# Si number density = 21.668615 Si / 1000 Ang^3
#
#
#
# Elastic Constant Matrix: (Units=GPa)
#
#
# Indices 1 2 3 4 5 6 
#
# 1 90.2826 31.8728 23.0194 0.0000 0.0000 0.0000
# 2 31.8728 138.5707 48.4878 0.0000 0.0000 0.0000
# 3 23.0194 48.4878 107.1287 0.0000 0.0000 0.0000
# 4 0.0000 0.0000 0.0000 17.5128 0.0000 0.0000
# 5 0.0000 0.0000 0.0000 0.0000 45.4684 0.0000
# 6 0.0000 0.0000 0.0000 0.0000 0.0000 36.9375
#
#
#
# Elastic Compliance Matrix: (Units=1/GPa)
#
#
# Indices 1 2 3 4 5 6 
#
# 1 0.012287 -0.002260 -0.001617 0.000000 0.000000 0.000000
# 2 -0.002260 0.008990 -0.003583 0.000000 0.000000 0.000000
# 3 -0.001617 -0.003583 0.011304 0.000000 0.000000 0.000000
# 4 0.000000 0.000000 0.000000 0.057101 0.000000 0.000000
# 5 0.000000 0.000000 0.000000 0.000000 0.021993 0.000000
# 6 0.000000 0.000000 0.000000 0.000000 0.000000 0.027073
#
#
# Mechanical properties :
#
#
# Convention : Reuss Voigt Hill
#
# Bulk Modulus (GPa) = 56.62733 60.30468 58.46601
# Shear Modulus (GPa) = 31.33698 35.49054 33.41376
#
# Velocity S-wave (km/s) = 3.80701 4.05146 3.93114
# Velocity P-wave (km/s) = 6.74644 7.05525 6.90258
#
# Compressibility (1/GPa) = 0.01765932
#
# Stress axis : x y z
#
# Youngs Moduli (GPa) = 81.38965 111.23093 88.46456
#
# Poissons Ratio (x) = 0.25140 0.14306
# Poissons Ratio (y) = 0.18396 0.31701
# Poissons Ratio (z) = 0.13161 0.39859
#
# Static dielectric constant tensor:
#      x y z
#    x 3.976270 0.000000 0.000000 
#    y 0.000000 4.003660 0.000000 
#    z 0.000000 0.000000 4.018180 
# 
# 
# High freq. dielectric constant tensor:
#      x y z
#    x 1.868010 0.000000 0.000000 
#    y 0.000000 1.839390 0.000000 
#    z 0.000000 0.000000 1.849560 
# 
# From -- ./inp_files/9696.got.cif
#   From: 2010.03.12/outbox.cif.g09.slc.cpg/sg37_5_cif.got.tgz:9696.got - 2010.04.14 02:25:27.
