data_PCOD8177014
_publ_section_title
;
Structure prediction by ZEFSAII (Michael W. Deem and Ramdas Pophale) SiO2 
 PCOD8177014
Probable space group: C C C 2
;
_chemical_formula_sum "Si O2"
_cell_formula_units_Z 36
_cell_length_a 13.020823
_cell_length_b 7.726391
_cell_length_c 16.515477
_cell_angle_alpha 90.000000
_cell_angle_beta 90.000000
_cell_angle_gamma 90.000000
_cell_volume 1661.522547
_symmetry_space_group_name_H-M "C C C 2"
_symmetry_group_IT_number 37
_symmetry_cell_setting 'orthorhombic'
loop_
_space_group_symop_operation_xyz
x,y,z
-x,-y,z
-x,y,1/2+z
x,-y,1/2+z
1/2+x,1/2+y,z
1/2-x,1/2-y,z
1/2-x,1/2+y,1/2+z
1/2+x,1/2-y,1/2+z
loop_
_atom_site_type_symbol
_atom_site_label
_atom_site_fract_x
_atom_site_fract_y
_atom_site_fract_z
Si Si1 0.282952 0.073077 0.369530
Si Si2 0.250000 0.750000 0.477745
Si Si3 0.606498 0.417391 0.607355
Si Si4 0.159678 0.879330 0.250569
Si Si5 0.042730 0.675296 0.747054
O O1 0.250000 0.250000 0.417470
O O2 0.300960 0.904897 0.425745
O O3 0.185834 0.043072 0.308074
O O4 0.387394 0.112557 0.321549
O O5 0.336832 0.656859 0.529976
O O6 0.500000 0.500000 0.577000
O O7 0.665218 0.571027 0.655489
O O8 0.601019 0.265757 0.673516
O O9 0.250000 0.750000 0.271435
O O10 0.049146 0.802963 0.276095
O O11 0.000000 0.500000 0.707299
#
# Coordination Sequence:
#
# PCOD8177014 Si02
#       5
#     8   4   8   8   8
#     4  12  24  44  69 103 137 184 227 288 356 414
#     4  12  26  48  64 100 156 184 222 290 366 428
#     4  10  24  45  69  98 136 184 230 288 344 415
#     4  11  21  41  74 100 128 176 241 290 339 404
#     4  11  21  40  72 103 125 175 242 287 334 409
#
# _framework density 21.666872999999999
#
# number of rings (size 3 to 8) (size 9 to 14) (size 15 to 20)
#    0.000    0.889    5.556    1.333    0.000    0.889 
#   12.000    0.000    0.000    0.000    0.000    0.000 
#    0.000    0.000    0.000    0.000    0.000    0.000 
#
# Total GULP energy -223040.905763 kJ/mol
# GULP energy per Si atom -12391.161431 kJ/mol
# Density = 2.161756 g / cm^3
# Si number density = 21.666873 Si / 1000 Ang^3
#
#
#
# Elastic Constant Matrix: (Units=GPa)
#
#
# Indices 1 2 3 4 5 6 
#
# 1 109.3109 51.8151 64.7869 0.0000 0.0000 0.0000
# 2 51.8151 144.6869 55.6896 0.0000 0.0000 0.0000
# 3 64.7869 55.6896 115.4760 0.0000 0.0000 0.0000
# 4 0.0000 0.0000 0.0000 244.5985 0.0000 0.0000
# 5 0.0000 0.0000 0.0000 0.0000 -68.1368 0.0000
# 6 0.0000 0.0000 0.0000 0.0000 0.0000 35.4157
#
#
#
# Elastic Compliance Matrix: (Units=1/GPa)
#
#
# Indices 1 2 3 4 5 6 
#
# 1 0.014415 -0.002517 -0.006874 0.000000 0.000000 0.000000
# 2 -0.002517 0.008926 -0.002893 0.000000 0.000000 0.000000
# 3 -0.006874 -0.002893 0.013911 0.000000 0.000000 0.000000
# 4 0.000000 0.000000 0.000000 0.004088 0.000000 0.000000
# 5 0.000000 0.000000 0.000000 0.000000 -0.014676 0.000000
# 6 0.000000 0.000000 0.000000 0.000000 0.000000 0.028236
#
#
# Mechanical properties :
#
#
# Convention : Reuss Voigt Hill
#
# Bulk Modulus (GPa) = 78.82587 79.33964 79.08276
# Shear Modulus (GPa) = 59.73996 55.52096 57.63046
#
# Velocity S-wave (km/s) = 5.25660 5.06759 5.16296
# Velocity P-wave (km/s) = 8.56168 8.42247 8.49236
#
# Compressibility (1/GPa) = 0.01268619
#
# Stress axis : x y z
#
# Youngs Moduli (GPa) = 69.37140 112.03031 71.88338
#
# Poissons Ratio (x) = 0.28194 0.49412
# Poissons Ratio (y) = 0.17458 0.20795
# Poissons Ratio (z) = 0.47685 0.32408
#
# Static dielectric constant tensor:
#      x y z
#    x 4.503530 0.000000 0.000000 
#    y 0.000000 4.080220 0.000000 
#    z 0.000000 0.000000 3.699650 
# 
# 
# High freq. dielectric constant tensor:
#      x y z
#    x 1.852620 0.000000 0.000000 
#    y 0.000000 1.888070 0.000000 
#    z 0.000000 0.000000 1.817900 
# 
# From -- ./inp_files/11960.got.cif
#   From: 2010.03.12/outbox.cif.g09.slc.cpg/sg37_6_cif.got.tgz:11960.got - 2010.04.14 02:25:27.
