data_PCOD8177876
_publ_section_title
;
Structure prediction by ZEFSAII (Michael W. Deem and Ramdas Pophale) SiO2 
 PCOD8177876
Probable space group: A M M 2
;
_chemical_formula_sum "Si O2"
_cell_formula_units_Z 64
_cell_length_a 18.925939
_cell_length_b 12.649573
_cell_length_c 17.221251
_cell_angle_alpha 90.000000
_cell_angle_beta 90.000000
_cell_angle_gamma 90.000000
_cell_volume 4122.854405
_symmetry_space_group_name_H-M "A M M 2"
_symmetry_group_IT_number 38
_symmetry_cell_setting 'orthorhombic'
loop_
_space_group_symop_operation_xyz
x,y,z
-x,-y,z
-x,y,z
x,-y,z
x,1/2+y,1/2+z
-x,1/2-y,1/2+z
-x,1/2+y,1/2+z
x,1/2-y,1/2+z
loop_
_atom_site_type_symbol
_atom_site_label
_atom_site_fract_x
_atom_site_fract_y
_atom_site_fract_z
Si Si1 0.421196 0.123126 0.147260
Si Si2 0.285524 0.693416 0.588253
Si Si3 0.080502 0.378895 0.740629
Si Si4 0.195070 0.273389 0.303627
Si Si5 0.299820 0.117619 0.250501
Si Si6 0.801647 0.377811 0.141594
Si Si7 0.919565 0.237501 0.082681
Si Si8 0.822900 0.877987 0.967723
O O1 0.500000 0.171940 0.148646
O O2 0.371548 0.183628 0.083646
O O3 0.383735 0.136733 0.232429
O O4 0.423634 0.000000 0.124732
O O5 0.259362 0.631836 0.666850
O O6 0.260922 0.814994 0.596921
O O7 0.250194 0.639259 0.514107
O O8 0.104577 0.500000 0.750649
O O9 0.129040 0.305573 0.794321
O O10 0.087690 0.348981 0.650378
O O11 0.000000 0.362675 0.768497
O O12 0.267189 0.203109 0.309429
O O13 0.200145 0.356499 0.233491
O O14 0.187873 0.339895 0.380712
O O15 0.286834 0.000000 0.283218
O O16 0.789335 0.500000 0.124578
O O17 0.877246 0.342868 0.106781
O O18 0.000000 0.270397 0.066432
O O19 0.887026 0.186927 0.005325
O O20 0.843719 0.000000 0.966562
#
# Coordination Sequence:
#
# PCOD8177876 Si02
#       8
#     8   8   8   8   8   8   8   8
#     4   8  13  24  48  79  98 110 142 193 238 265
#     4   8  16  29  47  70  91 116 150 190 227 264
#     4   9  17  31  50  67  85 113 150 195 238 271
#     4  10  19  28  42  66  94 123 151 181 220 273
#     4   8  14  27  47  69  90 116 148 188 227 261
#     4   9  17  31  48  64  86 120 157 189 223 267
#     4   9  19  33  49  68  86 110 153 200 239 276
#     4  11  20  30  45  66  94 122 150 184 229 279
#
# _framework density 15.523225
#
# number of rings (size 3 to 8) (size 9 to 14) (size 15 to 20)
#    0.750    2.250    0.000    2.625    0.000    1.500 
#    0.000    5.000    0.000    3.375    0.000    0.000 
#    0.000    0.000    0.000    0.000    0.000    0.000 
#
# Total GULP energy -396500.832602 kJ/mol
# GULP energy per Si atom -12390.651019 kJ/mol
# Density = 1.548789 g / cm^3
# Si number density = 15.523225 Si / 1000 Ang^3
#
#
#
# Elastic Constant Matrix: (Units=GPa)
#
#
# Indices 1 2 3 4 5 6 
#
# 1 116.8398 34.5061 17.4223 0.0000 0.0000 0.0000
# 2 34.5061 86.5537 18.1178 0.0000 0.0000 0.0000
# 3 17.4223 18.1178 55.7863 0.0000 0.0000 0.0000
# 4 0.0000 0.0000 0.0000 18.3554 0.0000 0.0000
# 5 0.0000 0.0000 0.0000 0.0000 12.0605 0.0000
# 6 0.0000 0.0000 0.0000 0.0000 0.0000 16.3098
#
#
#
# Elastic Compliance Matrix: (Units=1/GPa)
#
#
# Indices 1 2 3 4 5 6 
#
# 1 0.009893 -0.003538 -0.001941 0.000000 0.000000 0.000000
# 2 -0.003538 0.013661 -0.003332 0.000000 0.000000 0.000000
# 3 -0.001941 -0.003332 0.019614 0.000000 0.000000 0.000000
# 4 0.000000 0.000000 0.000000 0.054480 0.000000 0.000000
# 5 0.000000 0.000000 0.000000 0.000000 0.082915 0.000000
# 6 0.000000 0.000000 0.000000 0.000000 0.000000 0.061313
#
#
# Mechanical properties :
#
#
# Convention : Reuss Voigt Hill
#
# Bulk Modulus (GPa) = 39.14308 44.36358 41.75333
# Shear Modulus (GPa) = 18.65586 21.95406 20.30496
#
# Velocity S-wave (km/s) = 3.47046 3.76476 3.62060
# Velocity P-wave (km/s) = 6.42879 6.89484 6.66589
#
# Compressibility (1/GPa) = 0.02554730
#
# Stress axis : x y z
#
# Youngs Moduli (GPa) = 101.08271 73.19917 50.98468
#
# Poissons Ratio (x) = 0.25896 0.09894
# Poissons Ratio (y) = 0.35760 0.16988
# Poissons Ratio (z) = 0.19616 0.24390
#
# Static dielectric constant tensor:
#      x y z
#    x 3.101950 0.000000 0.000000 
#    y 0.000000 2.808900 0.000000 
#    z 0.000000 0.000000 2.638090 
# 
# 
# High freq. dielectric constant tensor:
#      x y z
#    x 1.588160 0.000000 0.000000 
#    y 0.000000 1.587230 0.000000 
#    z 0.000000 0.000000 1.561720 
# 
# From -- ./inp_files/18764.got.cif
#   From: 2010.03.12/outbox.cif.g09.slc.cpg/sg38_10_cif.got.tgz:18764.got - 2010.04.14 02:38:36.
