data_PCOD8177254
_publ_section_title
;
Structure prediction by ZEFSAII (Michael W. Deem and Ramdas Pophale) SiO2 
 PCOD8177254
Probable space group: A M M 2
;
_chemical_formula_sum "Si O2"
_cell_formula_units_Z 64
_cell_length_a 13.126198
_cell_length_b 18.169299
_cell_length_c 16.729427
_cell_angle_alpha 90.000000
_cell_angle_beta 90.000000
_cell_angle_gamma 90.000000
_cell_volume 3989.864888
_symmetry_space_group_name_H-M "A M M 2"
_symmetry_group_IT_number 38
_symmetry_cell_setting 'orthorhombic'
loop_
_space_group_symop_operation_xyz
x,y,z
-x,-y,z
-x,y,z
x,-y,z
x,1/2+y,1/2+z
-x,1/2-y,1/2+z
-x,1/2+y,1/2+z
x,1/2-y,1/2+z
loop_
_atom_site_type_symbol
_atom_site_label
_atom_site_fract_x
_atom_site_fract_y
_atom_site_fract_z
Si Si1 0.620575 0.081994 0.477990
Si Si2 0.714761 0.087238 0.918511
Si Si3 0.383322 0.175664 0.788147
Si Si4 0.620911 0.304376 0.105947
Si Si5 0.613464 0.646405 0.559029
Si Si6 0.886783 0.912580 0.042492
Si Si7 0.382968 0.843222 0.312956
Si Si8 0.746392 0.917705 0.179478
O O1 0.500000 0.078412 0.485748
O O2 0.666861 0.131979 0.548929
O O3 0.650920 0.116537 0.393339
O O4 0.667314 0.000000 0.484546
O O5 0.699918 0.122994 0.831063
O O6 0.815950 0.113343 0.967666
O O7 0.709421 0.000000 0.909356
O O8 0.619448 0.122156 0.966765
O O9 0.500000 0.145596 0.793941
O O10 0.347281 0.178917 0.696440
O O11 0.377828 0.256342 0.827227
O O12 0.500000 0.302452 0.096192
O O13 0.666434 0.225523 0.077799
O O14 0.500000 0.653490 0.589048
O O15 0.663721 0.580056 0.608513
O O16 0.000000 0.879825 0.029872
O O17 0.888355 0.000000 0.041967
O O18 0.846828 0.887958 0.131440
O O19 0.500000 0.864970 0.287663
O O20 0.297624 0.864724 0.247753
O O21 0.761924 0.000000 0.214001
#
# Coordination Sequence:
#
# PCOD8177254 Si02
#       8
#     8   8   8   8   8   8   8   8
#     4   9  17  27  39  55  78 116 162 196 215 239
#     4  10  20  30  45  70  91 115 154 194 233 274
#     4  10  19  30  43  62  93 129 157 183 222 271
#     4   9  17  29  42  56  81 124 165 186 214 263
#     4  10  17  27  40  60  92 121 147 176 217 275
#     4   8  16  32  50  68  92 118 145 186 244 300
#     4  10  18  29  42  62  95 128 156 185 222 269
#     4  10  18  26  43  69  91 115 150 188 226 271
#
# _framework density 16.040644
#
# number of rings (size 3 to 8) (size 9 to 14) (size 15 to 20)
#    0.000    2.500    1.250    3.000    0.000    5.500 
#    0.000    1.250    0.000    0.750    0.000    0.000 
#    0.000    0.000    0.000    6.625    0.000    4.500 
#
# Total GULP energy -396435.750082 kJ/mol
# GULP energy per Si atom -12388.617190 kJ/mol
# Density = 1.600413 g / cm^3
# Si number density = 16.040644 Si / 1000 Ang^3
#
#
#
# Elastic Constant Matrix: (Units=GPa)
#
#
# Indices 1 2 3 4 5 6 
#
# 1 59.7368 23.0860 24.0150 0.0000 0.0000 0.0000
# 2 23.0860 69.4026 31.6334 0.0000 0.0000 0.0000
# 3 24.0150 31.6334 64.5932 0.0000 0.0000 0.0000
# 4 0.0000 0.0000 0.0000 32.5092 0.0000 0.0000
# 5 0.0000 0.0000 0.0000 0.0000 17.6946 0.0000
# 6 0.0000 0.0000 0.0000 0.0000 0.0000 9.8053
#
#
#
# Elastic Compliance Matrix: (Units=1/GPa)
#
#
# Indices 1 2 3 4 5 6 
#
# 1 0.020649 -0.004338 -0.005553 0.000000 0.000000 0.000000
# 2 -0.004338 0.019460 -0.007918 0.000000 0.000000 0.000000
# 3 -0.005553 -0.007918 0.021423 0.000000 0.000000 0.000000
# 4 0.000000 0.000000 0.000000 0.030760 0.000000 0.000000
# 5 0.000000 0.000000 0.000000 0.000000 0.056514 0.000000
# 6 0.000000 0.000000 0.000000 0.000000 0.000000 0.101986
#
#
# Mechanical properties :
#
#
# Convention : Reuss Voigt Hill
#
# Bulk Modulus (GPa) = 38.58543 39.02238 38.80390
# Shear Modulus (GPa) = 16.94638 19.66838 18.30738
#
# Velocity S-wave (km/s) = 3.25386 3.50545 3.38200
# Velocity P-wave (km/s) = 6.18254 6.38469 6.28443
#
# Compressibility (1/GPa) = 0.02591652
#
# Stress axis : x y z
#
# Youngs Moduli (GPa) = 48.42925 51.38639 46.67782
#
# Poissons Ratio (x) = 0.22290 0.25918
# Poissons Ratio (y) = 0.21007 0.36958
# Poissons Ratio (z) = 0.26891 0.40686
#
# Static dielectric constant tensor:
#      x y z
#    x 2.818800 0.000000 0.000000 
#    y 0.000000 3.113740 0.000000 
#    z 0.000000 0.000000 3.122610 
# 
# 
# High freq. dielectric constant tensor:
#      x y z
#    x 1.554700 0.000000 0.000000 
#    y 0.000000 1.613300 0.000000 
#    z 0.000000 0.000000 1.621200 
# 
# From -- ./inp_files/14773.got.cif
#   From: 2010.03.12/outbox.cif.g09.slc.cpg/sg38_8_cif.got.tgz:14773.got - 2010.04.14 02:38:36.
