data_PCOD8177557
_publ_section_title
;
Structure prediction by ZEFSAII (Michael W. Deem and Ramdas Pophale) SiO2 
 PCOD8177557
Probable space group: A M M 2
;
_chemical_formula_sum "Si O2"
_cell_formula_units_Z 48
_cell_length_a 8.941242
_cell_length_b 16.675438
_cell_length_c 18.797526
_cell_angle_alpha 90.000000
_cell_angle_beta 90.000000
_cell_angle_gamma 90.000000
_cell_volume 2802.694709
_symmetry_space_group_name_H-M "A M M 2"
_symmetry_group_IT_number 38
_symmetry_cell_setting 'orthorhombic'
loop_
_space_group_symop_operation_xyz
x,y,z
-x,-y,z
-x,y,z
x,-y,z
x,1/2+y,1/2+z
-x,1/2-y,1/2+z
-x,1/2+y,1/2+z
x,1/2-y,1/2+z
loop_
_atom_site_type_symbol
_atom_site_label
_atom_site_fract_x
_atom_site_fract_y
_atom_site_fract_z
Si Si1 0.321463 0.589248 0.223210
Si Si2 0.824175 0.000000 0.200407
Si Si3 0.677982 0.154681 0.432537
Si Si4 0.675844 0.159900 0.174498
Si Si5 0.323702 0.261715 0.306152
Si Si6 0.323667 0.687723 0.089437
Si Si7 0.822602 0.500000 0.863906
O O1 0.500000 0.585971 0.222479
O O2 0.255071 0.500000 0.235202
O O3 0.263711 0.648767 0.286487
O O4 0.262739 0.623992 0.147543
O O5 0.761009 0.077445 0.159823
O O6 0.769735 0.000000 0.282166
O O7 0.000000 0.000000 0.194158
O O8 0.500000 0.141401 0.431165
O O9 0.722965 0.232512 0.384766
O O10 0.742410 0.169682 0.511509
O O11 0.757008 0.077096 0.402247
O O12 0.500000 0.142636 0.176861
O O13 0.735209 0.197089 0.248833
O O14 0.718355 0.221753 0.111686
O O15 0.500000 0.264903 0.297124
O O16 0.500000 0.678909 0.086089
O O17 0.000000 0.500000 0.870559
#
# Coordination Sequence:
#
# PCOD8177557 Si02
#       7
#     8   4   8   8   8   8   4
#     4   8  13  22  37  61  92 119 142 180 230 270
#     4  11  21  31  47  71  95 120 163 206 232 272
#     4  10  18  30  49  70  94 124 157 188 227 283
#     4   9  16  30  48  68  94 124 154 189 237 279
#     4   8  14  24  41  63  88 120 153 179 217 277
#     4   8  16  27  44  70  95 118 151 192 231 277
#     4  11  23  33  43  69 103 126 153 196 242 278
#
# _framework density 17.126374999999999
#
# number of rings (size 3 to 8) (size 9 to 14) (size 15 to 20)
#    0.000    3.000    1.667    2.500    1.167    0.667 
#    0.000    0.833    1.833    0.000    0.000    0.000 
#    0.000    0.000    0.000    0.000    0.000    0.000 
#
# Total GULP energy -297419.183195 kJ/mol
# GULP energy per Si atom -12392.465966 kJ/mol
# Density = 1.708739 g / cm^3
# Si number density = 17.126375 Si / 1000 Ang^3
#
#
#
# Elastic Constant Matrix: (Units=GPa)
#
#
# Indices 1 2 3 4 5 6 
#
# 1 24.2869 26.1475 17.3150 0.0000 0.0000 0.0000
# 2 26.1475 164.5191 59.0369 0.0000 0.0000 0.0000
# 3 17.3150 59.0369 92.3086 0.0000 0.0000 0.0000
# 4 0.0000 0.0000 0.0000 20.9798 0.0000 0.0000
# 5 0.0000 0.0000 0.0000 0.0000 9.8776 0.0000
# 6 0.0000 0.0000 0.0000 0.0000 0.0000 -0.3749
#
#
#
# Elastic Compliance Matrix: (Units=1/GPa)
#
#
# Indices 1 2 3 4 5 6 
#
# 1 0.051957 -0.006178 -0.005795 0.000000 0.000000 0.000000
# 2 -0.006178 0.008624 -0.004356 0.000000 0.000000 0.000000
# 3 -0.005795 -0.004356 0.014706 0.000000 0.000000 0.000000
# 4 0.000000 0.000000 0.000000 0.047665 0.000000 0.000000
# 5 0.000000 0.000000 0.000000 0.000000 0.101239 0.000000
# 6 0.000000 0.000000 0.000000 0.000000 0.000000 -2.667343
#
#
# Mechanical properties :
#
#
# Convention : Reuss Voigt Hill
#
# Bulk Modulus (GPa) = 23.45844 54.01259 38.73551
# Shear Modulus (GPa) = -2.08656 18.00420 7.95882
#
# Velocity S-wave (km/s) = -1.10498 3.24582 2.15805
# Velocity P-wave (km/s) = 3.47836 6.75672 5.37365
#
# Compressibility (1/GPa) = 0.04262858
#
# Stress axis : x y z
#
# Youngs Moduli (GPa) = 19.24657 115.96205 67.99812
#
# Poissons Ratio (x) = 0.71645 0.39402
# Poissons Ratio (y) = 0.11891 0.29622
# Poissons Ratio (z) = 0.11153 0.50517
#
# Static dielectric constant tensor:
#      x y z
#    x 2.666660 0.000000 0.000000 
#    y 0.000000 4.269540 0.000000 
#    z 0.000000 0.000000 3.427750 
# 
# 
# High freq. dielectric constant tensor:
#      x y z
#    x 1.606280 0.000000 0.000000 
#    y 0.000000 1.670020 0.000000 
#    z 0.000000 0.000000 1.648410 
# 
# From -- ./inp_files/19926.got.cif
#   From: 2010.03.12/outbox.cif.g09.slc.cpg/sg38_10_cif.got.tgz:19926.got - 2010.04.14 02:38:36.
