data_PCOD8177448
_publ_section_title
;
Structure prediction by ZEFSAII (Michael W. Deem and Ramdas Pophale) SiO2 
 PCOD8177448
Probable space group: A M M 2
;
_chemical_formula_sum "Si O2"
_cell_formula_units_Z 64
_cell_length_a 8.921423
_cell_length_b 26.560471
_cell_length_c 18.385077
_cell_angle_alpha 90.000000
_cell_angle_beta 90.000000
_cell_angle_gamma 90.000000
_cell_volume 4356.476310
_symmetry_space_group_name_H-M "A M M 2"
_symmetry_group_IT_number 38
_symmetry_cell_setting 'orthorhombic'
loop_
_space_group_symop_operation_xyz
x,y,z
-x,-y,z
-x,y,z
x,-y,z
x,1/2+y,1/2+z
-x,1/2-y,1/2+z
-x,1/2+y,1/2+z
x,1/2-y,1/2+z
loop_
_atom_site_type_symbol
_atom_site_label
_atom_site_fract_x
_atom_site_fract_y
_atom_site_fract_z
Si Si1 0.826899 0.942036 0.471400
Si Si2 0.823513 0.056557 0.306132
Si Si3 0.319968 0.754955 0.319157
Si Si4 0.822941 0.739960 0.972443
Si Si5 0.322918 0.852020 0.230914
Si Si6 0.663102 0.695925 0.187052
Si Si7 0.664967 0.795755 0.093480
Si Si8 0.679081 0.646447 0.048660
O O1 0.774153 0.931915 0.388886
O O2 0.725934 0.909205 0.525348
O O3 0.000000 0.927008 0.481003
O O4 0.801417 0.000000 0.492373
O O5 0.746617 0.094613 0.251015
O O6 0.000000 0.062232 0.299484
O O7 0.773787 0.000000 0.285008
O O8 0.500000 0.752418 0.327131
O O9 0.237711 0.744225 0.394075
O O10 0.269656 0.809321 0.288005
O O11 0.259254 0.710876 0.263634
O O12 0.778959 0.785000 0.027623
O O13 0.749107 0.686881 0.993619
O O14 0.000000 0.733524 0.970997
O O15 0.500000 0.856310 0.233782
O O16 0.272432 0.839006 0.147924
O O17 0.500000 0.673813 0.206274
O O18 0.644763 0.746882 0.142258
O O19 0.742374 0.656343 0.131506
O O20 0.500000 0.810286 0.062124
O O21 0.500000 0.652710 0.046613
#
# Coordination Sequence:
#
# PCOD8177448 Si02
#       8
#     8   8   8   8   8   8   8   8
#     4   9  18  31  43  58  83 111 138 169 202 235
#     4   9  18  30  41  55  80 112 140 167 201 238
#     4   9  16  28  43  58  79 107 135 164 202 241
#     4  11  20  27  38  60  85 108 136 166 198 238
#     4   9  17  28  44  62  78 102 138 174 204 236
#     4   7  13  26  42  57  75 101 132 165 198 235
#     4   8  15  29  43  56  77 104 133 165 201 238
#     4  10  18  29  44  60  79 106 140 172 202 237
#
# _framework density 14.690772000000001
#
# number of rings (size 3 to 8) (size 9 to 14) (size 15 to 20)
#    0.000    3.000    0.000    5.250    0.000    4.000 
#    0.000    6.875    0.000    0.000    0.000    0.000 
#    0.000    1.000    0.000    9.500    0.000    5.500 
#
# Total GULP energy -396472.167445 kJ/mol
# GULP energy per Si atom -12389.755233 kJ/mol
# Density = 1.465733 g / cm^3
# Si number density = 14.690772 Si / 1000 Ang^3
#
#
#
# Elastic Constant Matrix: (Units=GPa)
#
#
# Indices 1 2 3 4 5 6 
#
# 1 52.1551 28.8398 39.3188 0.0000 0.0000 0.0000
# 2 28.8398 79.8715 54.4978 0.0000 0.0000 0.0000
# 3 39.3188 54.4978 102.8474 0.0000 0.0000 0.0000
# 4 0.0000 0.0000 0.0000 26.6061 0.0000 0.0000
# 5 0.0000 0.0000 0.0000 0.0000 13.3573 0.0000
# 6 0.0000 0.0000 0.0000 0.0000 0.0000 21.7169
#
#
#
# Elastic Compliance Matrix: (Units=1/GPa)
#
#
# Indices 1 2 3 4 5 6 
#
# 1 0.027881 -0.004377 -0.008340 0.000000 0.000000 0.000000
# 2 -0.004377 0.020297 -0.009082 0.000000 0.000000 0.000000
# 3 -0.008340 -0.009082 0.017724 0.000000 0.000000 0.000000
# 4 0.000000 0.000000 0.000000 0.037585 0.000000 0.000000
# 5 0.000000 0.000000 0.000000 0.000000 0.074865 0.000000
# 6 0.000000 0.000000 0.000000 0.000000 0.000000 0.046047
#
#
# Mechanical properties :
#
#
# Convention : Reuss Voigt Hill
#
# Bulk Modulus (GPa) = 44.83305 53.35407 49.09356
# Shear Modulus (GPa) = 18.15328 19.81724 18.98526
#
# Velocity S-wave (km/s) = 3.51906 3.67680 3.59879
# Velocity P-wave (km/s) = 6.86263 7.37713 7.12453
#
# Compressibility (1/GPa) = 0.02230497
#
# Stress axis : x y z
#
# Youngs Moduli (GPa) = 35.86679 49.26750 56.42091
#
# Poissons Ratio (x) = 0.21564 0.47053
# Poissons Ratio (y) = 0.15698 0.51242
# Poissons Ratio (z) = 0.29912 0.44745
#
# Static dielectric constant tensor:
#      x y z
#    x 2.700100 0.000000 0.000000 
#    y 0.000000 2.856840 0.000000 
#    z 0.000000 0.000000 3.093630 
# 
# 
# High freq. dielectric constant tensor:
#      x y z
#    x 1.551200 0.000000 0.000000 
#    y 0.000000 1.531000 0.000000 
#    z 0.000000 0.000000 1.554950 
# 
# From -- ./inp_files/17325.got.cif
#   From: 2010.03.12/outbox.cif.g09.slc.cpg/sg38_9_cif.got.tgz:17325.got - 2010.04.14 02:38:36.
