data_PCOD8177450
_publ_section_title
;
Structure prediction by ZEFSAII (Michael W. Deem and Ramdas Pophale) SiO2 
 PCOD8177450
Probable space group: A M M 2
;
_chemical_formula_sum "Si O2"
_cell_formula_units_Z 64
_cell_length_a 14.240884
_cell_length_b 9.278772
_cell_length_c 31.430445
_cell_angle_alpha 90.000000
_cell_angle_beta 90.000000
_cell_angle_gamma 90.000000
_cell_volume 4153.153492
_symmetry_space_group_name_H-M "A M M 2"
_symmetry_group_IT_number 38
_symmetry_cell_setting 'orthorhombic'
loop_
_space_group_symop_operation_xyz
x,y,z
-x,-y,z
-x,y,z
x,-y,z
x,1/2+y,1/2+z
-x,1/2-y,1/2+z
-x,1/2+y,1/2+z
x,1/2-y,1/2+z
loop_
_atom_site_type_symbol
_atom_site_label
_atom_site_fract_x
_atom_site_fract_y
_atom_site_fract_z
Si Si1 0.392656 0.330954 0.731440
Si Si2 0.104774 0.834101 0.029427
Si Si3 0.388236 0.839739 0.812377
Si Si4 0.605425 0.827895 0.905112
Si Si5 0.725429 0.829380 0.149965
Si Si6 0.605333 0.328498 0.569379
Si Si7 0.289528 0.830554 0.986400
Si Si8 0.107165 0.831952 0.616049
O O1 0.500000 0.282383 0.722733
O O2 0.387100 0.500000 0.737998
O O3 0.351056 0.259982 0.774265
O O4 0.329727 0.280436 0.692019
O O5 0.124186 0.734555 0.069670
O O6 0.000000 0.809762 0.011112
O O7 0.119603 0.000000 0.044072
O O8 0.179120 0.794031 0.992480
O O9 0.500000 0.844627 0.812552
O O10 0.356704 0.777155 0.858638
O O11 0.347379 0.000000 0.805186
O O12 0.500000 0.770360 0.913783
O O13 0.673090 0.763847 0.942020
O O14 0.604314 0.000000 0.905038
O O15 0.665039 0.775590 0.109695
O O16 0.825386 0.748114 0.149610
O O17 0.742496 0.000000 0.149051
O O18 0.500000 0.266565 0.572985
O O19 0.603230 0.500000 0.568901
O O20 0.652320 0.267310 0.526326
O O21 0.306706 0.000000 0.984719
O O22 0.000000 0.806425 0.630789
O O23 0.131806 0.000000 0.614069
#
# Coordination Sequence:
#
# PCOD8177450 Si02
#       8
#     8   8   8   8   8   8   8   8
#     4   9  17  28  43  64  89 114 141 175 211 249
#     4   9  16  27  43  62  83 107 139 179 217 252
#     4   8  14  25  40  58  81 109 141 177 213 247
#     4   8  13  21  35  58  85 108 136 176 213 246
#     4  10  18  29  44  64  86 110 141 176 211 247
#     4   9  15  22  35  58  86 112 138 168 202 242
#     4   9  14  21  36  60  84 109 139 172 211 248
#     4  10  20  32  45  61  82 110 143 178 214 252
#
# _framework density 15.409978000000001
#
# number of rings (size 3 to 8) (size 9 to 14) (size 15 to 20)
#    0.000    3.000    1.250    1.875    0.000    4.250 
#    0.000    0.000    0.000    1.875    0.000    0.875 
#    0.000    3.000    0.000    0.000    0.000    0.250 
#
# Total GULP energy -396615.382467 kJ/mol
# GULP energy per Si atom -12394.230702 kJ/mol
# Density = 1.537490 g / cm^3
# Si number density = 15.409978 Si / 1000 Ang^3
#
#
#
# Elastic Constant Matrix: (Units=GPa)
#
#
# Indices 1 2 3 4 5 6 
#
# 1 101.3609 29.7625 65.1520 0.0000 0.0000 0.0000
# 2 29.7625 31.1608 32.8392 0.0000 0.0000 0.0000
# 3 65.1520 32.8392 142.8180 0.0000 0.0000 0.0000
# 4 0.0000 0.0000 0.0000 16.9412 0.0000 0.0000
# 5 0.0000 0.0000 0.0000 0.0000 14.6047 0.0000
# 6 0.0000 0.0000 0.0000 0.0000 0.0000 13.2596
#
#
#
# Elastic Compliance Matrix: (Units=1/GPa)
#
#
# Indices 1 2 3 4 5 6 
#
# 1 0.016030 -0.010036 -0.005005 0.000000 0.000000 0.000000
# 2 -0.010036 0.048638 -0.006606 0.000000 0.000000 0.000000
# 3 -0.005005 -0.006606 0.010804 0.000000 0.000000 0.000000
# 4 0.000000 0.000000 0.000000 0.059028 0.000000 0.000000
# 5 0.000000 0.000000 0.000000 0.000000 0.068471 0.000000
# 6 0.000000 0.000000 0.000000 0.000000 0.000000 0.075417
#
#
# Mechanical properties :
#
#
# Convention : Reuss Voigt Hill
#
# Bulk Modulus (GPa) = 31.07574 58.98300 45.02937
# Shear Modulus (GPa) = 15.04181 18.80017 16.92099
#
# Velocity S-wave (km/s) = 3.12766 3.49664 3.31728
# Velocity P-wave (km/s) = 5.76652 7.39330 6.63000
#
# Compressibility (1/GPa) = 0.03217944
#
# Stress axis : x y z
#
# Youngs Moduli (GPa) = 62.38482 20.55987 92.55855
#
# Poissons Ratio (x) = 0.20633 0.46325
# Poissons Ratio (y) = 0.62608 0.61141
# Poissons Ratio (z) = 0.31223 0.13581
#
# Static dielectric constant tensor:
#      x y z
#    x 3.007140 0.000000 0.000000 
#    y 0.000000 2.659540 0.000000 
#    z 0.000000 0.000000 3.145900 
# 
# 
# High freq. dielectric constant tensor:
#      x y z
#    x 1.576380 0.000000 0.000000 
#    y 0.000000 1.553300 0.000000 
#    z 0.000000 0.000000 1.583140 
# 
# From -- ./inp_files/25055.got.cif
#   From: 2010.03.12/outbox.cif.g09.slc.cpg/sg38_13_cif.got.tgz:25055.got - 2010.04.14 02:38:36.
