data_PCOD8177067
_publ_section_title
;
Structure prediction by ZEFSAII (Michael W. Deem and Ramdas Pophale) SiO2 
 PCOD8177067
Probable space group: C C C 2
;
_chemical_formula_sum "Si O2"
_cell_formula_units_Z 48
_cell_length_a 16.575222
_cell_length_b 9.283110
_cell_length_c 13.873367
_cell_angle_alpha 90.000000
_cell_angle_beta 90.000000
_cell_angle_gamma 90.000000
_cell_volume 2134.689557
_symmetry_space_group_name_H-M "C C C 2"
_symmetry_group_IT_number 37
_symmetry_cell_setting 'orthorhombic'
loop_
_space_group_symop_operation_xyz
x,y,z
-x,-y,z
-x,y,1/2+z
x,-y,1/2+z
1/2+x,1/2+y,z
1/2-x,1/2-y,z
1/2-x,1/2+y,1/2+z
1/2+x,1/2-y,1/2+z
loop_
_atom_site_type_symbol
_atom_site_label
_atom_site_fract_x
_atom_site_fract_y
_atom_site_fract_z
Si Si1 0.319585 0.422284 0.025430
Si Si2 0.628253 0.746591 0.723643
Si Si3 0.178404 0.423687 0.416628
Si Si4 0.250950 0.995805 0.222115
Si Si5 0.419778 0.808097 0.428182
Si Si6 0.082467 0.806837 0.018290
O O1 0.285216 0.408209 0.134778
O O2 0.399614 0.522691 0.012493
O O3 0.250157 0.492274 0.964508
O O4 0.344194 0.266688 0.983959
O O5 0.681385 0.882324 0.688625
O O6 0.678255 0.606231 0.757817
O O7 0.572881 0.775916 0.815087
O O8 0.572454 0.722138 0.631540
O O9 0.207930 0.405047 0.305196
O O10 0.097131 0.520532 0.432473
O O11 0.159200 0.270285 0.465389
O O12 0.501885 0.750820 0.471462
#
# Coordination Sequence:
#
# PCOD8177067 Si02
#       6
#     8   8   8   8   8   8
#     4  11  21  41  66  92 123 164 214 258 307 374
#     4   9  18  38  64  84 121 174 206 240 321 388
#     4  11  21  41  66  92 123 164 214 258 307 374
#     4   9  18  36  67  88 116 167 217 248 300 377
#     4  11  23  41  63  93 129 166 205 262 321 378
#     4  11  23  41  63  93 129 166 205 262 321 378
#
# _framework density 22.485704999999999
#
# number of rings (size 3 to 8) (size 9 to 14) (size 15 to 20)
#    0.000    1.667    3.333    2.000    0.000    0.000 
#    6.000    5.000    0.000    0.000    0.000    0.000 
#    0.000    0.000    0.000    0.000    0.000    0.000 
#
# Total GULP energy -297352.428046 kJ/mol
# GULP energy per Si atom -12389.684502 kJ/mol
# Density = 2.243453 g / cm^3
# Si number density = 22.485705 Si / 1000 Ang^3
#
#
#
# Elastic Constant Matrix: (Units=GPa)
#
#
# Indices 1 2 3 4 5 6 
#
# 1 71.3649 -4.9692 23.9489 0.0000 0.0000 0.0000
# 2 -4.9692 64.5927 29.4696 0.0000 0.0000 0.0000
# 3 23.9489 29.4696 115.4110 0.0000 0.0000 0.0000
# 4 0.0000 0.0000 0.0000 28.7856 0.0000 0.0000
# 5 0.0000 0.0000 0.0000 0.0000 41.9109 0.0000
# 6 0.0000 0.0000 0.0000 0.0000 0.0000 29.6822
#
#
#
# Elastic Compliance Matrix: (Units=1/GPa)
#
#
# Indices 1 2 3 4 5 6 
#
# 1 0.015566 0.003023 -0.004002 0.000000 0.000000 0.000000
# 2 0.003023 0.018110 -0.005252 0.000000 0.000000 0.000000
# 3 -0.004002 -0.005252 0.010836 0.000000 0.000000 0.000000
# 4 0.000000 0.000000 0.000000 0.034740 0.000000 0.000000
# 5 0.000000 0.000000 0.000000 0.000000 0.023860 0.000000
# 6 0.000000 0.000000 0.000000 0.000000 0.000000 0.033690
#
#
# Mechanical properties :
#
#
# Convention : Reuss Voigt Hill
#
# Bulk Modulus (GPa) = 31.19968 38.69635 34.94801
# Shear Modulus (GPa) = 31.26030 33.60369 32.43199
#
# Velocity S-wave (km/s) = 3.73262 3.87000 3.80193
# Velocity P-wave (km/s) = 5.69931 6.10048 5.90330
#
# Compressibility (1/GPa) = 0.03205162
#
# Stress axis : x y z
#
# Youngs Moduli (GPa) = 64.24231 55.21732 92.28357
#
# Poissons Ratio (x) = -0.16695 0.36933
# Poissons Ratio (y) = -0.19423 0.48465
# Poissons Ratio (z) = 0.25711 0.28999
#
# Static dielectric constant tensor:
#      x y z
#    x 4.134830 0.000000 0.000000 
#    y 0.000000 4.277020 0.000000 
#    z 0.000000 0.000000 8.805580 
# 
# 
# High freq. dielectric constant tensor:
#      x y z
#    x 1.871750 0.000000 0.000000 
#    y 0.000000 1.882140 0.000000 
#    z 0.000000 0.000000 1.894100 
# 
# From -- ./inp_files/12540.got.cif
#   From: 2010.03.12/outbox.cif.g09.slc.cpg/sg37_7_cif.got.tgz:12540.got - 2010.04.14 02:25:27.
