data_PCOD8177473
_publ_section_title
;
Structure prediction by ZEFSAII (Michael W. Deem and Ramdas Pophale) SiO2 
 PCOD8177473
Probable space group: A M M 2
;
_chemical_formula_sum "Si O2"
_cell_formula_units_Z 64
_cell_length_a 13.288027
_cell_length_b 31.385077
_cell_length_c 8.818317
_cell_angle_alpha 90.000000
_cell_angle_beta 90.000000
_cell_angle_gamma 90.000000
_cell_volume 3677.641632
_symmetry_space_group_name_H-M "A M M 2"
_symmetry_group_IT_number 38
_symmetry_cell_setting 'orthorhombic'
loop_
_space_group_symop_operation_xyz
x,y,z
-x,-y,z
-x,y,z
x,-y,z
x,1/2+y,1/2+z
-x,1/2-y,1/2+z
-x,1/2+y,1/2+z
x,1/2-y,1/2+z
loop_
_atom_site_type_symbol
_atom_site_label
_atom_site_fract_x
_atom_site_fract_y
_atom_site_fract_z
Si Si1 0.199516 0.364996 0.516870
Si Si2 0.116700 0.365926 0.187708
Si Si3 0.387368 0.190015 0.015440
Si Si4 0.804791 0.711532 0.018384
Si Si5 0.113164 0.453351 0.515871
Si Si6 0.386169 0.727306 0.189460
Si Si7 0.112507 0.955381 0.655673
Si Si8 0.115256 0.209147 0.196028
O O1 0.175083 0.356267 0.341776
O O2 0.314659 0.350177 0.540785
O O3 0.185830 0.414428 0.567533
O O4 0.124974 0.336913 0.619224
O O5 0.125815 0.327301 0.072426
O O6 0.160479 0.409735 0.107302
O O7 0.000000 0.373594 0.228689
O O8 0.500000 0.171555 0.003307
O O9 0.359662 0.217430 0.864549
O O10 0.376412 0.222001 0.157965
O O11 0.691593 0.702899 0.078639
O O12 0.849229 0.755919 0.076169
O O13 0.809692 0.713061 0.837711
O O14 0.151787 0.500000 0.575322
O O15 0.110350 0.454063 0.336248
O O16 0.000000 0.445178 0.577636
O O17 0.500000 0.712112 0.150361
O O18 0.000000 0.958096 0.590127
O O19 0.168367 0.000000 0.603831
O O20 0.000000 0.216840 0.245486
#
# Coordination Sequence:
#
# PCOD8177473 Si02
#       8
#     8   8   8   8   8   8   8   8
#     4  11  19  32  50  73  98 127 165 205 247 290
#     4  10  18  29  47  68  95 127 160 194 237 292
#     4  10  20  34  52  72  95 126 166 214 255 292
#     4  12  22  36  47  68  95 132 166 201 244 296
#     4   8  14  26  46  71  97 126 162 198 236 292
#     4  10  20  36  52  69  92 126 168 211 250 283
#     4   7  11  21  39  64  89 115 151 193 228 268
#     4  12  24  34  47  67  99 135 165 198 238 293
#
# _framework density 17.402457999999999
#
# number of rings (size 3 to 8) (size 9 to 14) (size 15 to 20)
#    0.000    2.000    2.500    5.250    0.000    0.000 
#    0.000    0.000    0.000    1.125    0.000    1.750 
#    0.000    0.500    0.000    0.000    0.000    0.000 
#
# Total GULP energy -396481.000945 kJ/mol
# GULP energy per Si atom -12390.031280 kJ/mol
# Density = 1.736285 g / cm^3
# Si number density = 17.402458 Si / 1000 Ang^3
#
#
#
# Elastic Constant Matrix: (Units=GPa)
#
#
# Indices 1 2 3 4 5 6 
#
# 1 82.5030 34.4578 10.1304 0.0000 0.0000 0.0000
# 2 34.4578 140.1263 29.5052 0.0000 0.0000 0.0000
# 3 10.1304 29.5052 44.0581 0.0000 0.0000 0.0000
# 4 0.0000 0.0000 0.0000 10.9377 0.0000 0.0000
# 5 0.0000 0.0000 0.0000 0.0000 18.6525 0.0000
# 6 0.0000 0.0000 0.0000 0.0000 0.0000 20.2446
#
#
#
# Elastic Compliance Matrix: (Units=1/GPa)
#
#
# Indices 1 2 3 4 5 6 
#
# 1 0.013548 -0.003115 -0.001029 0.000000 0.000000 0.000000
# 2 -0.003115 0.009024 -0.005327 0.000000 0.000000 0.000000
# 3 -0.001029 -0.005327 0.026501 0.000000 0.000000 0.000000
# 4 0.000000 0.000000 0.000000 0.091427 0.000000 0.000000
# 5 0.000000 0.000000 0.000000 0.000000 0.053612 0.000000
# 6 0.000000 0.000000 0.000000 0.000000 0.000000 0.049396
#
#
# Mechanical properties :
#
#
# Convention : Reuss Voigt Hill
#
# Bulk Modulus (GPa) = 33.18804 46.09712 39.64258
# Shear Modulus (GPa) = 18.34900 22.80658 20.57779
#
# Velocity S-wave (km/s) = 3.25066 3.62406 3.44243
# Velocity P-wave (km/s) = 5.76206 6.63763 6.21528
#
# Compressibility (1/GPa) = 0.03013134
#
# Stress axis : x y z
#
# Youngs Moduli (GPa) = 73.81133 110.81493 37.73383
#
# Poissons Ratio (x) = 0.34517 0.03883
# Poissons Ratio (y) = 0.22991 0.20101
# Poissons Ratio (z) = 0.07596 0.59032
#
# Static dielectric constant tensor:
#      x y z
#    x 3.184290 0.000000 0.000000 
#    y 0.000000 3.718090 0.000000 
#    z 0.000000 0.000000 2.957090 
# 
# 
# High freq. dielectric constant tensor:
#      x y z
#    x 1.647750 0.000000 0.000000 
#    y 0.000000 1.672180 0.000000 
#    z 0.000000 0.000000 1.647600 
# 
# From -- ./inp_files/5997.got.cif
#   From: 2010.03.12/outbox.cif.g09.slc.cpg/sg38_3_cif.got.tgz:5997.got - 2010.04.14 02:38:36.
