data_PCOD8177564
_publ_section_title
;
Structure prediction by ZEFSAII (Michael W. Deem and Ramdas Pophale) SiO2 
 PCOD8177564
Probable space group: A M M 2
;
_chemical_formula_sum "Si O2"
_cell_formula_units_Z 56
_cell_length_a 31.509207
_cell_length_b 16.563837
_cell_length_c 5.276053
_cell_angle_alpha 90.000000
_cell_angle_beta 90.000000
_cell_angle_gamma 90.000000
_cell_volume 2753.642595
_symmetry_space_group_name_H-M "A M M 2"
_symmetry_group_IT_number 38
_symmetry_cell_setting 'orthorhombic'
loop_
_space_group_symop_operation_xyz
x,y,z
-x,-y,z
-x,y,z
x,-y,z
x,1/2+y,1/2+z
-x,1/2-y,1/2+z
-x,1/2+y,1/2+z
x,1/2-y,1/2+z
loop_
_atom_site_type_symbol
_atom_site_label
_atom_site_fract_x
_atom_site_fract_y
_atom_site_fract_z
Si Si1 0.320502 0.095963 0.356450
Si Si2 0.585497 0.844071 0.356452
Si Si3 0.871780 0.904458 0.356450
Si Si4 0.549699 0.665357 0.356450
Si Si5 0.728868 0.595628 0.356449
Si Si6 0.047985 0.301708 0.856448
Si Si7 0.175697 0.903650 0.856449
O O1 0.364702 0.142108 0.356412
O O2 0.295140 0.125332 0.604483
O O3 0.327994 0.000000 0.356452
O O4 0.295134 0.125329 0.108440
O O5 0.575208 0.749220 0.356495
O O6 0.564019 0.884149 0.606417
O O7 0.564008 0.884145 0.106512
O O8 0.920477 0.877134 0.356446
O O9 0.847971 0.870804 0.605908
O O10 0.871527 0.000000 0.356451
O O11 0.847969 0.870804 0.106997
O O12 0.500000 0.683240 0.356398
O O13 0.731177 0.500000 0.356437
O O14 0.776477 0.630891 0.356437
O O15 0.056622 0.249999 0.606450
O O16 0.000000 0.335763 0.856448
O O17 0.176032 0.000000 0.856451
#
# Coordination Sequence:
#
# PCOD8177564 Si02
#       7
#     8   8   8   8   8   8   8
#     4  10  19  30  47  73 102 129 158 192 240 297
#     4  10  18  30  49  73  91 118 154 196 238 280
#     4  10  19  32  54  84 107 133 175 233 276 305
#     4  10  19  33  53  71  88 116 162 208 239 279
#     4   9  17  30  47  71 101 132 163 199 239 288
#     4  10  21  37  55  78 107 147 186 217 261 331
#     4   9  17  30  50  78 106 129 169 218 263 303
#
# _framework density 20.336697999999998
#
# number of rings (size 3 to 8) (size 9 to 14) (size 15 to 20)
#    0.000    2.286    0.000    4.714    0.000    3.714 
#    0.000    0.000    0.000    9.857   74.286    0.000 
#    0.000    0.000    0.000    0.000    0.000    0.000 
#
# Total GULP energy -347119.097589 kJ/mol
# GULP energy per Si atom -12397.110628 kJ/mol
# Density = 2.029041 g / cm^3
# Si number density = 20.336698 Si / 1000 Ang^3
#
#
#
# Elastic Constant Matrix: (Units=GPa)
#
#
# Indices 1 2 3 4 5 6 
#
# 1 204.5994 34.2984 95.9800 0.0000 0.0000 0.0000
# 2 34.2984 11.9164 18.0763 0.0000 0.0000 0.0000
# 3 95.9800 18.0763 236.4254 0.0000 0.0000 0.0000
# 4 0.0000 0.0000 0.0000 6.5972 0.0000 0.0000
# 5 0.0000 0.0000 0.0000 0.0000 45.1442 0.0000
# 6 0.0000 0.0000 0.0000 0.0000 0.0000 31.8732
#
#
#
# Elastic Compliance Matrix: (Units=1/GPa)
#
#
# Indices 1 2 3 4 5 6 
#
# 1 0.010348 -0.026483 -0.002176 0.000000 0.000000 0.000000
# 2 -0.026483 0.162704 -0.001689 0.000000 0.000000 0.000000
# 3 -0.002176 -0.001689 0.005242 0.000000 0.000000 0.000000
# 4 0.000000 0.000000 0.000000 0.151579 0.000000 0.000000
# 5 0.000000 0.000000 0.000000 0.000000 0.022151 0.000000
# 6 0.000000 0.000000 0.000000 0.000000 0.000000 0.031374
#
#
# Mechanical properties :
#
#
# Convention : Reuss Voigt Hill
#
# Bulk Modulus (GPa) = 8.50348 83.29450 45.89899
# Shear Modulus (GPa) = 10.34566 37.02871 23.68718
#
# Velocity S-wave (km/s) = 2.25793 4.27169 3.41655
# Velocity P-wave (km/s) = 3.31483 8.08557 6.17918
#
# Compressibility (1/GPa) = 0.11759891
#
# Stress axis : x y z
#
# Youngs Moduli (GPa) = 96.63748 6.14611 190.76010
#
# Poissons Ratio (x) = 0.16277 0.41511
# Poissons Ratio (y) = 2.55925 0.32214
# Poissons Ratio (z) = 0.21029 0.01038
#
# Static dielectric constant tensor:
#      x y z
#    x 3.775430 0.000000 0.000000 
#    y 0.000000 2.963830 0.000000 
#    z 0.000000 0.000000 6.897890 
# 
# 
# High freq. dielectric constant tensor:
#      x y z
#    x 1.808020 0.000000 0.000000 
#    y 0.000000 1.727480 0.000000 
#    z 0.000000 0.000000 1.830900 
# 
# From -- ./inp_files/2122.got.cif
#   From: 2010.03.12/outbox.cif.g09.slc.cpg/sg38_2_cif.got.tgz:2122.got - 2010.04.14 02:38:36.
