data_PCOD8177479
_publ_section_title
;
Structure prediction by ZEFSAII (Michael W. Deem and Ramdas Pophale) SiO2 
 PCOD8177479
Probable space group: A M M 2
;
_chemical_formula_sum "Si O2"
_cell_formula_units_Z 56
_cell_length_a 8.999577
_cell_length_b 14.378648
_cell_length_c 23.199312
_cell_angle_alpha 90.000000
_cell_angle_beta 90.000000
_cell_angle_gamma 90.000000
_cell_volume 3002.031568
_symmetry_space_group_name_H-M "A M M 2"
_symmetry_group_IT_number 38
_symmetry_cell_setting 'orthorhombic'
loop_
_space_group_symop_operation_xyz
x,y,z
-x,-y,z
-x,y,z
x,-y,z
x,1/2+y,1/2+z
-x,1/2-y,1/2+z
-x,1/2+y,1/2+z
x,1/2-y,1/2+z
loop_
_atom_site_type_symbol
_atom_site_label
_atom_site_fract_x
_atom_site_fract_y
_atom_site_fract_z
Si Si1 0.323767 0.602965 0.711860
Si Si2 0.331454 0.391723 0.271761
Si Si3 0.677049 0.105647 0.998674
Si Si4 0.323158 0.707795 0.385796
Si Si5 0.676490 0.274945 0.607313
Si Si6 0.676491 0.102224 0.340797
Si Si7 0.174739 0.606069 0.153798
O O1 0.500000 0.603639 0.708540
O O2 0.265284 0.500000 0.696041
O O3 0.262032 0.675100 0.665012
O O4 0.269626 0.629381 0.776215
O O5 0.500000 0.358059 0.258784
O O6 0.327660 0.500000 0.285748
O O7 0.264492 0.341020 0.327762
O O8 0.232735 0.365691 0.216961
O O9 0.500000 0.103572 0.997043
O O10 0.742655 0.156079 0.941696
O O11 0.738309 0.000000 0.002166
O O12 0.733008 0.164791 0.053213
O O13 0.500000 0.700713 0.387380
O O14 0.270807 0.816437 0.384475
O O15 0.500000 0.264178 0.606014
O O16 0.749319 0.172403 0.606044
O O17 0.500000 0.096638 0.340245
O O18 0.739746 0.000000 0.358994
O O19 0.220223 0.500000 0.139261
O O20 0.000000 0.619762 0.152249
#
# Coordination Sequence:
#
# PCOD8177479 Si02
#       7
#     8   8   8   8   8   8   8
#     4   8  13  22  39  65  93 118 148 190 237 279
#     4   9  16  27  47  73  96 120 154 195 236 281
#     4   9  17  28  43  67  98 128 158 194 236 281
#     4   9  15  24  40  65  98 131 158 188 232 280
#     4  10  18  29  48  71  93 121 159 199 237 281
#     4   8  13  20  31  51  82 118 152 185 224 273
#     4  10  21  35  49  67  94 126 158 196 244 293
#
# _framework density 18.654036000000001
#
# number of rings (size 3 to 8) (size 9 to 14) (size 15 to 20)
#    0.000    3.000    0.000    3.000    0.000    6.571 
#    0.000    0.714    0.000    5.143    0.000    0.000 
#    0.000    0.000    0.000    0.000    0.000    0.000 
#
# Total GULP energy -347023.472311 kJ/mol
# GULP energy per Si atom -12393.695440 kJ/mol
# Density = 1.861158 g / cm^3
# Si number density = 18.654036 Si / 1000 Ang^3
#
#
#
# Elastic Constant Matrix: (Units=GPa)
#
#
# Indices 1 2 3 4 5 6 
#
# 1 19.9646 24.9155 18.2906 0.0000 0.0000 0.0000
# 2 24.9155 155.5037 94.1934 0.0000 0.0000 0.0000
# 3 18.2906 94.1934 103.9446 0.0000 0.0000 0.0000
# 4 0.0000 0.0000 0.0000 36.8257 0.0000 0.0000
# 5 0.0000 0.0000 0.0000 0.0000 3.6207 0.0000
# 6 0.0000 0.0000 0.0000 0.0000 0.0000 10.8326
#
#
#
# Elastic Compliance Matrix: (Units=1/GPa)
#
#
# Indices 1 2 3 4 5 6 
#
# 1 0.063475 -0.007547 -0.004330 0.000000 0.000000 0.000000
# 2 -0.007547 0.015153 -0.012404 0.000000 0.000000 0.000000
# 3 -0.004330 -0.012404 0.021622 0.000000 0.000000 0.000000
# 4 0.000000 0.000000 0.000000 0.027155 0.000000 0.000000
# 5 0.000000 0.000000 0.000000 0.000000 0.276193 0.000000
# 6 0.000000 0.000000 0.000000 0.000000 0.000000 0.092314
#
#
# Mechanical properties :
#
#
# Convention : Reuss Voigt Hill
#
# Bulk Modulus (GPa) = 19.34667 61.57909 40.46288
# Shear Modulus (GPa) = 8.90149 19.72334 14.31242
#
# Velocity S-wave (km/s) = 2.18683 3.25518 2.77294
# Velocity P-wave (km/s) = 4.09514 6.87103 5.65602
#
# Compressibility (1/GPa) = 0.05168847
#
# Stress axis : x y z
#
# Youngs Moduli (GPa) = 15.75431 65.99235 46.24823
#
# Poissons Ratio (x) = 0.49808 0.20025
# Poissons Ratio (y) = 0.11891 0.57365
# Poissons Ratio (z) = 0.06821 0.81855
#
# Static dielectric constant tensor:
#      x y z
#    x 2.719580 0.000000 0.000000 
#    y 0.000000 3.847090 0.000000 
#    z 0.000000 0.000000 3.466030 
# 
# 
# High freq. dielectric constant tensor:
#      x y z
#    x 1.645870 0.000000 0.000000 
#    y 0.000000 1.746850 0.000000 
#    z 0.000000 0.000000 1.709600 
# 
# From -- ./inp_files/19742.got.cif
#   From: 2010.03.12/outbox.cif.g09.slc.cpg/sg38_10_cif.got.tgz:19742.got - 2010.04.14 02:38:36.
