data_PCOD8177468
_publ_section_title
;
Structure prediction by ZEFSAII (Michael W. Deem and Ramdas Pophale) SiO2 
 PCOD8177468
Probable space group: A M M 2
;
_chemical_formula_sum "Si O2"
_cell_formula_units_Z 64
_cell_length_a 14.184555
_cell_length_b 9.124912
_cell_length_c 31.222369
_cell_angle_alpha 90.000000
_cell_angle_beta 90.000000
_cell_angle_gamma 90.000000
_cell_volume 4041.199146
_symmetry_space_group_name_H-M "A M M 2"
_symmetry_group_IT_number 38
_symmetry_cell_setting 'orthorhombic'
loop_
_space_group_symop_operation_xyz
x,y,z
-x,-y,z
-x,y,z
x,-y,z
x,1/2+y,1/2+z
-x,1/2-y,1/2+z
-x,1/2+y,1/2+z
x,1/2-y,1/2+z
loop_
_atom_site_type_symbol
_atom_site_label
_atom_site_fract_x
_atom_site_fract_y
_atom_site_fract_z
Si Si1 0.283991 0.326572 0.931340
Si Si2 0.102573 0.325888 0.308339
Si Si3 0.602898 0.173001 0.098674
Si Si4 0.609520 0.830084 0.855832
Si Si5 0.893258 0.670567 0.405806
Si Si6 0.389790 0.671023 0.691352
Si Si7 0.707530 0.327930 0.268556
Si Si8 0.387401 0.167626 0.006127
O O1 0.281314 0.500000 0.929825
O O2 0.332517 0.267618 0.888525
O O3 0.177884 0.264057 0.935008
O O4 0.342475 0.277054 0.972461
O O5 0.103099 0.500000 0.308550
O O6 0.118839 0.274181 0.357011
O O7 0.187110 0.266778 0.278603
O O8 0.000000 0.268876 0.291794
O O9 0.500000 0.247376 0.098486
O O10 0.651221 0.217504 0.144005
O O11 0.589155 0.000000 0.099086
O O12 0.653221 0.214215 0.053554
O O13 0.500000 0.796236 0.861945
O O14 0.638626 0.787392 0.807703
O O15 0.632970 0.000000 0.864978
O O16 0.867304 0.500000 0.409875
O O17 0.000000 0.698988 0.421650
O O18 0.500000 0.713214 0.695212
O O19 0.375952 0.500000 0.699668
O O20 0.328403 0.755747 0.725563
O O21 0.709572 0.500000 0.260924
O O22 0.500000 0.183646 0.005223
O O23 0.359297 0.000000 0.995080
#
# Coordination Sequence:
#
# PCOD8177468 Si02
#       8
#     8   8   8   8   8   8   8   8
#     4  12  23  31  43  67  99 126 148 184 236 284
#     4   8  14  27  48  68  84 108 147 194 232 260
#     4   7  12  26  47  67  85 112 152 194 230 264
#     4  10  20  33  46  60  86 126 167 197 218 255
#     4   9  17  33  55  70  83 113 158 199 230 267
#     4   9  17  29  45  66  94 123 150 183 227 277
#     4  10  18  29  46  67  90 116 152 193 227 263
#     4   9  17  31  51  69  87 118 161 199 227 266
#
# _framework density 15.836884
#
# number of rings (size 3 to 8) (size 9 to 14) (size 15 to 20)
#    0.000    2.750    1.250    4.125    0.000    3.500 
#    0.000    0.625    0.000    2.625    0.000    0.875 
#    0.000    5.000    0.000    0.000    0.000    0.000 
#
# Total GULP energy -396501.938678 kJ/mol
# GULP energy per Si atom -12390.685584 kJ/mol
# Density = 1.580084 g / cm^3
# Si number density = 15.836884 Si / 1000 Ang^3
#
#
#
# Elastic Constant Matrix: (Units=GPa)
#
#
# Indices 1 2 3 4 5 6 
#
# 1 80.9409 36.8117 37.8417 0.0000 0.0000 0.0000
# 2 36.8117 58.4380 39.9451 0.0000 0.0000 0.0000
# 3 37.8417 39.9451 98.5218 0.0000 0.0000 0.0000
# 4 0.0000 0.0000 0.0000 22.8294 0.0000 0.0000
# 5 0.0000 0.0000 0.0000 0.0000 8.1423 0.0000
# 6 0.0000 0.0000 0.0000 0.0000 0.0000 16.5188
#
#
#
# Elastic Compliance Matrix: (Units=1/GPa)
#
#
# Indices 1 2 3 4 5 6 
#
# 1 0.018020 -0.009158 -0.003208 0.000000 0.000000 0.000000
# 2 -0.009158 0.028327 -0.007968 0.000000 0.000000 0.000000
# 3 -0.003208 -0.007968 0.014613 0.000000 0.000000 0.000000
# 4 0.000000 0.000000 0.000000 0.043803 0.000000 0.000000
# 5 0.000000 0.000000 0.000000 0.000000 0.122816 0.000000
# 6 0.000000 0.000000 0.000000 0.000000 0.000000 0.060537
#
#
# Mechanical properties :
#
#
# Convention : Reuss Voigt Hill
#
# Bulk Modulus (GPa) = 49.28063 51.89975 50.59019
# Shear Modulus (GPa) = 14.90102 17.71824 16.30963
#
# Velocity S-wave (km/s) = 3.07075 3.34847 3.21261
# Velocity P-wave (km/s) = 6.61497 6.91319 6.76573
#
# Compressibility (1/GPa) = 0.02029195
#
# Stress axis : x y z
#
# Youngs Moduli (GPa) = 55.49489 35.30158 68.43384
#
# Poissons Ratio (x) = 0.32330 0.21954
# Poissons Ratio (y) = 0.50823 0.54525
# Poissons Ratio (z) = 0.17803 0.28127
#
# Static dielectric constant tensor:
#      x y z
#    x 3.138840 0.000000 0.000000 
#    y 0.000000 2.726270 0.000000 
#    z 0.000000 0.000000 3.177380 
# 
# 
# High freq. dielectric constant tensor:
#      x y z
#    x 1.592800 0.000000 0.000000 
#    y 0.000000 1.580280 0.000000 
#    z 0.000000 0.000000 1.603160 
# 
# From -- ./inp_files/25101.got.cif
#   From: 2010.03.12/outbox.cif.g09.slc.cpg/sg38_13_cif.got.tgz:25101.got - 2010.04.14 02:38:36.
