data_PCOD8177368
_publ_section_title
;
Structure prediction by ZEFSAII (Michael W. Deem and Ramdas Pophale) SiO2 
 PCOD8177368
Probable space group: A M M 2
;
_chemical_formula_sum "Si O2"
_cell_formula_units_Z 56
_cell_length_a 9.201785
_cell_length_b 13.743786
_cell_length_c 29.381486
_cell_angle_alpha 90.000000
_cell_angle_beta 90.000000
_cell_angle_gamma 90.000000
_cell_volume 3715.799081
_symmetry_space_group_name_H-M "A M M 2"
_symmetry_group_IT_number 38
_symmetry_cell_setting 'orthorhombic'
loop_
_space_group_symop_operation_xyz
x,y,z
-x,-y,z
-x,y,z
x,-y,z
x,1/2+y,1/2+z
-x,1/2-y,1/2+z
-x,1/2+y,1/2+z
x,1/2-y,1/2+z
loop_
_atom_site_type_symbol
_atom_site_label
_atom_site_fract_x
_atom_site_fract_y
_atom_site_fract_z
Si Si1 0.828946 0.388726 0.860770
Si Si2 0.327319 0.108075 0.991882
Si Si3 0.672948 0.216325 0.902516
Si Si4 0.829747 0.887028 0.178094
Si Si5 0.661623 0.384119 0.590880
Si Si6 0.831090 0.610355 0.322884
Si Si7 0.169498 0.293270 0.768650
O O1 0.790308 0.500000 0.870842
O O2 0.741615 0.323071 0.896639
O O3 0.774383 0.360482 0.810151
O O4 0.000000 0.367653 0.865812
O O5 0.500000 0.100700 0.993233
O O6 0.276279 0.180283 0.952190
O O7 0.263269 0.000000 0.982446
O O8 0.274897 0.148325 0.041385
O O9 0.500000 0.221051 0.897584
O O10 0.734129 0.140318 0.865735
O O11 0.760562 0.844551 0.131861
O O12 0.760859 0.827375 0.220818
O O13 0.000000 0.870670 0.173381
O O14 0.791103 0.000000 0.185545
O O15 0.500000 0.341999 0.598238
O O16 0.658092 0.500000 0.591228
O O17 0.794909 0.500000 0.308571
O O18 0.794520 0.680312 0.279892
O O19 0.000000 0.623079 0.336515
O O20 0.000000 0.311838 0.763475
#
# Coordination Sequence:
#
# PCOD8177368 Si02
#       7
#     8   8   8   8   8   8   8
#     4   9  17  30  45  59  80 111 141 166 195 235
#     4   8  14  25  40  57  79 108 136 159 191 239
#     4  10  18  27  42  63  84 106 135 169 203 239
#     4   9  15  23  37  57  79 101 127 161 198 234
#     4   8  14  25  39  54  75 103 131 157 189 234
#     4   9  17  29  43  59  81 109 140 170 198 235
#     4   8  14  25  41  59  78 104 136 162 191 235
#
# _framework density 15.070783
#
# number of rings (size 3 to 8) (size 9 to 14) (size 15 to 20)
#    0.000    3.286    0.000    3.000    0.000    2.857 
#    0.000    4.286    0.000    6.857    0.000    1.000 
#    0.000    3.429    0.000    0.000    0.000    0.000 
#
# Total GULP energy -346988.787993 kJ/mol
# GULP energy per Si atom -12392.456714 kJ/mol
# Density = 1.503648 g / cm^3
# Si number density = 15.070783 Si / 1000 Ang^3
#
#
#
# Elastic Constant Matrix: (Units=GPa)
#
#
# Indices 1 2 3 4 5 6 
#
# 1 37.8716 31.3333 39.8797 0.0000 0.0000 0.0000
# 2 31.3333 98.4095 63.7851 0.0000 0.0000 0.0000
# 3 39.8797 63.7851 149.2953 0.0000 0.0000 0.0000
# 4 0.0000 0.0000 0.0000 23.4865 0.0000 0.0000
# 5 0.0000 0.0000 0.0000 0.0000 22.6957 0.0000
# 6 0.0000 0.0000 0.0000 0.0000 0.0000 16.5819
#
#
#
# Elastic Compliance Matrix: (Units=1/GPa)
#
#
# Indices 1 2 3 4 5 6 
#
# 1 0.041073 -0.008251 -0.007446 0.000000 0.000000 0.000000
# 2 -0.008251 0.015711 -0.004508 0.000000 0.000000 0.000000
# 3 -0.007446 -0.004508 0.010613 0.000000 0.000000 0.000000
# 4 0.000000 0.000000 0.000000 0.042578 0.000000 0.000000
# 5 0.000000 0.000000 0.000000 0.000000 0.044061 0.000000
# 6 0.000000 0.000000 0.000000 0.000000 0.000000 0.060307
#
#
# Mechanical properties :
#
#
# Convention : Reuss Voigt Hill
#
# Bulk Modulus (GPa) = 37.05669 61.73030 49.39349
# Shear Modulus (GPa) = 18.95748 22.59138 20.77443
#
# Velocity S-wave (km/s) = 3.55053 3.87592 3.71679
# Velocity P-wave (km/s) = 6.43818 7.81534 7.15995
#
# Compressibility (1/GPa) = 0.02698568
#
# Stress axis : x y z
#
# Youngs Moduli (GPa) = 24.34719 63.65032 94.22189
#
# Poissons Ratio (x) = 0.52519 0.70158
# Poissons Ratio (y) = 0.20089 0.42478
# Poissons Ratio (z) = 0.18129 0.28695
#
# Static dielectric constant tensor:
#      x y z
#    x 2.724600 0.000000 0.000000 
#    y 0.000000 2.822380 0.000000 
#    z 0.000000 0.000000 3.203590 
# 
# 
# High freq. dielectric constant tensor:
#      x y z
#    x 1.554680 0.000000 0.000000 
#    y 0.000000 1.550800 0.000000 
#    z 0.000000 0.000000 1.576600 
# 
# From -- ./inp_files/24627.got.cif
#   From: 2010.03.12/outbox.cif.g09.slc.cpg/sg38_13_cif.got.tgz:24627.got - 2010.04.14 02:38:36.
