data_PCOD8177746
_publ_section_title
;
Structure prediction by ZEFSAII (Michael W. Deem and Ramdas Pophale) SiO2 
 PCOD8177746
Probable space group: A M M 2
;
_chemical_formula_sum "Si O2"
_cell_formula_units_Z 64
_cell_length_a 9.003061
_cell_length_b 33.513035
_cell_length_c 11.758447
_cell_angle_alpha 90.000000
_cell_angle_beta 90.000000
_cell_angle_gamma 90.000000
_cell_volume 3547.757434
_symmetry_space_group_name_H-M "A M M 2"
_symmetry_group_IT_number 38
_symmetry_cell_setting 'orthorhombic'
loop_
_space_group_symop_operation_xyz
x,y,z
-x,-y,z
-x,y,z
x,-y,z
x,1/2+y,1/2+z
-x,1/2-y,1/2+z
-x,1/2+y,1/2+z
x,1/2-y,1/2+z
loop_
_atom_site_type_symbol
_atom_site_label
_atom_site_fract_x
_atom_site_fract_y
_atom_site_fract_z
Si Si1 0.324767 0.872705 0.009230
Si Si2 0.329455 0.669614 0.734998
Si Si3 0.669354 0.887837 0.447036
Si Si4 0.827874 0.674991 0.088409
Si Si5 0.673872 0.544239 0.593779
Si Si6 0.323706 0.811388 0.824621
Si Si7 0.832149 0.954544 0.332501
Si Si8 0.827785 0.767430 0.378377
O O1 0.500000 0.870230 0.019274
O O2 0.262082 0.848946 0.119096
O O3 0.276252 0.919681 0.009255
O O4 0.271829 0.851030 0.893801
O O5 0.500000 0.683592 0.721335
O O6 0.315475 0.635853 0.829934
O O7 0.231857 0.707766 0.770049
O O8 0.500000 0.892975 0.485490
O O9 0.755824 0.866341 0.548720
O O10 0.742402 0.930837 0.428550
O O11 0.748387 0.689304 0.201596
O O12 0.000000 0.667782 0.112638
O O13 0.801257 0.708641 0.994167
O O14 0.500000 0.547635 0.621758
O O15 0.710451 0.500000 0.542006
O O16 0.759190 0.550744 0.710151
O O17 0.500000 0.809206 0.813785
O O18 0.264640 0.773078 0.892789
O O19 0.000000 0.938265 0.324938
O O20 0.828460 0.000000 0.372527
O O21 0.000000 0.757906 0.356905
#
# Coordination Sequence:
#
# PCOD8177746 Si02
#       8
#     8   8   8   8   8   8   8   8
#     4   9  18  33  52  81 111 138 177 225 270 321
#     4   9  17  32  53  78 106 136 172 215 266 323
#     4  10  18  32  56  79 103 138 179 222 265 318
#     4  10  22  40  57  76 106 140 178 223 273 325
#     4   9  16  30  53  78 108 144 180 223 274 325
#     4  11  23  37  56  78 105 142 183 224 266 321
#     4  10  19  29  45  76 115 147 175 213 266 325
#     4  10  22  38  55  77 104 135 175 224 272 319
#
# _framework density 18.039566000000001
#
# number of rings (size 3 to 8) (size 9 to 14) (size 15 to 20)
#    0.000    2.250    1.250    1.875    1.750    2.750 
#    0.000    1.875    0.000    0.750    0.000    1.750 
#    0.000    0.000    0.000    0.000    0.000    0.000 
#
# Total GULP energy -396770.426601 kJ/mol
# GULP energy per Si atom -12399.075831 kJ/mol
# Density = 1.799851 g / cm^3
# Si number density = 18.039566 Si / 1000 Ang^3
#
#
#
# Elastic Constant Matrix: (Units=GPa)
#
#
# Indices 1 2 3 4 5 6 
#
# 1 96.9110 53.7078 37.0826 0.0000 0.0000 0.0000
# 2 53.7078 128.6260 42.2850 0.0000 0.0000 0.0000
# 3 37.0826 42.2850 70.1315 0.0000 0.0000 0.0000
# 4 0.0000 0.0000 0.0000 24.5418 0.0000 0.0000
# 5 0.0000 0.0000 0.0000 0.0000 18.4917 0.0000
# 6 0.0000 0.0000 0.0000 0.0000 0.0000 26.7945
#
#
#
# Elastic Compliance Matrix: (Units=1/GPa)
#
#
# Indices 1 2 3 4 5 6 
#
# 1 0.014755 -0.004485 -0.005098 0.000000 0.000000 0.000000
# 2 -0.004485 0.011060 -0.004297 0.000000 0.000000 0.000000
# 3 -0.005098 -0.004297 0.019545 0.000000 0.000000 0.000000
# 4 0.000000 0.000000 0.000000 0.040747 0.000000 0.000000
# 5 0.000000 0.000000 0.000000 0.000000 0.054078 0.000000
# 6 0.000000 0.000000 0.000000 0.000000 0.000000 0.037321
#
#
# Mechanical properties :
#
#
# Convention : Reuss Voigt Hill
#
# Bulk Modulus (GPa) = 56.81573 62.42437 59.62005
# Shear Modulus (GPa) = 23.68188 24.80514 24.24351
#
# Velocity S-wave (km/s) = 3.62715 3.71218 3.66991
# Velocity P-wave (km/s) = 7.00750 7.28375 7.14696
#
# Compressibility (1/GPa) = 0.01760076
#
# Stress axis : x y z
#
# Youngs Moduli (GPa) = 67.77389 90.41747 51.16392
#
# Poissons Ratio (x) = 0.40554 0.26081
# Poissons Ratio (y) = 0.30398 0.21984
# Poissons Ratio (z) = 0.34548 0.38851
#
# Static dielectric constant tensor:
#      x y z
#    x 3.354040 0.000000 0.000000 
#    y 0.000000 3.641240 0.000000 
#    z 0.000000 0.000000 3.158450 
# 
# 
# High freq. dielectric constant tensor:
#      x y z
#    x 1.697660 0.000000 0.000000 
#    y 0.000000 1.705010 0.000000 
#    z 0.000000 0.000000 1.669340 
# 
# From -- ./inp_files/8677.got.cif
#   From: 2010.03.12/outbox.cif.g09.slc.cpg/sg38_5_cif.got.tgz:8677.got - 2010.04.14 02:38:36.
