data_PCOD8177139
_publ_section_title
;
Structure prediction by ZEFSAII (Michael W. Deem and Ramdas Pophale) SiO2 
 PCOD8177139
Probable space group: C C C 2
;
_chemical_formula_sum "Si O2"
_cell_formula_units_Z 56
_cell_length_a 12.438268
_cell_length_b 18.229717
_cell_length_c 12.156828
_cell_angle_alpha 90.000000
_cell_angle_beta 90.000000
_cell_angle_gamma 90.000000
_cell_volume 2756.513406
_symmetry_space_group_name_H-M "C C C 2"
_symmetry_group_IT_number 37
_symmetry_cell_setting 'orthorhombic'
loop_
_space_group_symop_operation_xyz
x,y,z
-x,-y,z
-x,y,1/2+z
x,-y,1/2+z
1/2+x,1/2+y,z
1/2-x,1/2-y,z
1/2-x,1/2+y,1/2+z
1/2+x,1/2-y,1/2+z
loop_
_atom_site_type_symbol
_atom_site_label
_atom_site_fract_x
_atom_site_fract_y
_atom_site_fract_z
Si Si1 0.689408 0.673251 0.121130
Si Si2 0.223125 0.376774 0.551124
Si Si3 0.153934 0.193046 0.359442
Si Si4 0.750000 0.250000 0.229828
Si Si5 0.670568 0.971081 0.113630
Si Si6 0.485161 0.891174 0.467770
Si Si7 0.580323 0.738100 0.920511
Si Si8 0.000000 0.500000 0.785247
O O1 0.750000 0.750000 0.123153
O O2 0.627490 0.661743 0.237512
O O3 0.764933 0.603490 0.118134
O O4 0.614600 0.677405 0.011961
O O5 0.305012 0.364937 0.449760
O O6 0.240984 0.321149 0.652155
O O7 0.247772 0.461421 0.581036
O O8 0.097911 0.369025 0.521709
O O9 0.250000 0.250000 0.350146
O O10 0.045461 0.230242 0.399318
O O11 0.647977 0.266570 0.308017
O O12 0.613605 0.996819 0.224482
O O13 0.573223 0.958160 0.029190
O O14 0.406546 0.820326 0.468400
O O15 0.501615 0.921932 0.346279
#
# Coordination Sequence:
#
# PCOD8177139 Si02
#       8
#     8   8   8   4   8   8   8   4
#     4  11  25  44  66  99 136 178 229 274 344 414
#     4  12  23  45  65 107 136 176 230 280 358 407
#     4  11  25  41  73  99 133 184 223 289 336 413
#     4  12  26  42  70 102 136 188 228 290 340 414
#     4  12  24  41  68 103 137 180 221 288 345 408
#     4  12  22  39  67 103 144 168 223 288 352 408
#     4  12  25  45  70 100 137 183 235 284 342 415
#     4  12  22  36  64 112 140 176 214 292 370 396
#
# _framework density 20.315518000000001
#
# number of rings (size 3 to 8) (size 9 to 14) (size 15 to 20)
#    0.000    0.286    7.143    1.714    6.000    0.000 
#    0.000    0.714    0.000    0.000    0.000    0.000 
#    0.000    0.000    0.000    0.000    0.000    0.000 
#
# Total GULP energy -346986.037644 kJ/mol
# GULP energy per Si atom -12392.358487 kJ/mol
# Density = 2.026928 g / cm^3
# Si number density = 20.315518 Si / 1000 Ang^3
#
#
#
# Elastic Constant Matrix: (Units=GPa)
#
#
# Indices 1 2 3 4 5 6 
#
# 1 87.7809 43.3931 43.8963 0.0000 0.0000 0.0000
# 2 43.3931 139.9035 54.4063 0.0000 0.0000 0.0000
# 3 43.8963 54.4063 140.4522 0.0000 0.0000 0.0000
# 4 0.0000 0.0000 0.0000 15.3562 0.0000 0.0000
# 5 0.0000 0.0000 0.0000 0.0000 10.1674 0.0000
# 6 0.0000 0.0000 0.0000 0.0000 0.0000 39.4638
#
#
#
# Elastic Compliance Matrix: (Units=1/GPa)
#
#
# Indices 1 2 3 4 5 6 
#
# 1 0.014662 -0.003256 -0.003321 0.000000 0.000000 0.000000
# 2 -0.003256 0.009139 -0.002522 0.000000 0.000000 0.000000
# 3 -0.003321 -0.002522 0.009135 0.000000 0.000000 0.000000
# 4 0.000000 0.000000 0.000000 0.065120 0.000000 0.000000
# 5 0.000000 0.000000 0.000000 0.000000 0.098353 0.000000
# 6 0.000000 0.000000 0.000000 0.000000 0.000000 0.025340
#
#
# Mechanical properties :
#
#
# Convention : Reuss Voigt Hill
#
# Bulk Modulus (GPa) = 67.85837 72.39199 70.12518
# Shear Modulus (GPa) = 20.41975 28.09353 24.25664
#
# Velocity S-wave (km/s) = 3.17382 3.72272 3.45917
# Velocity P-wave (km/s) = 6.84877 7.36134 7.10967
#
# Compressibility (1/GPa) = 0.01473658
#
# Stress axis : x y z
#
# Youngs Moduli (GPa) = 68.20129 109.42560 109.47020
#
# Poissons Ratio (x) = 0.35631 0.36357
# Poissons Ratio (y) = 0.22208 0.27612
# Poissons Ratio (z) = 0.22651 0.27600
#
# Static dielectric constant tensor:
#      x y z
#    x 3.510760 0.000000 0.000000 
#    y 0.000000 4.019910 0.000000 
#    z 0.000000 0.000000 4.372650 
# 
# 
# High freq. dielectric constant tensor:
#      x y z
#    x 1.778990 0.000000 0.000000 
#    y 0.000000 1.794900 0.000000 
#    z 0.000000 0.000000 1.814310 
# 
# From -- ./inp_files/7313.got.cif
#   From: 2010.03.12/outbox.cif.g09.slc.cpg/sg37_4_cif.got.tgz:7313.got - 2010.04.14 02:25:27.
