data_PCOD8177075
_publ_section_title
;
Structure prediction by ZEFSAII (Michael W. Deem and Ramdas Pophale) SiO2 
 PCOD8177075
Probable space group: C C C 2
;
_chemical_formula_sum "Si O2"
_cell_formula_units_Z 48
_cell_length_a 9.379458
_cell_length_b 17.568161
_cell_length_c 13.297523
_cell_angle_alpha 90.000000
_cell_angle_beta 90.000000
_cell_angle_gamma 90.000000
_cell_volume 2191.163556
_symmetry_space_group_name_H-M "C C C 2"
_symmetry_group_IT_number 37
_symmetry_cell_setting 'orthorhombic'
loop_
_space_group_symop_operation_xyz
x,y,z
-x,-y,z
-x,y,1/2+z
x,-y,1/2+z
1/2+x,1/2+y,z
1/2-x,1/2-y,z
1/2-x,1/2+y,1/2+z
1/2+x,1/2-y,1/2+z
loop_
_atom_site_type_symbol
_atom_site_label
_atom_site_fract_x
_atom_site_fract_y
_atom_site_fract_z
Si Si1 0.385334 0.563221 0.140720
Si Si2 0.592873 0.668591 0.047505
Si Si3 0.723065 0.833562 0.354925
Si Si4 0.402374 0.931427 0.031211
Si Si5 0.621745 0.166981 0.635703
Si Si6 0.980373 0.085175 0.356525
O O1 0.500000 0.500000 0.112561
O O2 0.440722 0.641063 0.090323
O O3 0.376862 0.575617 0.260434
O O4 0.236664 0.539746 0.090585
O O5 0.600081 0.758191 0.067349
O O6 0.728611 0.628874 0.101380
O O7 0.598417 0.643956 0.930682
O O8 0.750000 0.750000 0.402501
O O9 0.631940 0.880990 0.434389
O O10 0.629872 0.817696 0.254746
O O11 0.866587 0.879404 0.326366
O O12 0.500000 0.000000 0.991172
O O13 0.489447 0.886891 0.116111
O O14 0.000000 0.000000 0.404026
#
# Coordination Sequence:
#
# PCOD8177075 Si02
#       6
#     8   8   8   8   8   8
#     4  11  23  44  70 100 144 190 244 289 361 428
#     4  11  21  44  71  99 137 190 240 291 355 433
#     4  12  24  49  73 103 145 198 244 296 370 431
#     4  12  29  43  72 110 151 187 238 311 362 436
#     4  11  25  44  72 103 146 185 237 306 373 420
#     4  11  24  40  78 103 132 193 251 294 346 444
#
# _framework density 21.906171000000001
#
# number of rings (size 3 to 8) (size 9 to 14) (size 15 to 20)
#    0.000    0.667    5.000    2.500    4.667    2.000 
#    0.000    1.667    0.000    0.000    0.000    0.000 
#    0.000    0.000    0.000    0.000    0.000    0.000 
#
# Total GULP energy -297573.536500 kJ/mol
# GULP energy per Si atom -12398.897354 kJ/mol
# Density = 2.185631 g / cm^3
# Si number density = 21.906171 Si / 1000 Ang^3
#
#
#
# Elastic Constant Matrix: (Units=GPa)
#
#
# Indices 1 2 3 4 5 6 
#
# 1 121.7138 53.0542 44.9229 0.0000 0.0000 0.0000
# 2 53.0542 132.4184 55.9481 0.0000 0.0000 0.0000
# 3 44.9229 55.9481 143.0082 0.0000 0.0000 0.0000
# 4 0.0000 0.0000 0.0000 27.0838 0.0000 0.0000
# 5 0.0000 0.0000 0.0000 0.0000 21.8330 0.0000
# 6 0.0000 0.0000 0.0000 0.0000 0.0000 37.7908
#
#
#
# Elastic Compliance Matrix: (Units=1/GPa)
#
#
# Indices 1 2 3 4 5 6 
#
# 1 0.010394 -0.003336 -0.001960 0.000000 0.000000 0.000000
# 2 -0.003336 0.010118 -0.002910 0.000000 0.000000 0.000000
# 3 -0.001960 -0.002910 0.008747 0.000000 0.000000 0.000000
# 4 0.000000 0.000000 0.000000 0.036922 0.000000 0.000000
# 5 0.000000 0.000000 0.000000 0.000000 0.045802 0.000000
# 6 0.000000 0.000000 0.000000 0.000000 0.000000 0.026461
#
#
# Mechanical properties :
#
#
# Convention : Reuss Voigt Hill
#
# Bulk Modulus (GPa) = 77.84654 78.33232 78.08943
# Shear Modulus (GPa) = 31.41898 33.55586 32.48742
#
# Velocity S-wave (km/s) = 3.79126 3.91807 3.85519
# Velocity P-wave (km/s) = 7.40124 7.50360 7.45260
#
# Compressibility (1/GPa) = 0.01284579
#
# Stress axis : x y z
#
# Youngs Moduli (GPa) = 96.21359 98.83169 114.32702
#
# Poissons Ratio (x) = 0.32973 0.22405
# Poissons Ratio (y) = 0.32099 0.33274
# Poissons Ratio (z) = 0.18855 0.28765
#
# Static dielectric constant tensor:
#      x y z
#    x 4.219710 0.000000 0.000000 
#    y 0.000000 4.059290 0.000000 
#    z 0.000000 0.000000 3.897860 
# 
# 
# High freq. dielectric constant tensor:
#      x y z
#    x 1.854320 0.000000 0.000000 
#    y 0.000000 1.869150 0.000000 
#    z 0.000000 0.000000 1.866120 
# 
# From -- ./inp_files/10586.got.cif
#   From: 2010.03.12/outbox.cif.g09.slc.cpg/sg37_6_cif.got.tgz:10586.got - 2010.04.14 02:25:27.
