data_PCOD8177769
_publ_section_title
;
Structure prediction by ZEFSAII (Michael W. Deem and Ramdas Pophale) SiO2 
 PCOD8177769
Probable space group: A M M 2
;
_chemical_formula_sum "Si O2"
_cell_formula_units_Z 52
_cell_length_a 12.640645
_cell_length_b 17.829529
_cell_length_c 13.619584
_cell_angle_alpha 90.000000
_cell_angle_beta 90.000000
_cell_angle_gamma 90.000000
_cell_volume 3069.537532
_symmetry_space_group_name_H-M "A M M 2"
_symmetry_group_IT_number 38
_symmetry_cell_setting 'orthorhombic'
loop_
_space_group_symop_operation_xyz
x,y,z
-x,-y,z
-x,y,z
x,-y,z
x,1/2+y,1/2+z
-x,1/2-y,1/2+z
-x,1/2+y,1/2+z
x,1/2-y,1/2+z
loop_
_atom_site_type_symbol
_atom_site_label
_atom_site_fract_x
_atom_site_fract_y
_atom_site_fract_z
Si Si1 0.310249 0.168631 0.563200
Si Si2 0.500000 0.364954 0.737092
Si Si3 0.500000 0.414798 0.523887
Si Si4 0.120494 0.412382 0.371693
Si Si5 0.119620 0.911703 0.647847
Si Si6 0.614491 0.777039 0.762491
Si Si7 0.500000 0.413779 0.954763
Si Si8 0.297583 0.321827 0.457913
O O1 0.198996 0.125034 0.568720
O O2 0.357562 0.170136 0.671717
O O3 0.394590 0.128328 0.492211
O O4 0.286574 0.253760 0.532971
O O5 0.500000 0.417977 0.642539
O O6 0.395581 0.311100 0.732585
O O7 0.500000 0.413185 0.836697
O O8 0.500000 0.500000 0.484755
O O9 0.396505 0.373329 0.484751
O O10 0.141879 0.500000 0.382591
O O11 0.146892 0.387595 0.259706
O O12 0.191539 0.371248 0.453661
O O13 0.000000 0.392270 0.396622
O O14 0.000000 0.886426 0.621870
O O15 0.130735 0.000000 0.637294
O O16 0.500000 0.804848 0.801933
O O17 0.696099 0.785984 0.849919
O O18 0.500000 0.500000 0.991154
#
# Coordination Sequence:
#
# PCOD8177769 Si02
#       8
#     8   4   4   8   8   8   4   8
#     4  12  20  34  55  77 105 134 175 217 251 303
#     4  10  19  38  50  70 109 146 166 206 249 304
#     4  12  23  34  51  81 107 138 173 206 257 306
#     4   9  19  35  53  75 104 136 168 210 263 308
#     4   9  19  35  53  75 104 136 168 210 263 308
#     4  10  18  33  53  73 107 133 170 210 264 294
#     4  12  23  34  51  81 107 138 173 206 257 306
#     4  12  20  34  55  77 105 134 175 217 251 303
#
# _framework density 16.940663000000001
#
# number of rings (size 3 to 8) (size 9 to 14) (size 15 to 20)
#    0.462    0.923    6.154    2.538    0.000    0.615 
#    0.000    0.769    0.000    0.000    0.000    0.000 
#    0.000    7.385    0.000    0.000    0.000    0.000 
#
# Total GULP energy -322257.383275 kJ/mol
# GULP energy per Si atom -12394.514741 kJ/mol
# Density = 1.690211 g / cm^3
# Si number density = 16.940663 Si / 1000 Ang^3
#
#
#
# Elastic Constant Matrix: (Units=GPa)
#
#
# Indices 1 2 3 4 5 6 
#
# 1 117.7103 51.5884 29.2651 0.0000 0.0000 0.0000
# 2 51.5884 86.7197 21.2398 0.0000 0.0000 0.0000
# 3 29.2651 21.2398 55.7142 0.0000 0.0000 0.0000
# 4 0.0000 0.0000 0.0000 16.5829 0.0000 0.0000
# 5 0.0000 0.0000 0.0000 0.0000 13.0327 0.0000
# 6 0.0000 0.0000 0.0000 0.0000 0.0000 29.8031
#
#
#
# Elastic Compliance Matrix: (Units=1/GPa)
#
#
# Indices 1 2 3 4 5 6 
#
# 1 0.012263 -0.006306 -0.004037 0.000000 0.000000 0.000000
# 2 -0.006306 0.015962 -0.002773 0.000000 0.000000 0.000000
# 3 -0.004037 -0.002773 0.021126 0.000000 0.000000 0.000000
# 4 0.000000 0.000000 0.000000 0.060303 0.000000 0.000000
# 5 0.000000 0.000000 0.000000 0.000000 0.076730 0.000000
# 6 0.000000 0.000000 0.000000 0.000000 0.000000 0.033554
#
#
# Mechanical properties :
#
#
# Convention : Reuss Voigt Hill
#
# Bulk Modulus (GPa) = 43.25445 51.59231 47.42338
# Shear Modulus (GPa) = 19.69458 22.42046 21.05752
#
# Velocity S-wave (km/s) = 3.41334 3.64190 3.52947
# Velocity P-wave (km/s) = 6.41271 6.94301 6.68312
#
# Compressibility (1/GPa) = 0.02311901
#
# Stress axis : x y z
#
# Youngs Moduli (GPa) = 81.54616 62.64878 47.33411
#
# Poissons Ratio (x) = 0.39508 0.19110
# Poissons Ratio (y) = 0.51425 0.13124
# Poissons Ratio (z) = 0.32922 0.17370
#
# Static dielectric constant tensor:
#      x y z
#    x 3.121150 0.000000 0.000000 
#    y 0.000000 3.047280 0.000000 
#    z 0.000000 0.000000 3.063480 
# 
# 
# High freq. dielectric constant tensor:
#      x y z
#    x 1.645670 0.000000 0.000000 
#    y 0.000000 1.647660 0.000000 
#    z 0.000000 0.000000 1.644770 
# 
# From -- ./inp_files/13891.got.cif
#   From: 2010.03.12/outbox.cif.g09.slc.cpg/sg38_7_cif.got.tgz:13891.got - 2010.04.14 02:38:36.
