data_PCOD8177669
_publ_section_title
;
Structure prediction by ZEFSAII (Michael W. Deem and Ramdas Pophale) SiO2 
 PCOD8177669
Probable space group: A M M 2
;
_chemical_formula_sum "Si O2"
_cell_formula_units_Z 40
_cell_length_a 11.133708
_cell_length_b 20.446279
_cell_length_c 8.552736
_cell_angle_alpha 90.000000
_cell_angle_beta 90.000000
_cell_angle_gamma 90.000000
_cell_volume 1946.969627
_symmetry_space_group_name_H-M "A M M 2"
_symmetry_group_IT_number 38
_symmetry_cell_setting 'orthorhombic'
loop_
_space_group_symop_operation_xyz
x,y,z
-x,-y,z
-x,y,z
x,-y,z
x,1/2+y,1/2+z
-x,1/2-y,1/2+z
-x,1/2+y,1/2+z
x,1/2-y,1/2+z
loop_
_atom_site_type_symbol
_atom_site_label
_atom_site_fract_x
_atom_site_fract_y
_atom_site_fract_z
Si Si1 0.500000 0.349371 0.834010
Si Si2 0.255659 0.198138 0.847549
Si Si3 0.500000 0.268719 0.520830
Si Si4 0.362062 0.928077 0.845836
Si Si5 0.135807 0.191988 0.156088
Si Si6 0.709113 0.926024 0.203143
O O1 0.500000 0.291873 0.700721
O O2 0.615454 0.396014 0.826707
O O3 0.500000 0.310732 0.000511
O O4 0.273121 0.126211 0.767429
O O5 0.229154 0.254180 0.722700
O O6 0.380830 0.205197 0.938102
O O7 0.145262 0.197371 0.969012
O O8 0.500000 0.916205 0.798897
O O9 0.319990 0.000000 0.789068
O O10 0.352036 0.923687 0.033854
O O11 0.171938 0.119114 0.210417
O O12 0.000000 0.206354 0.209084
O O13 0.743612 0.000000 0.251456
#
# Coordination Sequence:
#
# PCOD8177669 Si02
#       6
#     4   8   4   8   8   8
#     4  12  19  32  54  88 115 133 175 217 284 324
#     4  11  19  35  54  81 109 135 178 221 271 320
#     4  12  18  32  54  88 108 137 169 225 273 318
#     4   9  15  26  49  80 110 134 163 211 274 324
#     4  11  23  36  53  77 107 146 184 220 260 316
#     4  10  18  31  52  78 108 139 174 224 270 313
#
# _framework density 20.544747999999998
#
# number of rings (size 3 to 8) (size 9 to 14) (size 15 to 20)
#    0.000    1.400    8.000    0.900    0.000    0.400 
#    0.000    0.000    0.000    3.000    0.000    2.800 
#    0.000    0.000    0.000    0.000    0.000    0.000 
#
# Total GULP energy -247865.870168 kJ/mol
# GULP energy per Si atom -12393.293508 kJ/mol
# Density = 2.049799 g / cm^3
# Si number density = 20.544748 Si / 1000 Ang^3
#
#
#
# Elastic Constant Matrix: (Units=GPa)
#
#
# Indices 1 2 3 4 5 6 
#
# 1 85.4246 41.5697 12.6660 0.0000 0.0000 0.0000
# 2 41.5697 198.4732 35.5120 0.0000 0.0000 0.0000
# 3 12.6660 35.5120 22.7835 0.0000 0.0000 0.0000
# 4 0.0000 0.0000 0.0000 24.9797 0.0000 0.0000
# 5 0.0000 0.0000 0.0000 0.0000 16.0331 0.0000
# 6 0.0000 0.0000 0.0000 0.0000 0.0000 23.1970
#
#
#
# Elastic Compliance Matrix: (Units=1/GPa)
#
#
# Indices 1 2 3 4 5 6 
#
# 1 0.013324 -0.002032 -0.004240 0.000000 0.000000 0.000000
# 2 -0.002032 0.007297 -0.010244 0.000000 0.000000 0.000000
# 3 -0.004240 -0.010244 0.062216 0.000000 0.000000 0.000000
# 4 0.000000 0.000000 0.000000 0.040033 0.000000 0.000000
# 5 0.000000 0.000000 0.000000 0.000000 0.062371 0.000000
# 6 0.000000 0.000000 0.000000 0.000000 0.000000 0.043109
#
#
# Mechanical properties :
#
#
# Convention : Reuss Voigt Hill
#
# Bulk Modulus (GPa) = 20.07844 54.01963 37.04904
# Shear Modulus (GPa) = 17.98680 27.30420 22.64550
#
# Velocity S-wave (km/s) = 2.96208 3.64952 3.32362
# Velocity P-wave (km/s) = 4.63604 6.64149 5.72722
#
# Compressibility (1/GPa) = 0.04980466
#
# Stress axis : x y z
#
# Youngs Moduli (GPa) = 75.05424 137.04319 16.07316
#
# Poissons Ratio (x) = 0.27847 0.06815
# Poissons Ratio (y) = 0.15251 0.16465
# Poissons Ratio (z) = 0.31822 1.40386
#
# Static dielectric constant tensor:
#      x y z
#    x 3.384900 0.000000 0.000000 
#    y 0.000000 4.453660 0.000000 
#    z 0.000000 0.000000 3.262390 
# 
# 
# High freq. dielectric constant tensor:
#      x y z
#    x 1.779060 0.000000 0.000000 
#    y 0.000000 1.826710 0.000000 
#    z 0.000000 0.000000 1.752710 
# 
# From -- ./inp_files/4490.got.cif
#   From: 2010.03.12/outbox.cif.g09.slc.cpg/sg38_3_cif.got.tgz:4490.got - 2010.04.14 02:38:36.
