data_PCOD8177188
_publ_section_title
;
Structure prediction by ZEFSAII (Michael W. Deem and Ramdas Pophale) SiO2 
 PCOD8177188
Probable space group: A M M 2
;
_chemical_formula_sum "Si O2"
_cell_formula_units_Z 64
_cell_length_a 16.786158
_cell_length_b 23.667738
_cell_length_c 9.730510
_cell_angle_alpha 90.000000
_cell_angle_beta 90.000000
_cell_angle_gamma 90.000000
_cell_volume 3865.838109
_symmetry_space_group_name_H-M "A M M 2"
_symmetry_group_IT_number 38
_symmetry_cell_setting 'orthorhombic'
loop_
_space_group_symop_operation_xyz
x,y,z
-x,-y,z
-x,y,z
x,-y,z
x,1/2+y,1/2+z
-x,1/2-y,1/2+z
-x,1/2+y,1/2+z
x,1/2-y,1/2+z
loop_
_atom_site_type_symbol
_atom_site_label
_atom_site_fract_x
_atom_site_fract_y
_atom_site_fract_z
Si Si1 0.212571 0.157377 0.323790
Si Si2 0.807668 0.645984 0.232515
Si Si3 0.808248 0.816657 0.025672
Si Si4 0.247162 0.562529 0.022278
Si Si5 0.092957 0.211399 0.522452
Si Si6 0.336811 0.239535 0.443717
Si Si7 0.365848 0.816401 0.711862
Si Si8 0.588876 0.437208 0.142999
O O1 0.201051 0.146267 0.162547
O O2 0.215964 0.096245 0.392224
O O3 0.137306 0.190864 0.384881
O O4 0.293962 0.190624 0.355994
O O5 0.822656 0.641612 0.395797
O O6 0.881415 0.675727 0.156710
O O7 0.730422 0.684986 0.204578
O O8 0.789875 0.584964 0.166232
O O9 0.885072 0.776783 0.044122
O O10 0.728372 0.780402 0.010754
O O11 0.214945 0.500000 0.003402
O O12 0.343776 0.565860 0.025574
O O13 0.000000 0.204007 0.499675
O O14 0.391334 0.210963 0.564343
O O15 0.392499 0.276678 0.339800
O O16 0.399158 0.880556 0.737019
O O17 0.500000 0.434003 0.078982
O O18 0.598232 0.500000 0.217626
#
# Coordination Sequence:
#
# PCOD8177188 Si02
#       8
#     8   8   8   8   8   8   8   8
#     4  10  17  29  44  69  94 123 155 193 240 278
#     4   9  17  29  44  65  89 124 157 193 229 272
#     4  10  17  26  42  65  96 123 152 185 236 282
#     4   9  17  32  52  69  86 117 163 204 234 279
#     4  10  18  28  43  67 100 129 154 184 228 290
#     4  10  15  26  44  68  89 121 150 188 229 279
#     4  10  16  28  47  69  91 121 159 192 235 282
#     4   9  17  30  48  70  94 121 157 199 238 278
#
# _framework density 16.555271999999999
#
# number of rings (size 3 to 8) (size 9 to 14) (size 15 to 20)
#    0.000    2.375    6.250    1.500    0.000    2.000 
#    0.000    1.250    0.000    6.750    0.000    3.500 
#    0.000   47.000    0.000    0.375    0.000    0.000 
#
# Total GULP energy -396456.298982 kJ/mol
# GULP energy per Si atom -12389.259343 kJ/mol
# Density = 1.651759 g / cm^3
# Si number density = 16.555272 Si / 1000 Ang^3
#
#
#
# Elastic Constant Matrix: (Units=GPa)
#
#
# Indices 1 2 3 4 5 6 
#
# 1 52.2944 20.7934 15.2611 0.0000 0.0000 0.0000
# 2 20.7934 117.5545 58.1617 0.0000 0.0000 0.0000
# 3 15.2611 58.1617 133.3214 0.0000 0.0000 0.0000
# 4 0.0000 0.0000 0.0000 11.8822 0.0000 0.0000
# 5 0.0000 0.0000 0.0000 0.0000 6.1451 0.0000
# 6 0.0000 0.0000 0.0000 0.0000 0.0000 13.2929
#
#
#
# Elastic Compliance Matrix: (Units=1/GPa)
#
#
# Indices 1 2 3 4 5 6 
#
# 1 0.020670 -0.003170 -0.000983 0.000000 0.000000 0.000000
# 2 -0.003170 0.011334 -0.004582 0.000000 0.000000 0.000000
# 3 -0.000983 -0.004582 0.009612 0.000000 0.000000 0.000000
# 4 0.000000 0.000000 0.000000 0.084160 0.000000 0.000000
# 5 0.000000 0.000000 0.000000 0.000000 0.162731 0.000000
# 6 0.000000 0.000000 0.000000 0.000000 0.000000 0.075228
#
#
# Mechanical properties :
#
#
# Convention : Reuss Voigt Hill
#
# Bulk Modulus (GPa) = 41.41359 54.62255 48.01807
# Shear Modulus (GPa) = 12.84510 20.19430 16.51970
#
# Velocity S-wave (km/s) = 2.78851 3.49637 3.16231
# Velocity P-wave (km/s) = 5.95293 7.02603 6.51162
#
# Compressibility (1/GPa) = 0.02414666
#
# Stress axis : x y z
#
# Youngs Moduli (GPa) = 48.37985 88.22828 104.03634
#
# Poissons Ratio (x) = 0.27965 0.10230
# Poissons Ratio (y) = 0.15335 0.47667
# Poissons Ratio (z) = 0.04757 0.40424
#
# Static dielectric constant tensor:
#      x y z
#    x 2.845520 0.000000 0.000000 
#    y 0.000000 3.169420 0.000000 
#    z 0.000000 0.000000 3.144470 
# 
# 
# High freq. dielectric constant tensor:
#      x y z
#    x 1.607960 0.000000 0.000000 
#    y 0.000000 1.624540 0.000000 
#    z 0.000000 0.000000 1.621620 
# 
# From -- ./inp_files/6569.got.cif
#   From: 2010.03.12/outbox.cif.g09.slc.cpg/sg38_4_cif.got.tgz:6569.got - 2010.04.14 02:38:36.
