data_PCOD8177543
_publ_section_title
;
Structure prediction by ZEFSAII (Michael W. Deem and Ramdas Pophale) SiO2 
 PCOD8177543
Probable space group: A M M 2
;
_chemical_formula_sum "Si O2"
_cell_formula_units_Z 64
_cell_length_a 9.114338
_cell_length_b 29.971516
_cell_length_c 14.165310
_cell_angle_alpha 90.000000
_cell_angle_beta 90.000000
_cell_angle_gamma 90.000000
_cell_volume 3869.545201
_symmetry_space_group_name_H-M "A M M 2"
_symmetry_group_IT_number 38
_symmetry_cell_setting 'orthorhombic'
loop_
_space_group_symop_operation_xyz
x,y,z
-x,-y,z
-x,y,z
x,-y,z
x,1/2+y,1/2+z
-x,1/2-y,1/2+z
-x,1/2+y,1/2+z
x,1/2-y,1/2+z
loop_
_atom_site_type_symbol
_atom_site_label
_atom_site_fract_x
_atom_site_fract_y
_atom_site_fract_z
Si Si1 0.666921 0.369881 0.505510
Si Si2 0.829622 0.050262 0.068850
Si Si3 0.337754 0.684167 0.686325
Si Si4 0.669206 0.449860 0.765270
Si Si5 0.334413 0.133485 0.379241
Si Si6 0.832095 0.229887 0.699297
Si Si7 0.674561 0.716131 0.390652
Si Si8 0.830431 0.298358 0.993460
O O1 0.500000 0.380917 0.479164
O O2 0.759980 0.415293 0.493089
O O3 0.686116 0.356309 0.614660
O O4 0.725607 0.329753 0.440123
O O5 0.762986 0.057235 0.172010
O O6 0.000000 0.060460 0.076609
O O7 0.798723 0.000000 0.032609
O O8 0.500000 0.705282 0.668512
O O9 0.326613 0.666821 0.791643
O O10 0.212294 0.720291 0.669184
O O11 0.500000 0.439643 0.738686
O O12 0.688739 0.500000 0.804853
O O13 0.720694 0.415624 0.847069
O O14 0.500000 0.130818 0.419034
O O15 0.228406 0.153618 0.458793
O O16 0.728590 0.212873 0.783160
O O17 0.810020 0.199956 0.606343
O O18 0.000000 0.229594 0.733715
O O19 0.500000 0.721784 0.393281
O O20 0.742055 0.758024 0.445523
O O21 0.000000 0.292607 0.965345
#
# Coordination Sequence:
#
# PCOD8177543 Si02
#       8
#     8   8   8   8   8   8   8   8
#     4  10  20  34  51  72  97 131 170 204 244 292
#     4  10  20  31  46  72 103 133 164 199 243 294
#     4  10  18  30  48  71 100 131 167 202 241 290
#     4   9  17  31  50  71  98 131 166 204 246 293
#     4  10  19  31  49  73  98 132 169 202 244 292
#     4  11  23  36  49  69  99 133 169 207 248 290
#     4  11  22  35  53  74  97 129 169 209 248 292
#     4  11  23  35  49  72 100 133 169 204 246 294
#
# _framework density 16.539411000000001
#
# number of rings (size 3 to 8) (size 9 to 14) (size 15 to 20)
#    0.000    1.750    3.750    1.500    0.000    4.250 
#    0.000    0.000    0.000    0.000    0.000    0.875 
#    0.000    3.000    0.000    0.000    0.000    0.000 
#
# Total GULP energy -396773.378482 kJ/mol
# GULP energy per Si atom -12399.168078 kJ/mol
# Density = 1.650177 g / cm^3
# Si number density = 16.539411 Si / 1000 Ang^3
#
#
#
# Elastic Constant Matrix: (Units=GPa)
#
#
# Indices 1 2 3 4 5 6 
#
# 1 80.8007 50.2127 33.0430 0.0000 0.0000 0.0000
# 2 50.2127 109.0682 27.5380 0.0000 0.0000 0.0000
# 3 33.0430 27.5380 56.7536 0.0000 0.0000 0.0000
# 4 0.0000 0.0000 0.0000 25.0818 0.0000 0.0000
# 5 0.0000 0.0000 0.0000 0.0000 21.8378 0.0000
# 6 0.0000 0.0000 0.0000 0.0000 0.0000 22.1028
#
#
#
# Elastic Compliance Matrix: (Units=1/GPa)
#
#
# Indices 1 2 3 4 5 6 
#
# 1 0.020261 -0.007236 -0.008285 0.000000 0.000000 0.000000
# 2 -0.007236 0.013033 -0.002111 0.000000 0.000000 0.000000
# 3 -0.008285 -0.002111 0.023468 0.000000 0.000000 0.000000
# 4 0.000000 0.000000 0.000000 0.039870 0.000000 0.000000
# 5 0.000000 0.000000 0.000000 0.000000 0.045792 0.000000
# 6 0.000000 0.000000 0.000000 0.000000 0.000000 0.045243
#
#
# Mechanical properties :
#
#
# Convention : Reuss Voigt Hill
#
# Bulk Modulus (GPa) = 46.51654 52.02333 49.26993
# Shear Modulus (GPa) = 21.72995 22.85972 22.29483
#
# Velocity S-wave (km/s) = 3.62861 3.72174 3.67547
# Velocity P-wave (km/s) = 6.76324 7.07043 6.91854
#
# Compressibility (1/GPa) = 0.02149773
#
# Stress axis : x y z
#
# Youngs Moduli (GPa) = 49.35588 76.72959 42.61082
#
# Poissons Ratio (x) = 0.55520 0.35305
# Poissons Ratio (y) = 0.35713 0.08995
# Poissons Ratio (z) = 0.40893 0.16197
#
# Static dielectric constant tensor:
#      x y z
#    x 3.199530 0.000000 0.000000 
#    y 0.000000 3.243170 0.000000 
#    z 0.000000 0.000000 2.961030 
# 
# 
# High freq. dielectric constant tensor:
#      x y z
#    x 1.643820 0.000000 0.000000 
#    y 0.000000 1.630630 0.000000 
#    z 0.000000 0.000000 1.607540 
# 
# From -- ./inp_files/13057.got.cif
#   From: 2010.03.12/outbox.cif.g09.slc.cpg/sg38_7_cif.got.tgz:13057.got - 2010.04.14 02:38:36.
