data_PCOD8177652
_publ_section_title
;
Structure prediction by ZEFSAII (Michael W. Deem and Ramdas Pophale) SiO2 
 PCOD8177652
Probable space group: A M M 2
;
_chemical_formula_sum "Si O2"
_cell_formula_units_Z 64
_cell_length_a 16.068803
_cell_length_b 22.195853
_cell_length_c 9.268535
_cell_angle_alpha 90.000000
_cell_angle_beta 90.000000
_cell_angle_gamma 90.000000
_cell_volume 3305.723009
_symmetry_space_group_name_H-M "A M M 2"
_symmetry_group_IT_number 38
_symmetry_cell_setting 'orthorhombic'
loop_
_space_group_symop_operation_xyz
x,y,z
-x,-y,z
-x,y,z
x,-y,z
x,1/2+y,1/2+z
-x,1/2-y,1/2+z
-x,1/2+y,1/2+z
x,1/2-y,1/2+z
loop_
_atom_site_type_symbol
_atom_site_label
_atom_site_fract_x
_atom_site_fract_y
_atom_site_fract_z
Si Si1 0.910454 0.713806 0.206820
Si Si2 0.403367 0.068369 0.966303
Si Si3 0.096125 0.351018 0.740423
Si Si4 0.267768 0.932212 0.743859
Si Si5 0.208114 0.151026 0.495237
Si Si6 0.595047 0.692225 0.602482
Si Si7 0.684246 0.751312 0.366425
Si Si8 0.824937 0.849872 0.933079
O O1 0.900674 0.780290 0.268963
O O2 0.906961 0.670604 0.346695
O O3 0.000000 0.704911 0.131682
O O4 0.841000 0.700161 0.089525
O O5 0.500000 0.076199 0.933754
O O6 0.359706 0.077899 0.810597
O O7 0.383612 0.000000 0.025800
O O8 0.376294 0.121472 0.079790
O O9 0.145236 0.379768 0.877515
O O10 0.151025 0.361988 0.597593
O O11 0.000000 0.374776 0.729128
O O12 0.251785 0.897808 0.595608
O O13 0.204498 0.913669 0.871214
O O14 0.249949 0.000000 0.702705
O O15 0.283986 0.184717 0.421579
O O16 0.500000 0.694199 0.657106
O O17 0.603018 0.726987 0.450096
O O18 0.656265 0.731203 0.704652
O O19 0.755024 0.700009 0.386458
#
# Coordination Sequence:
#
# PCOD8177652 Si02
#       8
#     8   8   8   8   8   8   8   8
#     4  10  18  31  51  82 117 147 182 224 280 343
#     4   9  19  38  63  86 108 143 195 249 286 323
#     4  11  20  33  55  86 119 147 185 231 290 341
#     4  10  22  40  60  82 107 151 199 233 277 339
#     4  11  22  35  55  83 118 151 180 237 285 338
#     4  11  23  37  56  83 120 157 191 226 279 352
#     4  12  21  36  55  87 120 154 179 231 294 344
#     4  11  20  34  57  84 114 150 186 239 275 337
#
# _framework density 19.360364000000001
#
# number of rings (size 3 to 8) (size 9 to 14) (size 15 to 20)
#    0.000    1.375    3.750    3.375    0.000    2.000 
#    0.000    1.875    0.000   14.250    0.000    0.000 
#    0.000    0.000    0.000    0.000    0.000    0.000 
#
# Total GULP energy -396440.999485 kJ/mol
# GULP energy per Si atom -12388.781234 kJ/mol
# Density = 1.931630 g / cm^3
# Si number density = 19.360364 Si / 1000 Ang^3
#
#
#
# Elastic Constant Matrix: (Units=GPa)
#
#
# Indices 1 2 3 4 5 6 
#
# 1 64.5013 32.3838 29.1275 0.0000 0.0000 0.0000
# 2 32.3838 69.0486 28.1850 0.0000 0.0000 0.0000
# 3 29.1275 28.1850 98.5910 0.0000 0.0000 0.0000
# 4 0.0000 0.0000 0.0000 21.7464 0.0000 0.0000
# 5 0.0000 0.0000 0.0000 0.0000 32.3113 0.0000
# 6 0.0000 0.0000 0.0000 0.0000 0.0000 17.7670
#
#
#
# Elastic Compliance Matrix: (Units=1/GPa)
#
#
# Indices 1 2 3 4 5 6 
#
# 1 0.021548 -0.008499 -0.003936 0.000000 0.000000 0.000000
# 2 -0.008499 0.019748 -0.003135 0.000000 0.000000 0.000000
# 3 -0.003936 -0.003135 0.012202 0.000000 0.000000 0.000000
# 4 0.000000 0.000000 0.000000 0.045985 0.000000 0.000000
# 5 0.000000 0.000000 0.000000 0.000000 0.030949 0.000000
# 6 0.000000 0.000000 0.000000 0.000000 0.000000 0.056284
#
#
# Mechanical properties :
#
#
# Convention : Reuss Voigt Hill
#
# Bulk Modulus (GPa) = 44.72690 45.72596 45.22643
# Shear Modulus (GPa) = 22.19166 23.86124 23.02645
#
# Velocity S-wave (km/s) = 3.38929 3.51448 3.45245
# Velocity P-wave (km/s) = 6.20233 6.33548 6.26926
#
# Compressibility (1/GPa) = 0.02235791
#
# Stress axis : x y z
#
# Youngs Moduli (GPa) = 46.40706 50.63736 81.95389
#
# Poissons Ratio (x) = 0.43039 0.32261
# Poissons Ratio (y) = 0.39443 0.25689
# Poissons Ratio (z) = 0.18268 0.15873
#
# Static dielectric constant tensor:
#      x y z
#    x 3.721290 0.000000 0.000000 
#    y 0.000000 3.482440 0.000000 
#    z 0.000000 0.000000 3.572640 
# 
# 
# High freq. dielectric constant tensor:
#      x y z
#    x 1.761220 0.000000 0.000000 
#    y 0.000000 1.725540 0.000000 
#    z 0.000000 0.000000 1.751410 
# 
# From -- ./inp_files/6548.got.cif
#   From: 2010.03.12/outbox.cif.g09.slc.cpg/sg38_4_cif.got.tgz:6548.got - 2010.04.14 02:38:36.
