data_PCOD8177950
_publ_section_title
;
Structure prediction by ZEFSAII (Michael W. Deem and Ramdas Pophale) SiO2 
 PCOD8177950
Probable space group: A M M 2
;
_chemical_formula_sum "Si O2"
_cell_formula_units_Z 64
_cell_length_a 11.069331
_cell_length_b 19.025360
_cell_length_c 15.342296
_cell_angle_alpha 90.000000
_cell_angle_beta 90.000000
_cell_angle_gamma 90.000000
_cell_volume 3231.056964
_symmetry_space_group_name_H-M "A M M 2"
_symmetry_group_IT_number 38
_symmetry_cell_setting 'orthorhombic'
loop_
_space_group_symop_operation_xyz
x,y,z
-x,-y,z
-x,y,z
x,-y,z
x,1/2+y,1/2+z
-x,1/2-y,1/2+z
-x,1/2+y,1/2+z
x,1/2-y,1/2+z
loop_
_atom_site_type_symbol
_atom_site_label
_atom_site_fract_x
_atom_site_fract_y
_atom_site_fract_z
Si Si1 0.362342 0.148440 0.268360
Si Si2 0.868162 0.717171 0.978645
Si Si3 0.357017 0.921299 0.097266
Si Si4 0.364583 0.080286 0.607937
Si Si5 0.642798 0.578421 0.404906
Si Si6 0.137898 0.329687 0.161706
Si Si7 0.243702 0.079456 0.430835
Si Si8 0.258735 0.712162 0.324754
O O1 0.500000 0.124537 0.272785
O O2 0.308901 0.131683 0.171913
O O3 0.292273 0.100352 0.336629
O O4 0.353797 0.231529 0.287314
O O5 0.861733 0.633660 0.957208
O O6 0.776960 0.762268 0.921120
O O7 0.000000 0.744819 0.954244
O O8 0.843854 0.725821 0.082297
O O9 0.500000 0.917248 0.091364
O O10 0.315376 0.000000 0.121962
O O11 0.306009 0.901433 0.001266
O O12 0.500000 0.111355 0.630254
O O13 0.251010 0.116365 0.656800
O O14 0.349118 0.086336 0.503369
O O15 0.361278 0.000000 0.638761
O O16 0.500000 0.578803 0.406175
O O17 0.688750 0.500000 0.379008
O O18 0.685992 0.634571 0.333688
O O19 0.148734 0.290970 0.255274
O O20 0.000000 0.361865 0.155529
O O21 0.192051 0.000000 0.428294
#
# Coordination Sequence:
#
# PCOD8177950 Si02
#       8
#     8   8   8   8   8   8   8   8
#     4  10  19  29  46  79 116 147 183 234 292 342
#     4   9  20  38  56  77 108 144 185 237 290 340
#     4   8  15  29  49  72 103 147 192 231 281 345
#     4   9  18  33  54  81 113 147 182 225 279 336
#     4   9  19  36  55  77 111 154 194 236 291 350
#     4  10  22  39  57  79 108 147 191 231 281 343
#     4   9  17  30  51  80 113 150 186 222 273 340
#     4  11  22  34  56  80 108 141 195 240 291 342
#
# _framework density 19.807759999999998
#
# number of rings (size 3 to 8) (size 9 to 14) (size 15 to 20)
#    0.000    2.625    0.000    2.250    1.750    3.250 
#    0.000    4.375    0.000    1.125    0.000    0.000 
#    0.000    0.000    0.000    0.000    0.000    0.000 
#
# Total GULP energy -396418.915034 kJ/mol
# GULP energy per Si atom -12388.091095 kJ/mol
# Density = 1.976268 g / cm^3
# Si number density = 19.807760 Si / 1000 Ang^3
#
#
#
# Elastic Constant Matrix: (Units=GPa)
#
#
# Indices 1 2 3 4 5 6 
#
# 1 66.1445 9.6294 19.9735 0.0000 0.0000 0.0000
# 2 9.6294 90.1264 42.7186 0.0000 0.0000 0.0000
# 3 19.9735 42.7186 108.6233 0.0000 0.0000 0.0000
# 4 0.0000 0.0000 0.0000 28.6344 0.0000 0.0000
# 5 0.0000 0.0000 0.0000 0.0000 18.5138 0.0000
# 6 0.0000 0.0000 0.0000 0.0000 0.0000 12.9871
#
#
#
# Elastic Compliance Matrix: (Units=1/GPa)
#
#
# Indices 1 2 3 4 5 6 
#
# 1 0.016018 -0.000388 -0.002793 0.000000 0.000000 0.000000
# 2 -0.000388 0.013647 -0.005296 0.000000 0.000000 0.000000
# 3 -0.002793 -0.005296 0.011802 0.000000 0.000000 0.000000
# 4 0.000000 0.000000 0.000000 0.034923 0.000000 0.000000
# 5 0.000000 0.000000 0.000000 0.000000 0.054014 0.000000
# 6 0.000000 0.000000 0.000000 0.000000 0.000000 0.077000
#
#
# Mechanical properties :
#
#
# Convention : Reuss Voigt Hill
#
# Bulk Modulus (GPa) = 40.79135 45.50412 43.14773
# Shear Modulus (GPa) = 21.50278 24.86526 23.18402
#
# Velocity S-wave (km/s) = 3.29838 3.54691 3.42490
# Velocity P-wave (km/s) = 5.92824 6.30847 6.12131
#
# Compressibility (1/GPa) = 0.02451500
#
# Stress axis : x y z
#
# Youngs Moduli (GPa) = 62.42888 73.27595 84.72882
#
# Poissons Ratio (x) = 0.02840 0.23664
# Poissons Ratio (y) = 0.02420 0.44870
# Poissons Ratio (z) = 0.17436 0.38805
#
# Static dielectric constant tensor:
#      x y z
#    x 3.266050 0.000000 0.000000 
#    y 0.000000 3.555770 0.000000 
#    z 0.000000 0.000000 3.950990 
# 
# 
# High freq. dielectric constant tensor:
#      x y z
#    x 1.734360 0.000000 0.000000 
#    y 0.000000 1.757630 0.000000 
#    z 0.000000 0.000000 1.791400 
# 
# From -- ./inp_files/13958.got.cif
#   From: 2010.03.12/outbox.cif.g09.slc.cpg/sg38_7_cif.got.tgz:13958.got - 2010.04.14 02:38:36.
