data_PCOD8177805
_publ_section_title
;
Structure prediction by ZEFSAII (Michael W. Deem and Ramdas Pophale) SiO2 
 PCOD8177805
Probable space group: A M M 2
;
_chemical_formula_sum "Si O2"
_cell_formula_units_Z 56
_cell_length_a 8.744566
_cell_length_b 16.834460
_cell_length_c 18.509817
_cell_angle_alpha 90.000000
_cell_angle_beta 90.000000
_cell_angle_gamma 90.000000
_cell_volume 2724.831022
_symmetry_space_group_name_H-M "A M M 2"
_symmetry_group_IT_number 38
_symmetry_cell_setting 'orthorhombic'
loop_
_space_group_symop_operation_xyz
x,y,z
-x,-y,z
-x,y,z
x,-y,z
x,1/2+y,1/2+z
-x,1/2-y,1/2+z
-x,1/2+y,1/2+z
x,1/2-y,1/2+z
loop_
_atom_site_type_symbol
_atom_site_label
_atom_site_fract_x
_atom_site_fract_y
_atom_site_fract_z
Si Si1 0.681063 0.832545 0.366350
Si Si2 0.681039 0.850841 0.057150
Si Si3 0.319660 0.908462 0.636087
Si Si4 0.318000 0.587225 0.403661
Si Si5 0.180190 0.306523 0.020895
Si Si6 0.318217 0.500000 0.810504
Si Si7 0.680696 0.688235 0.272954
Si Si8 0.317712 0.500000 0.648669
O O1 0.500000 0.829090 0.378098
O O2 0.755241 0.800305 0.439637
O O3 0.740664 0.921740 0.351806
O O4 0.724235 0.779079 0.295184
O O5 0.500000 0.840016 0.065682
O O6 0.760861 0.766305 0.071333
O O7 0.742360 0.919602 0.110492
O O8 0.735048 0.873605 0.977491
O O9 0.500000 0.898511 0.625665
O O10 0.238764 0.886373 0.560471
O O11 0.255226 0.847427 0.697751
O O12 0.279945 0.000000 0.656140
O O13 0.500000 0.584444 0.401086
O O14 0.247495 0.500000 0.399103
O O15 0.249421 0.635746 0.337241
O O16 0.000000 0.306779 0.016539
O O17 0.500000 0.500000 0.806443
O O18 0.252807 0.500000 0.729509
O O19 0.500000 0.678449 0.269800
O O20 0.500000 0.500000 0.644308
#
# Coordination Sequence:
#
# PCOD8177805 Si02
#       8
#     8   8   8   8   8   4   8   4
#     4  10  20  38  62  89 118 152 196 248 298 350
#     4  10  18  33  59  90 121 155 195 240 294 350
#     4  10  22  40  64  93 119 149 193 249 306 359
#     4   9  14  24  48  85 119 144 178 230 286 340
#     4  12  26  41  58  83 120 164 207 247 292 351
#     4   9  20  34  57  93 122 145 188 250 304 346
#     4   9  17  31  57  91 121 146 183 240 302 354
#     4   9  18  32  59  97 126 151 190 244 302 358
#
# _framework density 20.551732000000001
#
# number of rings (size 3 to 8) (size 9 to 14) (size 15 to 20)
#    0.000    2.143    2.143    1.714    3.000    2.000 
#    0.000    1.071    0.000    0.857    0.000    0.000 
#    0.000    0.000    0.000    0.000    0.000    0.000 
#
# Total GULP energy -347043.887425 kJ/mol
# GULP energy per Si atom -12394.424551 kJ/mol
# Density = 2.050496 g / cm^3
# Si number density = 20.551732 Si / 1000 Ang^3
#
#
#
# Elastic Constant Matrix: (Units=GPa)
#
#
# Indices 1 2 3 4 5 6 
#
# 1 40.2738 33.3581 21.5765 0.0000 0.0000 0.0000
# 2 33.3581 149.4922 45.8704 0.0000 0.0000 0.0000
# 3 21.5765 45.8704 95.8594 0.0000 0.0000 0.0000
# 4 0.0000 0.0000 0.0000 42.0932 0.0000 0.0000
# 5 0.0000 0.0000 0.0000 0.0000 4.7172 0.0000
# 6 0.0000 0.0000 0.0000 0.0000 0.0000 6.7571
#
#
#
# Elastic Compliance Matrix: (Units=1/GPa)
#
#
# Indices 1 2 3 4 5 6 
#
# 1 0.031992 -0.005778 -0.004436 0.000000 0.000000 0.000000
# 2 -0.005778 0.008884 -0.002951 0.000000 0.000000 0.000000
# 3 -0.004436 -0.002951 0.012842 0.000000 0.000000 0.000000
# 4 0.000000 0.000000 0.000000 0.023757 0.000000 0.000000
# 5 0.000000 0.000000 0.000000 0.000000 0.211989 0.000000
# 6 0.000000 0.000000 0.000000 0.000000 0.000000 0.147991
#
#
# Mechanical properties :
#
#
# Convention : Reuss Voigt Hill
#
# Bulk Modulus (GPa) = 36.51034 54.13724 45.32379
# Shear Modulus (GPa) = 10.57274 23.03488 16.80381
#
# Velocity S-wave (km/s) = 2.27060 3.35150 2.86253
# Velocity P-wave (km/s) = 4.96768 6.43241 5.74690
#
# Compressibility (1/GPa) = 0.02738950
#
# Stress axis : x y z
#
# Youngs Moduli (GPa) = 31.25761 112.56285 77.86696
#
# Poissons Ratio (x) = 0.65034 0.34544
# Poissons Ratio (y) = 0.18059 0.22976
# Poissons Ratio (z) = 0.13867 0.33213
#
# Static dielectric constant tensor:
#      x y z
#    x 3.006330 0.000000 0.000000 
#    y 0.000000 4.076120 0.000000 
#    z 0.000000 0.000000 3.861570 
# 
# 
# High freq. dielectric constant tensor:
#      x y z
#    x 1.729860 0.000000 0.000000 
#    y 0.000000 1.823810 0.000000 
#    z 0.000000 0.000000 1.809040 
# 
# From -- ./inp_files/19843.got.cif
#   From: 2010.03.12/outbox.cif.g09.slc.cpg/sg38_10_cif.got.tgz:19843.got - 2010.04.14 02:38:36.
