data_PCOD8177569
_publ_section_title
;
Structure prediction by ZEFSAII (Michael W. Deem and Ramdas Pophale) SiO2 
 PCOD8177569
Probable space group: A M M 2
;
_chemical_formula_sum "Si O2"
_cell_formula_units_Z 56
_cell_length_a 24.024368
_cell_length_b 9.087963
_cell_length_c 14.522390
_cell_angle_alpha 90.000000
_cell_angle_beta 90.000000
_cell_angle_gamma 90.000000
_cell_volume 3170.710695
_symmetry_space_group_name_H-M "A M M 2"
_symmetry_group_IT_number 38
_symmetry_cell_setting 'orthorhombic'
loop_
_space_group_symop_operation_xyz
x,y,z
-x,-y,z
-x,y,z
x,-y,z
x,1/2+y,1/2+z
-x,1/2-y,1/2+z
-x,1/2+y,1/2+z
x,1/2-y,1/2+z
loop_
_atom_site_type_symbol
_atom_site_label
_atom_site_fract_x
_atom_site_fract_y
_atom_site_fract_z
Si Si1 0.851974 0.174144 0.987610
Si Si2 0.233769 0.325480 0.639020
Si Si3 0.641585 0.824883 0.139599
Si Si4 0.560574 0.674279 0.792646
Si Si5 0.436636 0.828788 0.501195
Si Si6 0.148002 0.674155 0.790344
Si Si7 0.937993 0.174592 0.138963
O O1 0.852083 0.250088 0.889012
O O2 0.851909 0.000000 0.972544
O O3 0.797956 0.225851 0.046231
O O4 0.905935 0.225393 0.046419
O O5 0.234897 0.500000 0.639528
O O6 0.296012 0.259263 0.639035
O O7 0.201932 0.273822 0.731646
O O8 0.609677 0.761783 0.229266
O O9 0.607757 0.770623 0.052297
O O10 0.643392 0.000000 0.138540
O O11 0.500000 0.735357 0.760319
O O12 0.559299 0.500000 0.785312
O O13 0.571670 0.721475 0.896540
O O14 0.500000 0.795956 0.533091
O O15 0.422764 0.000000 0.515388
O O16 0.148257 0.500000 0.805471
O O17 0.093954 0.725121 0.731674
O O18 0.000000 0.243346 0.138917
O O19 0.940276 0.000000 0.138849
#
# Coordination Sequence:
#
# PCOD8177569 Si02
#       7
#     8   8   8   8   8   8   8
#     4   9  17  31  49  67  92 125 156 187 230 278
#     4   8  17  32  46  64  92 123 151 185 231 278
#     4  10  18  30  50  70  87 114 157 196 221 260
#     4   8  15  28  45  64  86 113 143 175 216 267
#     4   9  18  32  47  66  95 123 144 177 232 285
#     4   9  17  31  50  69  91 122 159 193 227 270
#     4   8  15  29  48  69  95 127 158 187 227 281
#
# _framework density 17.661655
#
# number of rings (size 3 to 8) (size 9 to 14) (size 15 to 20)
#    0.000    3.286    0.000    3.000    0.000    2.571 
#    0.000    6.429    0.000    1.714    0.000    0.000 
#    0.000    0.000    0.000    0.000    0.000    0.000 
#
# Total GULP energy -346989.908896 kJ/mol
# GULP energy per Si atom -12392.496746 kJ/mol
# Density = 1.762146 g / cm^3
# Si number density = 17.661655 Si / 1000 Ang^3
#
#
#
# Elastic Constant Matrix: (Units=GPa)
#
#
# Indices 1 2 3 4 5 6 
#
# 1 180.6592 23.5283 93.3881 0.0000 0.0000 0.0000
# 2 23.5283 19.1281 28.3862 0.0000 0.0000 0.0000
# 3 93.3881 28.3862 159.3993 0.0000 0.0000 0.0000
# 4 0.0000 0.0000 0.0000 31.9185 0.0000 0.0000
# 5 0.0000 0.0000 0.0000 0.0000 55.6344 0.0000
# 6 0.0000 0.0000 0.0000 0.0000 0.0000 15.9319
#
#
#
# Elastic Compliance Matrix: (Units=1/GPa)
#
#
# Indices 1 2 3 4 5 6 
#
# 1 0.008159 -0.003999 -0.004068 0.000000 0.000000 0.000000
# 2 -0.003999 0.073018 -0.010660 0.000000 0.000000 0.000000
# 3 -0.004068 -0.010660 0.010555 0.000000 0.000000 0.000000
# 4 0.000000 0.000000 0.000000 0.031330 0.000000 0.000000
# 5 0.000000 0.000000 0.000000 0.000000 0.017974 0.000000
# 6 0.000000 0.000000 0.000000 0.000000 0.000000 0.062767
#
#
# Mechanical properties :
#
#
# Convention : Reuss Voigt Hill
#
# Bulk Modulus (GPa) = 18.42375 72.19910 45.31143
# Shear Modulus (GPa) = 19.27889 34.95589 27.11739
#
# Velocity S-wave (km/s) = 3.30747 4.45364 3.92265
# Velocity P-wave (km/s) = 5.00400 8.21062 6.79906
#
# Compressibility (1/GPa) = 0.05427776
#
# Stress axis : x y z
#
# Youngs Moduli (GPa) = 122.56479 13.69525 94.73890
#
# Poissons Ratio (x) = 0.05477 0.38540
# Poissons Ratio (y) = 0.49012 1.00995
# Poissons Ratio (z) = 0.49859 0.14600
#
# Static dielectric constant tensor:
#      x y z
#    x 2.703710 0.000000 0.000000 
#    y 0.000000 2.759660 0.000000 
#    z 0.000000 0.000000 3.346500 
# 
# 
# High freq. dielectric constant tensor:
#      x y z
#    x 1.691700 0.000000 0.000000 
#    y 0.000000 1.632960 0.000000 
#    z 0.000000 0.000000 1.689750 
# 
# From -- ./inp_files/10860.got.cif
#   From: 2010.03.12/outbox.cif.g09.slc.cpg/sg38_6_cif.got.tgz:10860.got - 2010.04.14 02:38:36.
