data_PCOD8177815
_publ_section_title
;
Structure prediction by ZEFSAII (Michael W. Deem and Ramdas Pophale) SiO2 
 PCOD8177815
Probable space group: A M M 2
;
_chemical_formula_sum "Si O2"
_cell_formula_units_Z 56
_cell_length_a 9.481644
_cell_length_b 19.852579
_cell_length_c 14.903056
_cell_angle_alpha 90.000000
_cell_angle_beta 90.000000
_cell_angle_gamma 90.000000
_cell_volume 2805.278036
_symmetry_space_group_name_H-M "A M M 2"
_symmetry_group_IT_number 38
_symmetry_cell_setting 'orthorhombic'
loop_
_space_group_symop_operation_xyz
x,y,z
-x,-y,z
-x,y,z
x,-y,z
x,1/2+y,1/2+z
-x,1/2-y,1/2+z
-x,1/2+y,1/2+z
x,1/2-y,1/2+z
loop_
_atom_site_type_symbol
_atom_site_label
_atom_site_fract_x
_atom_site_fract_y
_atom_site_fract_z
Si Si1 0.836032 0.363663 0.890260
Si Si2 0.165501 0.500000 0.474870
Si Si3 0.335747 0.272233 0.394504
Si Si4 0.341030 0.379589 0.543299
Si Si5 0.342629 0.077220 0.234895
Si Si6 0.837147 0.076875 0.581981
Si Si7 0.656345 0.640838 0.223169
Si Si8 0.350294 0.000000 0.812891
O O1 0.757548 0.293403 0.900534
O O2 0.774193 0.405095 0.807349
O O3 0.000000 0.349633 0.872366
O O4 0.811874 0.409029 0.977447
O O5 0.225075 0.433812 0.519752
O O6 0.210625 0.500000 0.371799
O O7 0.000000 0.500000 0.484123
O O8 0.500000 0.253289 0.386126
O O9 0.307139 0.312537 0.486973
O O10 0.287352 0.314260 0.306229
O O11 0.500000 0.403856 0.518536
O O12 0.328551 0.370795 0.650903
O O13 0.500000 0.085283 0.276146
O O14 0.319864 0.000000 0.202030
O O15 0.758537 0.136910 0.637034
O O16 0.000000 0.083458 0.607843
O O17 0.785263 0.000000 0.601560
O O18 0.500000 0.665999 0.194102
O O19 0.650882 0.564215 0.251453
O O20 0.500000 0.000000 0.868412
#
# Coordination Sequence:
#
# PCOD8177815 Si02
#       8
#     8   4   8   8   8   8   8   4
#     4  11  25  43  60  81 121 166 201 245 297 354
#     4  12  22  30  52  91 126 157 194 239 294 362
#     4  10  22  40  62  87 119 160 201 240 290 357
#     4  10  20  39  63  87 121 158 194 247 304 352
#     4  10  21  39  67  95 117 149 198 254 303 350
#     4  10  22  40  61  86 118 156 194 240 300 354
#     4  10  20  35  61  91 117 149 193 245 296 348
#     4  10  18  34  56  83 120 157 192 235 300 356
#
# _framework density 19.962371999999998
#
# number of rings (size 3 to 8) (size 9 to 14) (size 15 to 20)
#    0.000    1.714    2.857    1.500    0.000    5.429 
#    0.000    4.286    0.000    0.000    0.000    0.000 
#    0.000    0.000    0.000    0.000    0.000    0.000 
#
# Total GULP energy -347048.357375 kJ/mol
# GULP energy per Si atom -12394.584192 kJ/mol
# Density = 1.991694 g / cm^3
# Si number density = 19.962372 Si / 1000 Ang^3
#
#
#
# Elastic Constant Matrix: (Units=GPa)
#
#
# Indices 1 2 3 4 5 6 
#
# 1 106.8871 39.0522 47.9035 0.0000 0.0000 0.0000
# 2 39.0522 73.9269 28.3843 0.0000 0.0000 0.0000
# 3 47.9035 28.3843 106.0299 0.0000 0.0000 0.0000
# 4 0.0000 0.0000 0.0000 76.4998 0.0000 0.0000
# 5 0.0000 0.0000 0.0000 0.0000 23.8393 0.0000
# 6 0.0000 0.0000 0.0000 0.0000 0.0000 15.0338
#
#
#
# Elastic Compliance Matrix: (Units=1/GPa)
#
#
# Indices 1 2 3 4 5 6 
#
# 1 0.013356 -0.005281 -0.004620 0.000000 0.000000 0.000000
# 2 -0.005281 0.017165 -0.002209 0.000000 0.000000 0.000000
# 3 -0.004620 -0.002209 0.012110 0.000000 0.000000 0.000000
# 4 0.000000 0.000000 0.000000 0.013072 0.000000 0.000000
# 5 0.000000 0.000000 0.000000 0.000000 0.041948 0.000000
# 6 0.000000 0.000000 0.000000 0.000000 0.000000 0.066517
#
#
# Mechanical properties :
#
#
# Convention : Reuss Voigt Hill
#
# Bulk Modulus (GPa) = 54.31935 57.50265 55.91100
# Shear Modulus (GPa) = 25.70364 34.50817 30.10591
#
# Velocity S-wave (km/s) = 3.59221 4.16223 3.88768
# Velocity P-wave (km/s) = 6.66898 7.20881 6.94414
#
# Compressibility (1/GPa) = 0.01840965
#
# Stress axis : x y z
#
# Youngs Moduli (GPa) = 74.87305 58.25835 82.57601
#
# Poissons Ratio (x) = 0.30768 0.38152
# Poissons Ratio (y) = 0.39543 0.18241
# Poissons Ratio (z) = 0.34593 0.12869
#
# Static dielectric constant tensor:
#      x y z
#    x 3.829830 0.000000 0.000000 
#    y 0.000000 3.489910 0.000000 
#    z 0.000000 0.000000 3.706100 
# 
# 
# High freq. dielectric constant tensor:
#      x y z
#    x 1.772320 0.000000 0.000000 
#    y 0.000000 1.770860 0.000000 
#    z 0.000000 0.000000 1.783720 
# 
# From -- ./inp_files/12493.got.cif
#   From: 2010.03.12/outbox.cif.g09.slc.cpg/sg38_7_cif.got.tgz:12493.got - 2010.04.14 02:38:36.
