data_PCOD8177207
_publ_section_title
;
Structure prediction by ZEFSAII (Michael W. Deem and Ramdas Pophale) SiO2 
 PCOD8177207
Probable space group: A M M 2
;
_chemical_formula_sum "Si O2"
_cell_formula_units_Z 64
_cell_length_a 8.675143
_cell_length_b 30.902217
_cell_length_c 14.465844
_cell_angle_alpha 90.000000
_cell_angle_beta 90.000000
_cell_angle_gamma 90.000000
_cell_volume 3878.020117
_symmetry_space_group_name_H-M "A M M 2"
_symmetry_group_IT_number 38
_symmetry_cell_setting 'orthorhombic'
loop_
_space_group_symop_operation_xyz
x,y,z
-x,-y,z
-x,y,z
x,-y,z
x,1/2+y,1/2+z
-x,1/2-y,1/2+z
-x,1/2+y,1/2+z
x,1/2-y,1/2+z
loop_
_atom_site_type_symbol
_atom_site_label
_atom_site_fract_x
_atom_site_fract_y
_atom_site_fract_z
Si Si1 0.826951 0.634518 0.436520
Si Si2 0.182628 0.201706 0.443634
Si Si3 0.816711 0.214927 0.826916
Si Si4 0.183987 0.952327 0.008341
Si Si5 0.679062 0.227282 0.627196
Si Si6 0.817408 0.134012 0.297468
Si Si7 0.816462 0.047130 0.217582
Si Si8 0.825863 0.684678 0.622205
O O1 0.744964 0.670619 0.371677
O O2 0.749776 0.586202 0.441234
O O3 0.826462 0.649894 0.541847
O O4 0.000000 0.629567 0.398901
O O5 0.242359 0.243052 0.383892
O O6 0.263071 0.197446 0.543070
O O7 0.232488 0.157147 0.392333
O O8 0.000000 0.204973 0.457199
O O9 0.767355 0.216270 0.721117
O O10 0.000000 0.214048 0.834562
O O11 0.000000 0.948833 0.009323
O O12 0.235401 0.000000 0.971630
O O13 0.245002 0.945870 0.113106
O O14 0.500000 0.219994 0.643878
O O15 0.715962 0.275872 0.595238
O O16 0.752261 0.084967 0.285787
O O17 0.755177 0.163057 0.213419
O O18 0.000000 0.132783 0.289172
O O19 0.000000 0.048429 0.215686
O O20 0.760299 0.000000 0.254305
O O21 0.000000 0.702317 0.639237
#
# Coordination Sequence:
#
# PCOD8177207 Si02
#       8
#     8   8   8   8   8   8   8   8
#     4   9  15  24  42  65  89 121 156 183 210 257
#     4  10  19  32  50  67  85 118 159 192 219 260
#     4  10  19  32  50  67  85 118 159 192 219 260
#     4   8  12  18  32  60  97 125 140 167 217 269
#     4  12  24  34  44  63  94 122 148 191 238 271
#     4   9  15  24  42  65  89 121 156 183 210 257
#     4   8  12  18  32  60  97 125 140 167 217 269
#     4  10  16  28  47  66  90 121 159 186 210 258
#
# _framework density 16.503267000000001
#
# number of rings (size 3 to 8) (size 9 to 14) (size 15 to 20)
#    0.000    2.500    3.750    1.875    0.000    0.500 
#    0.000    0.000    0.000    0.000    0.000    0.875 
#    0.000   12.000    0.000    0.000    0.000    0.000 
#
# Total GULP energy -396428.651541 kJ/mol
# GULP energy per Si atom -12388.395361 kJ/mol
# Density = 1.646570 g / cm^3
# Si number density = 16.503267 Si / 1000 Ang^3
#
#
#
# Elastic Constant Matrix: (Units=GPa)
#
#
# Indices 1 2 3 4 5 6 
#
# 1 13.1328 9.3736 6.5017 0.0000 0.0000 0.0000
# 2 9.3736 132.7491 36.5225 0.0000 0.0000 0.0000
# 3 6.5017 36.5225 73.2969 0.0000 0.0000 0.0000
# 4 0.0000 0.0000 0.0000 25.5565 0.0000 0.0000
# 5 0.0000 0.0000 0.0000 0.0000 3.3504 0.0000
# 6 0.0000 0.0000 0.0000 0.0000 0.0000 1.2532
#
#
#
# Elastic Compliance Matrix: (Units=1/GPa)
#
#
# Indices 1 2 3 4 5 6 
#
# 1 0.081782 -0.004379 -0.005072 0.000000 0.000000 0.000000
# 2 -0.004379 0.008964 -0.004078 0.000000 0.000000 0.000000
# 3 -0.005072 -0.004078 0.016125 0.000000 0.000000 0.000000
# 4 0.000000 0.000000 0.000000 0.039129 0.000000 0.000000
# 5 0.000000 0.000000 0.000000 0.000000 0.298474 0.000000
# 6 0.000000 0.000000 0.000000 0.000000 0.000000 0.797927
#
#
# Mechanical properties :
#
#
# Convention : Reuss Voigt Hill
#
# Bulk Modulus (GPa) = 12.52944 35.99714 24.26329
# Shear Modulus (GPa) = 3.85783 17.15076 10.50430
#
# Velocity S-wave (km/s) = 1.53059 3.22721 2.52563
# Velocity P-wave (km/s) = 3.27600 5.97880 4.82069
#
# Compressibility (1/GPa) = 0.07981205
#
# Stress axis : x y z
#
# Youngs Moduli (GPa) = 12.22762 111.55405 62.01472
#
# Poissons Ratio (x) = 0.48852 0.31455
# Poissons Ratio (y) = 0.05355 0.25291
# Poissons Ratio (z) = 0.06202 0.45495
#
# Static dielectric constant tensor:
#      x y z
#    x 2.590690 0.000000 0.000000 
#    y 0.000000 3.560450 0.000000 
#    z 0.000000 0.000000 3.003470 
# 
# 
# High freq. dielectric constant tensor:
#      x y z
#    x 1.578240 0.000000 0.000000 
#    y 0.000000 1.639160 0.000000 
#    z 0.000000 0.000000 1.609840 
# 
# From -- ./inp_files/13119.got.cif
#   From: 2010.03.12/outbox.cif.g09.slc.cpg/sg38_7_cif.got.tgz:13119.got - 2010.04.14 02:38:36.
