data_PCOD8177867
_publ_section_title
;
Structure prediction by ZEFSAII (Michael W. Deem and Ramdas Pophale) SiO2 
 PCOD8177867
Probable space group: A M M 2
;
_chemical_formula_sum "Si O2"
_cell_formula_units_Z 64
_cell_length_a 15.145189
_cell_length_b 9.511397
_cell_length_c 29.795119
_cell_angle_alpha 90.000000
_cell_angle_beta 90.000000
_cell_angle_gamma 90.000000
_cell_volume 4292.043658
_symmetry_space_group_name_H-M "A M M 2"
_symmetry_group_IT_number 38
_symmetry_cell_setting 'orthorhombic'
loop_
_space_group_symop_operation_xyz
x,y,z
-x,-y,z
-x,y,z
x,-y,z
x,1/2+y,1/2+z
-x,1/2-y,1/2+z
-x,1/2+y,1/2+z
x,1/2-y,1/2+z
loop_
_atom_site_type_symbol
_atom_site_label
_atom_site_fract_x
_atom_site_fract_y
_atom_site_fract_z
Si Si1 0.403356 0.157732 0.162370
Si Si2 0.894825 0.158292 0.007463
Si Si3 0.242784 0.161549 0.664458
Si Si4 0.597811 0.658205 0.768987
Si Si5 0.895128 0.844212 0.426872
Si Si6 0.762642 0.334422 0.268358
Si Si7 0.101297 0.662517 0.091838
Si Si8 0.896849 0.337243 0.825830
O O1 0.500000 0.208746 0.145121
O O2 0.326016 0.255940 0.143488
O O3 0.403035 0.163047 0.215716
O O4 0.385338 0.000000 0.145408
O O5 0.856554 0.233383 0.962780
O O6 0.000000 0.157800 0.005843
O O7 0.857324 0.000000 0.009494
O O8 0.862486 0.243607 0.050983
O O9 0.224211 0.200912 0.715951
O O10 0.155853 0.200331 0.636351
O O11 0.268166 0.000000 0.659826
O O12 0.500000 0.701615 0.786842
O O13 0.620836 0.500000 0.785323
O O14 0.671604 0.766309 0.787077
O O15 0.867203 0.800369 0.376639
O O16 0.000000 0.848686 0.429802
O O17 0.858326 0.000000 0.438139
O O18 0.760012 0.500000 0.277857
O O19 0.845304 0.265700 0.292968
O O20 0.112381 0.500000 0.077930
O O21 0.000000 0.698179 0.102989
O O22 0.875461 0.500000 0.814968
O O23 0.000000 0.307134 0.819012
#
# Coordination Sequence:
#
# PCOD8177867 Si02
#       8
#     8   8   8   8   8   8   8   8
#     4   8  14  25  41  59  77  99 128 164 208 250
#     4   9  16  25  39  60  81  98 123 164 210 248
#     4   9  18  29  40  57  80 109 143 173 201 234
#     4   8  14  26  43  59  76 102 135 169 206 248
#     4   8  14  26  43  59  75  99 131 165 203 245
#     4  10  19  28  40  60  85 111 139 174 212 244
#     4   9  17  29  42  54  75 110 145 171 196 232
#     4   9  18  31  44  58  79 110 146 176 200 236
#
# _framework density 14.911312000000001
#
# number of rings (size 3 to 8) (size 9 to 14) (size 15 to 20)
#    0.000    3.250    0.000    2.250    0.000    4.250 
#    0.000    5.000    0.000    1.500    0.000    0.000 
#    0.000    1.000    0.000    5.500    0.000    4.375 
#
# Total GULP energy -396622.775458 kJ/mol
# GULP energy per Si atom -12394.461733 kJ/mol
# Density = 1.487737 g / cm^3
# Si number density = 14.911312 Si / 1000 Ang^3
#
#
#
# Elastic Constant Matrix: (Units=GPa)
#
#
# Indices 1 2 3 4 5 6 
#
# 1 77.0352 54.3751 41.2693 0.0000 0.0000 0.0000
# 2 54.3751 97.4663 52.6769 0.0000 0.0000 0.0000
# 3 41.2693 52.6769 67.7530 0.0000 0.0000 0.0000
# 4 0.0000 0.0000 0.0000 21.0438 0.0000 0.0000
# 5 0.0000 0.0000 0.0000 0.0000 0.9928 0.0000
# 6 0.0000 0.0000 0.0000 0.0000 0.0000 24.8298
#
#
#
# Elastic Compliance Matrix: (Units=1/GPa)
#
#
# Indices 1 2 3 4 5 6 
#
# 1 0.023198 -0.009150 -0.007017 0.000000 0.000000 0.000000
# 2 -0.009150 0.021305 -0.010991 0.000000 0.000000 0.000000
# 3 -0.007017 -0.010991 0.027578 0.000000 0.000000 0.000000
# 4 0.000000 0.000000 0.000000 0.047520 0.000000 0.000000
# 5 0.000000 0.000000 0.000000 0.000000 1.007282 0.000000
# 6 0.000000 0.000000 0.000000 0.000000 0.000000 0.040274
#
#
# Mechanical properties :
#
#
# Convention : Reuss Voigt Hill
#
# Bulk Modulus (GPa) = 56.28346 59.87744 58.08045
# Shear Modulus (GPa) = 4.07367 15.63550 9.85458
#
# Velocity S-wave (km/s) = 1.65465 3.24167 2.57355
# Velocity P-wave (km/s) = 6.44033 7.36574 6.91853
#
# Compressibility (1/GPa) = 0.01776721
#
# Stress axis : x y z
#
# Youngs Moduli (GPa) = 43.10640 46.93819 36.26019
#
# Poissons Ratio (x) = 0.42948 0.25442
# Poissons Ratio (y) = 0.39442 0.39852
# Poissons Ratio (z) = 0.30246 0.51588
#
# Static dielectric constant tensor:
#      x y z
#    x 2.849600 0.000000 0.000000 
#    y 0.000000 3.052700 0.000000 
#    z 0.000000 0.000000 2.734400 
# 
# 
# High freq. dielectric constant tensor:
#      x y z
#    x 1.543970 0.000000 0.000000 
#    y 0.000000 1.577790 0.000000 
#    z 0.000000 0.000000 1.540570 
# 
# From -- ./inp_files/25068.got.cif
#   From: 2010.03.12/outbox.cif.g09.slc.cpg/sg38_13_cif.got.tgz:25068.got - 2010.04.14 02:38:36.
