data_PCOD8177174
_publ_section_title
;
Structure prediction by ZEFSAII (Michael W. Deem and Ramdas Pophale) SiO2 
 PCOD8177174
Probable space group: C C C 2
;
_chemical_formula_sum "Si O2"
_cell_formula_units_Z 32
_cell_length_a 31.411842
_cell_length_b 4.959966
_cell_length_c 8.622820
_cell_angle_alpha 90.000000
_cell_angle_beta 90.000000
_cell_angle_gamma 90.000000
_cell_volume 1343.449742
_symmetry_space_group_name_H-M "C C C 2"
_symmetry_group_IT_number 37
_symmetry_cell_setting 'orthorhombic'
loop_
_space_group_symop_operation_xyz
x,y,z
-x,-y,z
-x,y,1/2+z
x,-y,1/2+z
1/2+x,1/2+y,z
1/2-x,1/2-y,z
1/2-x,1/2+y,1/2+z
1/2+x,1/2-y,1/2+z
loop_
_atom_site_type_symbol
_atom_site_label
_atom_site_fract_x
_atom_site_fract_y
_atom_site_fract_z
Si Si1 0.330548 0.271219 0.809850
Si Si2 0.044873 0.642669 0.533900
Si Si3 0.424823 0.328547 0.708273
Si Si4 0.298240 0.250822 0.139909
O O1 0.376873 0.379028 0.761451
O O2 0.297523 0.486098 0.745831
O O3 0.315411 0.986192 0.747158
O O4 0.330091 0.267927 0.995375
O O5 0.078221 0.406671 0.578032
O O6 0.047842 0.725097 0.354928
O O7 0.000000 0.500000 0.569687
O O8 0.052756 0.903285 0.642234
O O9 0.250000 0.250000 0.077544
#
# Coordination Sequence:
#
# PCOD8177174 Si02
#       4
#     8   8   8   8
#     4  12  25  44  70 101 138 183 231 285 342 408
#     4  12  27  47  72 102 138 179 227 286 348 415
#     4  12  25  47  72 103 137 180 231 285 345 415
#     4  12  25  44  68 102 141 184 231 284 342 406
#
# _framework density 23.819275000000001
#
# number of rings (size 3 to 8) (size 9 to 14) (size 15 to 20)
#    0.000    0.000    0.000   11.250    0.000    2.000 
#    0.000    1.250    0.000    0.000    0.000    0.000 
#    0.000    0.000    0.000    0.000    0.000    0.000 
#
# Total GULP energy -198440.770794 kJ/mol
# GULP energy per Si atom -12402.548175 kJ/mol
# Density = 2.376506 g / cm^3
# Si number density = 23.819275 Si / 1000 Ang^3
#
#
#
# Elastic Constant Matrix: (Units=GPa)
#
#
# Indices 1 2 3 4 5 6 
#
# 1 92.2036 44.4323 18.9437 0.0000 0.0000 0.0000
# 2 44.4323 235.9911 59.0716 0.0000 0.0000 0.0000
# 3 18.9437 59.0716 106.7795 0.0000 0.0000 0.0000
# 4 0.0000 0.0000 0.0000 46.9993 0.0000 0.0000
# 5 0.0000 0.0000 0.0000 0.0000 48.2388 0.0000
# 6 0.0000 0.0000 0.0000 0.0000 0.0000 61.7380
#
#
#
# Elastic Compliance Matrix: (Units=1/GPa)
#
#
# Indices 1 2 3 4 5 6 
#
# 1 0.012023 -0.002008 -0.001022 0.000000 0.000000 0.000000
# 2 -0.002008 0.005254 -0.002550 0.000000 0.000000 0.000000
# 3 -0.001022 -0.002550 0.010957 0.000000 0.000000 0.000000
# 4 0.000000 0.000000 0.000000 0.021277 0.000000 0.000000
# 5 0.000000 0.000000 0.000000 0.000000 0.020730 0.000000
# 6 0.000000 0.000000 0.000000 0.000000 0.000000 0.016197
#
#
# Mechanical properties :
#
#
# Convention : Reuss Voigt Hill
#
# Bulk Modulus (GPa) = 58.57013 75.54105 67.05559
# Shear Modulus (GPa) = 48.40701 52.23032 50.31867
#
# Velocity S-wave (km/s) = 4.51295 4.68779 4.60120
# Velocity P-wave (km/s) = 7.19711 7.81560 7.51272
#
# Compressibility (1/GPa) = 0.01707355
#
# Stress axis : x y z
#
# Youngs Moduli (GPa) = 83.17282 190.33658 91.26342
#
# Poissons Ratio (x) = 0.38216 0.09330
# Poissons Ratio (y) = 0.16700 0.23275
# Poissons Ratio (z) = 0.08502 0.48541
#
# Static dielectric constant tensor:
#      x y z
#    x 4.266880 0.000000 0.000000 
#    y 0.000000 4.492080 0.000000 
#    z 0.000000 0.000000 4.364020 
# 
# 
# High freq. dielectric constant tensor:
#      x y z
#    x 1.953180 0.000000 0.000000 
#    y 0.000000 1.963920 0.000000 
#    z 0.000000 0.000000 1.956500 
# 
# From -- ./inp_files/1710.got.cif
#   From: 2010.03.12/outbox.cif.g09.slc.cpg/sg37_1_cif.got.tgz:1710.got - 2010.04.14 02:25:27.
