data_PCOD8177241
_publ_section_title
;
Structure prediction by ZEFSAII (Michael W. Deem and Ramdas Pophale) SiO2 
 PCOD8177241
Probable space group: A M M 2
;
_chemical_formula_sum "Si O2"
_cell_formula_units_Z 56
_cell_length_a 8.633935
_cell_length_b 22.300119
_cell_length_c 17.808423
_cell_angle_alpha 90.000000
_cell_angle_beta 90.000000
_cell_angle_gamma 90.000000
_cell_volume 3428.794193
_symmetry_space_group_name_H-M "A M M 2"
_symmetry_group_IT_number 38
_symmetry_cell_setting 'orthorhombic'
loop_
_space_group_symop_operation_xyz
x,y,z
-x,-y,z
-x,y,z
x,-y,z
x,1/2+y,1/2+z
-x,1/2-y,1/2+z
-x,1/2+y,1/2+z
x,1/2-y,1/2+z
loop_
_atom_site_type_symbol
_atom_site_label
_atom_site_fract_x
_atom_site_fract_y
_atom_site_fract_z
Si Si1 0.822673 0.682627 0.913960
Si Si2 0.679678 0.655306 0.769483
Si Si3 0.180479 0.273773 0.067913
Si Si4 0.820119 0.431096 0.652451
Si Si5 0.322644 0.352071 0.531358
Si Si6 0.321965 0.693754 0.377053
Si Si7 0.820492 0.282630 0.233906
O O1 0.719957 0.641847 0.857594
O O2 0.793969 0.751997 0.894233
O O3 0.000000 0.665493 0.899494
O O4 0.780030 0.676968 0.002822
O O5 0.500000 0.669278 0.760768
O O6 0.723631 0.598288 0.719747
O O7 0.775033 0.712754 0.741307
O O8 0.284358 0.214860 0.058439
O O9 0.216576 0.303408 0.148723
O O10 0.000000 0.254645 0.062161
O O11 0.770568 0.500000 0.647113
O O12 0.783545 0.400560 0.572496
O O13 0.000000 0.423387 0.670378
O O14 0.500000 0.365339 0.552602
O O15 0.296503 0.357195 0.440682
O O16 0.500000 0.715744 0.379080
O O17 0.275655 0.674503 0.291912
O O18 0.000000 0.289912 0.252161
#
# Coordination Sequence:
#
# PCOD8177241 Si02
#       7
#     8   8   8   8   8   8   8
#     4   9  16  27  42  60  83 115 148 178 212 255
#     4  11  20  30  44  62  85 114 145 182 224 261
#     4   9  17  27  42  63  89 119 150 179 211 255
#     4  11  23  36  49  64  83 112 151 190 225 264
#     4  10  19  30  45  62  84 114 146 183 224 260
#     4   9  17  27  39  60  86 113 145 177 213 260
#     4  10  17  26  42  64  89 119 150 178 211 255
#
# _framework density 16.332270999999999
#
# number of rings (size 3 to 8) (size 9 to 14) (size 15 to 20)
#    0.000    2.143    1.429    5.143    0.000    4.000 
#    0.000    0.000    0.000    0.000    0.000    0.000 
#    0.000    1.143    0.000   10.286    0.000    6.571 
#
# Total GULP energy -346975.627198 kJ/mol
# GULP energy per Si atom -12391.986686 kJ/mol
# Density = 1.629510 g / cm^3
# Si number density = 16.332271 Si / 1000 Ang^3
#
#
#
# Elastic Constant Matrix: (Units=GPa)
#
#
# Indices 1 2 3 4 5 6 
#
# 1 46.5587 12.4145 33.1765 0.0000 0.0000 0.0000
# 2 12.4145 40.5688 34.4582 0.0000 0.0000 0.0000
# 3 33.1765 34.4582 156.5741 0.0000 0.0000 0.0000
# 4 0.0000 0.0000 0.0000 14.1709 0.0000 0.0000
# 5 0.0000 0.0000 0.0000 0.0000 25.8445 0.0000
# 6 0.0000 0.0000 0.0000 0.0000 0.0000 9.9138
#
#
#
# Elastic Compliance Matrix: (Units=1/GPa)
#
#
# Indices 1 2 3 4 5 6 
#
# 1 0.025816 -0.004002 -0.004589 0.000000 0.000000 0.000000
# 2 -0.004002 0.030937 -0.005961 0.000000 0.000000 0.000000
# 3 -0.004589 -0.005961 0.008671 0.000000 0.000000 0.000000
# 4 0.000000 0.000000 0.000000 0.070567 0.000000 0.000000
# 5 0.000000 0.000000 0.000000 0.000000 0.038693 0.000000
# 6 0.000000 0.000000 0.000000 0.000000 0.000000 0.100869
#
#
# Mechanical properties :
#
#
# Convention : Reuss Voigt Hill
#
# Bulk Modulus (GPa) = 27.53297 44.86666 36.19982
# Shear Modulus (GPa) = 15.78469 20.89600 18.34035
#
# Velocity S-wave (km/s) = 3.11219 3.58079 3.35468
# Velocity P-wave (km/s) = 5.45975 6.68034 6.10065
#
# Compressibility (1/GPa) = 0.03632009
#
# Stress axis : x y z
#
# Youngs Moduli (GPa) = 38.73633 32.32394 115.32746
#
# Poissons Ratio (x) = 0.12935 0.52928
# Poissons Ratio (y) = 0.15501 0.68741
# Poissons Ratio (z) = 0.17778 0.19267
#
# Static dielectric constant tensor:
#      x y z
#    x 3.140730 0.000000 0.000000 
#    y 0.000000 2.490920 0.000000 
#    z 0.000000 0.000000 3.921720 
# 
# 
# High freq. dielectric constant tensor:
#      x y z
#    x 1.644060 0.000000 0.000000 
#    y 0.000000 1.537940 0.000000 
#    z 0.000000 0.000000 1.655500 
# 
# From -- ./inp_files/20159.got.cif
#   From: 2010.03.12/outbox.cif.g09.slc.cpg/sg38_11_cif.got.tgz:20159.got - 2010.04.14 02:38:36.
