data_PCOD8177786
_publ_section_title
;
Structure prediction by ZEFSAII (Michael W. Deem and Ramdas Pophale) SiO2 
 PCOD8177786
Probable space group: A M M 2
;
_chemical_formula_sum "Si O2"
_cell_formula_units_Z 56
_cell_length_a 9.425629
_cell_length_b 20.892981
_cell_length_c 14.506244
_cell_angle_alpha 90.000000
_cell_angle_beta 90.000000
_cell_angle_gamma 90.000000
_cell_volume 2856.707198
_symmetry_space_group_name_H-M "A M M 2"
_symmetry_group_IT_number 38
_symmetry_cell_setting 'orthorhombic'
loop_
_space_group_symop_operation_xyz
x,y,z
-x,-y,z
-x,y,z
x,-y,z
x,1/2+y,1/2+z
-x,1/2-y,1/2+z
-x,1/2+y,1/2+z
x,1/2-y,1/2+z
loop_
_atom_site_type_symbol
_atom_site_label
_atom_site_fract_x
_atom_site_fract_y
_atom_site_fract_z
Si Si1 0.667960 0.500000 0.500000
Si Si2 0.333330 0.142461 0.041672
Si Si3 0.833366 0.500000 0.311923
Si Si4 0.659734 0.784845 0.863033
Si Si5 0.668159 0.167718 0.245324
Si Si6 0.656956 0.603644 0.222654
Si Si7 0.160134 0.424492 0.853892
Si Si8 0.341910 0.573804 0.023360
O O1 0.500000 0.500000 0.485197
O O2 0.716739 0.432715 0.548154
O O3 0.743762 0.500000 0.403363
O O4 0.500000 0.140613 0.023512
O O5 0.294953 0.179339 0.136789
O O6 0.265895 0.182409 0.953803
O O7 0.789107 0.561636 0.254179
O O8 0.000000 0.500000 0.331684
O O9 0.500000 0.767422 0.891715
O O10 0.729129 0.720819 0.817962
O O11 0.663508 0.830542 0.775633
O O12 0.500000 0.159530 0.255396
O O13 0.747617 0.102300 0.269947
O O14 0.500000 0.571690 0.238698
O O15 0.676233 0.617206 0.114048
O O16 0.167205 0.500000 0.845570
O O17 0.000000 0.398786 0.849320
O O18 0.228571 0.401360 0.949872
O O19 0.500000 0.582052 0.981343
O O20 0.314968 0.500000 0.051292
#
# Coordination Sequence:
#
# PCOD8177786 Si02
#       8
#     4   8   4   8   8   8   8   8
#     4  10  18  34  58  79 110 153 194 237 284 342
#     4   9  18  32  57  88 114 145 187 235 287 333
#     4  12  22  30  48  83 118 149 188 241 292 334
#     4   9  18  33  56  84 114 145 183 232 284 340
#     4  10  21  36  58  87 111 139 186 239 286 339
#     4  10  18  33  56  81 112 152 190 230 284 339
#     4  10  22  39  56  76 108 150 186 225 286 348
#     4   9  17  30  53  84 110 138 182 230 272 320
#
# _framework density 19.602989999999998
#
# number of rings (size 3 to 8) (size 9 to 14) (size 15 to 20)
#    0.000    2.286    2.143    1.071    1.000    2.571 
#    0.000    5.714    0.000    1.714    0.000    0.000 
#    0.000    0.000    0.000    0.000    0.000    0.000 
#
# Total GULP energy -346871.937447 kJ/mol
# GULP energy per Si atom -12388.283480 kJ/mol
# Density = 1.955837 g / cm^3
# Si number density = 19.602990 Si / 1000 Ang^3
#
#
#
# Elastic Constant Matrix: (Units=GPa)
#
#
# Indices 1 2 3 4 5 6 
#
# 1 45.1290 21.6513 34.3485 0.0000 0.0000 0.0000
# 2 21.6513 68.0273 52.1964 0.0000 0.0000 0.0000
# 3 34.3485 52.1964 139.8774 0.0000 0.0000 0.0000
# 4 0.0000 0.0000 0.0000 34.3062 0.0000 0.0000
# 5 0.0000 0.0000 0.0000 0.0000 5.3756 0.0000
# 6 0.0000 0.0000 0.0000 0.0000 0.0000 12.8242
#
#
#
# Elastic Compliance Matrix: (Units=1/GPa)
#
#
# Indices 1 2 3 4 5 6 
#
# 1 0.028501 -0.005186 -0.005064 0.000000 0.000000 0.000000
# 2 -0.005186 0.021541 -0.006765 0.000000 0.000000 0.000000
# 3 -0.005064 -0.006765 0.010917 0.000000 0.000000 0.000000
# 4 0.000000 0.000000 0.000000 0.029149 0.000000 0.000000
# 5 0.000000 0.000000 0.000000 0.000000 0.186025 0.000000
# 6 0.000000 0.000000 0.000000 0.000000 0.000000 0.077977
#
#
# Mechanical properties :
#
#
# Convention : Reuss Voigt Hill
#
# Bulk Modulus (GPa) = 37.13296 52.15845 44.64570
# Shear Modulus (GPa) = 12.59080 20.15703 16.37392
#
# Velocity S-wave (km/s) = 2.53709 3.21013 2.89325
# Velocity P-wave (km/s) = 5.25034 6.35650 5.82972
#
# Compressibility (1/GPa) = 0.02693025
#
# Stress axis : x y z
#
# Youngs Moduli (GPa) = 35.08697 46.42309 91.60155
#
# Poissons Ratio (x) = 0.24074 0.46383
# Poissons Ratio (y) = 0.18195 0.61966
# Poissons Ratio (z) = 0.17766 0.31404
#
# Static dielectric constant tensor:
#      x y z
#    x 3.281510 0.000000 0.000000 
#    y 0.000000 3.613270 0.000000 
#    z 0.000000 0.000000 3.705640 
# 
# 
# High freq. dielectric constant tensor:
#      x y z
#    x 1.712520 0.000000 0.000000 
#    y 0.000000 1.753630 0.000000 
#    z 0.000000 0.000000 1.774600 
# 
# From -- ./inp_files/12489.got.cif
#   From: 2010.03.12/outbox.cif.g09.slc.cpg/sg38_7_cif.got.tgz:12489.got - 2010.04.14 02:38:36.
