data_PCOD8177580
_publ_section_title
;
Structure prediction by ZEFSAII (Michael W. Deem and Ramdas Pophale) SiO2 
 PCOD8177580
Probable space group: A M M 2
;
_chemical_formula_sum "Si O2"
_cell_formula_units_Z 64
_cell_length_a 19.750026
_cell_length_b 8.949997
_cell_length_c 20.058129
_cell_angle_alpha 90.000000
_cell_angle_beta 90.000000
_cell_angle_gamma 90.000000
_cell_volume 3545.528506
_symmetry_space_group_name_H-M "A M M 2"
_symmetry_group_IT_number 38
_symmetry_cell_setting 'orthorhombic'
loop_
_space_group_symop_operation_xyz
x,y,z
-x,-y,z
-x,y,z
x,-y,z
x,1/2+y,1/2+z
-x,1/2-y,1/2+z
-x,1/2+y,1/2+z
x,1/2-y,1/2+z
loop_
_atom_site_type_symbol
_atom_site_label
_atom_site_fract_x
_atom_site_fract_y
_atom_site_fract_z
Si Si1 0.310101 0.824378 0.704550
Si Si2 0.827220 0.674571 0.663671
Si Si3 0.579149 0.828554 0.945619
Si Si4 0.804974 0.172119 0.531978
Si Si5 0.182239 0.677539 0.884050
Si Si6 0.649141 0.670260 0.059840
Si Si7 0.924930 0.824014 0.279266
Si Si8 0.671334 0.822815 0.338151
O O1 0.235150 0.759192 0.697072
O O2 0.353836 0.789768 0.638257
O O3 0.347793 0.748590 0.766822
O O4 0.303422 0.000000 0.715971
O O5 0.810148 0.500000 0.664276
O O6 0.841103 0.729002 0.588466
O O7 0.893655 0.711745 0.706920
O O8 0.500000 0.805548 0.935325
O O9 0.616646 0.726531 0.892045
O O10 0.600464 0.000000 0.935693
O O11 0.598735 0.778292 0.020340
O O12 0.832090 0.226668 0.460182
O O13 0.724596 0.195204 0.532459
O O14 0.823072 0.000000 0.546025
O O15 0.184898 0.500000 0.879339
O O16 0.122735 0.743965 0.837550
O O17 0.254776 0.738390 0.859466
O O18 0.626494 0.500000 0.047535
O O19 0.000000 0.752292 0.283489
O O20 0.929764 0.000000 0.290003
O O21 0.669713 0.000000 0.332114
#
# Coordination Sequence:
#
# PCOD8177580 Si02
#       8
#     8   8   8   8   8   8   8   8
#     4  10  20  34  54  82 112 139 173 224 280 323
#     4  10  18  30  50  77 105 137 180 224 264 321
#     4  11  24  39  55  80 114 147 180 221 271 328
#     4   9  17  31  51  76 107 135 166 221 277 318
#     4   9  16  30  51  76 105 136 177 225 268 317
#     4   9  18  34  55  78 106 140 177 218 268 322
#     4   9  17  30  50  76 106 142 183 226 272 321
#     4  11  20  35  58  83 109 141 184 229 271 322
#
# _framework density 18.050906000000001
#
# number of rings (size 3 to 8) (size 9 to 14) (size 15 to 20)
#    0.000    2.250    2.500    2.250    0.000    3.500 
#    0.000    1.250    0.000    3.000    0.000    0.000 
#    0.000    0.000    0.000    0.000    0.000    0.000 
#
# Total GULP energy -396796.006339 kJ/mol
# GULP energy per Si atom -12399.875198 kJ/mol
# Density = 1.800982 g / cm^3
# Si number density = 18.050906 Si / 1000 Ang^3
#
#
#
# Elastic Constant Matrix: (Units=GPa)
#
#
# Indices 1 2 3 4 5 6 
#
# 1 78.5108 34.9637 54.1944 0.0000 0.0000 0.0000
# 2 34.9637 71.0586 50.7283 0.0000 0.0000 0.0000
# 3 54.1944 50.7283 146.1994 0.0000 0.0000 0.0000
# 4 0.0000 0.0000 0.0000 33.1996 0.0000 0.0000
# 5 0.0000 0.0000 0.0000 0.0000 23.0795 0.0000
# 6 0.0000 0.0000 0.0000 0.0000 0.0000 16.7523
#
#
#
# Elastic Compliance Matrix: (Units=1/GPa)
#
#
# Indices 1 2 3 4 5 6 
#
# 1 0.018679 -0.005646 -0.004965 0.000000 0.000000 0.000000
# 2 -0.005646 0.020413 -0.004990 0.000000 0.000000 0.000000
# 3 -0.004965 -0.004990 0.010412 0.000000 0.000000 0.000000
# 4 0.000000 0.000000 0.000000 0.030121 0.000000 0.000000
# 5 0.000000 0.000000 0.000000 0.000000 0.043328 0.000000
# 6 0.000000 0.000000 0.000000 0.000000 0.000000 0.059693
#
#
# Mechanical properties :
#
#
# Convention : Reuss Voigt Hill
#
# Bulk Modulus (GPa) = 54.63994 63.94906 59.29450
# Shear Modulus (GPa) = 22.73248 24.99843 23.86545
#
# Velocity S-wave (km/s) = 3.55259 3.72544 3.64004
# Velocity P-wave (km/s) = 6.86757 7.34909 7.11241
#
# Compressibility (1/GPa) = 0.01830163
#
# Stress axis : x y z
#
# Youngs Moduli (GPa) = 53.53678 48.98729 96.04466
#
# Poissons Ratio (x) = 0.27660 0.47685
# Poissons Ratio (y) = 0.30229 0.47927
# Poissons Ratio (z) = 0.26580 0.24445
#
# Static dielectric constant tensor:
#      x y z
#    x 3.190980 0.000000 0.000000 
#    y 0.000000 3.182020 0.000000 
#    z 0.000000 0.000000 3.630680 
# 
# 
# High freq. dielectric constant tensor:
#      x y z
#    x 1.668680 0.000000 0.000000 
#    y 0.000000 1.681440 0.000000 
#    z 0.000000 0.000000 1.717060 
# 
# From -- ./inp_files/21379.got.cif
#   From: 2010.03.12/outbox.cif.g09.slc.cpg/sg38_11_cif.got.tgz:21379.got - 2010.04.14 02:38:36.
