data_PCOD8177840
_publ_section_title
;
Structure prediction by ZEFSAII (Michael W. Deem and Ramdas Pophale) SiO2 
 PCOD8177840
Probable space group: A M M 2
;
_chemical_formula_sum "Si O2"
_cell_formula_units_Z 40
_cell_length_a 11.580103
_cell_length_b 8.583759
_cell_length_c 20.487190
_cell_angle_alpha 90.000000
_cell_angle_beta 90.000000
_cell_angle_gamma 90.000000
_cell_volume 2036.443349
_symmetry_space_group_name_H-M "A M M 2"
_symmetry_group_IT_number 38
_symmetry_cell_setting 'orthorhombic'
loop_
_space_group_symop_operation_xyz
x,y,z
-x,-y,z
-x,y,z
x,-y,z
x,1/2+y,1/2+z
-x,1/2-y,1/2+z
-x,1/2+y,1/2+z
x,1/2-y,1/2+z
loop_
_atom_site_type_symbol
_atom_site_label
_atom_site_fract_x
_atom_site_fract_y
_atom_site_fract_z
Si Si1 0.865207 0.184315 0.571460
Si Si2 0.731101 0.683911 0.449676
Si Si3 0.500000 0.185041 0.757227
Si Si4 0.740485 0.685099 0.201750
Si Si5 0.500000 0.817477 0.403746
Si Si6 0.872657 0.185515 0.826314
O O1 0.808638 0.270028 0.510778
O O2 0.793333 0.246312 0.633986
O O3 0.000000 0.231018 0.578203
O O4 0.852408 0.000000 0.563141
O O5 0.712412 0.500000 0.448779
O O6 0.607678 0.766816 0.448434
O O7 0.796445 0.745818 0.385806
O O8 0.610546 0.245371 0.716123
O O9 0.500000 0.241806 0.831927
O O10 0.500000 0.000000 0.762406
O O11 0.742267 0.500000 0.201831
O O12 0.820587 0.751049 0.259319
O O13 0.500000 0.000000 0.393762
O O14 0.000000 0.255483 0.834534
O O15 0.875844 0.000000 0.825452
#
# Coordination Sequence:
#
# PCOD8177840 Si02
#       6
#     8   8   4   8   4   8
#     4  10  21  37  57  86 125 162 198 245 297 347
#     4  11  22  38  60  85 116 155 200 246 295 351
#     4  10  18  35  60  87 115 151 201 249 290 344
#     4   9  17  31  55  84 116 155 199 243 287 340
#     4  12  24  39  60  87 119 151 191 245 310 364
#     4   9  16  28  52  84 111 143 195 246 282 330
#
# _framework density 19.642088999999999
#
# number of rings (size 3 to 8) (size 9 to 14) (size 15 to 20)
#    0.000    2.000    2.000    2.700    0.000    4.400 
#    0.000    3.000    0.000    0.000    0.000    0.000 
#    0.000    0.000    0.000    0.000    0.000    0.000 
#
# Total GULP energy -247970.739017 kJ/mol
# GULP energy per Si atom -12398.536951 kJ/mol
# Density = 1.959738 g / cm^3
# Si number density = 19.642089 Si / 1000 Ang^3
#
#
#
# Elastic Constant Matrix: (Units=GPa)
#
#
# Indices 1 2 3 4 5 6 
#
# 1 150.6695 24.3051 40.0881 0.0000 0.0000 0.0000
# 2 24.3051 34.7409 17.0819 0.0000 0.0000 0.0000
# 3 40.0881 17.0819 116.4120 0.0000 0.0000 0.0000
# 4 0.0000 0.0000 0.0000 25.2064 0.0000 0.0000
# 5 0.0000 0.0000 0.0000 0.0000 41.1464 0.0000
# 6 0.0000 0.0000 0.0000 0.0000 0.0000 18.3837
#
#
#
# Elastic Compliance Matrix: (Units=1/GPa)
#
#
# Indices 1 2 3 4 5 6 
#
# 1 0.007915 -0.004524 -0.002062 0.000000 0.000000 0.000000
# 2 -0.004524 0.033608 -0.003374 0.000000 0.000000 0.000000
# 3 -0.002062 -0.003374 0.009795 0.000000 0.000000 0.000000
# 4 0.000000 0.000000 0.000000 0.039672 0.000000 0.000000
# 5 0.000000 0.000000 0.000000 0.000000 0.024303 0.000000
# 6 0.000000 0.000000 0.000000 0.000000 0.000000 0.054396
#
#
# Mechanical properties :
#
#
# Convention : Reuss Voigt Hill
#
# Bulk Modulus (GPa) = 31.84720 51.64140 41.74430
# Shear Modulus (GPa) = 24.99041 31.63713 28.31377
#
# Velocity S-wave (km/s) = 3.57079 4.01768 3.80081
# Velocity P-wave (km/s) = 5.76625 6.91886 6.36868
#
# Compressibility (1/GPa) = 0.03139994
#
# Stress axis : x y z
#
# Youngs Moduli (GPa) = 126.33554 29.75454 102.08982
#
# Poissons Ratio (x) = 0.13461 0.21051
# Poissons Ratio (y) = 0.57152 0.34442
# Poissons Ratio (z) = 0.26050 0.10038
#
# Static dielectric constant tensor:
#      x y z
#    x 3.982900 0.000000 0.000000 
#    y 0.000000 3.126340 0.000000 
#    z 0.000000 0.000000 3.695390 
# 
# 
# High freq. dielectric constant tensor:
#      x y z
#    x 1.787670 0.000000 0.000000 
#    y 0.000000 1.721050 0.000000 
#    z 0.000000 0.000000 1.771680 
# 
# From -- ./inp_files/20465.got.cif
#   From: 2010.03.12/outbox.cif.g09.slc.cpg/sg38_11_cif.got.tgz:20465.got - 2010.04.14 02:38:36.
