data_PCOD8177354
_publ_section_title
;
Structure prediction by ZEFSAII (Michael W. Deem and Ramdas Pophale) SiO2 
 PCOD8177354
Probable space group: A M M 2
;
_chemical_formula_sum "Si O2"
_cell_formula_units_Z 64
_cell_length_a 8.982580
_cell_length_b 26.199030
_cell_length_c 18.535792
_cell_angle_alpha 90.000000
_cell_angle_beta 90.000000
_cell_angle_gamma 90.000000
_cell_volume 4362.118440
_symmetry_space_group_name_H-M "A M M 2"
_symmetry_group_IT_number 38
_symmetry_cell_setting 'orthorhombic'
loop_
_space_group_symop_operation_xyz
x,y,z
-x,-y,z
-x,y,z
x,-y,z
x,1/2+y,1/2+z
-x,1/2-y,1/2+z
-x,1/2+y,1/2+z
x,1/2-y,1/2+z
loop_
_atom_site_type_symbol
_atom_site_label
_atom_site_fract_x
_atom_site_fract_y
_atom_site_fract_z
Si Si1 0.329900 0.210152 0.028250
Si Si2 0.825047 0.300329 0.103996
Si Si3 0.171487 0.059441 0.395747
Si Si4 0.331735 0.643706 0.653218
Si Si5 0.824222 0.443642 0.733679
Si Si6 0.323614 0.855222 0.481645
Si Si7 0.674889 0.750166 0.729680
Si Si8 0.328618 0.740197 0.888346
O O1 0.500000 0.229588 0.045203
O O2 0.211201 0.248566 0.061570
O O3 0.308439 0.155252 0.067120
O O4 0.306287 0.210469 0.941466
O O5 0.757681 0.294519 0.184513
O O6 0.000000 0.309528 0.109021
O O7 0.749851 0.347180 0.060530
O O8 0.227697 0.071380 0.314385
O O9 0.272887 0.090515 0.451098
O O10 0.000000 0.075811 0.405076
O O11 0.191976 0.000000 0.413266
O O12 0.500000 0.627379 0.669910
O O13 0.229276 0.596848 0.675074
O O14 0.289765 0.694495 0.697246
O O15 0.762015 0.500000 0.713760
O O16 0.000000 0.445283 0.732470
O O17 0.500000 0.853842 0.490486
O O18 0.265422 0.810549 0.427475
O O19 0.500000 0.762217 0.727731
O O20 0.744980 0.751140 0.810653
O O21 0.500000 0.729617 0.871907
#
# Coordination Sequence:
#
# PCOD8177354 Si02
#       8
#     8   8   8   8   8   8   8   8
#     4   8  15  28  41  56  79 105 133 165 200 237
#     4  10  18  27  39  57  80 106 134 163 197 235
#     4   9  18  31  43  57  80 107 134 168 207 240
#     4   9  16  25  39  58  80 105 135 170 201 233
#     4   9  18  30  41  55  79 109 138 169 204 239
#     4  10  18  29  44  60  79 106 139 170 200 235
#     4   9  16  27  41  58  80 105 133 163 197 236
#     4   8  14  25  42  59  77 104 134 163 196 235
#
# _framework density 14.67177
#
# number of rings (size 3 to 8) (size 9 to 14) (size 15 to 20)
#    0.000    3.000    0.000    4.500    0.000    4.000 
#    0.000    4.375    0.000    0.000    0.000    0.000 
#    0.000    1.000    0.000    9.250    0.000    3.125 
#
# Total GULP energy -396519.943751 kJ/mol
# GULP energy per Si atom -12391.248242 kJ/mol
# Density = 1.463838 g / cm^3
# Si number density = 14.671770 Si / 1000 Ang^3
#
#
#
# Elastic Constant Matrix: (Units=GPa)
#
#
# Indices 1 2 3 4 5 6 
#
# 1 50.8409 25.9374 28.5214 0.0000 0.0000 0.0000
# 2 25.9374 64.2312 42.8124 0.0000 0.0000 0.0000
# 3 28.5214 42.8124 104.3995 0.0000 0.0000 0.0000
# 4 0.0000 0.0000 0.0000 24.0241 0.0000 0.0000
# 5 0.0000 0.0000 0.0000 0.0000 18.2930 0.0000
# 6 0.0000 0.0000 0.0000 0.0000 0.0000 22.1256
#
#
#
# Elastic Compliance Matrix: (Units=1/GPa)
#
#
# Indices 1 2 3 4 5 6 
#
# 1 0.025837 -0.007883 -0.003826 0.000000 0.000000 0.000000
# 2 -0.007883 0.023830 -0.007619 0.000000 0.000000 0.000000
# 3 -0.003826 -0.007619 0.013748 0.000000 0.000000 0.000000
# 4 0.000000 0.000000 0.000000 0.041625 0.000000 0.000000
# 5 0.000000 0.000000 0.000000 0.000000 0.054666 0.000000
# 6 0.000000 0.000000 0.000000 0.000000 0.000000 0.045196
#
#
# Mechanical properties :
#
#
# Convention : Reuss Voigt Hill
#
# Bulk Modulus (GPa) = 40.38784 46.00155 43.19469
# Shear Modulus (GPa) = 19.85609 21.03524 20.44566
#
# Velocity S-wave (km/s) = 3.68279 3.79056 3.73706
# Velocity P-wave (km/s) = 6.75805 7.11194 6.93725
#
# Compressibility (1/GPa) = 0.02475993
#
# Stress axis : x y z
#
# Youngs Moduli (GPa) = 38.70367 41.96333 72.73755
#
# Poissons Ratio (x) = 0.33082 0.27828
# Poissons Ratio (y) = 0.30512 0.55416
# Poissons Ratio (z) = 0.14807 0.31971
#
# Static dielectric constant tensor:
#      x y z
#    x 2.681900 0.000000 0.000000 
#    y 0.000000 2.635240 0.000000 
#    z 0.000000 0.000000 3.113230 
# 
# 
# High freq. dielectric constant tensor:
#      x y z
#    x 1.552540 0.000000 0.000000 
#    y 0.000000 1.522860 0.000000 
#    z 0.000000 0.000000 1.556730 
# 
# From -- ./inp_files/17328.got.cif
#   From: 2010.03.12/outbox.cif.g09.slc.cpg/sg38_9_cif.got.tgz:17328.got - 2010.04.14 02:38:36.
