data_PCOD8177645
_publ_section_title
;
Structure prediction by ZEFSAII (Michael W. Deem and Ramdas Pophale) SiO2 
 PCOD8177645
Probable space group: A M M 2
;
_chemical_formula_sum "Si O2"
_cell_formula_units_Z 64
_cell_length_a 9.383225
_cell_length_b 20.805919
_cell_length_c 19.616242
_cell_angle_alpha 90.000000
_cell_angle_beta 90.000000
_cell_angle_gamma 90.000000
_cell_volume 3829.612609
_symmetry_space_group_name_H-M "A M M 2"
_symmetry_group_IT_number 38
_symmetry_cell_setting 'orthorhombic'
loop_
_space_group_symop_operation_xyz
x,y,z
-x,-y,z
-x,y,z
x,-y,z
x,1/2+y,1/2+z
-x,1/2-y,1/2+z
-x,1/2+y,1/2+z
x,1/2-y,1/2+z
loop_
_atom_site_type_symbol
_atom_site_label
_atom_site_fract_x
_atom_site_fract_y
_atom_site_fract_z
Si Si1 0.165578 0.428089 0.072050
Si Si2 0.165471 0.263733 0.302864
Si Si3 0.164844 0.816681 0.093279
Si Si4 0.163810 0.258010 0.453642
Si Si5 0.337912 0.363423 0.802172
Si Si6 0.665332 0.427758 0.664314
Si Si7 0.333483 0.128785 0.454913
Si Si8 0.831994 0.313498 0.164007
O O1 0.186438 0.500000 0.101333
O O2 0.228761 0.377181 0.127070
O O3 0.000000 0.414569 0.055846
O O4 0.254620 0.422509 0.002423
O O5 0.200086 0.288994 0.379300
O O6 0.240120 0.196991 0.286926
O O7 0.213220 0.314453 0.244209
O O8 0.000000 0.249229 0.294173
O O9 0.248819 0.878832 0.117532
O O10 0.225484 0.751755 0.128550
O O11 0.000000 0.826417 0.112096
O O12 0.187589 0.811373 0.011627
O O13 0.266776 0.198649 0.468311
O O14 0.000000 0.233251 0.455463
O O15 0.500000 0.338756 0.798878
O O16 0.306466 0.416407 0.744720
O O17 0.306910 0.393049 0.876771
O O18 0.500000 0.418456 0.647085
O O19 0.715702 0.500000 0.647377
O O20 0.500000 0.131260 0.473035
O O21 0.000000 0.315284 0.155255
#
# Coordination Sequence:
#
# PCOD8177645 Si02
#       8
#     8   8   8   8   8   8   8   8
#     4  10  20  34  50  68  96 133 165 196 238 286
#     4   9  16  28  49  72  95 124 157 195 237 281
#     4  10  18  31  51  73  97 125 159 202 243 280
#     4   9  17  30  49  72  99 128 157 194 241 287
#     4   9  18  31  46  67  96 128 160 192 233 281
#     4  10  21  35  49  68  97 131 164 198 238 286
#     4  10  19  30  47  71  99 129 160 196 234 279
#     4   9  16  29  49  73  96 122 159 200 238 276
#
# _framework density 16.711874999999999
#
# number of rings (size 3 to 8) (size 9 to 14) (size 15 to 20)
#    0.000    2.500    2.500    0.375    0.000    2.000 
#    0.000    1.875    0.000    0.750    0.000    3.500 
#    0.000    0.000    0.000    0.000    0.000    0.000 
#
# Total GULP energy -396646.048032 kJ/mol
# GULP energy per Si atom -12395.189001 kJ/mol
# Density = 1.667384 g / cm^3
# Si number density = 16.711875 Si / 1000 Ang^3
#
#
#
# Elastic Constant Matrix: (Units=GPa)
#
#
# Indices 1 2 3 4 5 6 
#
# 1 50.0369 39.4534 36.5328 0.0000 0.0000 0.0000
# 2 39.4534 112.7538 69.1871 0.0000 0.0000 0.0000
# 3 36.5328 69.1871 119.1175 0.0000 0.0000 0.0000
# 4 0.0000 0.0000 0.0000 22.7728 0.0000 0.0000
# 5 0.0000 0.0000 0.0000 0.0000 21.0059 0.0000
# 6 0.0000 0.0000 0.0000 0.0000 0.0000 15.8699
#
#
#
# Elastic Compliance Matrix: (Units=1/GPa)
#
#
# Indices 1 2 3 4 5 6 
#
# 1 0.029196 -0.007336 -0.004693 0.000000 0.000000 0.000000
# 2 -0.007336 0.015624 -0.006825 0.000000 0.000000 0.000000
# 3 -0.004693 -0.006825 0.013798 0.000000 0.000000 0.000000
# 4 0.000000 0.000000 0.000000 0.043912 0.000000 0.000000
# 5 0.000000 0.000000 0.000000 0.000000 0.047606 0.000000
# 6 0.000000 0.000000 0.000000 0.000000 0.000000 0.063012
#
#
# Mechanical properties :
#
#
# Convention : Reuss Voigt Hill
#
# Bulk Modulus (GPa) = 47.82377 63.58385 55.70381
# Shear Modulus (GPa) = 19.39285 21.04538 20.21911
#
# Velocity S-wave (km/s) = 3.41019 3.55252 3.48208
# Velocity P-wave (km/s) = 6.64715 7.41329 7.04065
#
# Compressibility (1/GPa) = 0.02091011
#
# Stress axis : x y z
#
# Youngs Moduli (GPa) = 34.25079 64.00590 72.47172
#
# Poissons Ratio (x) = 0.46956 0.34013
# Poissons Ratio (y) = 0.25127 0.49460
# Poissons Ratio (z) = 0.16075 0.43682
#
# Static dielectric constant tensor:
#      x y z
#    x 3.057660 0.000000 0.000000 
#    y 0.000000 2.941710 0.000000 
#    z 0.000000 0.000000 3.481920 
# 
# 
# High freq. dielectric constant tensor:
#      x y z
#    x 1.631940 0.000000 0.000000 
#    y 0.000000 1.611310 0.000000 
#    z 0.000000 0.000000 1.654250 
# 
# From -- ./inp_files/17302.got.cif
#   From: 2010.03.12/outbox.cif.g09.slc.cpg/sg38_9_cif.got.tgz:17302.got - 2010.04.14 02:38:36.
