data_PCOD8177734
_publ_section_title
;
Structure prediction by ZEFSAII (Michael W. Deem and Ramdas Pophale) SiO2 
 PCOD8177734
Probable space group: A M M 2
;
_chemical_formula_sum "Si O2"
_cell_formula_units_Z 64
_cell_length_a 8.812852
_cell_length_b 24.876748
_cell_length_c 15.275881
_cell_angle_alpha 90.000000
_cell_angle_beta 90.000000
_cell_angle_gamma 90.000000
_cell_volume 3349.009274
_symmetry_space_group_name_H-M "A M M 2"
_symmetry_group_IT_number 38
_symmetry_cell_setting 'orthorhombic'
loop_
_space_group_symop_operation_xyz
x,y,z
-x,-y,z
-x,y,z
x,-y,z
x,1/2+y,1/2+z
-x,1/2-y,1/2+z
-x,1/2+y,1/2+z
x,1/2-y,1/2+z
loop_
_atom_site_type_symbol
_atom_site_label
_atom_site_fract_x
_atom_site_fract_y
_atom_site_fract_z
Si Si1 0.322367 0.764322 0.373540
Si Si2 0.175736 0.106078 0.144168
Si Si3 0.179501 0.060122 0.965131
Si Si4 0.819424 0.939058 0.325865
Si Si5 0.678439 0.330765 0.144206
Si Si6 0.820504 0.357490 0.973875
Si Si7 0.324708 0.643660 0.340633
Si Si8 0.824050 0.275886 0.690618
O O1 0.500000 0.775675 0.385161
O O2 0.228917 0.797753 0.444817
O O3 0.285167 0.701149 0.383980
O O4 0.271935 0.783603 0.278263
O O5 0.248817 0.082362 0.233611
O O6 0.198582 0.169918 0.135306
O O7 0.000000 0.090482 0.147037
O O8 0.250613 0.079610 0.057904
O O9 0.228602 0.097549 0.885663
O O10 0.000000 0.062439 0.971047
O O11 0.237855 0.000000 0.946225
O O12 0.759024 0.901715 0.404976
O O13 0.000000 0.935135 0.323939
O O14 0.764254 0.000000 0.341918
O O15 0.500000 0.321939 0.133883
O O16 0.718593 0.356277 0.238028
O O17 0.760183 0.273140 0.133721
O O18 0.743140 0.369356 0.067964
O O19 0.000000 0.360129 0.983984
O O20 0.500000 0.630078 0.353218
O O21 0.000000 0.266467 0.714763
#
# Coordination Sequence:
#
# PCOD8177734 Si02
#       8
#     8   8   8   8   8   8   8   8
#     4  10  20  35  54  80 115 153 186 225 281 340
#     4   9  17  31  52  83 116 146 179 221 275 333
#     4  10  21  36  57  85 113 144 187 238 286 330
#     4   9  17  32  55  82 114 149 185 228 278 333
#     4  10  22  39  56  78 113 153 188 233 293 350
#     4  11  21  34  56  87 115 147 192 237 281 334
#     4   9  21  40  58  77 106 148 193 232 283 341
#     4  10  18  32  54  84 115 146 188 231 272 331
#
# _framework density 19.110130000000002
#
# number of rings (size 3 to 8) (size 9 to 14) (size 15 to 20)
#    0.000    2.250    1.250    2.625    1.750    4.750 
#    0.000    1.250    0.000    3.750    0.000    0.000 
#    0.000    0.000    0.000    0.000    0.000    0.000 
#
# Total GULP energy -396789.262253 kJ/mol
# GULP energy per Si atom -12399.664445 kJ/mol
# Density = 1.906663 g / cm^3
# Si number density = 19.110130 Si / 1000 Ang^3
#
#
#
# Elastic Constant Matrix: (Units=GPa)
#
#
# Indices 1 2 3 4 5 6 
#
# 1 25.0739 36.2129 19.4893 0.0000 0.0000 0.0000
# 2 36.2129 126.4560 75.2016 0.0000 0.0000 0.0000
# 3 19.4893 75.2016 125.1948 0.0000 0.0000 0.0000
# 4 0.0000 0.0000 0.0000 29.5803 0.0000 0.0000
# 5 0.0000 0.0000 0.0000 0.0000 26.9029 0.0000
# 6 0.0000 0.0000 0.0000 0.0000 0.0000 10.5397
#
#
#
# Elastic Compliance Matrix: (Units=1/GPa)
#
#
# Indices 1 2 3 4 5 6 
#
# 1 0.068251 -0.020577 0.001735 0.000000 0.000000 0.000000
# 2 -0.020577 0.018506 -0.007913 0.000000 0.000000 0.000000
# 3 0.001735 -0.007913 0.012471 0.000000 0.000000 0.000000
# 4 0.000000 0.000000 0.000000 0.033806 0.000000 0.000000
# 5 0.000000 0.000000 0.000000 0.000000 0.037171 0.000000
# 6 0.000000 0.000000 0.000000 0.000000 0.000000 0.094879
#
#
# Mechanical properties :
#
#
# Convention : Reuss Voigt Hill
#
# Bulk Modulus (GPa) = 21.87279 59.83691 40.85485
# Shear Modulus (GPa) = 14.97754 23.12597 19.05175
#
# Velocity S-wave (km/s) = 2.80259 3.48248 3.16087
# Velocity P-wave (km/s) = 4.68435 6.89564 5.89462
#
# Compressibility (1/GPa) = 0.04571889
#
# Stress axis : x y z
#
# Youngs Moduli (GPa) = 14.65171 54.03590 80.18877
#
# Poissons Ratio (x) = 1.11189 -0.13915
# Poissons Ratio (y) = 0.30149 0.63453
# Poissons Ratio (z) = -0.02542 0.42759
#
# Static dielectric constant tensor:
#      x y z
#    x 3.249960 0.000000 0.000000 
#    y 0.000000 3.521940 0.000000 
#    z 0.000000 0.000000 3.630550 
# 
# 
# High freq. dielectric constant tensor:
#      x y z
#    x 1.719080 0.000000 0.000000 
#    y 0.000000 1.734890 0.000000 
#    z 0.000000 0.000000 1.748370 
# 
# From -- ./inp_files/12811.got.cif
#   From: 2010.03.12/outbox.cif.g09.slc.cpg/sg38_7_cif.got.tgz:12811.got - 2010.04.14 02:38:36.
