data_PCOD8177276
_publ_section_title
;
Structure prediction by ZEFSAII (Michael W. Deem and Ramdas Pophale) SiO2 
 PCOD8177276
Probable space group: A M M 2
;
_chemical_formula_sum "Si O2"
_cell_formula_units_Z 48
_cell_length_a 9.091975
_cell_length_b 24.422234
_cell_length_c 14.125170
_cell_angle_alpha 90.000000
_cell_angle_beta 90.000000
_cell_angle_gamma 90.000000
_cell_volume 3136.442314
_symmetry_space_group_name_H-M "A M M 2"
_symmetry_group_IT_number 38
_symmetry_cell_setting 'orthorhombic'
loop_
_space_group_symop_operation_xyz
x,y,z
-x,-y,z
-x,y,z
x,-y,z
x,1/2+y,1/2+z
-x,1/2-y,1/2+z
-x,1/2+y,1/2+z
x,1/2-y,1/2+z
loop_
_atom_site_type_symbol
_atom_site_label
_atom_site_fract_x
_atom_site_fract_y
_atom_site_fract_z
Si Si1 0.663116 0.838963 0.176650
Si Si2 0.332209 0.438930 0.428522
Si Si3 0.327839 0.833048 0.817198
Si Si4 0.829954 0.561580 0.623325
Si Si5 0.337152 0.272358 0.501853
Si Si6 0.173822 0.766343 0.668733
O O1 0.500000 0.840245 0.222998
O O2 0.743299 0.897022 0.192989
O O3 0.651548 0.828628 0.063200
O O4 0.757208 0.788078 0.219558
O O5 0.500000 0.429402 0.463287
O O6 0.314690 0.500000 0.384937
O O7 0.290441 0.395106 0.347523
O O8 0.223872 0.432502 0.516378
O O9 0.500000 0.826131 0.794878
O O10 0.233825 0.819432 0.723871
O O11 0.278555 0.790172 0.899255
O O12 0.803141 0.500000 0.661011
O O13 0.000000 0.577788 0.625606
O O14 0.500000 0.245505 0.494926
O O15 0.227679 0.230937 0.558249
O O16 0.000000 0.764193 0.672582
#
# Coordination Sequence:
#
# PCOD8177276 Si02
#       6
#     8   8   8   8   8   8
#     4   9  16  29  42  55  77 108 142 175 205 237
#     4   9  16  26  40  57  79 110 146 176 201 240
#     4  10  17  28  44  61  83 113 144 173 210 251
#     4  10  18  25  37  59  85 112 139 169 207 249
#     4   8  16  29  43  59  80 110 142 175 209 242
#     4  10  19  28  41  61  83 109 140 176 215 254
#
# _framework density 15.303965
#
# number of rings (size 3 to 8) (size 9 to 14) (size 15 to 20)
#    1.000    1.667    1.667    2.000    0.000    2.333 
#    0.000    0.000    0.000    0.000    0.000    0.000 
#    0.000    1.333    0.000   11.000    0.000    8.500 
#
# Total GULP energy -297321.225431 kJ/mol
# GULP energy per Si atom -12388.384393 kJ/mol
# Density = 1.526913 g / cm^3
# Si number density = 15.303965 Si / 1000 Ang^3
#
#
#
# Elastic Constant Matrix: (Units=GPa)
#
#
# Indices 1 2 3 4 5 6 
#
# 1 92.6082 32.8448 14.4308 0.0000 0.0000 0.0000
# 2 32.8448 63.9823 14.9057 0.0000 0.0000 0.0000
# 3 14.4308 14.9057 30.4966 0.0000 0.0000 0.0000
# 4 0.0000 0.0000 0.0000 23.4074 0.0000 0.0000
# 5 0.0000 0.0000 0.0000 0.0000 13.4877 0.0000
# 6 0.0000 0.0000 0.0000 0.0000 0.0000 22.7260
#
#
#
# Elastic Compliance Matrix: (Units=1/GPa)
#
#
# Indices 1 2 3 4 5 6 
#
# 1 0.013505 -0.006143 -0.003388 0.000000 0.000000 0.000000
# 2 -0.006143 0.020432 -0.007080 0.000000 0.000000 0.000000
# 3 -0.003388 -0.007080 0.037854 0.000000 0.000000 0.000000
# 4 0.000000 0.000000 0.000000 0.042722 0.000000 0.000000
# 5 0.000000 0.000000 0.000000 0.000000 0.074142 0.000000
# 6 0.000000 0.000000 0.000000 0.000000 0.000000 0.044002
#
#
# Mechanical properties :
#
#
# Convention : Reuss Voigt Hill
#
# Bulk Modulus (GPa) = 25.92715 34.60551 30.26633
# Shear Modulus (GPa) = 17.93819 20.25127 19.09473
#
# Velocity S-wave (km/s) = 3.42735 3.64162 3.53611
# Velocity P-wave (km/s) = 5.71319 6.35162 6.04085
#
# Compressibility (1/GPa) = 0.03856961
#
# Stress axis : x y z
#
# Youngs Moduli (GPa) = 74.04702 48.94213 26.41736
#
# Poissons Ratio (x) = 0.30067 0.08950
# Poissons Ratio (y) = 0.45490 0.18702
# Poissons Ratio (z) = 0.25086 0.34649
#
# Static dielectric constant tensor:
#      x y z
#    x 2.910580 0.000000 0.000000 
#    y 0.000000 2.928420 0.000000 
#    z 0.000000 0.000000 2.460440 
# 
# 
# High freq. dielectric constant tensor:
#      x y z
#    x 1.592960 0.000000 0.000000 
#    y 0.000000 1.573470 0.000000 
#    z 0.000000 0.000000 1.527390 
# 
# From -- ./inp_files/17023.got.cif
#   From: 2010.03.12/outbox.cif.g09.slc.cpg/sg38_9_cif.got.tgz:17023.got - 2010.04.14 02:38:36.
