data_PCOD8177019
_publ_section_title
;
Structure prediction by ZEFSAII (Michael W. Deem and Ramdas Pophale) SiO2 
 PCOD8177019
Probable space group: C C C 2
;
_chemical_formula_sum "Si O2"
_cell_formula_units_Z 32
_cell_length_a 11.700655
_cell_length_b 15.491797
_cell_length_c 7.683146
_cell_angle_alpha 90.000000
_cell_angle_beta 90.000000
_cell_angle_gamma 90.000000
_cell_volume 1392.679098
_symmetry_space_group_name_H-M "C C C 2"
_symmetry_group_IT_number 37
_symmetry_cell_setting 'orthorhombic'
loop_
_space_group_symop_operation_xyz
x,y,z
-x,-y,z
-x,y,1/2+z
x,-y,1/2+z
1/2+x,1/2+y,z
1/2-x,1/2-y,z
1/2-x,1/2+y,1/2+z
1/2+x,1/2-y,1/2+z
loop_
_atom_site_type_symbol
_atom_site_label
_atom_site_fract_x
_atom_site_fract_y
_atom_site_fract_z
Si Si1 0.602420 0.885447 0.337060
Si Si2 0.131634 0.426286 0.730116
Si Si3 0.858611 0.101665 0.439915
Si Si4 0.500000 0.500000 0.694869
Si Si5 0.250000 0.250000 0.128509
O O1 0.647296 0.893450 0.533579
O O2 0.465727 0.868355 0.328029
O O3 0.678559 0.813102 0.249612
O O4 0.609240 0.971762 0.220871
O O5 0.241441 0.417771 0.847630
O O6 0.887541 0.031564 0.590700
O O7 0.844970 0.198579 0.513720
O O8 0.962813 0.085598 0.304430
#
# Coordination Sequence:
#
# PCOD8177019 Si02
#       5
#     8   8   8   4   4
#     4  11  23  40  69 101 133 172 220 270 330 397
#     4  11  22  44  69  95 131 181 221 261 327 413
#     4  11  24  43  68  96 131 174 224 275 328 392
#     4  10  24  46  70  92 128 184 230 262 326 412
#     4  12  26  42  66 104 138 166 216 284 336 382
#
# _framework density 22.977295999999999
#
# number of rings (size 3 to 8) (size 9 to 14) (size 15 to 20)
#    0.000    1.000    0.000    9.000    0.000    7.000 
#    0.000    0.000    0.000    0.000    0.000    0.000 
#    0.000    0.000    0.000    0.000    0.000    0.000 
#
# Total GULP energy -198258.628456 kJ/mol
# GULP energy per Si atom -12391.164278 kJ/mol
# Density = 2.292500 g / cm^3
# Si number density = 22.977296 Si / 1000 Ang^3
#
#
#
# Elastic Constant Matrix: (Units=GPa)
#
#
# Indices 1 2 3 4 5 6 
#
# 1 154.5602 69.4811 79.8021 0.0000 0.0000 0.0000
# 2 69.4811 123.4777 74.1981 0.0000 0.0000 0.0000
# 3 79.8021 74.1981 163.8039 0.0000 0.0000 0.0000
# 4 0.0000 0.0000 0.0000 18.7420 0.0000 0.0000
# 5 0.0000 0.0000 0.0000 0.0000 32.6110 0.0000
# 6 0.0000 0.0000 0.0000 0.0000 0.0000 45.8477
#
#
#
# Elastic Compliance Matrix: (Units=1/GPa)
#
#
# Indices 1 2 3 4 5 6 
#
# 1 0.009679 -0.003590 -0.003089 0.000000 0.000000 0.000000
# 2 -0.003590 0.012459 -0.003895 0.000000 0.000000 0.000000
# 3 -0.003089 -0.003895 0.009374 0.000000 0.000000 0.000000
# 4 0.000000 0.000000 0.000000 0.053356 0.000000 0.000000
# 5 0.000000 0.000000 0.000000 0.000000 0.030664 0.000000
# 6 0.000000 0.000000 0.000000 0.000000 0.000000 0.021811
#
#
# Mechanical properties :
#
#
# Convention : Reuss Voigt Hill
#
# Bulk Modulus (GPa) = 96.48506 98.75608 97.62057
# Shear Modulus (GPa) = 30.87450 33.99749 32.43600
#
# Velocity S-wave (km/s) = 3.66962 3.85075 3.76127
# Velocity P-wave (km/s) = 7.74839 7.92743 7.83842
#
# Compressibility (1/GPa) = 0.01036430
#
# Stress axis : x y z
#
# Youngs Moduli (GPa) = 103.31846 80.26342 106.67846
#
# Poissons Ratio (x) = 0.28814 0.32955
# Poissons Ratio (y) = 0.37091 0.41547
# Poissons Ratio (z) = 0.31917 0.31259
#
# Static dielectric constant tensor:
#      x y z
#    x 4.470030 0.000000 0.000000 
#    y 0.000000 4.996290 0.000000 
#    z 0.000000 0.000000 4.403100 
# 
# 
# High freq. dielectric constant tensor:
#      x y z
#    x 1.921520 0.000000 0.000000 
#    y 0.000000 1.880720 0.000000 
#    z 0.000000 0.000000 1.926780 
# 
# From -- ./inp_files/2602.got.cif
#   From: 2010.03.12/outbox.cif.g09.slc.cpg/sg37_2_cif.got.tgz:2602.got - 2010.04.14 02:25:27.
