data_PCOD8177328
_publ_section_title
;
Structure prediction by ZEFSAII (Michael W. Deem and Ramdas Pophale) SiO2 
 PCOD8177328
Probable space group: A M M 2
;
_chemical_formula_sum "Si O2"
_cell_formula_units_Z 64
_cell_length_a 9.449578
_cell_length_b 26.470145
_cell_length_c 18.177596
_cell_angle_alpha 90.000000
_cell_angle_beta 90.000000
_cell_angle_gamma 90.000000
_cell_volume 4546.792987
_symmetry_space_group_name_H-M "A M M 2"
_symmetry_group_IT_number 38
_symmetry_cell_setting 'orthorhombic'
loop_
_space_group_symop_operation_xyz
x,y,z
-x,-y,z
-x,y,z
x,-y,z
x,1/2+y,1/2+z
-x,1/2-y,1/2+z
-x,1/2+y,1/2+z
x,1/2-y,1/2+z
loop_
_atom_site_type_symbol
_atom_site_label
_atom_site_fract_x
_atom_site_fract_y
_atom_site_fract_z
Si Si1 0.655508 0.196459 0.876290
Si Si2 0.334928 0.056902 0.236277
Si Si3 0.332811 0.149417 0.329139
Si Si4 0.166925 0.747922 0.586875
Si Si5 0.835843 0.442713 0.590874
Si Si6 0.341293 0.798287 0.468947
Si Si7 0.667211 0.243892 0.236717
Si Si8 0.836178 0.850308 0.993614
O O1 0.500000 0.171697 0.876298
O O2 0.652344 0.247917 0.921351
O O3 0.700376 0.209853 0.792741
O O4 0.759432 0.156775 0.915335
O O5 0.500000 0.064135 0.218797
O O6 0.284925 0.094137 0.301493
O O7 0.252039 0.071141 0.162894
O O8 0.300464 0.000000 0.262065
O O9 0.500000 0.155558 0.331487
O O10 0.280829 0.158382 0.413301
O O11 0.276575 0.191608 0.272329
O O12 0.232222 0.792169 0.535928
O O13 0.241275 0.753079 0.664812
O O14 0.202953 0.693284 0.552197
O O15 0.000000 0.756628 0.594780
O O16 0.804399 0.500000 0.564598
O O17 0.789799 0.404366 0.526633
O O18 0.000000 0.435223 0.610777
O O19 0.500000 0.810938 0.498518
O O20 0.500000 0.241458 0.217811
O O21 0.000000 0.848772 0.974915
#
# Coordination Sequence:
#
# PCOD8177328 Si02
#       8
#     8   8   8   8   8   8   8   8
#     4   8  15  26  39  54  70  92 124 157 184 216
#     4   9  16  25  38  57  78  98 124 159 191 213
#     4   8  14  25  40  55  72  98 130 157 180 213
#     4  10  18  25  35  55  79  98 121 154 188 218
#     4   9  17  28  39  52  74 103 131 155 179 213
#     4   8  14  26  40  51  68  97 128 153 180 217
#     4   9  16  26  39  54  73  99 129 153 177 217
#     4   9  17  27  38  53  74 100 127 154 185 217
#
# _framework density 14.075854
#
# number of rings (size 3 to 8) (size 9 to 14) (size 15 to 20)
#    0.000    3.250    0.000    2.625    0.000    1.500 
#    0.000    2.500    0.000    0.000    0.000    0.000 
#    0.000    1.000    0.000    4.250    0.000    2.625 
#
# Total GULP energy -396595.541563 kJ/mol
# GULP energy per Si atom -12393.610674 kJ/mol
# Density = 1.404382 g / cm^3
# Si number density = 14.075854 Si / 1000 Ang^3
#
#
#
# Elastic Constant Matrix: (Units=GPa)
#
#
# Indices 1 2 3 4 5 6 
#
# 1 56.0248 33.7420 51.2482 0.0000 0.0000 0.0000
# 2 33.7420 75.4914 52.6563 0.0000 0.0000 0.0000
# 3 51.2482 52.6563 105.3029 0.0000 0.0000 0.0000
# 4 0.0000 0.0000 0.0000 24.5640 0.0000 0.0000
# 5 0.0000 0.0000 0.0000 0.0000 13.3119 0.0000
# 6 0.0000 0.0000 0.0000 0.0000 0.0000 14.1560
#
#
#
# Elastic Compliance Matrix: (Units=1/GPa)
#
#
# Indices 1 2 3 4 5 6 
#
# 1 0.033620 -0.005550 -0.013587 0.000000 0.000000 0.000000
# 2 -0.005550 0.021258 -0.007929 0.000000 0.000000 0.000000
# 3 -0.013587 -0.007929 0.020074 0.000000 0.000000 0.000000
# 4 0.000000 0.000000 0.000000 0.040710 0.000000 0.000000
# 5 0.000000 0.000000 0.000000 0.000000 0.075121 0.000000
# 6 0.000000 0.000000 0.000000 0.000000 0.000000 0.070642
#
#
# Mechanical properties :
#
#
# Convention : Reuss Voigt Hill
#
# Bulk Modulus (GPa) = 48.03033 56.90135 52.46584
# Shear Modulus (GPa) = 15.50412 17.01788 16.26100
#
# Velocity S-wave (km/s) = 3.32244 3.48086 3.40257
# Velocity P-wave (km/s) = 6.99391 7.52780 7.26576
#
# Compressibility (1/GPa) = 0.02082018
#
# Stress axis : x y z
#
# Youngs Moduli (GPa) = 29.74393 47.04199 49.81689
#
# Poissons Ratio (x) = 0.26109 0.67686
# Poissons Ratio (y) = 0.16508 0.39498
# Poissons Ratio (z) = 0.40413 0.37298
#
# Static dielectric constant tensor:
#      x y z
#    x 2.773170 0.000000 0.000000 
#    y 0.000000 2.758830 0.000000 
#    z 0.000000 0.000000 2.828060 
# 
# 
# High freq. dielectric constant tensor:
#      x y z
#    x 1.531720 0.000000 0.000000 
#    y 0.000000 1.507700 0.000000 
#    z 0.000000 0.000000 1.525410 
# 
# From -- ./inp_files/17341.got.cif
#   From: 2010.03.12/outbox.cif.g09.slc.cpg/sg38_9_cif.got.tgz:17341.got - 2010.04.14 02:38:36.
