data_PCOD8177395
_publ_section_title
;
Structure prediction by ZEFSAII (Michael W. Deem and Ramdas Pophale) SiO2 
 PCOD8177395
Probable space group: A M M 2
;
_chemical_formula_sum "Si O2"
_cell_formula_units_Z 56
_cell_length_a 14.435070
_cell_length_b 9.338109
_cell_length_c 26.161778
_cell_angle_alpha 90.000000
_cell_angle_beta 90.000000
_cell_angle_gamma 90.000000
_cell_volume 3526.509753
_symmetry_space_group_name_H-M "A M M 2"
_symmetry_group_IT_number 38
_symmetry_cell_setting 'orthorhombic'
loop_
_space_group_symop_operation_xyz
x,y,z
-x,-y,z
-x,y,z
x,-y,z
x,1/2+y,1/2+z
-x,1/2-y,1/2+z
-x,1/2+y,1/2+z
x,1/2-y,1/2+z
loop_
_atom_site_type_symbol
_atom_site_label
_atom_site_fract_x
_atom_site_fract_y
_atom_site_fract_z
Si Si1 0.608372 0.832397 0.740970
Si Si2 0.710629 0.169136 0.639456
Si Si3 0.604786 0.670282 0.042884
Si Si4 0.396020 0.329912 0.930485
Si Si5 0.897729 0.332702 0.184558
Si Si6 0.707322 0.167861 0.331767
Si Si7 0.102459 0.835342 0.287290
O O1 0.500000 0.799419 0.738185
O O2 0.654381 0.774346 0.688650
O O3 0.652113 0.748481 0.787920
O O4 0.628567 0.000000 0.748678
O O5 0.670420 0.237088 0.587049
O O6 0.819178 0.212711 0.643788
O O7 0.698044 0.000000 0.636905
O O8 0.500000 0.719999 0.054089
O O9 0.610333 0.500000 0.043829
O O10 0.636092 0.726139 0.986609
O O11 0.500000 0.274590 0.918589
O O12 0.396018 0.500000 0.931304
O O13 0.326710 0.272896 0.886749
O O14 0.890861 0.500000 0.196376
O O15 0.876363 0.256416 0.237528
O O16 0.000000 0.291509 0.163309
O O17 0.817812 0.198576 0.328736
O O18 0.685506 0.000000 0.325977
O O19 0.000000 0.798832 0.309903
O O20 0.107072 0.000000 0.270300
#
# Coordination Sequence:
#
# PCOD8177395 Si02
#       7
#     8   8   8   8   8   8   8
#     4  10  19  28  39  60  88 112 134 164 205 252
#     4   9  15  24  38  57  82 108 133 165 203 242
#     4   8  13  22  37  56  78 106 138 169 200 236
#     4   8  14  24  38  57  79 104 138 173 200 234
#     4   9  16  26  41  60  82 107 134 166 204 246
#     4  10  18  28  43  61  83 110 138 172 209 244
#     4   9  17  28  41  58  81 109 140 170 201 244
#
# _framework density 15.879723
#
# number of rings (size 3 to 8) (size 9 to 14) (size 15 to 20)
#    0.000    3.000    1.429    1.714    0.000    2.571 
#    0.000    0.000    0.000    0.857    0.000    8.000 
#    0.000    2.286    0.000    7.143    0.000    7.429 
#
# Total GULP energy -346964.983925 kJ/mol
# GULP energy per Si atom -12391.606569 kJ/mol
# Density = 1.584358 g / cm^3
# Si number density = 15.879723 Si / 1000 Ang^3
#
#
#
# Elastic Constant Matrix: (Units=GPa)
#
#
# Indices 1 2 3 4 5 6 
#
# 1 137.7561 22.0712 93.7814 0.0000 0.0000 0.0000
# 2 22.0712 15.3927 19.3221 0.0000 0.0000 0.0000
# 3 93.7814 19.3221 147.8776 0.0000 0.0000 0.0000
# 4 0.0000 0.0000 0.0000 14.2671 0.0000 0.0000
# 5 0.0000 0.0000 0.0000 0.0000 23.0670 0.0000
# 6 0.0000 0.0000 0.0000 0.0000 0.0000 14.7186
#
#
#
# Elastic Compliance Matrix: (Units=1/GPa)
#
#
# Indices 1 2 3 4 5 6 
#
# 1 0.014126 -0.010777 -0.007550 0.000000 0.000000 0.000000
# 2 -0.010777 0.085934 -0.004394 0.000000 0.000000 0.000000
# 3 -0.007550 -0.004394 0.012125 0.000000 0.000000 0.000000
# 4 0.000000 0.000000 0.000000 0.070091 0.000000 0.000000
# 5 0.000000 0.000000 0.000000 0.000000 0.043352 0.000000
# 6 0.000000 0.000000 0.000000 0.000000 0.000000 0.067941
#
#
# Mechanical properties :
#
#
# Convention : Reuss Voigt Hill
#
# Bulk Modulus (GPa) = 14.98298 63.48621 39.23460
# Shear Modulus (GPa) = 13.84050 21.46734 17.65392
#
# Velocity S-wave (km/s) = 2.95546 3.68077 3.33787
# Velocity P-wave (km/s) = 4.59370 7.62432 6.29414
#
# Compressibility (1/GPa) = 0.06674238
#
# Stress axis : x y z
#
# Youngs Moduli (GPa) = 70.79161 11.63684 82.47625
#
# Poissons Ratio (x) = 0.12541 0.62272
# Poissons Ratio (y) = 0.76293 0.36238
# Poissons Ratio (z) = 0.53450 0.05113
#
# Static dielectric constant tensor:
#      x y z
#    x 3.366500 0.000000 0.000000 
#    y 0.000000 2.661930 0.000000 
#    z 0.000000 0.000000 3.272610 
# 
# 
# High freq. dielectric constant tensor:
#      x y z
#    x 1.618860 0.000000 0.000000 
#    y 0.000000 1.565510 0.000000 
#    z 0.000000 0.000000 1.596840 
# 
# From -- ./inp_files/24987.got.cif
#   From: 2010.03.12/outbox.cif.g09.slc.cpg/sg38_13_cif.got.tgz:24987.got - 2010.04.14 02:38:36.
