data_PCOD8177628
_publ_section_title
;
Structure prediction by ZEFSAII (Michael W. Deem and Ramdas Pophale) SiO2 
 PCOD8177628
Probable space group: A M M 2
;
_chemical_formula_sum "Si O2"
_cell_formula_units_Z 56
_cell_length_a 17.739833
_cell_length_b 9.385504
_cell_length_c 19.365098
_cell_angle_alpha 90.000000
_cell_angle_beta 90.000000
_cell_angle_gamma 90.000000
_cell_volume 3224.236020
_symmetry_space_group_name_H-M "A M M 2"
_symmetry_group_IT_number 38
_symmetry_cell_setting 'orthorhombic'
loop_
_space_group_symop_operation_xyz
x,y,z
-x,-y,z
-x,y,z
x,-y,z
x,1/2+y,1/2+z
-x,1/2-y,1/2+z
-x,1/2+y,1/2+z
x,1/2-y,1/2+z
loop_
_atom_site_type_symbol
_atom_site_label
_atom_site_fract_x
_atom_site_fract_y
_atom_site_fract_z
Si Si1 0.753714 0.333879 0.148790
Si Si2 0.292047 0.834424 0.797666
Si Si3 0.916091 0.333689 0.111691
Si Si4 0.085673 0.657008 0.473772
Si Si5 0.414377 0.165581 0.908357
Si Si6 0.190242 0.838964 0.392537
Si Si7 0.685303 0.161701 0.508461
O O1 0.752471 0.500000 0.134080
O O2 0.704502 0.295325 0.216401
O O3 0.843061 0.291041 0.158623
O O4 0.712029 0.267385 0.081392
O O5 0.370335 0.800023 0.836836
O O6 0.227955 0.732685 0.826657
O O7 0.269643 0.000000 0.807754
O O8 0.913321 0.500000 0.092163
O O9 0.000000 0.298595 0.144344
O O10 0.903793 0.244578 0.043174
O O11 0.124208 0.500000 0.480922
O O12 0.117802 0.745298 0.409652
O O13 0.000000 0.634369 0.454965
O O14 0.500000 0.214335 0.896031
O O15 0.408387 0.000000 0.926253
O O16 0.381845 0.247580 0.974663
O O17 0.243379 0.833302 0.458838
O O18 0.167392 0.000000 0.373655
O O19 0.655809 0.000000 0.517359
#
# Coordination Sequence:
#
# PCOD8177628 Si02
#       7
#     8   8   8   8   8   8   8
#     4   9  16  30  49  73 101 129 165 207 243 290
#     4   9  18  32  51  71  98 132 164 201 245 295
#     4   9  16  28  47  69  95 130 167 203 249 296
#     4  10  19  29  44  69  97 125 164 212 255 292
#     4   9  18  33  51  72  97 127 163 201 247 301
#     4  10  18  31  49  69  96 127 162 202 242 294
#     4   9  17  30  50  74  96 122 159 200 243 290
#
# _framework density 17.368455000000001
#
# number of rings (size 3 to 8) (size 9 to 14) (size 15 to 20)
#    0.000    2.714    1.429    0.857    0.000    1.714 
#    0.000    2.857    0.000    5.143    0.000    0.000 
#    0.000    0.000    0.000    0.000    0.000    0.000 
#
# Total GULP energy -346932.431478 kJ/mol
# GULP energy per Si atom -12390.443981 kJ/mol
# Density = 1.732892 g / cm^3
# Si number density = 17.368455 Si / 1000 Ang^3
#
#
#
# Elastic Constant Matrix: (Units=GPa)
#
#
# Indices 1 2 3 4 5 6 
#
# 1 98.2217 28.3560 50.5603 0.0000 0.0000 0.0000
# 2 28.3560 60.7260 25.2939 0.0000 0.0000 0.0000
# 3 50.5603 25.2939 105.3524 0.0000 0.0000 0.0000
# 4 0.0000 0.0000 0.0000 19.9605 0.0000 0.0000
# 5 0.0000 0.0000 0.0000 0.0000 21.2131 0.0000
# 6 0.0000 0.0000 0.0000 0.0000 0.0000 23.1074
#
#
#
# Elastic Compliance Matrix: (Units=1/GPa)
#
#
# Indices 1 2 3 4 5 6 
#
# 1 0.014462 -0.004291 -0.005910 0.000000 0.000000 0.000000
# 2 -0.004291 0.019571 -0.002639 0.000000 0.000000 0.000000
# 3 -0.005910 -0.002639 0.012962 0.000000 0.000000 0.000000
# 4 0.000000 0.000000 0.000000 0.050099 0.000000 0.000000
# 5 0.000000 0.000000 0.000000 0.000000 0.047141 0.000000
# 6 0.000000 0.000000 0.000000 0.000000 0.000000 0.043276
#
#
# Mechanical properties :
#
#
# Convention : Reuss Voigt Hill
#
# Bulk Modulus (GPa) = 46.91948 52.52449 49.72199
# Shear Modulus (GPa) = 22.69665 23.52888 23.11277
#
# Velocity S-wave (km/s) = 3.61886 3.68461 3.65188
# Velocity P-wave (km/s) = 6.67340 6.95764 6.81700
#
# Compressibility (1/GPa) = 0.02131311
#
# Stress axis : x y z
#
# Youngs Moduli (GPa) = 69.14497 51.09721 77.14809
#
# Poissons Ratio (x) = 0.21928 0.45598
# Poissons Ratio (y) = 0.29673 0.20361
# Poissons Ratio (z) = 0.40868 0.13485
#
# Static dielectric constant tensor:
#      x y z
#    x 3.341140 0.000000 0.000000 
#    y 0.000000 3.330070 0.000000 
#    z 0.000000 0.000000 3.106550 
# 
# 
# High freq. dielectric constant tensor:
#      x y z
#    x 1.662240 0.000000 0.000000 
#    y 0.000000 1.662890 0.000000 
#    z 0.000000 0.000000 1.649850 
# 
# From -- ./inp_files/18814.got.cif
#   From: 2010.03.12/outbox.cif.g09.slc.cpg/sg38_10_cif.got.tgz:18814.got - 2010.04.14 02:38:36.
