data_PCOD8177499
_publ_section_title
;
Structure prediction by ZEFSAII (Michael W. Deem and Ramdas Pophale) SiO2 
 PCOD8177499
Probable space group: A M M 2
;
_chemical_formula_sum "Si O2"
_cell_formula_units_Z 64
_cell_length_a 9.065689
_cell_length_b 23.293784
_cell_length_c 18.860563
_cell_angle_alpha 90.000000
_cell_angle_beta 90.000000
_cell_angle_gamma 90.000000
_cell_volume 3982.864329
_symmetry_space_group_name_H-M "A M M 2"
_symmetry_group_IT_number 38
_symmetry_cell_setting 'orthorhombic'
loop_
_space_group_symop_operation_xyz
x,y,z
-x,-y,z
-x,y,z
x,-y,z
x,1/2+y,1/2+z
-x,1/2-y,1/2+z
-x,1/2+y,1/2+z
x,1/2-y,1/2+z
loop_
_atom_site_type_symbol
_atom_site_label
_atom_site_fract_x
_atom_site_fract_y
_atom_site_fract_z
Si Si1 0.672373 0.270285 0.096910
Si Si2 0.172897 0.335858 0.665934
Si Si3 0.174408 0.161390 0.712168
Si Si4 0.673036 0.566337 0.591364
Si Si5 0.169350 0.770258 0.303778
Si Si6 0.672308 0.433482 0.296791
Si Si7 0.670518 0.746541 0.439670
Si Si8 0.674967 0.382280 0.444255
O O1 0.500000 0.268922 0.116378
O O2 0.742055 0.209188 0.116639
O O3 0.752129 0.322507 0.137024
O O4 0.697084 0.279990 0.013112
O O5 0.237282 0.398789 0.650946
O O6 0.201070 0.321537 0.748573
O O7 0.000000 0.332118 0.648147
O O8 0.219884 0.210067 0.768861
O O9 0.237102 0.100637 0.737356
O O10 0.000000 0.158187 0.701369
O O11 0.500000 0.579602 0.599204
O O12 0.708234 0.500000 0.603719
O O13 0.732646 0.584630 0.513805
O O14 0.256712 0.782280 0.375987
O O15 0.000000 0.767110 0.324588
O O16 0.500000 0.418924 0.288732
O O17 0.704688 0.500000 0.284311
O O18 0.730361 0.415946 0.374703
O O19 0.500000 0.741305 0.421582
O O20 0.738838 0.682343 0.443600
O O21 0.500000 0.381727 0.446714
#
# Coordination Sequence:
#
# PCOD8177499 Si02
#       8
#     8   8   8   8   8   8   8   8
#     4  10  19  32  50  71  95 123 159 200 243 288
#     4  10  20  33  47  68  97 128 162 199 240 284
#     4  10  20  33  47  68  96 128 162 199 242 283
#     4  10  19  32  50  70  95 130 169 204 236 275
#     4   9  19  32  46  66  94 126 158 195 240 286
#     4  10  19  31  49  70  94 130 170 203 236 276
#     4  10  18  29  49  73  95 124 159 195 239 284
#     4   9  16  29  45  68  98 128 165 201 232 273
#
# _framework density 16.068838
#
# number of rings (size 3 to 8) (size 9 to 14) (size 15 to 20)
#    0.000    2.250    2.500    2.250    0.000    5.500 
#    0.000    0.625    0.000    1.500    0.000    0.875 
#    0.000    5.000    0.000    0.000    0.000    0.000 
#
# Total GULP energy -396828.465497 kJ/mol
# GULP energy per Si atom -12400.889547 kJ/mol
# Density = 1.603226 g / cm^3
# Si number density = 16.068838 Si / 1000 Ang^3
#
#
#
# Elastic Constant Matrix: (Units=GPa)
#
#
# Indices 1 2 3 4 5 6 
#
# 1 70.0495 41.4439 57.1572 0.0000 0.0000 0.0000
# 2 41.4439 90.2811 58.1542 0.0000 0.0000 0.0000
# 3 57.1572 58.1542 112.1822 0.0000 0.0000 0.0000
# 4 0.0000 0.0000 0.0000 26.1490 0.0000 0.0000
# 5 0.0000 0.0000 0.0000 0.0000 21.0138 0.0000
# 6 0.0000 0.0000 0.0000 0.0000 0.0000 21.7544
#
#
#
# Elastic Compliance Matrix: (Units=1/GPa)
#
#
# Indices 1 2 3 4 5 6 
#
# 1 0.025902 -0.005089 -0.010559 0.000000 0.000000 0.000000
# 2 -0.005089 0.017629 -0.006546 0.000000 0.000000 0.000000
# 3 -0.010559 -0.006546 0.017687 0.000000 0.000000 0.000000
# 4 0.000000 0.000000 0.000000 0.038242 0.000000 0.000000
# 5 0.000000 0.000000 0.000000 0.000000 0.047588 0.000000
# 6 0.000000 0.000000 0.000000 0.000000 0.000000 0.045968
#
#
# Mechanical properties :
#
#
# Convention : Reuss Voigt Hill
#
# Bulk Modulus (GPa) = 59.41556 65.11371 62.26463
# Shear Modulus (GPa) = 20.57487 21.50062 21.03774
#
# Velocity S-wave (km/s) = 3.58218 3.66188 3.62225
# Velocity P-wave (km/s) = 7.35970 7.64780 7.50513
#
# Compressibility (1/GPa) = 0.01683061
#
# Stress axis : x y z
#
# Youngs Moduli (GPa) = 38.60674 56.72432 56.53730
#
# Poissons Ratio (x) = 0.28866 0.59699
# Poissons Ratio (y) = 0.19646 0.37009
# Poissons Ratio (z) = 0.40766 0.37132
#
# Static dielectric constant tensor:
#      x y z
#    x 2.944720 0.000000 0.000000 
#    y 0.000000 2.869460 0.000000 
#    z 0.000000 0.000000 3.047660 
# 
# 
# High freq. dielectric constant tensor:
#      x y z
#    x 1.612880 0.000000 0.000000 
#    y 0.000000 1.591420 0.000000 
#    z 0.000000 0.000000 1.612720 
# 
# From -- ./inp_files/17266.got.cif
#   From: 2010.03.12/outbox.cif.g09.slc.cpg/sg38_9_cif.got.tgz:17266.got - 2010.04.14 02:38:36.
