data_PCOD8177620
_publ_section_title
;
Structure prediction by ZEFSAII (Michael W. Deem and Ramdas Pophale) SiO2 
 PCOD8177620
Probable space group: A M M 2
;
_chemical_formula_sum "Si O2"
_cell_formula_units_Z 48
_cell_length_a 9.276543
_cell_length_b 16.596079
_cell_length_c 18.396814
_cell_angle_alpha 90.000000
_cell_angle_beta 90.000000
_cell_angle_gamma 90.000000
_cell_volume 2832.267527
_symmetry_space_group_name_H-M "A M M 2"
_symmetry_group_IT_number 38
_symmetry_cell_setting 'orthorhombic'
loop_
_space_group_symop_operation_xyz
x,y,z
-x,-y,z
-x,y,z
x,-y,z
x,1/2+y,1/2+z
-x,1/2-y,1/2+z
-x,1/2+y,1/2+z
x,1/2-y,1/2+z
loop_
_atom_site_type_symbol
_atom_site_label
_atom_site_fract_x
_atom_site_fract_y
_atom_site_fract_z
Si Si1 0.835620 0.814258 0.001020
Si Si2 0.331143 0.662773 0.354117
Si Si3 0.162855 0.000000 0.634339
Si Si4 0.830669 0.092527 0.145692
Si Si5 0.670873 0.000000 0.780906
Si Si6 0.163676 0.674120 0.102448
Si Si7 0.669897 0.769568 0.220111
O O1 0.790519 0.875821 0.065237
O O2 0.810213 0.723011 0.028426
O O3 0.000000 0.829611 0.977919
O O4 0.736848 0.825513 0.932185
O O5 0.500000 0.655618 0.365676
O O6 0.270525 0.579319 0.321486
O O7 0.294102 0.737764 0.301141
O O8 0.272326 0.000000 0.699910
O O9 0.189298 0.920334 0.585597
O O10 0.000000 0.000000 0.665292
O O11 0.746714 0.144572 0.206421
O O12 0.000000 0.103093 0.159819
O O13 0.781858 0.000000 0.152660
O O14 0.500000 0.000000 0.776086
O O15 0.272777 0.702381 0.164594
O O16 0.000000 0.691003 0.129821
O O17 0.500000 0.779527 0.208244
#
# Coordination Sequence:
#
# PCOD8177620 Si02
#       7
#     8   8   4   8   4   8   8
#     4   9  19  33  51  73 101 134 166 202 248 300
#     4  10  21  34  49  72 105 138 166 201 247 297
#     4  10  18  30  54  80 100 125 166 211 248 295
#     4   9  19  36  55  76 102 130 165 211 256 296
#     4  10  20  34  48  72 108 135 160 201 250 297
#     4   9  18  33  51  75 102 131 166 209 252 294
#     4  10  19  32  52  75 100 134 170 206 247 297
#
# _framework density 16.947552000000002
#
# number of rings (size 3 to 8) (size 9 to 14) (size 15 to 20)
#    0.000    2.500    1.667    1.500    1.167    5.000 
#    0.000    0.000    1.833    0.000    0.000    0.000 
#    0.000    0.000    0.000    0.000    0.000    0.000 
#
# Total GULP energy -297545.073609 kJ/mol
# GULP energy per Si atom -12397.711400 kJ/mol
# Density = 1.690898 g / cm^3
# Si number density = 16.947552 Si / 1000 Ang^3
#
#
#
# Elastic Constant Matrix: (Units=GPa)
#
#
# Indices 1 2 3 4 5 6 
#
# 1 46.6804 41.9706 38.5465 0.0000 0.0000 0.0000
# 2 41.9706 164.7733 56.5394 0.0000 0.0000 0.0000
# 3 38.5465 56.5394 82.1298 0.0000 0.0000 0.0000
# 4 0.0000 0.0000 0.0000 20.1764 0.0000 0.0000
# 5 0.0000 0.0000 0.0000 0.0000 32.5186 0.0000
# 6 0.0000 0.0000 0.0000 0.0000 0.0000 25.0049
#
#
#
# Elastic Compliance Matrix: (Units=1/GPa)
#
#
# Indices 1 2 3 4 5 6 
#
# 1 0.037458 -0.004594 -0.014418 0.000000 0.000000 0.000000
# 2 -0.004594 0.008509 -0.003702 0.000000 0.000000 0.000000
# 3 -0.014418 -0.003702 0.021491 0.000000 0.000000 0.000000
# 4 0.000000 0.000000 0.000000 0.049563 0.000000 0.000000
# 5 0.000000 0.000000 0.000000 0.000000 0.030752 0.000000
# 6 0.000000 0.000000 0.000000 0.000000 0.000000 0.039992
#
#
# Mechanical properties :
#
#
# Convention : Reuss Voigt Hill
#
# Bulk Modulus (GPa) = 45.39012 63.07740 54.23376
# Shear Modulus (GPa) = 20.78680 25.97510 23.38095
#
# Velocity S-wave (km/s) = 3.50599 3.91919 3.71833
# Velocity P-wave (km/s) = 6.57497 7.60132 7.10669
#
# Compressibility (1/GPa) = 0.02203122
#
# Stress axis : x y z
#
# Youngs Moduli (GPa) = 26.69622 117.51799 46.53069
#
# Poissons Ratio (x) = 0.53987 0.67088
# Poissons Ratio (y) = 0.12264 0.17225
# Poissons Ratio (z) = 0.38491 0.43503
#
# Static dielectric constant tensor:
#      x y z
#    x 3.119600 0.000000 0.000000 
#    y 0.000000 3.755660 0.000000 
#    z 0.000000 0.000000 2.920880 
# 
# 
# High freq. dielectric constant tensor:
#      x y z
#    x 1.653330 0.000000 0.000000 
#    y 0.000000 1.664780 0.000000 
#    z 0.000000 0.000000 1.627530 
# 
# From -- ./inp_files/16671.got.cif
#   From: 2010.03.12/outbox.cif.g09.slc.cpg/sg38_9_cif.got.tgz:16671.got - 2010.04.14 02:38:36.
