data_PCOD8177723
_publ_section_title
;
Structure prediction by ZEFSAII (Michael W. Deem and Ramdas Pophale) SiO2 
 PCOD8177723
Probable space group: A M M 2
;
_chemical_formula_sum "Si O2"
_cell_formula_units_Z 64
_cell_length_a 16.657578
_cell_length_b 20.240654
_cell_length_c 10.923013
_cell_angle_alpha 90.000000
_cell_angle_beta 90.000000
_cell_angle_gamma 90.000000
_cell_volume 3682.806043
_symmetry_space_group_name_H-M "A M M 2"
_symmetry_group_IT_number 38
_symmetry_cell_setting 'orthorhombic'
loop_
_space_group_symop_operation_xyz
x,y,z
-x,-y,z
-x,y,z
x,-y,z
x,1/2+y,1/2+z
-x,1/2-y,1/2+z
-x,1/2+y,1/2+z
x,1/2-y,1/2+z
loop_
_atom_site_type_symbol
_atom_site_label
_atom_site_fract_x
_atom_site_fract_y
_atom_site_fract_z
Si Si1 0.904811 0.219246 0.533410
Si Si2 0.331483 0.251274 0.774321
Si Si3 0.205135 0.355146 0.224745
Si Si4 0.200850 0.148614 0.335917
Si Si5 0.087570 0.863828 0.126341
Si Si6 0.913051 0.073917 0.884731
Si Si7 0.296874 0.924294 0.526983
Si Si8 0.406025 0.795972 0.524319
O O1 0.860190 0.184129 0.645478
O O2 0.856661 0.199061 0.410707
O O3 0.892117 0.296863 0.552242
O O4 0.000000 0.200244 0.525881
O O5 0.275531 0.187768 0.783046
O O6 0.274794 0.314905 0.770333
O O7 0.380874 0.245835 0.645987
O O8 0.384626 0.255967 0.899131
O O9 0.159501 0.382931 0.339546
O O10 0.245478 0.414906 0.149839
O O11 0.149381 0.115930 0.230078
O O12 0.235262 0.088912 0.416376
O O13 0.000000 0.856086 0.187646
O O14 0.089114 0.923991 0.031488
O O15 0.000000 0.101107 0.838799
O O16 0.902237 0.000000 0.837891
O O17 0.366949 0.869141 0.523111
O O18 0.329769 0.000000 0.520156
O O19 0.500000 0.807278 0.528851
#
# Coordination Sequence:
#
# PCOD8177723 Si02
#       8
#     8   8   8   8   8   8   8   8
#     4  10  19  30  48  75 103 136 177 222 269 303
#     4  10  20  33  56  83 108 134 168 209 269 324
#     4  10  18  32  54  73 102 132 171 224 259 299
#     4  10  19  32  50  71 106 135 171 216 258 305
#     4  10  20  30  46  69 100 137 174 216 260 301
#     4  10  21  33  45  66  99 141 182 214 249 294
#     4   9  20  35  53  78 100 133 173 209 252 305
#     4  10  21  37  58  84 110 136 162 209 266 330
#
# _framework density 17.378053000000001
#
# number of rings (size 3 to 8) (size 9 to 14) (size 15 to 20)
#    0.000    2.125    1.250    3.000    1.750    0.750 
#    0.000    0.000    0.000    7.125    0.000    0.000 
#    0.000    9.500    0.000    0.000    0.000    0.000 
#
# Total GULP energy -396522.144392 kJ/mol
# GULP energy per Si atom -12391.317012 kJ/mol
# Density = 1.733850 g / cm^3
# Si number density = 17.378053 Si / 1000 Ang^3
#
#
#
# Elastic Constant Matrix: (Units=GPa)
#
#
# Indices 1 2 3 4 5 6 
#
# 1 108.4123 30.3902 49.3266 0.0000 0.0000 0.0000
# 2 30.3902 66.3397 31.8047 0.0000 0.0000 0.0000
# 3 49.3266 31.8047 93.7987 0.0000 0.0000 0.0000
# 4 0.0000 0.0000 0.0000 11.5796 0.0000 0.0000
# 5 0.0000 0.0000 0.0000 0.0000 29.8514 0.0000
# 6 0.0000 0.0000 0.0000 0.0000 0.0000 13.8727
#
#
#
# Elastic Compliance Matrix: (Units=1/GPa)
#
#
# Indices 1 2 3 4 5 6 
#
# 1 0.012640 -0.003109 -0.005593 0.000000 0.000000 0.000000
# 2 -0.003109 0.018765 -0.004728 0.000000 0.000000 0.000000
# 3 -0.005593 -0.004728 0.015205 0.000000 0.000000 0.000000
# 4 0.000000 0.000000 0.000000 0.086359 0.000000 0.000000
# 5 0.000000 0.000000 0.000000 0.000000 0.033499 0.000000
# 6 0.000000 0.000000 0.000000 0.000000 0.000000 0.072084
#
#
# Mechanical properties :
#
#
# Convention : Reuss Voigt Hill
#
# Bulk Modulus (GPa) = 50.63055 54.62153 52.62604
# Shear Modulus (GPa) = 18.38263 21.52935 19.95599
#
# Velocity S-wave (km/s) = 3.25592 3.52359 3.39240
# Velocity P-wave (km/s) = 6.58276 6.93209 6.75968
#
# Compressibility (1/GPa) = 0.01975092
#
# Stress axis : x y z
#
# Youngs Moduli (GPa) = 79.11144 53.29140 65.76609
#
# Poissons Ratio (x) = 0.16569 0.36783
# Poissons Ratio (y) = 0.24597 0.31092
# Poissons Ratio (z) = 0.44248 0.25194
#
# Static dielectric constant tensor:
#      x y z
#    x 3.249880 0.000000 0.000000 
#    y 0.000000 3.021180 0.000000 
#    z 0.000000 0.000000 3.395630 
# 
# 
# High freq. dielectric constant tensor:
#      x y z
#    x 1.669370 0.000000 0.000000 
#    y 0.000000 1.650420 0.000000 
#    z 0.000000 0.000000 1.677120 
# 
# From -- ./inp_files/10237.got.cif
#   From: 2010.03.12/outbox.cif.g09.slc.cpg/sg38_6_cif.got.tgz:10237.got - 2010.04.14 02:38:36.
