data_PCOD8177789
_publ_section_title
;
Structure prediction by ZEFSAII (Michael W. Deem and Ramdas Pophale) SiO2 
 PCOD8177789
Probable space group: A M M 2
;
_chemical_formula_sum "Si O2"
_cell_formula_units_Z 40
_cell_length_a 8.800264
_cell_length_b 11.690088
_cell_length_c 20.294887
_cell_angle_alpha 90.000000
_cell_angle_beta 90.000000
_cell_angle_gamma 90.000000
_cell_volume 2087.853966
_symmetry_space_group_name_H-M "A M M 2"
_symmetry_group_IT_number 38
_symmetry_cell_setting 'orthorhombic'
loop_
_space_group_symop_operation_xyz
x,y,z
-x,-y,z
-x,y,z
x,-y,z
x,1/2+y,1/2+z
-x,1/2-y,1/2+z
-x,1/2+y,1/2+z
x,1/2-y,1/2+z
loop_
_atom_site_type_symbol
_atom_site_label
_atom_site_fract_x
_atom_site_fract_y
_atom_site_fract_z
Si Si1 0.319443 0.749479 0.413520
Si Si2 0.319326 0.371454 0.783694
Si Si3 0.821380 0.368716 0.039277
Si Si4 0.679620 0.500000 0.433805
Si Si5 0.680447 0.000000 0.079319
Si Si6 0.679701 0.728005 0.648691
O O1 0.500000 0.758991 0.419115
O O2 0.255341 0.824183 0.352977
O O3 0.253548 0.792284 0.482516
O O4 0.268577 0.617763 0.398626
O O5 0.500000 0.377260 0.785612
O O6 0.255101 0.500000 0.772329
O O7 0.270920 0.283968 0.725417
O O8 0.775041 0.500000 0.027663
O O9 0.761705 0.332595 0.111761
O O10 0.000000 0.351279 0.036561
O O11 0.500000 0.500000 0.439896
O O12 0.750359 0.500000 0.506664
O O13 0.739684 0.888051 0.115781
O O14 0.500000 0.000000 0.079736
O O15 0.500000 0.745280 0.641503
#
# Coordination Sequence:
#
# PCOD8177789 Si02
#       6
#     8   8   8   4   4   8
#     4  10  19  34  57  83 111 142 176 216 263 318
#     4   9  17  30  53  85 114 138 171 218 267 312
#     4  11  24  39  53  74 107 144 181 225 271 313
#     4   9  16  28  50  80 110 137 168 213 265 308
#     4   9  14  26  52  80 106 133 164 213 269 310
#     4  10  18  33  57  81 106 138 176 219 267 319
#
# _framework density 19.158429000000002
#
# number of rings (size 3 to 8) (size 9 to 14) (size 15 to 20)
#    0.000    2.200    3.000    1.200    0.000    2.400 
#    1.800    3.000    0.000    1.200    0.000    0.000 
#    0.000    0.000    0.000    0.000    0.000    0.000 
#
# Total GULP energy -247886.721111 kJ/mol
# GULP energy per Si atom -12394.336056 kJ/mol
# Density = 1.911482 g / cm^3
# Si number density = 19.158429 Si / 1000 Ang^3
#
#
#
# Elastic Constant Matrix: (Units=GPa)
#
#
# Indices 1 2 3 4 5 6 
#
# 1 29.7361 31.0760 19.4732 0.0000 0.0000 0.0000
# 2 31.0760 121.4181 50.8887 0.0000 0.0000 0.0000
# 3 19.4732 50.8887 125.8903 0.0000 0.0000 0.0000
# 4 0.0000 0.0000 0.0000 39.1465 0.0000 0.0000
# 5 0.0000 0.0000 0.0000 0.0000 7.6819 0.0000
# 6 0.0000 0.0000 0.0000 0.0000 0.0000 15.9983
#
#
#
# Elastic Compliance Matrix: (Units=1/GPa)
#
#
# Indices 1 2 3 4 5 6 
#
# 1 0.046762 -0.010760 -0.002884 0.000000 0.000000 0.000000
# 2 -0.010760 0.012392 -0.003345 0.000000 0.000000 0.000000
# 3 -0.002884 -0.003345 0.009742 0.000000 0.000000 0.000000
# 4 0.000000 0.000000 0.000000 0.025545 0.000000 0.000000
# 5 0.000000 0.000000 0.000000 0.000000 0.130176 0.000000
# 6 0.000000 0.000000 0.000000 0.000000 0.000000 0.062507
#
#
# Mechanical properties :
#
#
# Convention : Reuss Voigt Hill
#
# Bulk Modulus (GPa) = 28.63794 53.32447 40.98120
# Shear Modulus (GPa) = 15.02676 24.27245 19.64961
#
# Velocity S-wave (km/s) = 2.80365 3.56326 3.20603
# Velocity P-wave (km/s) = 5.04589 6.69500 5.92807
#
# Compressibility (1/GPa) = 0.03491872
#
# Stress axis : x y z
#
# Youngs Moduli (GPa) = 21.38475 80.69913 102.65275
#
# Poissons Ratio (x) = 0.86830 0.29605
# Poissons Ratio (y) = 0.23009 0.34335
# Poissons Ratio (z) = 0.06167 0.26992
#
# Static dielectric constant tensor:
#      x y z
#    x 2.985820 0.000000 0.000000 
#    y 0.000000 3.777180 0.000000 
#    z 0.000000 0.000000 3.690420 
# 
# 
# High freq. dielectric constant tensor:
#      x y z
#    x 1.690400 0.000000 0.000000 
#    y 0.000000 1.752060 0.000000 
#    z 0.000000 0.000000 1.749600 
# 
# From -- ./inp_files/19477.got.cif
#   From: 2010.03.12/outbox.cif.g09.slc.cpg/sg38_10_cif.got.tgz:19477.got - 2010.04.14 02:38:36.
