data_PCOD8177694
_publ_section_title
;
Structure prediction by ZEFSAII (Michael W. Deem and Ramdas Pophale) SiO2 
 PCOD8177694
Probable space group: A M M 2
;
_chemical_formula_sum "Si O2"
_cell_formula_units_Z 48
_cell_length_a 8.939420
_cell_length_b 14.579370
_cell_length_c 20.478543
_cell_angle_alpha 90.000000
_cell_angle_beta 90.000000
_cell_angle_gamma 90.000000
_cell_volume 2668.991277
_symmetry_space_group_name_H-M "A M M 2"
_symmetry_group_IT_number 38
_symmetry_cell_setting 'orthorhombic'
loop_
_space_group_symop_operation_xyz
x,y,z
-x,-y,z
-x,y,z
x,-y,z
x,1/2+y,1/2+z
-x,1/2-y,1/2+z
-x,1/2+y,1/2+z
x,1/2-y,1/2+z
loop_
_atom_site_type_symbol
_atom_site_label
_atom_site_fract_x
_atom_site_fract_y
_atom_site_fract_z
Si Si1 0.676230 0.306514 0.464080
Si Si2 0.822766 0.194881 0.205703
Si Si3 0.177278 0.500000 0.662232
Si Si4 0.177329 0.696323 0.078829
Si Si5 0.822415 0.000000 0.770530
Si Si6 0.822149 0.691047 0.328198
Si Si7 0.823436 0.000000 0.624619
Si Si8 0.674720 0.000000 0.022489
O O1 0.500000 0.294752 0.460593
O O2 0.740266 0.236385 0.516555
O O3 0.746610 0.278892 0.395191
O O4 0.722178 0.410683 0.481481
O O5 0.764005 0.250945 0.143137
O O6 0.762803 0.239359 0.272469
O O7 0.000000 0.200777 0.205757
O O8 0.765958 0.089880 0.200954
O O9 0.237151 0.500000 0.589468
O O10 0.000000 0.500000 0.656620
O O11 0.226443 0.590181 0.085122
O O12 0.000000 0.707746 0.069997
O O13 0.766639 0.089360 0.809143
O O14 0.753470 0.000000 0.697508
O O15 0.000000 0.000000 0.765497
O O16 0.000000 0.695435 0.335811
O O17 0.000000 0.000000 0.633422
O O18 0.500000 0.000000 0.038870
#
# Coordination Sequence:
#
# PCOD8177694 Si02
#       8
#     8   8   4   8   4   8   4   4
#     4  11  23  37  51  74 110 147 180 218 262 312
#     4   9  17  30  53  81 106 131 169 218 261 308
#     4  10  18  31  54  83 107 131 170 219 266 314
#     4  10  18  33  57  82 106 137 175 217 264 316
#     4   9  15  27  52  82 106 128 164 218 272 318
#     4  10  19  33  53  78 106 137 173 216 266 319
#     4   9  16  29  55  87 111 129 165 220 271 312
#     4  10  21  35  51  74 108 142 175 219 267 310
#
# _framework density 17.984323
#
# number of rings (size 3 to 8) (size 9 to 14) (size 15 to 20)
#    0.000    2.167    3.333    1.000    0.000    0.667 
#    0.000    2.917    0.000    4.000    0.000    0.000 
#    0.000    0.000    0.000    0.000    0.000    0.000 
#
# Total GULP energy -297599.647502 kJ/mol
# GULP energy per Si atom -12399.985313 kJ/mol
# Density = 1.794339 g / cm^3
# Si number density = 17.984323 Si / 1000 Ang^3
#
#
#
# Elastic Constant Matrix: (Units=GPa)
#
#
# Indices 1 2 3 4 5 6 
#
# 1 30.7826 28.9854 38.2168 0.0000 0.0000 0.0000
# 2 28.9854 155.3585 87.6452 0.0000 0.0000 0.0000
# 3 38.2168 87.6452 173.6282 0.0000 0.0000 0.0000
# 4 0.0000 0.0000 0.0000 29.9997 0.0000 0.0000
# 5 0.0000 0.0000 0.0000 0.0000 -4.7972 0.0000
# 6 0.0000 0.0000 0.0000 0.0000 0.0000 15.6823
#
#
#
# Elastic Compliance Matrix: (Units=1/GPa)
#
#
# Indices 1 2 3 4 5 6 
#
# 1 0.046458 -0.004053 -0.008180 0.000000 0.000000 0.000000
# 2 -0.004053 0.009353 -0.003829 0.000000 0.000000 0.000000
# 3 -0.008180 -0.003829 0.009493 0.000000 0.000000 0.000000
# 4 0.000000 0.000000 0.000000 0.033334 0.000000 0.000000
# 5 0.000000 0.000000 0.000000 0.000000 -0.208453 0.000000
# 6 0.000000 0.000000 0.000000 0.000000 0.000000 0.063766
#
#
# Mechanical properties :
#
#
# Convention : Reuss Voigt Hill
#
# Bulk Modulus (GPa) = 30.13912 74.38489 52.26200
# Shear Modulus (GPa) = -1744.36039 21.83842 -861.26099
#
# Velocity S-wave (km/s) = -31.17755 3.48847 -21.90742
# Velocity P-wave (km/s) = 35.76671 7.59451 24.71418
#
# Compressibility (1/GPa) = 0.03317947
#
# Stress axis : x y z
#
# Youngs Moduli (GPa) = 21.52502 106.91552 105.34305
#
# Poissons Ratio (x) = 0.43334 0.86167
# Poissons Ratio (y) = 0.08724 0.40338
# Poissons Ratio (z) = 0.17607 0.40941
#
# Static dielectric constant tensor:
#      x y z
#    x 2.915820 0.000000 0.000000 
#    y 0.000000 3.942800 0.000000 
#    z 0.000000 0.000000 3.343150 
# 
# 
# High freq. dielectric constant tensor:
#      x y z
#    x 1.656020 0.000000 0.000000 
#    y 0.000000 1.705060 0.000000 
#    z 0.000000 0.000000 1.698190 
# 
# From -- ./inp_files/16715.got.cif
#   From: 2010.03.12/outbox.cif.g09.slc.cpg/sg38_9_cif.got.tgz:16715.got - 2010.04.14 02:38:36.
