data_PCOD8177814
_publ_section_title
;
Structure prediction by ZEFSAII (Michael W. Deem and Ramdas Pophale) SiO2 
 PCOD8177814
Probable space group: A M M 2
;
_chemical_formula_sum "Si O2"
_cell_formula_units_Z 56
_cell_length_a 9.238767
_cell_length_b 19.887020
_cell_length_c 15.089082
_cell_angle_alpha 90.000000
_cell_angle_beta 90.000000
_cell_angle_gamma 90.000000
_cell_volume 2772.340335
_symmetry_space_group_name_H-M "A M M 2"
_symmetry_group_IT_number 38
_symmetry_cell_setting 'orthorhombic'
loop_
_space_group_symop_operation_xyz
x,y,z
-x,-y,z
-x,y,z
x,-y,z
x,1/2+y,1/2+z
-x,1/2-y,1/2+z
-x,1/2+y,1/2+z
x,1/2-y,1/2+z
loop_
_atom_site_type_symbol
_atom_site_label
_atom_site_fract_x
_atom_site_fract_y
_atom_site_fract_z
Si Si1 0.833652 0.364029 0.868950
Si Si2 0.830856 0.500000 0.447575
Si Si3 0.329121 0.274711 0.368116
Si Si4 0.328656 0.373061 0.524275
Si Si5 0.167539 0.077889 0.180955
Si Si6 0.831182 0.076250 0.555506
Si Si7 0.339265 0.641103 0.200475
Si Si8 0.346231 0.000000 0.786899
O O1 0.736660 0.298328 0.867784
O O2 0.798885 0.409295 0.783637
O O3 0.000000 0.340790 0.870439
O O4 0.795091 0.409548 0.953113
O O5 0.755052 0.564501 0.485550
O O6 0.800300 0.500000 0.343266
O O7 0.000000 0.500000 0.468936
O O8 0.500000 0.270263 0.359990
O O9 0.287761 0.310314 0.461380
O O10 0.271097 0.315741 0.281633
O O11 0.500000 0.384497 0.527225
O O12 0.265084 0.368866 0.624341
O O13 0.000000 0.091858 0.159087
O O14 0.206247 0.000000 0.158365
O O15 0.758784 0.137107 0.612423
O O16 0.000000 0.081142 0.574998
O O17 0.777009 0.000000 0.576964
O O18 0.500000 0.668620 0.176207
O O19 0.347459 0.564193 0.226364
O O20 0.500000 0.000000 0.842779
#
# Coordination Sequence:
#
# PCOD8177814 Si02
#       8
#     8   4   8   8   8   8   8   4
#     4  10  23  42  61  82 117 159 198 245 296 349
#     4  12  22  32  54  89 122 153 192 241 296 354
#     4  10  23  41  59  83 119 161 198 234 287 356
#     4  11  22  38  60  87 121 157 194 242 296 351
#     4  10  21  39  63  90 116 149 197 250 303 353
#     4  10  21  38  61  89 117 150 194 244 296 347
#     4  10  20  36  59  86 117 152 190 237 292 346
#     4  10  18  34  56  81 118 157 190 231 294 352
#
# _framework density 20.199541
#
# number of rings (size 3 to 8) (size 9 to 14) (size 15 to 20)
#    0.000    1.714    2.857    1.500    0.000    6.286 
#    0.000    5.714    0.000    2.571    0.000    0.000 
#    0.000    0.000    0.000    0.000    0.000    0.000 
#
# Total GULP energy -347014.268819 kJ/mol
# GULP energy per Si atom -12393.366744 kJ/mol
# Density = 2.015357 g / cm^3
# Si number density = 20.199541 Si / 1000 Ang^3
#
#
#
# Elastic Constant Matrix: (Units=GPa)
#
#
# Indices 1 2 3 4 5 6 
#
# 1 56.3136 24.7297 45.6971 0.0000 0.0000 0.0000
# 2 24.7297 68.7769 19.4785 0.0000 0.0000 0.0000
# 3 45.6971 19.4785 127.2049 0.0000 0.0000 0.0000
# 4 0.0000 0.0000 0.0000 78.3029 0.0000 0.0000
# 5 0.0000 0.0000 0.0000 0.0000 30.6754 0.0000
# 6 0.0000 0.0000 0.0000 0.0000 0.0000 30.2321
#
#
#
# Elastic Compliance Matrix: (Units=1/GPa)
#
#
# Indices 1 2 3 4 5 6 
#
# 1 0.028475 -0.007674 -0.009054 0.000000 0.000000 0.000000
# 2 -0.007674 0.017267 0.000113 0.000000 0.000000 0.000000
# 3 -0.009054 0.000113 0.011097 0.000000 0.000000 0.000000
# 4 0.000000 0.000000 0.000000 0.012771 0.000000 0.000000
# 5 0.000000 0.000000 0.000000 0.000000 0.032599 0.000000
# 6 0.000000 0.000000 0.000000 0.000000 0.000000 0.033077
#
#
# Mechanical properties :
#
#
# Convention : Reuss Voigt Hill
#
# Bulk Modulus (GPa) = 42.35932 48.01178 45.18555
# Shear Modulus (GPa) = 28.34668 38.66808 33.50738
#
# Velocity S-wave (km/s) = 3.75017 4.38002 4.07728
# Velocity P-wave (km/s) = 6.30616 7.02850 6.67711
#
# Compressibility (1/GPa) = 0.02360755
#
# Stress axis : x y z
#
# Youngs Moduli (GPa) = 35.11838 57.91319 90.11688
#
# Poissons Ratio (x) = 0.44445 0.81594
# Poissons Ratio (y) = 0.26951 -0.01017
# Poissons Ratio (z) = 0.31797 -0.00654
#
# Static dielectric constant tensor:
#      x y z
#    x 4.064580 0.000000 0.000000 
#    y 0.000000 3.341210 0.000000 
#    z 0.000000 0.000000 4.118690 
# 
# 
# High freq. dielectric constant tensor:
#      x y z
#    x 1.778990 0.000000 0.000000 
#    y 0.000000 1.777290 0.000000 
#    z 0.000000 0.000000 1.804320 
# 
# From -- ./inp_files/12496.got.cif
#   From: 2010.03.12/outbox.cif.g09.slc.cpg/sg38_7_cif.got.tgz:12496.got - 2010.04.14 02:38:36.
