data_PCOD8177942
_publ_section_title
;
Structure prediction by ZEFSAII (Michael W. Deem and Ramdas Pophale) SiO2 
 PCOD8177942
Probable space group: A M M 2
;
_chemical_formula_sum "Si O2"
_cell_formula_units_Z 64
_cell_length_a 9.246525
_cell_length_b 21.904330
_cell_length_c 15.284612
_cell_angle_alpha 90.000000
_cell_angle_beta 90.000000
_cell_angle_gamma 90.000000
_cell_volume 3095.729036
_symmetry_space_group_name_H-M "A M M 2"
_symmetry_group_IT_number 38
_symmetry_cell_setting 'orthorhombic'
loop_
_space_group_symop_operation_xyz
x,y,z
-x,-y,z
-x,y,z
x,-y,z
x,1/2+y,1/2+z
-x,1/2-y,1/2+z
-x,1/2+y,1/2+z
x,1/2-y,1/2+z
loop_
_atom_site_type_symbol
_atom_site_label
_atom_site_fract_x
_atom_site_fract_y
_atom_site_fract_z
Si Si1 0.669526 0.318478 0.235410
Si Si2 0.332242 0.304379 0.431092
Si Si3 0.168696 0.569950 0.183376
Si Si4 0.162068 0.893472 0.161099
Si Si5 0.163717 0.758034 0.090305
Si Si6 0.666233 0.066448 0.002400
Si Si7 0.158036 0.072285 0.487183
Si Si8 0.335991 0.927631 0.325390
O O1 0.500000 0.321397 0.214720
O O2 0.697436 0.286682 0.329903
O O3 0.733018 0.387082 0.243871
O O4 0.749658 0.283577 0.157893
O O5 0.500000 0.295243 0.455188
O O6 0.239597 0.260345 0.494646
O O7 0.287902 0.376167 0.442414
O O8 0.217765 0.500000 0.196757
O O9 0.199347 0.593350 0.084490
O O10 0.000000 0.577229 0.206872
O O11 0.162171 0.824878 0.128894
O O12 0.242789 0.894424 0.252825
O O13 0.000000 0.918570 0.173393
O O14 0.242995 0.935651 0.091603
O O15 0.000000 0.732848 0.079327
O O16 0.500000 0.073404 0.030257
O O17 0.692081 0.000000 0.955582
O O18 0.277817 0.095558 0.419206
O O19 0.000000 0.098490 0.460917
O O20 0.149207 0.000000 0.487456
O O21 0.500000 0.905570 0.317058
O O22 0.320743 0.000000 0.315687
#
# Coordination Sequence:
#
# PCOD8177942 Si02
#       8
#     8   8   8   8   8   8   8   8
#     4  11  23  39  63  92 120 153 193 240 296 355
#     4   9  20  39  61  86 118 154 193 241 292 346
#     4   9  19  37  60  86 118 155 192 233 285 344
#     4  10  20  33  50  74 105 144 191 239 287 340
#     4  10  22  41  62  83 111 151 197 246 295 346
#     4   9  17  31  53  80 112 149 185 225 280 342
#     4   8  15  30  50  71 101 142 184 227 274 324
#     4  10  19  29  45  73 108 146 188 234 287 344
#
# _framework density 20.673642000000001
#
# number of rings (size 3 to 8) (size 9 to 14) (size 15 to 20)
#    0.000    2.500    0.000    2.625    0.000    6.250 
#    2.250    2.500    0.000    0.000    0.000    0.000 
#    0.000    0.000    0.000    0.000    0.000    0.000 
#
# Total GULP energy -396688.130491 kJ/mol
# GULP energy per Si atom -12396.504078 kJ/mol
# Density = 2.062659 g / cm^3
# Si number density = 20.673642 Si / 1000 Ang^3
#
#
#
# Elastic Constant Matrix: (Units=GPa)
#
#
# Indices 1 2 3 4 5 6 
#
# 1 125.6728 32.8503 62.0013 0.0000 0.0000 0.0000
# 2 32.8503 46.1827 29.8440 0.0000 0.0000 0.0000
# 3 62.0013 29.8440 104.7345 0.0000 0.0000 0.0000
# 4 0.0000 0.0000 0.0000 20.8473 0.0000 0.0000
# 5 0.0000 0.0000 0.0000 0.0000 28.8538 0.0000
# 6 0.0000 0.0000 0.0000 0.0000 0.0000 28.0183
#
#
#
# Elastic Compliance Matrix: (Units=1/GPa)
#
#
# Indices 1 2 3 4 5 6 
#
# 1 0.012070 -0.004864 -0.005759 0.000000 0.000000 0.000000
# 2 -0.004864 0.028500 -0.005242 0.000000 0.000000 0.000000
# 3 -0.005759 -0.005242 0.014451 0.000000 0.000000 0.000000
# 4 0.000000 0.000000 0.000000 0.047968 0.000000 0.000000
# 5 0.000000 0.000000 0.000000 0.000000 0.034658 0.000000
# 6 0.000000 0.000000 0.000000 0.000000 0.000000 0.035691
#
#
# Mechanical properties :
#
#
# Convention : Reuss Voigt Hill
#
# Bulk Modulus (GPa) = 42.93437 58.44235 50.68836
# Shear Modulus (GPa) = 23.49283 25.67017 24.58150
#
# Velocity S-wave (km/s) = 3.37466 3.52758 3.45197
# Velocity P-wave (km/s) = 5.99977 6.70240 6.36079
#
# Compressibility (1/GPa) = 0.02329136
#
# Stress axis : x y z
#
# Youngs Moduli (GPa) = 82.85073 35.08754 69.19928
#
# Poissons Ratio (x) = 0.17066 0.39854
# Poissons Ratio (y) = 0.40296 0.36273
# Poissons Ratio (z) = 0.47716 0.18392
#
# Static dielectric constant tensor:
#      x y z
#    x 3.939030 0.000000 0.000000 
#    y 0.000000 3.600380 0.000000 
#    z 0.000000 0.000000 3.751060 
# 
# 
# High freq. dielectric constant tensor:
#      x y z
#    x 1.810160 0.000000 0.000000 
#    y 0.000000 1.796870 0.000000 
#    z 0.000000 0.000000 1.803130 
# 
# From -- ./inp_files/12747.got.cif
#   From: 2010.03.12/outbox.cif.g09.slc.cpg/sg38_7_cif.got.tgz:12747.got - 2010.04.14 02:38:36.
