data_PCOD8177351
_publ_section_title
;
Structure prediction by ZEFSAII (Michael W. Deem and Ramdas Pophale) SiO2 
 PCOD8177351
Probable space group: A M M 2
;
_chemical_formula_sum "Si O2"
_cell_formula_units_Z 64
_cell_length_a 9.466695
_cell_length_b 18.408684
_cell_length_c 26.313601
_cell_angle_alpha 90.000000
_cell_angle_beta 90.000000
_cell_angle_gamma 90.000000
_cell_volume 4585.655373
_symmetry_space_group_name_H-M "A M M 2"
_symmetry_group_IT_number 38
_symmetry_cell_setting 'orthorhombic'
loop_
_space_group_symop_operation_xyz
x,y,z
-x,-y,z
-x,y,z
x,-y,z
x,1/2+y,1/2+z
-x,1/2-y,1/2+z
-x,1/2+y,1/2+z
x,1/2-y,1/2+z
loop_
_atom_site_type_symbol
_atom_site_label
_atom_site_fract_x
_atom_site_fract_y
_atom_site_fract_z
Si Si1 0.168118 0.919259 0.467360
Si Si2 0.167187 0.080518 0.272592
Si Si3 0.842904 0.302777 0.421779
Si Si4 0.831406 0.163192 0.369239
Si Si5 0.334487 0.333997 0.573921
Si Si6 0.162701 0.414595 0.658584
Si Si7 0.842243 0.716105 0.026447
Si Si8 0.664121 0.082455 0.970893
O O1 0.227716 0.889717 0.413526
O O2 0.212665 0.865543 0.513651
O O3 0.000000 0.920866 0.464392
O O4 0.229282 0.000000 0.477517
O O5 0.228578 0.135822 0.314932
O O6 0.205151 0.107638 0.216057
O O7 0.000000 0.075511 0.277888
O O8 0.230641 0.000000 0.282062
O O9 0.783190 0.246795 0.379050
O O10 0.847588 0.259205 0.474028
O O11 0.743051 0.372777 0.426750
O O12 0.000000 0.330130 0.407596
O O13 0.000000 0.161475 0.370596
O O14 0.500000 0.323468 0.583029
O O15 0.266402 0.370091 0.622969
O O16 0.265139 0.254788 0.565239
O O17 0.302058 0.385987 0.526366
O O18 0.186245 0.500000 0.650301
O O19 0.000000 0.394266 0.646856
O O20 0.000000 0.714602 0.050465
O O21 0.500000 0.087510 0.958511
O O22 0.718961 0.000000 0.969740
#
# Coordination Sequence:
#
# PCOD8177351 Si02
#       8
#     8   8   8   8   8   8   8   8
#     4   8  12  18  32  55  79 101 124 149 177 210
#     4   8  13  21  34  53  76 100 124 149 177 209
#     4   8  14  23  35  53  74  95 119 147 179 212
#     4   8  12  19  33  53  77 101 123 147 174 207
#     4  10  18  27  39  52  69  97 130 158 185 218
#     4   9  17  27  38  54  75  97 123 155 187 216
#     4   8  14  24  36  52  75  98 121 151 183 215
#     4   9  17  27  37  50  69  94 124 154 182 215
#
# _framework density 13.956566
#
# number of rings (size 3 to 8) (size 9 to 14) (size 15 to 20)
#    0.000    3.500    0.000    3.375    0.000    3.000 
#    0.000    0.000    0.000    1.125    0.000    0.000 
#    0.000    4.000    0.000    7.250    0.000    2.125 
#
# Total GULP energy -396528.063637 kJ/mol
# GULP energy per Si atom -12391.501989 kJ/mol
# Density = 1.392480 g / cm^3
# Si number density = 13.956566 Si / 1000 Ang^3
#
#
#
# Elastic Constant Matrix: (Units=GPa)
#
#
# Indices 1 2 3 4 5 6 
#
# 1 43.4730 40.4655 35.9589 0.0000 0.0000 0.0000
# 2 40.4655 111.0237 55.1988 0.0000 0.0000 0.0000
# 3 35.9589 55.1988 78.3546 0.0000 0.0000 0.0000
# 4 0.0000 0.0000 0.0000 24.3161 0.0000 0.0000
# 5 0.0000 0.0000 0.0000 0.0000 9.3009 0.0000
# 6 0.0000 0.0000 0.0000 0.0000 0.0000 9.2736
#
#
#
# Elastic Compliance Matrix: (Units=1/GPa)
#
#
# Indices 1 2 3 4 5 6 
#
# 1 0.042024 -0.008816 -0.013075 0.000000 0.000000 0.000000
# 2 -0.008816 0.015712 -0.007023 0.000000 0.000000 0.000000
# 3 -0.013075 -0.007023 0.023710 0.000000 0.000000 0.000000
# 4 0.000000 0.000000 0.000000 0.041125 0.000000 0.000000
# 5 0.000000 0.000000 0.000000 0.000000 0.107516 0.000000
# 6 0.000000 0.000000 0.000000 0.000000 0.000000 0.107833
#
#
# Mechanical properties :
#
#
# Convention : Reuss Voigt Hill
#
# Bulk Modulus (GPa) = 42.33991 55.12197 48.73094
# Shear Modulus (GPa) = 12.38786 15.32668 13.85727
#
# Velocity S-wave (km/s) = 2.98249 3.31746 3.15443
# Velocity P-wave (km/s) = 6.50101 7.36581 6.94688
#
# Compressibility (1/GPa) = 0.02361838
#
# Stress axis : x y z
#
# Youngs Moduli (GPa) = 23.79584 63.64618 42.17563
#
# Poissons Ratio (x) = 0.56111 0.55146
# Poissons Ratio (y) = 0.20978 0.29619
# Poissons Ratio (z) = 0.31114 0.44697
#
# Static dielectric constant tensor:
#      x y z
#    x 2.513720 0.000000 0.000000 
#    y 0.000000 3.019540 0.000000 
#    z 0.000000 0.000000 2.711490 
# 
# 
# High freq. dielectric constant tensor:
#      x y z
#    x 1.501760 0.000000 0.000000 
#    y 0.000000 1.525930 0.000000 
#    z 0.000000 0.000000 1.502790 
# 
# From -- ./inp_files/23643.got.cif
#   From: 2010.03.12/outbox.cif.g09.slc.cpg/sg38_12_cif.got.tgz:23643.got - 2010.04.14 02:38:36.
