data_PCOD8177199
_publ_section_title
;
Structure prediction by ZEFSAII (Michael W. Deem and Ramdas Pophale) SiO2 
 PCOD8177199
Probable space group: A M M 2
;
_chemical_formula_sum "Si O2"
_cell_formula_units_Z 64
_cell_length_a 9.030806
_cell_length_b 30.272928
_cell_length_c 14.800913
_cell_angle_alpha 90.000000
_cell_angle_beta 90.000000
_cell_angle_gamma 90.000000
_cell_volume 4046.405913
_symmetry_space_group_name_H-M "A M M 2"
_symmetry_group_IT_number 38
_symmetry_cell_setting 'orthorhombic'
loop_
_space_group_symop_operation_xyz
x,y,z
-x,-y,z
-x,y,z
x,-y,z
x,1/2+y,1/2+z
-x,1/2-y,1/2+z
-x,1/2+y,1/2+z
x,1/2-y,1/2+z
loop_
_atom_site_type_symbol
_atom_site_label
_atom_site_fract_x
_atom_site_fract_y
_atom_site_fract_z
Si Si1 0.674411 0.362523 0.442440
Si Si2 0.666537 0.675014 0.256323
Si Si3 0.674465 0.048515 0.873870
Si Si4 0.334651 0.222299 0.267025
Si Si5 0.323034 0.800174 0.460720
Si Si6 0.172247 0.450590 0.185769
Si Si7 0.677594 0.286759 0.569248
Si Si8 0.173306 0.363104 0.090477
O O1 0.500000 0.355040 0.445885
O O2 0.732086 0.349102 0.343830
O O3 0.717681 0.414735 0.450298
O O4 0.741562 0.330858 0.519798
O O5 0.500000 0.658737 0.230888
O O6 0.661778 0.725815 0.281473
O O7 0.777428 0.666513 0.174790
O O8 0.500000 0.049039 0.858943
O O9 0.742499 0.060927 0.777359
O O10 0.729001 0.000000 0.906623
O O11 0.500000 0.203054 0.261572
O O12 0.260208 0.202001 0.357563
O O13 0.255267 0.211136 0.171266
O O14 0.500000 0.801583 0.461811
O O15 0.267308 0.757329 0.517462
O O16 0.258974 0.845347 0.502577
O O17 0.213096 0.500000 0.150904
O O18 0.214865 0.414603 0.109156
O O19 0.000000 0.447046 0.209158
O O20 0.500000 0.285322 0.573208
O O21 0.000000 0.357018 0.074519
#
# Coordination Sequence:
#
# PCOD8177199 Si02
#       8
#     8   8   8   8   8   8   8   8
#     4   9  15  23  39  64  90 115 142 174 213 250
#     4  10  16  26  45  65  87 115 146 178 208 244
#     4   9  16  25  40  64  90 113 141 178 216 252
#     4   9  16  26  43  66  85 109 149 185 209 242
#     4  10  18  29  46  64  83 110 147 184 214 250
#     4   9  18  31  44  59  83 114 144 173 208 257
#     4   9  15  24  42  65  86 110 146 183 209 244
#     4  11  21  30  42  64  90 116 144 174 217 261
#
# _framework density 15.816506
#
# number of rings (size 3 to 8) (size 9 to 14) (size 15 to 20)
#    0.000    2.500    3.750    0.375    0.000    0.500 
#    0.000    0.625    0.000    0.750    0.000    0.875 
#    0.000    3.000    0.000    0.000    0.000    0.000 
#
# Total GULP energy -396451.957336 kJ/mol
# GULP energy per Si atom -12389.123667 kJ/mol
# Density = 1.578051 g / cm^3
# Si number density = 15.816506 Si / 1000 Ang^3
#
#
#
# Elastic Constant Matrix: (Units=GPa)
#
#
# Indices 1 2 3 4 5 6 
#
# 1 16.9425 18.3838 17.1277 0.0000 0.0000 0.0000
# 2 18.3838 108.2672 54.2013 0.0000 0.0000 0.0000
# 3 17.1277 54.2013 98.1892 0.0000 0.0000 0.0000
# 4 0.0000 0.0000 0.0000 23.8191 0.0000 0.0000
# 5 0.0000 0.0000 0.0000 0.0000 5.2256 0.0000
# 6 0.0000 0.0000 0.0000 0.0000 0.0000 13.9593
#
#
#
# Elastic Compliance Matrix: (Units=1/GPa)
#
#
# Indices 1 2 3 4 5 6 
#
# 1 0.077296 -0.008809 -0.008620 0.000000 0.000000 0.000000
# 2 -0.008809 0.013768 -0.006063 0.000000 0.000000 0.000000
# 3 -0.008620 -0.006063 0.015035 0.000000 0.000000 0.000000
# 4 0.000000 0.000000 0.000000 0.041983 0.000000 0.000000
# 5 0.000000 0.000000 0.000000 0.000000 0.191365 0.000000
# 6 0.000000 0.000000 0.000000 0.000000 0.000000 0.071637
#
#
# Mechanical properties :
#
#
# Convention : Reuss Voigt Hill
#
# Bulk Modulus (GPa) = 16.91669 44.75828 30.83748
# Shear Modulus (GPa) = 10.46520 17.51322 13.98921
#
# Velocity S-wave (km/s) = 2.57507 3.33118 2.97723
# Velocity P-wave (km/s) = 4.42268 6.56929 5.59981
#
# Compressibility (1/GPa) = 0.05911321
#
# Stress axis : x y z
#
# Youngs Moduli (GPa) = 12.93721 72.63418 66.51131
#
# Poissons Ratio (x) = 0.63986 0.57335
# Poissons Ratio (y) = 0.11397 0.40327
# Poissons Ratio (z) = 0.11152 0.44039
#
# Static dielectric constant tensor:
#      x y z
#    x 2.686590 0.000000 0.000000 
#    y 0.000000 3.264750 0.000000 
#    z 0.000000 0.000000 3.074280 
# 
# 
# High freq. dielectric constant tensor:
#      x y z
#    x 1.568010 0.000000 0.000000 
#    y 0.000000 1.606590 0.000000 
#    z 0.000000 0.000000 1.585910 
# 
# From -- ./inp_files/13079.got.cif
#   From: 2010.03.12/outbox.cif.g09.slc.cpg/sg38_7_cif.got.tgz:13079.got - 2010.04.14 02:38:36.
