data_PCOD8177796
_publ_section_title
;
Structure prediction by ZEFSAII (Michael W. Deem and Ramdas Pophale) SiO2 
 PCOD8177796
Probable space group: A M M 2
;
_chemical_formula_sum "Si O2"
_cell_formula_units_Z 64
_cell_length_a 9.018667
_cell_length_b 15.493169
_cell_length_c 23.844855
_cell_angle_alpha 90.000000
_cell_angle_beta 90.000000
_cell_angle_gamma 90.000000
_cell_volume 3331.787509
_symmetry_space_group_name_H-M "A M M 2"
_symmetry_group_IT_number 38
_symmetry_cell_setting 'orthorhombic'
loop_
_space_group_symop_operation_xyz
x,y,z
-x,-y,z
-x,y,z
x,-y,z
x,1/2+y,1/2+z
-x,1/2-y,1/2+z
-x,1/2+y,1/2+z
x,1/2-y,1/2+z
loop_
_atom_site_type_symbol
_atom_site_label
_atom_site_fract_x
_atom_site_fract_y
_atom_site_fract_z
Si Si1 0.323996 0.904966 0.606500
Si Si2 0.824472 0.405473 0.850542
Si Si3 0.176017 0.743236 0.420231
Si Si4 0.675868 0.759351 0.039188
Si Si5 0.829329 0.665356 0.732101
Si Si6 0.169551 0.402072 0.611228
Si Si7 0.675214 0.345470 0.226538
Si Si8 0.830508 0.903567 0.835235
O O1 0.500000 0.900748 0.606822
O O2 0.263150 0.830798 0.565070
O O3 0.265143 0.888718 0.669358
O O4 0.269023 0.000000 0.586468
O O5 0.761422 0.500000 0.867893
O O6 0.763919 0.332258 0.892743
O O7 0.776234 0.386953 0.786719
O O8 0.000000 0.405873 0.854233
O O9 0.253023 0.728283 0.479012
O O10 0.228027 0.664547 0.380773
O O11 0.000000 0.743761 0.428487
O O12 0.500000 0.759008 0.033872
O O13 0.721861 0.838232 0.078783
O O14 0.807159 0.605689 0.677931
O O15 0.725982 0.747500 0.727120
O O16 0.000000 0.695218 0.738731
O O17 0.207841 0.500000 0.593796
O O18 0.000000 0.379507 0.595250
O O19 0.500000 0.348951 0.229715
O O20 0.738092 0.398527 0.278471
O O21 0.000000 0.881652 0.820362
O O22 0.813992 0.000000 0.860253
#
# Coordination Sequence:
#
# PCOD8177796 Si02
#       8
#     8   8   8   8   8   8   8   8
#     4   9  19  36  56  79 111 151 187 221 274 337
#     4   9  17  32  57  85 112 143 180 224 275 331
#     4  10  21  38  57  80 110 147 189 234 281 329
#     4  11  23  39  58  81 111 150 193 238 282 330
#     4  10  18  33  58  86 116 147 182 223 275 335
#     4  10  21  37  60  88 116 148 186 230 282 339
#     4  11  20  33  57  86 117 149 182 222 277 338
#     4  10  21  38  59  83 111 145 185 230 280 332
#
# _framework density 19.208909999999999
#
# number of rings (size 3 to 8) (size 9 to 14) (size 15 to 20)
#    0.000    2.000    2.500    1.500    0.000    4.000 
#    0.000    1.250    0.000    5.250    0.000    0.000 
#    0.000    0.000    0.000    0.000    0.000    0.000 
#
# Total GULP energy -396796.907055 kJ/mol
# GULP energy per Si atom -12399.903345 kJ/mol
# Density = 1.916519 g / cm^3
# Si number density = 19.208910 Si / 1000 Ang^3
#
#
#
# Elastic Constant Matrix: (Units=GPa)
#
#
# Indices 1 2 3 4 5 6 
#
# 1 36.9134 17.3393 24.6394 0.0000 0.0000 0.0000
# 2 17.3393 128.6975 31.0715 0.0000 0.0000 0.0000
# 3 24.6394 31.0715 95.4164 0.0000 0.0000 0.0000
# 4 0.0000 0.0000 0.0000 15.2875 0.0000 0.0000
# 5 0.0000 0.0000 0.0000 0.0000 21.8099 0.0000
# 6 0.0000 0.0000 0.0000 0.0000 0.0000 22.6698
#
#
#
# Elastic Compliance Matrix: (Units=1/GPa)
#
#
# Indices 1 2 3 4 5 6 
#
# 1 0.033536 -0.002635 -0.007802 0.000000 0.000000 0.000000
# 2 -0.002635 0.008640 -0.002133 0.000000 0.000000 0.000000
# 3 -0.007802 -0.002133 0.013190 0.000000 0.000000 0.000000
# 4 0.000000 0.000000 0.000000 0.065413 0.000000 0.000000
# 5 0.000000 0.000000 0.000000 0.000000 0.045851 0.000000
# 6 0.000000 0.000000 0.000000 0.000000 0.000000 0.044112
#
#
# Mechanical properties :
#
#
# Convention : Reuss Voigt Hill
#
# Bulk Modulus (GPa) = 33.08416 45.23641 39.16028
# Shear Modulus (GPa) = 20.32883 24.48524 22.40703
#
# Velocity S-wave (km/s) = 3.25669 3.57414 3.41910
# Velocity P-wave (km/s) = 5.60375 6.37444 6.00148
#
# Compressibility (1/GPa) = 0.03022595
#
# Stress axis : x y z
#
# Youngs Moduli (GPa) = 29.81892 115.73879 75.81633
#
# Poissons Ratio (x) = 0.30492 0.59152
# Poissons Ratio (y) = 0.07856 0.16174
# Poissons Ratio (z) = 0.23265 0.24690
#
# Static dielectric constant tensor:
#      x y z
#    x 3.203450 0.000000 0.000000 
#    y 0.000000 3.832010 0.000000 
#    z 0.000000 0.000000 3.558450 
# 
# 
# High freq. dielectric constant tensor:
#      x y z
#    x 1.714770 0.000000 0.000000 
#    y 0.000000 1.763750 0.000000 
#    z 0.000000 0.000000 1.746980 
# 
# From -- ./inp_files/22152.got.cif
#   From: 2010.03.12/outbox.cif.g09.slc.cpg/sg38_12_cif.got.tgz:22152.got - 2010.04.14 02:38:36.
