data_PCOD8177993
_publ_section_title
;
Structure prediction by ZEFSAII (Michael W. Deem and Ramdas Pophale) SiO2 
 PCOD8177993
Probable space group: A M M 2
;
_chemical_formula_sum "Si O2"
_cell_formula_units_Z 56
_cell_length_a 8.935976
_cell_length_b 20.572831
_cell_length_c 18.197387
_cell_angle_alpha 90.000000
_cell_angle_beta 90.000000
_cell_angle_gamma 90.000000
_cell_volume 3345.377128
_symmetry_space_group_name_H-M "A M M 2"
_symmetry_group_IT_number 38
_symmetry_cell_setting 'orthorhombic'
loop_
_space_group_symop_operation_xyz
x,y,z
-x,-y,z
-x,y,z
x,-y,z
x,1/2+y,1/2+z
-x,1/2-y,1/2+z
-x,1/2+y,1/2+z
x,1/2-y,1/2+z
loop_
_atom_site_type_symbol
_atom_site_label
_atom_site_fract_x
_atom_site_fract_y
_atom_site_fract_z
Si Si1 0.174242 0.367709 0.274200
Si Si2 0.174990 0.740894 0.541031
Si Si3 0.827056 0.622503 0.964818
Si Si4 0.667635 0.318296 0.409834
Si Si5 0.675967 0.500000 0.037706
Si Si6 0.170475 0.000000 0.691329
Si Si7 0.665237 0.821216 0.335384
Si Si8 0.677069 0.749518 0.694578
O O1 0.251112 0.367604 0.354223
O O2 0.203386 0.438038 0.240995
O O3 0.244066 0.315979 0.218357
O O4 0.000000 0.351444 0.283533
O O5 0.207920 0.813540 0.512429
O O6 0.236659 0.687327 0.484251
O O7 0.262496 0.728368 0.615949
O O8 0.000000 0.729491 0.552954
O O9 0.735140 0.563968 0.998282
O O10 0.779713 0.633141 0.879714
O O11 0.000000 0.604130 0.966558
O O12 0.500000 0.343383 0.427532
O O13 0.660077 0.249179 0.371296
O O14 0.500000 0.500000 0.031600
O O15 0.720984 0.500000 0.122332
O O16 0.000000 0.000000 0.662076
O O17 0.500000 0.853103 0.338814
O O18 0.716024 0.809552 0.251012
O O19 0.500000 0.761937 0.692315
#
# Coordination Sequence:
#
# PCOD8177993 Si02
#       8
#     8   8   8   8   4   4   8   8
#     4  10  19  32  48  66  92 126 161 195 231 276
#     4  10  19  30  47  71  96 124 156 192 234 279
#     4  10  20  33  48  66  92 124 158 194 230 271
#     4   9  17  30  47  67  92 121 153 192 235 280
#     4  12  24  34  48  68  93 126 161 194 228 270
#     4  10  22  36  48  66  95 128 161 196 230 266
#     4   8  16  30  46  65  90 119 152 188 230 278
#     4  10  19  30  46  70  98 125 153 192 237 278
#
# _framework density 16.739516999999999
#
# number of rings (size 3 to 8) (size 9 to 14) (size 15 to 20)
#    0.000    2.286    0.000    4.500    0.000   10.286 
#    0.000    0.000    0.000    0.000    0.000    1.000 
#    0.000    4.571    0.000    0.000    0.000    0.000 
#
# Total GULP energy -347194.926638 kJ/mol
# GULP energy per Si atom -12399.818809 kJ/mol
# Density = 1.670142 g / cm^3
# Si number density = 16.739517 Si / 1000 Ang^3
#
#
#
# Elastic Constant Matrix: (Units=GPa)
#
#
# Indices 1 2 3 4 5 6 
#
# 1 120.5805 48.5207 60.5956 0.0000 0.0000 0.0000
# 2 48.5207 55.3377 47.6581 0.0000 0.0000 0.0000
# 3 60.5956 47.6581 126.8488 0.0000 0.0000 0.0000
# 4 0.0000 0.0000 0.0000 11.4774 0.0000 0.0000
# 5 0.0000 0.0000 0.0000 0.0000 35.0591 0.0000
# 6 0.0000 0.0000 0.0000 0.0000 0.0000 19.3423
#
#
#
# Elastic Compliance Matrix: (Units=1/GPa)
#
#
# Indices 1 2 3 4 5 6 
#
# 1 0.013529 -0.009308 -0.002966 0.000000 0.000000 0.000000
# 2 -0.009308 0.033119 -0.007997 0.000000 0.000000 0.000000
# 3 -0.002966 -0.007997 0.012304 0.000000 0.000000 0.000000
# 4 0.000000 0.000000 0.000000 0.087127 0.000000 0.000000
# 5 0.000000 0.000000 0.000000 0.000000 0.028523 0.000000
# 6 0.000000 0.000000 0.000000 0.000000 0.000000 0.051700
#
#
# Mechanical properties :
#
#
# Convention : Reuss Voigt Hill
#
# Bulk Modulus (GPa) = 54.31313 68.47952 61.39633
# Shear Modulus (GPa) = 18.31618 22.90861 20.61240
#
# Velocity S-wave (km/s) = 3.31144 3.70338 3.51288
# Velocity P-wave (km/s) = 6.86566 7.69964 7.29458
#
# Compressibility (1/GPa) = 0.01841175
#
# Stress axis : x y z
#
# Youngs Moduli (GPa) = 73.91419 30.19371 81.27133
#
# Poissons Ratio (x) = 0.28106 0.24102
# Poissons Ratio (y) = 0.68803 0.64989
# Poissons Ratio (z) = 0.21920 0.24145
#
# Static dielectric constant tensor:
#      x y z
#    x 3.361660 0.000000 0.000000 
#    y 0.000000 2.849540 0.000000 
#    z 0.000000 0.000000 3.389540 
# 
# 
# High freq. dielectric constant tensor:
#      x y z
#    x 1.662950 0.000000 0.000000 
#    y 0.000000 1.601050 0.000000 
#    z 0.000000 0.000000 1.650850 
# 
# From -- ./inp_files/12468.got.cif
#   From: 2010.03.12/outbox.cif.g09.slc.cpg/sg38_7_cif.got.tgz:12468.got - 2010.04.14 02:38:36.
