data_PCOD8177873
_publ_section_title
;
Structure prediction by ZEFSAII (Michael W. Deem and Ramdas Pophale) SiO2 
 PCOD8177873
Probable space group: A M M 2
;
_chemical_formula_sum "Si O2"
_cell_formula_units_Z 56
_cell_length_a 9.208379
_cell_length_b 13.532629
_cell_length_c 28.882507
_cell_angle_alpha 90.000000
_cell_angle_beta 90.000000
_cell_angle_gamma 90.000000
_cell_volume 3599.152501
_symmetry_space_group_name_H-M "A M M 2"
_symmetry_group_IT_number 38
_symmetry_cell_setting 'orthorhombic'
loop_
_space_group_symop_operation_xyz
x,y,z
-x,-y,z
-x,y,z
x,-y,z
x,1/2+y,1/2+z
-x,1/2-y,1/2+z
-x,1/2+y,1/2+z
x,1/2-y,1/2+z
loop_
_atom_site_type_symbol
_atom_site_label
_atom_site_fract_x
_atom_site_fract_y
_atom_site_fract_z
Si Si1 0.670859 0.386834 0.663670
Si Si2 0.330398 0.800096 0.886222
Si Si3 0.334112 0.610623 0.830346
Si Si4 0.169185 0.200553 0.247603
Si Si5 0.830562 0.115454 0.972028
Si Si6 0.339722 0.882965 0.060911
Si Si7 0.834455 0.889510 0.803613
O O1 0.500000 0.377896 0.672535
O O2 0.721529 0.500000 0.671015
O O3 0.755387 0.316054 0.698571
O O4 0.710456 0.348282 0.612007
O O5 0.500000 0.821081 0.892651
O O6 0.297373 0.687016 0.871451
O O7 0.250571 0.819267 0.934212
O O8 0.270022 0.873454 0.847178
O O9 0.500000 0.625729 0.813898
O O10 0.308074 0.500000 0.849432
O O11 0.233055 0.627025 0.786041
O O12 0.201281 0.313658 0.262358
O O13 0.000000 0.178142 0.242771
O O14 0.000000 0.137197 0.969116
O O15 0.795640 0.000000 0.963860
O O16 0.774513 0.151616 0.022212
O O17 0.500000 0.840100 0.049086
O O18 0.350342 0.000000 0.062516
O O19 0.000000 0.874284 0.820892
O O20 0.809966 0.000000 0.784372
#
# Coordination Sequence:
#
# PCOD8177873 Si02
#       7
#     8   8   8   8   8   8   8
#     4   9  17  29  44  62  87 117 142 167 206 252
#     4  10  19  29  44  65  85 109 143 177 208 246
#     4   9  18  32  46  60  83 114 144 174 209 248
#     4  10  19  28  42  65  87 110 143 177 209 247
#     4  10  19  29  42  62  89 117 140 167 208 253
#     4   8  15  28  44  61  82 110 143 174 204 244
#     4   9  18  32  45  58  83 116 145 175 211 248
#
# _framework density 15.559218
#
# number of rings (size 3 to 8) (size 9 to 14) (size 15 to 20)
#    0.000    2.714    0.000    3.000    0.000    6.857 
#    0.000    1.429    0.000    0.000    0.000    1.000 
#    0.000    1.143    0.000    0.000    0.000    0.000 
#
# Total GULP energy -347167.241800 kJ/mol
# GULP energy per Si atom -12398.830064 kJ/mol
# Density = 1.552380 g / cm^3
# Si number density = 15.559218 Si / 1000 Ang^3
#
#
#
# Elastic Constant Matrix: (Units=GPa)
#
#
# Indices 1 2 3 4 5 6 
#
# 1 85.1672 38.0776 68.2118 0.0000 0.0000 0.0000
# 2 38.0776 79.5547 47.7683 0.0000 0.0000 0.0000
# 3 68.2118 47.7683 129.3550 0.0000 0.0000 0.0000
# 4 0.0000 0.0000 0.0000 20.2336 0.0000 0.0000
# 5 0.0000 0.0000 0.0000 0.0000 24.3533 0.0000
# 6 0.0000 0.0000 0.0000 0.0000 0.0000 19.6026
#
#
#
# Elastic Compliance Matrix: (Units=1/GPa)
#
#
# Indices 1 2 3 4 5 6 
#
# 1 0.021499 -0.004475 -0.009684 0.000000 0.000000 0.000000
# 2 -0.004475 0.017083 -0.003948 0.000000 0.000000 0.000000
# 3 -0.009684 -0.003948 0.014295 0.000000 0.000000 0.000000
# 4 0.000000 0.000000 0.000000 0.049423 0.000000 0.000000
# 5 0.000000 0.000000 0.000000 0.000000 0.041062 0.000000
# 6 0.000000 0.000000 0.000000 0.000000 0.000000 0.051014
#
#
# Mechanical properties :
#
#
# Convention : Reuss Voigt Hill
#
# Bulk Modulus (GPa) = 60.01943 66.91024 63.46483
# Shear Modulus (GPa) = 21.17349 22.17253 21.67301
#
# Velocity S-wave (km/s) = 3.69295 3.77907 3.73626
# Velocity P-wave (km/s) = 7.53939 7.88281 7.71301
#
# Compressibility (1/GPa) = 0.01666127
#
# Stress axis : x y z
#
# Youngs Moduli (GPa) = 46.51473 58.53851 69.95262
#
# Poissons Ratio (x) = 0.26197 0.67743
# Poissons Ratio (y) = 0.20816 0.27621
# Poissons Ratio (z) = 0.45045 0.23114
#
# Static dielectric constant tensor:
#      x y z
#    x 3.091710 0.000000 0.000000 
#    y 0.000000 2.822890 0.000000 
#    z 0.000000 0.000000 3.008390 
# 
# 
# High freq. dielectric constant tensor:
#      x y z
#    x 1.606820 0.000000 0.000000 
#    y 0.000000 1.566190 0.000000 
#    z 0.000000 0.000000 1.590220 
# 
# From -- ./inp_files/24633.got.cif
#   From: 2010.03.12/outbox.cif.g09.slc.cpg/sg38_13_cif.got.tgz:24633.got - 2010.04.14 02:38:36.
