data_PCOD8177263
_publ_section_title
;
Structure prediction by ZEFSAII (Michael W. Deem and Ramdas Pophale) SiO2 
 PCOD8177263
Probable space group: A M M 2
;
_chemical_formula_sum "Si O2"
_cell_formula_units_Z 64
_cell_length_a 9.200375
_cell_length_b 30.207576
_cell_length_c 14.559803
_cell_angle_alpha 90.000000
_cell_angle_beta 90.000000
_cell_angle_gamma 90.000000
_cell_volume 4046.475403
_symmetry_space_group_name_H-M "A M M 2"
_symmetry_group_IT_number 38
_symmetry_cell_setting 'orthorhombic'
loop_
_space_group_symop_operation_xyz
x,y,z
-x,-y,z
-x,y,z
x,-y,z
x,1/2+y,1/2+z
-x,1/2-y,1/2+z
-x,1/2+y,1/2+z
x,1/2-y,1/2+z
loop_
_atom_site_type_symbol
_atom_site_label
_atom_site_fract_x
_atom_site_fract_y
_atom_site_fract_z
Si Si1 0.332942 0.869301 0.087570
Si Si2 0.673685 0.802388 0.575549
Si Si3 0.172364 0.951780 0.351111
Si Si4 0.169556 0.550118 0.643719
Si Si5 0.665790 0.276281 0.269902
Si Si6 0.828224 0.363300 0.941753
Si Si7 0.662730 0.675226 0.778780
Si Si8 0.673841 0.213530 0.972308
O O1 0.500000 0.877179 0.062255
O O2 0.248882 0.915700 0.074671
O O3 0.311198 0.856065 0.192867
O O4 0.267620 0.830545 0.022995
O O5 0.500000 0.806017 0.570260
O O6 0.730553 0.801783 0.681371
O O7 0.746533 0.845841 0.531804
O O8 0.728368 0.758169 0.522758
O O9 0.230236 0.943641 0.247676
O O10 0.225231 0.913594 0.420839
O O11 0.000000 0.951517 0.345451
O O12 0.227143 0.000000 0.386647
O O13 0.201278 0.500000 0.610391
O O14 0.000000 0.560720 0.639915
O O15 0.500000 0.290645 0.280104
O O16 0.679957 0.224994 0.244094
O O17 0.739367 0.287280 0.368343
O O18 0.783113 0.333474 0.855336
O O19 0.000000 0.360225 0.956282
O O20 0.500000 0.668324 0.820187
O O21 0.500000 0.214362 0.973516
#
# Coordination Sequence:
#
# PCOD8177263 Si02
#       8
#     8   8   8   8   8   8   8   8
#     4  10  18  27  44  70  94 117 152 193 225 253
#     4  10  18  30  48  66  88 119 154 186 219 264
#     4   8  15  28  44  61  84 116 149 177 212 268
#     4   9  17  30  46  63  88 123 154 179 220 279
#     4   9  16  28  47  66  86 120 158 185 211 257
#     4  11  20  29  44  67  92 119 151 186 225 262
#     4  10  17  27  45  66  90 121 154 183 215 259
#     4   9  16  27  45  67  90 118 153 184 215 265
#
# _framework density 15.816233
#
# number of rings (size 3 to 8) (size 9 to 14) (size 15 to 20)
#    0.000    2.500    3.750    1.125    0.000    0.250 
#    0.000    1.250    0.000    1.500    0.000    0.875 
#    0.000    5.000    0.000    0.000    0.000    0.000 
#
# Total GULP energy -396560.864172 kJ/mol
# GULP energy per Si atom -12392.527005 kJ/mol
# Density = 1.578023 g / cm^3
# Si number density = 15.816233 Si / 1000 Ang^3
#
#
#
# Elastic Constant Matrix: (Units=GPa)
#
#
# Indices 1 2 3 4 5 6 
#
# 1 27.7534 24.5661 18.5647 0.0000 0.0000 0.0000
# 2 24.5661 99.9787 42.1335 0.0000 0.0000 0.0000
# 3 18.5647 42.1335 74.6524 0.0000 0.0000 0.0000
# 4 0.0000 0.0000 0.0000 25.3727 0.0000 0.0000
# 5 0.0000 0.0000 0.0000 0.0000 14.1684 0.0000
# 6 0.0000 0.0000 0.0000 0.0000 0.0000 22.4552
#
#
#
# Elastic Compliance Matrix: (Units=1/GPa)
#
#
# Indices 1 2 3 4 5 6 
#
# 1 0.048705 -0.009005 -0.007030 0.000000 0.000000 0.000000
# 2 -0.009005 0.014788 -0.006107 0.000000 0.000000 0.000000
# 3 -0.007030 -0.006107 0.018590 0.000000 0.000000 0.000000
# 4 0.000000 0.000000 0.000000 0.039412 0.000000 0.000000
# 5 0.000000 0.000000 0.000000 0.000000 0.070579 0.000000
# 6 0.000000 0.000000 0.000000 0.000000 0.000000 0.044533
#
#
# Mechanical properties :
#
#
# Convention : Reuss Voigt Hill
#
# Bulk Modulus (GPa) = 26.45502 41.43479 33.94491
# Shear Modulus (GPa) = 17.03625 20.20728 18.62176
#
# Velocity S-wave (km/s) = 3.28554 3.57827 3.43502
# Velocity P-wave (km/s) = 5.58174 6.58229 6.10256
#
# Compressibility (1/GPa) = 0.03780000
#
# Stress axis : x y z
#
# Youngs Moduli (GPa) = 20.53196 67.62025 53.79113
#
# Poissons Ratio (x) = 0.60891 0.37813
# Poissons Ratio (y) = 0.18489 0.32851
# Poissons Ratio (z) = 0.14433 0.41297
#
# Static dielectric constant tensor:
#      x y z
#    x 2.679660 0.000000 0.000000 
#    y 0.000000 3.163330 0.000000 
#    z 0.000000 0.000000 3.033990 
# 
# 
# High freq. dielectric constant tensor:
#      x y z
#    x 1.571310 0.000000 0.000000 
#    y 0.000000 1.603720 0.000000 
#    z 0.000000 0.000000 1.585650 
# 
# From -- ./inp_files/13078.got.cif
#   From: 2010.03.12/outbox.cif.g09.slc.cpg/sg38_7_cif.got.tgz:13078.got - 2010.04.14 02:38:36.
