data_PCOD8177597
_publ_section_title
;
Structure prediction by ZEFSAII (Michael W. Deem and Ramdas Pophale) SiO2 
 PCOD8177597
Probable space group: A M M 2
;
_chemical_formula_sum "Si O2"
_cell_formula_units_Z 64
_cell_length_a 9.442980
_cell_length_b 24.568517
_cell_length_c 15.204919
_cell_angle_alpha 90.000000
_cell_angle_beta 90.000000
_cell_angle_gamma 90.000000
_cell_volume 3527.541431
_symmetry_space_group_name_H-M "A M M 2"
_symmetry_group_IT_number 38
_symmetry_cell_setting 'orthorhombic'
loop_
_space_group_symop_operation_xyz
x,y,z
-x,-y,z
-x,y,z
x,-y,z
x,1/2+y,1/2+z
-x,1/2-y,1/2+z
-x,1/2+y,1/2+z
x,1/2-y,1/2+z
loop_
_atom_site_type_symbol
_atom_site_label
_atom_site_fract_x
_atom_site_fract_y
_atom_site_fract_z
Si Si1 0.338071 0.858777 0.527220
Si Si2 0.836339 0.728044 0.370858
Si Si3 0.834425 0.436495 0.511785
Si Si4 0.660864 0.736825 0.540588
Si Si5 0.166280 0.437336 0.147505
Si Si6 0.336625 0.329452 0.831045
Si Si7 0.660687 0.632304 0.646786
Si Si8 0.837037 0.107723 0.828816
O O1 0.500000 0.875984 0.543218
O O2 0.306866 0.799087 0.568693
O O3 0.238201 0.902869 0.571130
O O4 0.301726 0.858495 0.423242
O O5 0.768472 0.717899 0.465851
O O6 0.758302 0.775797 0.318553
O O7 0.818324 0.672279 0.316821
O O8 0.000000 0.743523 0.383315
O O9 0.802700 0.500000 0.518494
O O10 0.762321 0.407534 0.594360
O O11 0.768214 0.414068 0.419944
O O12 0.000000 0.423001 0.517603
O O13 0.500000 0.734373 0.503321
O O14 0.681885 0.695825 0.621355
O O15 0.200269 0.500000 0.129445
O O16 0.230468 0.420839 0.242972
O O17 0.000000 0.424798 0.144625
O O18 0.500000 0.310795 0.828339
O O19 0.303915 0.370862 0.750912
O O20 0.500000 0.613819 0.627847
O O21 0.000000 0.090074 0.833534
#
# Coordination Sequence:
#
# PCOD8177597 Si02
#       8
#     8   8   8   8   8   8   8   8
#     4   9  19  36  55  77 105 136 177 223 271 319
#     4  10  18  30  51  80 110 140 176 215 258 313
#     4  10  20  36  57  79 109 147 181 220 270 321
#     4   9  18  33  52  77 108 141 173 212 266 321
#     4  10  21  37  56  77 103 139 183 225 266 317
#     4   9  20  37  55  76 109 147 179 216 269 326
#     4  10  20  35  56  80 108 144 183 222 267 320
#     4   9  18  33  52  78 109 142 176 211 262 323
#
# _framework density 18.142948000000001
#
# number of rings (size 3 to 8) (size 9 to 14) (size 15 to 20)
#    0.000    2.500    1.250    1.500    1.750    4.500 
#    0.000    1.875    0.000    5.250    0.000    0.000 
#    0.000    0.000    0.000    0.000    0.000    0.000 
#
# Total GULP energy -396751.211343 kJ/mol
# GULP energy per Si atom -12398.475354 kJ/mol
# Density = 1.810165 g / cm^3
# Si number density = 18.142948 Si / 1000 Ang^3
#
#
#
# Elastic Constant Matrix: (Units=GPa)
#
#
# Indices 1 2 3 4 5 6 
#
# 1 68.4491 54.6281 46.6479 0.0000 0.0000 0.0000
# 2 54.6281 104.9436 65.7226 0.0000 0.0000 0.0000
# 3 46.6479 65.7226 116.7805 0.0000 0.0000 0.0000
# 4 0.0000 0.0000 0.0000 29.4393 0.0000 0.0000
# 5 0.0000 0.0000 0.0000 0.0000 26.6372 0.0000
# 6 0.0000 0.0000 0.0000 0.0000 0.0000 26.9872
#
#
#
# Elastic Compliance Matrix: (Units=1/GPa)
#
#
# Indices 1 2 3 4 5 6 
#
# 1 0.026338 -0.010998 -0.004331 0.000000 0.000000 0.000000
# 2 -0.010998 0.019308 -0.006473 0.000000 0.000000 0.000000
# 3 -0.004331 -0.006473 0.013936 0.000000 0.000000 0.000000
# 4 0.000000 0.000000 0.000000 0.033968 0.000000 0.000000
# 5 0.000000 0.000000 0.000000 0.000000 0.037541 0.000000
# 6 0.000000 0.000000 0.000000 0.000000 0.000000 0.037055
#
#
# Mechanical properties :
#
#
# Convention : Reuss Voigt Hill
#
# Bulk Modulus (GPa) = 62.58707 69.35227 65.96967
# Shear Modulus (GPa) = 23.03332 24.82439 23.92885
#
# Velocity S-wave (km/s) = 3.56694 3.70302 3.63562
# Velocity P-wave (km/s) = 7.17883 7.52274 7.35279
#
# Compressibility (1/GPa) = 0.01597774
#
# Stress axis : x y z
#
# Youngs Moduli (GPa) = 37.96736 51.79308 71.75543
#
# Poissons Ratio (x) = 0.56961 0.31081
# Poissons Ratio (y) = 0.41755 0.46448
# Poissons Ratio (z) = 0.16446 0.33526
#
# Static dielectric constant tensor:
#      x y z
#    x 3.218100 0.000000 0.000000 
#    y 0.000000 3.222920 0.000000 
#    z 0.000000 0.000000 3.384220 
# 
# 
# High freq. dielectric constant tensor:
#      x y z
#    x 1.687960 0.000000 0.000000 
#    y 0.000000 1.694640 0.000000 
#    z 0.000000 0.000000 1.702220 
# 
# From -- ./inp_files/12787.got.cif
#   From: 2010.03.12/outbox.cif.g09.slc.cpg/sg38_7_cif.got.tgz:12787.got - 2010.04.14 02:38:36.
