data_PCOD8177236
_publ_section_title
;
Structure prediction by ZEFSAII (Michael W. Deem and Ramdas Pophale) SiO2 
 PCOD8177236
Probable space group: A M M 2
;
_chemical_formula_sum "Si O2"
_cell_formula_units_Z 56
_cell_length_a 8.786714
_cell_length_b 22.399413
_cell_length_c 17.766241
_cell_angle_alpha 90.000000
_cell_angle_beta 90.000000
_cell_angle_gamma 90.000000
_cell_volume 3496.702444
_symmetry_space_group_name_H-M "A M M 2"
_symmetry_group_IT_number 38
_symmetry_cell_setting 'orthorhombic'
loop_
_space_group_symop_operation_xyz
x,y,z
-x,-y,z
-x,y,z
x,-y,z
x,1/2+y,1/2+z
-x,1/2-y,1/2+z
-x,1/2+y,1/2+z
x,1/2-y,1/2+z
loop_
_atom_site_type_symbol
_atom_site_label
_atom_site_fract_x
_atom_site_fract_y
_atom_site_fract_z
Si Si1 0.675945 0.194555 0.920870
Si Si2 0.327035 0.150018 0.076825
Si Si3 0.820424 0.845403 0.316185
Si Si4 0.820039 0.433366 0.691608
Si Si5 0.823079 0.686871 0.974497
Si Si6 0.677371 0.784768 0.620924
Si Si7 0.820181 0.713449 0.275596
O O1 0.500000 0.216130 0.917471
O O2 0.788361 0.247646 0.943458
O O3 0.735634 0.172436 0.839106
O O4 0.691738 0.144334 0.986021
O O5 0.500000 0.137739 0.101115
O O6 0.221911 0.100483 0.114850
O O7 0.278161 0.216323 0.103191
O O8 0.751413 0.897618 0.263651
O O9 0.778945 0.857117 0.404452
O O10 0.759910 0.781373 0.286990
O O11 0.000000 0.843969 0.306523
O O12 0.750168 0.500000 0.691353
O O13 0.000000 0.436796 0.697016
O O14 0.000000 0.681757 0.995039
O O15 0.726311 0.673927 0.049782
O O16 0.500000 0.792858 0.635036
O O17 0.768149 0.808167 0.693458
O O18 0.000000 0.706306 0.283849
#
# Coordination Sequence:
#
# PCOD8177236 Si02
#       7
#     8   8   8   8   8   8   8
#     4   9  17  28  40  58  83 109 140 175 212 256
#     4   9  18  30  42  57  81 113 143 176 217 253
#     4   8  15  27  40  57  80 107 140 176 211 247
#     4  10  19  30  45  63  83 111 148 187 219 248
#     4   9  16  26  40  57  79 109 143 175 208 254
#     4  10  18  27  40  61  86 112 141 173 212 256
#     4  10  17  26  42  62  84 113 143 171 207 254
#
# _framework density 16.015087999999999
#
# number of rings (size 3 to 8) (size 9 to 14) (size 15 to 20)
#    0.000    2.714    1.429    3.429    0.000    3.143 
#    0.000    0.714    0.000    0.000    0.000    0.000 
#    0.000    1.143    0.000    6.000    0.000    3.000 
#
# Total GULP energy -346964.989599 kJ/mol
# GULP energy per Si atom -12391.606771 kJ/mol
# Density = 1.597864 g / cm^3
# Si number density = 16.015088 Si / 1000 Ang^3
#
#
#
# Elastic Constant Matrix: (Units=GPa)
#
#
# Indices 1 2 3 4 5 6 
#
# 1 46.8464 16.6078 33.7651 0.0000 0.0000 0.0000
# 2 16.6078 42.5688 34.2940 0.0000 0.0000 0.0000
# 3 33.7651 34.2940 145.4078 0.0000 0.0000 0.0000
# 4 0.0000 0.0000 0.0000 12.9476 0.0000 0.0000
# 5 0.0000 0.0000 0.0000 0.0000 29.1070 0.0000
# 6 0.0000 0.0000 0.0000 0.0000 0.0000 10.2490
#
#
#
# Elastic Compliance Matrix: (Units=1/GPa)
#
#
# Indices 1 2 3 4 5 6 
#
# 1 0.027145 -0.006805 -0.004698 0.000000 0.000000 0.000000
# 2 -0.006805 0.030708 -0.005662 0.000000 0.000000 0.000000
# 3 -0.004698 -0.005662 0.009304 0.000000 0.000000 0.000000
# 4 0.000000 0.000000 0.000000 0.077235 0.000000 0.000000
# 5 0.000000 0.000000 0.000000 0.000000 0.034356 0.000000
# 6 0.000000 0.000000 0.000000 0.000000 0.000000 0.097571
#
#
# Mechanical properties :
#
#
# Convention : Reuss Voigt Hill
#
# Bulk Modulus (GPa) = 30.46449 44.90631 37.68540
# Shear Modulus (GPa) = 15.54766 20.47111 18.00939
#
# Velocity S-wave (km/s) = 3.11917 3.57913 3.35703
# Velocity P-wave (km/s) = 5.66003 6.72169 6.21357
#
# Compressibility (1/GPa) = 0.03282510
#
# Stress axis : x y z
#
# Youngs Moduli (GPa) = 36.83862 32.56487 107.48527
#
# Poissons Ratio (x) = 0.22162 0.50501
# Poissons Ratio (y) = 0.25070 0.60859
# Poissons Ratio (z) = 0.17308 0.18438
#
# Static dielectric constant tensor:
#      x y z
#    x 2.936880 0.000000 0.000000 
#    y 0.000000 2.647890 0.000000 
#    z 0.000000 0.000000 3.525180 
# 
# 
# High freq. dielectric constant tensor:
#      x y z
#    x 1.614740 0.000000 0.000000 
#    y 0.000000 1.531930 0.000000 
#    z 0.000000 0.000000 1.638060 
# 
# From -- ./inp_files/17084.got.cif
#   From: 2010.03.12/outbox.cif.g09.slc.cpg/sg38_9_cif.got.tgz:17084.got - 2010.04.14 02:38:36.
