data_PCOD8177150
_publ_section_title
;
Structure prediction by ZEFSAII (Michael W. Deem and Ramdas Pophale) SiO2 
 PCOD8177150
Probable space group: C C C 2
;
_chemical_formula_sum "Si O2"
_cell_formula_units_Z 40
_cell_length_a 5.100156
_cell_length_b 27.085506
_cell_length_c 11.527211
_cell_angle_alpha 90.000000
_cell_angle_beta 90.000000
_cell_angle_gamma 90.000000
_cell_volume 1592.372454
_symmetry_space_group_name_H-M "C C C 2"
_symmetry_group_IT_number 37
_symmetry_cell_setting 'orthorhombic'
loop_
_space_group_symop_operation_xyz
x,y,z
-x,-y,z
-x,y,1/2+z
x,-y,1/2+z
1/2+x,1/2+y,z
1/2-x,1/2-y,z
1/2-x,1/2+y,1/2+z
1/2+x,1/2-y,1/2+z
loop_
_atom_site_type_symbol
_atom_site_label
_atom_site_fract_x
_atom_site_fract_y
_atom_site_fract_z
Si Si1 0.500000 0.500000 0.737250
Si Si2 0.960548 0.605935 0.480451
Si Si3 0.750000 0.750000 0.983940
Si Si4 0.230516 0.834743 0.654543
Si Si5 0.000000 0.500000 0.079170
Si Si6 0.750000 0.250000 0.833199
Si Si7 0.959166 0.104590 0.334053
O O1 0.249795 0.510134 0.658406
O O2 0.543725 0.545905 0.821969
O O3 0.022743 0.633491 0.603380
O O4 0.957215 0.547252 0.498110
O O5 0.181386 0.621438 0.386003
O O6 0.680579 0.621658 0.427394
O O7 0.855214 0.797314 0.054513
O O8 0.502395 0.760155 0.907729
O O9 0.285610 0.799814 0.762195
O O10 0.007831 0.872120 0.705040
#
# Coordination Sequence:
#
# PCOD8177150 Si02
#       7
#     4   8   4   8   4   4   8
#     4  12  24  46  70 100 146 196 240 294 356 418
#     4  12  26  44  70 104 142 188 238 290 352 418
#     4  11  26  49  74 106 140 183 234 295 366 428
#     4  11  26  46  76 104 144 184 236 299 352 432
#     4  12  24  46  70 100 146 196 240 294 356 418
#     4  11  26  49  74 106 140 183 234 295 366 428
#     4  12  26  44  70 104 142 188 238 290 352 418
#
# _framework density 25.119748999999999
#
# number of rings (size 3 to 8) (size 9 to 14) (size 15 to 20)
#    0.000    0.400    2.000    6.000    0.000    6.400 
#    0.000    0.000    0.000    0.000    0.000    0.000 
#    0.000    0.000    0.000    0.000    0.000    0.000 
#
# Total GULP energy -247866.672897 kJ/mol
# GULP energy per Si atom -12393.333645 kJ/mol
# Density = 2.506258 g / cm^3
# Si number density = 25.119749 Si / 1000 Ang^3
#
#
#
# Elastic Constant Matrix: (Units=GPa)
#
#
# Indices 1 2 3 4 5 6 
#
# 1 92.2701 -20.8308 6.8497 0.0000 0.0000 0.0000
# 2 -20.8308 119.1656 15.9916 0.0000 0.0000 0.0000
# 3 6.8497 15.9916 87.9136 0.0000 0.0000 0.0000
# 4 0.0000 0.0000 0.0000 49.2693 0.0000 0.0000
# 5 0.0000 0.0000 0.0000 0.0000 9.1594 0.0000
# 6 0.0000 0.0000 0.0000 0.0000 0.0000 28.8577
#
#
#
# Elastic Compliance Matrix: (Units=1/GPa)
#
#
# Indices 1 2 3 4 5 6 
#
# 1 0.011423 0.002169 -0.001285 0.000000 0.000000 0.000000
# 2 0.002169 0.009014 -0.001809 0.000000 0.000000 0.000000
# 3 -0.001285 -0.001809 0.011804 0.000000 0.000000 0.000000
# 4 0.000000 0.000000 0.000000 0.020297 0.000000 0.000000
# 5 0.000000 0.000000 0.000000 0.000000 0.109177 0.000000
# 6 0.000000 0.000000 0.000000 0.000000 0.000000 0.034653
#
#
# Mechanical properties :
#
#
# Convention : Reuss Voigt Hill
#
# Bulk Modulus (GPa) = 32.90313 33.70782 33.30548
# Shear Modulus (GPa) = 23.99857 37.27987 30.63922
#
# Velocity S-wave (km/s) = 3.09425 3.85656 3.49625
# Velocity P-wave (km/s) = 5.08850 5.76877 5.43928
#
# Compressibility (1/GPa) = 0.03039225
#
# Stress axis : x y z
#
# Youngs Moduli (GPa) = 87.54409 110.94387 84.71793
#
# Poissons Ratio (x) = -0.24065 0.10883
# Poissons Ratio (y) = -0.18990 0.15322
# Poissons Ratio (z) = 0.11246 0.20065
#
# Static dielectric constant tensor:
#      x y z
#    x 11.395450 0.000000 0.000000 
#    y 0.000000 4.985600 0.000000 
#    z 0.000000 0.000000 4.751750 
# 
# 
# High freq. dielectric constant tensor:
#      x y z
#    x 1.990410 0.000000 0.000000 
#    y 0.000000 2.028410 0.000000 
#    z 0.000000 0.000000 2.015650 
# 
# From -- ./inp_files/5583.got.cif
#   From: 2010.03.12/outbox.cif.g09.slc.cpg/sg37_3_cif.got.tgz:5583.got - 2010.04.14 02:25:27.
