data_PCOD8177390
_publ_section_title
;
Structure prediction by ZEFSAII (Michael W. Deem and Ramdas Pophale) SiO2 
 PCOD8177390
Probable space group: A M M 2
;
_chemical_formula_sum "Si O2"
_cell_formula_units_Z 64
_cell_length_a 9.131804
_cell_length_b 18.331064
_cell_length_c 25.966101
_cell_angle_alpha 90.000000
_cell_angle_beta 90.000000
_cell_angle_gamma 90.000000
_cell_volume 4346.613226
_symmetry_space_group_name_H-M "A M M 2"
_symmetry_group_IT_number 38
_symmetry_cell_setting 'orthorhombic'
loop_
_space_group_symop_operation_xyz
x,y,z
-x,-y,z
-x,y,z
x,-y,z
x,1/2+y,1/2+z
-x,1/2-y,1/2+z
-x,1/2+y,1/2+z
x,1/2-y,1/2+z
loop_
_atom_site_type_symbol
_atom_site_label
_atom_site_fract_x
_atom_site_fract_y
_atom_site_fract_z
Si Si1 0.170826 0.163011 0.896660
Si Si2 0.670641 0.916896 0.285060
Si Si3 0.168591 0.083423 0.091574
Si Si4 0.662257 0.285278 0.848179
Si Si5 0.829130 0.083647 0.791263
Si Si6 0.335701 0.794546 0.739440
Si Si7 0.671971 0.915982 0.988607
Si Si8 0.827890 0.665111 0.695449
O O1 0.223109 0.246086 0.886015
O O2 0.210659 0.112286 0.848142
O O3 0.254958 0.133323 0.945590
O O4 0.000000 0.163647 0.908642
O O5 0.500000 0.906213 0.270498
O O6 0.707970 0.869091 0.336277
O O7 0.765977 0.891991 0.236673
O O8 0.708749 0.000000 0.298580
O O9 0.208894 0.134576 0.139245
O O10 0.000000 0.092334 0.075334
O O11 0.202855 0.000000 0.107127
O O12 0.267774 0.108725 0.043939
O O13 0.500000 0.280833 0.872941
O O14 0.662568 0.246410 0.793306
O O15 0.742507 0.127443 0.747104
O O16 0.000000 0.094088 0.780533
O O17 0.780058 0.000000 0.787880
O O18 0.500000 0.807289 0.718596
O O19 0.246318 0.744746 0.699252
O O20 0.500000 0.903064 0.987456
O O21 0.713708 0.000000 0.978032
O O22 0.000000 0.673276 0.705101
#
# Coordination Sequence:
#
# PCOD8177390 Si02
#       8
#     8   8   8   8   8   8   8   8
#     4  10  18  28  43  60  80 108 139 170 205 243
#     4   9  17  28  42  61  85 112 140 170 205 244
#     4   9  18  31  44  59  81 108 138 172 207 241
#     4   8  15  27  40  56  80 108 137 168 200 237
#     4   9  17  28  42  61  84 110 140 172 206 245
#     4   9  17  28  41  58  81 109 139 171 206 243
#     4  10  20  31  43  60  81 106 137 172 207 242
#     4  10  18  28  43  61  82 110 142 173 206 243
#
# _framework density 14.724107
#
# number of rings (size 3 to 8) (size 9 to 14) (size 15 to 20)
#    0.000    2.750    0.000    3.000    0.000    6.750 
#    0.000    1.250    0.000    0.000    0.000    0.000 
#    0.000    1.000    0.000    6.500    0.000    3.625 
#
# Total GULP energy -396759.043077 kJ/mol
# GULP energy per Si atom -12398.720096 kJ/mol
# Density = 1.469059 g / cm^3
# Si number density = 14.724107 Si / 1000 Ang^3
#
#
#
# Elastic Constant Matrix: (Units=GPa)
#
#
# Indices 1 2 3 4 5 6 
#
# 1 82.4048 52.3438 51.5073 0.0000 0.0000 0.0000
# 2 52.3438 112.1583 53.7708 0.0000 0.0000 0.0000
# 3 51.5073 53.7708 75.9522 0.0000 0.0000 0.0000
# 4 0.0000 0.0000 0.0000 22.7528 0.0000 0.0000
# 5 0.0000 0.0000 0.0000 0.0000 22.1965 0.0000
# 6 0.0000 0.0000 0.0000 0.0000 0.0000 23.5779
#
#
#
# Elastic Compliance Matrix: (Units=1/GPa)
#
#
# Indices 1 2 3 4 5 6 
#
# 1 0.022690 -0.004863 -0.011945 0.000000 0.000000 0.000000
# 2 -0.004863 0.014539 -0.006995 0.000000 0.000000 0.000000
# 3 -0.011945 -0.006995 0.026219 0.000000 0.000000 0.000000
# 4 0.000000 0.000000 0.000000 0.043951 0.000000 0.000000
# 5 0.000000 0.000000 0.000000 0.000000 0.045052 0.000000
# 6 0.000000 0.000000 0.000000 0.000000 0.000000 0.042413
#
#
# Mechanical properties :
#
#
# Convention : Reuss Voigt Hill
#
# Bulk Modulus (GPa) = 63.12168 65.08436 64.10302
# Shear Modulus (GPa) = 20.18159 21.23165 20.70662
#
# Velocity S-wave (km/s) = 3.70625 3.80144 3.75415
# Velocity P-wave (km/s) = 7.82801 7.97286 7.90076
#
# Compressibility (1/GPa) = 0.01584242
#
# Stress axis : x y z
#
# Youngs Moduli (GPa) = 44.07173 68.77996 38.14040
#
# Poissons Ratio (x) = 0.33447 0.45558
# Poissons Ratio (y) = 0.21432 0.26680
# Poissons Ratio (z) = 0.52643 0.48113
#
# Static dielectric constant tensor:
#      x y z
#    x 2.988890 0.000000 0.000000 
#    y 0.000000 3.020800 0.000000 
#    z 0.000000 0.000000 2.608080 
# 
# 
# High freq. dielectric constant tensor:
#      x y z
#    x 1.575730 0.000000 0.000000 
#    y 0.000000 1.555060 0.000000 
#    z 0.000000 0.000000 1.526120 
# 
# From -- ./inp_files/22252.got.cif
#   From: 2010.03.12/outbox.cif.g09.slc.cpg/sg38_12_cif.got.tgz:22252.got - 2010.04.14 02:38:36.
