data_PCOD8177823
_publ_section_title
;
Structure prediction by ZEFSAII (Michael W. Deem and Ramdas Pophale) SiO2 
 PCOD8177823
Probable space group: A M M 2
;
_chemical_formula_sum "Si O2"
_cell_formula_units_Z 64
_cell_length_a 8.841013
_cell_length_b 23.926191
_cell_length_c 15.467740
_cell_angle_alpha 90.000000
_cell_angle_beta 90.000000
_cell_angle_gamma 90.000000
_cell_volume 3271.918353
_symmetry_space_group_name_H-M "A M M 2"
_symmetry_group_IT_number 38
_symmetry_cell_setting 'orthorhombic'
loop_
_space_group_symop_operation_xyz
x,y,z
-x,-y,z
-x,y,z
x,-y,z
x,1/2+y,1/2+z
-x,1/2-y,1/2+z
-x,1/2+y,1/2+z
x,1/2-y,1/2+z
loop_
_atom_site_type_symbol
_atom_site_label
_atom_site_fract_x
_atom_site_fract_y
_atom_site_fract_z
Si Si1 0.328150 0.631431 0.515130
Si Si2 0.679266 0.868118 0.715831
Si Si3 0.322361 0.369860 0.025111
Si Si4 0.822787 0.747306 0.268897
Si Si5 0.680273 0.937248 0.362797
Si Si6 0.325721 0.253128 0.950307
Si Si7 0.676076 0.642347 0.709230
Si Si8 0.175869 0.564249 0.367444
O O1 0.500000 0.617003 0.488451
O O2 0.297359 0.697236 0.504503
O O3 0.297497 0.615546 0.614733
O O4 0.217549 0.596249 0.455021
O O5 0.500000 0.865324 0.720761
O O6 0.735553 0.887530 0.620401
O O7 0.739562 0.806767 0.733515
O O8 0.735948 0.912359 0.785310
O O9 0.500000 0.378042 0.020818
O O10 0.251776 0.408915 0.949923
O O11 0.280273 0.305052 0.010612
O O12 0.782973 0.755233 0.368684
O O13 0.770558 0.800983 0.215199
O O14 0.000000 0.738700 0.258035
O O15 0.500000 0.938226 0.365058
O O16 0.735313 0.901993 0.279869
O O17 0.745174 0.000000 0.355740
O O18 0.500000 0.257864 0.919106
O O19 0.500000 0.656818 0.723885
O O20 0.220447 0.500000 0.379524
O O21 0.000000 0.572765 0.349688
#
# Coordination Sequence:
#
# PCOD8177823 Si02
#       8
#     8   8   8   8   8   8   8   8
#     4  10  21  36  61  90 113 148 199 248 293 343
#     4  11  22  38  62  89 115 150 196 249 296 344
#     4   9  18  33  57  88 118 148 187 236 293 345
#     4  12  23  35  56  87 120 157 192 234 292 357
#     4   9  17  31  55  87 118 147 185 237 288 332
#     4  10  18  34  58  84 114 150 189 240 295 347
#     4  10  20  37  61  88 119 154 192 239 290 348
#     4  11  25  43  60  82 118 161 199 241 296 354
#
# _framework density 19.560390999999999
#
# number of rings (size 3 to 8) (size 9 to 14) (size 15 to 20)
#    0.000    1.750    2.500    2.625    0.000    4.500 
#    0.000    5.000    0.000    0.375    0.000    0.000 
#    0.000    0.000    0.000    0.000    0.000    0.000 
#
# Total GULP energy -396842.407891 kJ/mol
# GULP energy per Si atom -12401.325247 kJ/mol
# Density = 1.951587 g / cm^3
# Si number density = 19.560391 Si / 1000 Ang^3
#
#
#
# Elastic Constant Matrix: (Units=GPa)
#
#
# Indices 1 2 3 4 5 6 
#
# 1 58.7913 33.8775 33.7410 0.0000 0.0000 0.0000
# 2 33.8775 110.4064 41.3673 0.0000 0.0000 0.0000
# 3 33.7410 41.3673 137.6388 0.0000 0.0000 0.0000
# 4 0.0000 0.0000 0.0000 9.2428 0.0000 0.0000
# 5 0.0000 0.0000 0.0000 0.0000 8.1762 0.0000
# 6 0.0000 0.0000 0.0000 0.0000 0.0000 21.2906
#
#
#
# Elastic Compliance Matrix: (Units=1/GPa)
#
#
# Indices 1 2 3 4 5 6 
#
# 1 0.022337 -0.005412 -0.003849 0.000000 0.000000 0.000000
# 2 -0.005412 0.011518 -0.002135 0.000000 0.000000 0.000000
# 3 -0.003849 -0.002135 0.008851 0.000000 0.000000 0.000000
# 4 0.000000 0.000000 0.000000 0.108192 0.000000 0.000000
# 5 0.000000 0.000000 0.000000 0.000000 0.122306 0.000000
# 6 0.000000 0.000000 0.000000 0.000000 0.000000 0.046969
#
#
# Mechanical properties :
#
#
# Convention : Reuss Voigt Hill
#
# Bulk Modulus (GPa) = 50.21713 58.31200 54.26457
# Shear Modulus (GPa) = 14.30196 20.93198 17.61697
#
# Velocity S-wave (km/s) = 2.70695 3.27482 3.00433
# Velocity P-wave (km/s) = 5.95808 6.64645 6.31165
#
# Compressibility (1/GPa) = 0.01991352
#
# Stress axis : x y z
#
# Youngs Moduli (GPa) = 44.76914 86.82080 112.98551
#
# Poissons Ratio (x) = 0.46985 0.43490
# Poissons Ratio (y) = 0.24228 0.24123
# Poissons Ratio (z) = 0.17233 0.18537
#
# Static dielectric constant tensor:
#      x y z
#    x 3.268390 0.000000 0.000000 
#    y 0.000000 3.666590 0.000000 
#    z 0.000000 0.000000 3.864710 
# 
# 
# High freq. dielectric constant tensor:
#      x y z
#    x 1.728200 0.000000 0.000000 
#    y 0.000000 1.761850 0.000000 
#    z 0.000000 0.000000 1.777640 
# 
# From -- ./inp_files/12775.got.cif
#   From: 2010.03.12/outbox.cif.g09.slc.cpg/sg38_7_cif.got.tgz:12775.got - 2010.04.14 02:38:36.
