data_PCOD8177345
_publ_section_title
;
Structure prediction by ZEFSAII (Michael W. Deem and Ramdas Pophale) SiO2 
 PCOD8177345
Probable space group: A M M 2
;
_chemical_formula_sum "Si O2"
_cell_formula_units_Z 56
_cell_length_a 9.191726
_cell_length_b 29.364221
_cell_length_c 13.752131
_cell_angle_alpha 90.000000
_cell_angle_beta 90.000000
_cell_angle_gamma 90.000000
_cell_volume 3711.808436
_symmetry_space_group_name_H-M "A M M 2"
_symmetry_group_IT_number 38
_symmetry_cell_setting 'orthorhombic'
loop_
_space_group_symop_operation_xyz
x,y,z
-x,-y,z
-x,y,z
x,-y,z
x,1/2+y,1/2+z
-x,1/2-y,1/2+z
-x,1/2+y,1/2+z
x,1/2-y,1/2+z
loop_
_atom_site_type_symbol
_atom_site_label
_atom_site_fract_x
_atom_site_fract_y
_atom_site_fract_z
Si Si1 0.834204 0.821864 0.551720
Si Si2 0.830685 0.228183 0.954515
Si Si3 0.658967 0.500000 0.959076
Si Si4 0.672657 0.313774 0.626687
Si Si5 0.673670 0.901907 0.455943
Si Si6 0.673416 0.402609 0.737147
Si Si7 0.832535 0.735291 0.234603
Si Si8 0.659029 0.000000 0.228614
O O1 0.789303 0.779799 0.482695
O O2 0.733480 0.864705 0.530063
O O3 0.809366 0.807708 0.663834
O O4 0.000000 0.836023 0.532280
O O5 0.789481 0.219593 0.842675
O O6 0.000000 0.219413 0.976437
O O7 0.738317 0.193206 0.019463
O O8 0.500000 0.500000 0.008064
O O9 0.735957 0.452084 0.988550
O O10 0.640611 0.500000 0.843844
O O11 0.500000 0.309487 0.622262
O O12 0.723950 0.363372 0.663581
O O13 0.731631 0.276842 0.702642
O O14 0.500000 0.901847 0.461077
O O15 0.727587 0.890672 0.346298
O O16 0.500000 0.407010 0.739893
O O17 0.738557 0.451960 0.700857
O O18 0.000000 0.751960 0.230501
O O19 0.500000 0.000000 0.178725
#
# Coordination Sequence:
#
# PCOD8177345 Si02
#       8
#     8   8   4   8   8   8   8   4
#     4   9  17  27  40  60  80  99 131 169 200 231
#     4   9  18  32  45  56  77 112 145 167 193 237
#     4   7  12  22  37  57  78 103 134 160 183 229
#     4  10  18  26  40  65  89 104 129 170 209 240
#     4   9  15  25  41  59  81 108 134 158 191 236
#     4   8  14  23  37  59  84 108 132 159 192 235
#     4   9  18  32  45  56  77 111 145 169 193 236
#     4   7  10  20  36  53  78 109 134 154 185 233
#
# _framework density 15.086985
#
# number of rings (size 3 to 8) (size 9 to 14) (size 15 to 20)
#    0.000    3.286    0.000    3.857    0.000    2.857 
#    0.000    1.071    0.000    0.000    0.000    5.000 
#    0.000    5.714    0.000    0.000    0.000    0.000 
#
# Total GULP energy -346919.495794 kJ/mol
# GULP energy per Si atom -12389.981993 kJ/mol
# Density = 1.505265 g / cm^3
# Si number density = 15.086985 Si / 1000 Ang^3
#
#
#
# Elastic Constant Matrix: (Units=GPa)
#
#
# Indices 1 2 3 4 5 6 
#
# 1 35.0982 37.0616 27.5144 0.0000 0.0000 0.0000
# 2 37.0616 132.0864 58.4754 0.0000 0.0000 0.0000
# 3 27.5144 58.4754 99.0850 0.0000 0.0000 0.0000
# 4 0.0000 0.0000 0.0000 21.9377 0.0000 0.0000
# 5 0.0000 0.0000 0.0000 0.0000 20.2076 0.0000
# 6 0.0000 0.0000 0.0000 0.0000 0.0000 8.3030
#
#
#
# Elastic Compliance Matrix: (Units=1/GPa)
#
#
# Indices 1 2 3 4 5 6 
#
# 1 0.043452 -0.009273 -0.006593 0.000000 0.000000 0.000000
# 2 -0.009273 0.012227 -0.004641 0.000000 0.000000 0.000000
# 3 -0.006593 -0.004641 0.014662 0.000000 0.000000 0.000000
# 4 0.000000 0.000000 0.000000 0.045584 0.000000 0.000000
# 5 0.000000 0.000000 0.000000 0.000000 0.049486 0.000000
# 6 0.000000 0.000000 0.000000 0.000000 0.000000 0.120438
#
#
# Mechanical properties :
#
#
# Convention : Reuss Voigt Hill
#
# Bulk Modulus (GPa) = 34.09890 56.93026 45.51458
# Shear Modulus (GPa) = 14.85265 19.63754 17.24510
#
# Velocity S-wave (km/s) = 3.14103 3.61171 3.38456
# Velocity P-wave (km/s) = 5.98376 7.43029 6.74591
#
# Compressibility (1/GPa) = 0.02932646
#
# Stress axis : x y z
#
# Youngs Moduli (GPa) = 23.01388 81.78437 68.20289
#
# Poissons Ratio (x) = 0.75839 0.44969
# Poissons Ratio (y) = 0.21341 0.31653
# Poissons Ratio (z) = 0.15174 0.37956
#
# Static dielectric constant tensor:
#      x y z
#    x 2.651320 0.000000 0.000000 
#    y 0.000000 3.166600 0.000000 
#    z 0.000000 0.000000 2.801160 
# 
# 
# High freq. dielectric constant tensor:
#      x y z
#    x 1.553260 0.000000 0.000000 
#    y 0.000000 1.578710 0.000000 
#    z 0.000000 0.000000 1.552020 
# 
# From -- ./inp_files/13018.got.cif
#   From: 2010.03.12/outbox.cif.g09.slc.cpg/sg38_7_cif.got.tgz:13018.got - 2010.04.14 02:38:36.
