data_PCOD8177851
_publ_section_title
;
Structure prediction by ZEFSAII (Michael W. Deem and Ramdas Pophale) SiO2 
 PCOD8177851
Probable space group: A M M 2
;
_chemical_formula_sum "Si O2"
_cell_formula_units_Z 64
_cell_length_a 9.255834
_cell_length_b 26.454602
_cell_length_c 18.236338
_cell_angle_alpha 90.000000
_cell_angle_beta 90.000000
_cell_angle_gamma 90.000000
_cell_volume 4465.338866
_symmetry_space_group_name_H-M "A M M 2"
_symmetry_group_IT_number 38
_symmetry_cell_setting 'orthorhombic'
loop_
_space_group_symop_operation_xyz
x,y,z
-x,-y,z
-x,y,z
x,-y,z
x,1/2+y,1/2+z
-x,1/2-y,1/2+z
-x,1/2+y,1/2+z
x,1/2-y,1/2+z
loop_
_atom_site_type_symbol
_atom_site_label
_atom_site_fract_x
_atom_site_fract_y
_atom_site_fract_z
Si Si1 0.671949 0.650354 0.946270
Si Si2 0.169612 0.645458 0.275591
Si Si3 0.667237 0.941667 0.697118
Si Si4 0.659245 0.805448 0.896975
Si Si5 0.339170 0.796992 0.306706
Si Si6 0.671974 0.055317 0.531232
Si Si7 0.329881 0.253696 0.035542
Si Si8 0.169893 0.245445 0.686971
O O1 0.500000 0.650966 0.949521
O O2 0.719024 0.658733 0.861349
O O3 0.735535 0.597171 0.975678
O O4 0.729161 0.694611 0.999337
O O5 0.239042 0.593246 0.249926
O O6 0.227345 0.657746 0.357304
O O7 0.211705 0.690446 0.219403
O O8 0.000000 0.638269 0.281089
O O9 0.500000 0.926491 0.705349
O O10 0.721138 0.932416 0.614038
O O11 0.691068 0.000000 0.719456
O O12 0.500000 0.830767 0.894465
O O13 0.651740 0.752297 0.856410
O O14 0.703513 0.793588 0.981211
O O15 0.500000 0.809532 0.276095
O O16 0.228545 0.789603 0.240225
O O17 0.500000 0.054927 0.529483
O O18 0.730634 0.000000 0.507489
O O19 0.500000 0.257149 0.052873
O O20 0.242955 0.245500 0.109482
O O21 0.000000 0.251900 0.679502
#
# Coordination Sequence:
#
# PCOD8177851 Si02
#       8
#     8   8   8   8   8   8   8   8
#     4   8  13  22  37  55  74  99 131 161 188 223
#     4  10  19  28  39  56  79 108 135 159 194 235
#     4   9  17  28  42  59  78 103 135 168 198 226
#     4   8  15  27  41  56  73  96 129 165 196 230
#     4   8  14  25  39  53  71  98 130 160 189 223
#     4   8  13  21  35  57  81 101 125 161 199 226
#     4   9  16  26  41  58  75 100 133 164 194 228
#     4  10  19  27  36  55  81 105 130 159 192 231
#
# _framework density 14.332618
#
# number of rings (size 3 to 8) (size 9 to 14) (size 15 to 20)
#    0.000    3.250    0.000    3.750    0.000    3.250 
#    0.000    1.875    0.000    0.750    0.000    0.000 
#    0.000    1.000    0.000    7.750    0.000    1.875 
#
# Total GULP energy -396580.190698 kJ/mol
# GULP energy per Si atom -12393.130959 kJ/mol
# Density = 1.430000 g / cm^3
# Si number density = 14.332618 Si / 1000 Ang^3
#
#
#
# Elastic Constant Matrix: (Units=GPa)
#
#
# Indices 1 2 3 4 5 6 
#
# 1 56.4718 33.0599 46.5034 0.0000 0.0000 0.0000
# 2 33.0599 77.7232 51.3243 0.0000 0.0000 0.0000
# 3 46.5034 51.3243 103.7052 0.0000 0.0000 0.0000
# 4 0.0000 0.0000 0.0000 25.6104 0.0000 0.0000
# 5 0.0000 0.0000 0.0000 0.0000 11.7136 0.0000
# 6 0.0000 0.0000 0.0000 0.0000 0.0000 13.0855
#
#
#
# Elastic Compliance Matrix: (Units=1/GPa)
#
#
# Indices 1 2 3 4 5 6 
#
# 1 0.029682 -0.005698 -0.010490 0.000000 0.000000 0.000000
# 2 -0.005698 0.020206 -0.007445 0.000000 0.000000 0.000000
# 3 -0.010490 -0.007445 0.018031 0.000000 0.000000 0.000000
# 4 0.000000 0.000000 0.000000 0.039047 0.000000 0.000000
# 5 0.000000 0.000000 0.000000 0.000000 0.085371 0.000000
# 6 0.000000 0.000000 0.000000 0.000000 0.000000 0.076420
#
#
# Mechanical properties :
#
#
# Convention : Reuss Voigt Hill
#
# Bulk Modulus (GPa) = 48.41893 55.51946 51.96919
# Shear Modulus (GPa) = 15.48427 17.21607 16.35017
#
# Velocity S-wave (km/s) = 3.29044 3.46957 3.38119
# Velocity P-wave (km/s) = 6.94922 7.40750 7.18202
#
# Compressibility (1/GPa) = 0.02065308
#
# Stress axis : x y z
#
# Youngs Moduli (GPa) = 33.69029 49.48962 55.45981
#
# Poissons Ratio (x) = 0.28202 0.58176
# Poissons Ratio (y) = 0.19198 0.41289
# Poissons Ratio (z) = 0.35341 0.36844
#
# Static dielectric constant tensor:
#      x y z
#    x 2.620980 0.000000 0.000000 
#    y 0.000000 2.822700 0.000000 
#    z 0.000000 0.000000 2.861680 
# 
# 
# High freq. dielectric constant tensor:
#      x y z
#    x 1.528890 0.000000 0.000000 
#    y 0.000000 1.517760 0.000000 
#    z 0.000000 0.000000 1.538130 
# 
# From -- ./inp_files/17311.got.cif
#   From: 2010.03.12/outbox.cif.g09.slc.cpg/sg38_9_cif.got.tgz:17311.got - 2010.04.14 02:38:36.
