data_PCOD8177080
_publ_section_title
;
Structure prediction by ZEFSAII (Michael W. Deem and Ramdas Pophale) SiO2 
 PCOD8177080
Probable space group: C C C 2
;
_chemical_formula_sum "Si O2"
_cell_formula_units_Z 48
_cell_length_a 10.976068
_cell_length_b 14.708678
_cell_length_c 13.934660
_cell_angle_alpha 90.000000
_cell_angle_beta 90.000000
_cell_angle_gamma 90.000000
_cell_volume 2249.659584
_symmetry_space_group_name_H-M "C C C 2"
_symmetry_group_IT_number 37
_symmetry_cell_setting 'orthorhombic'
loop_
_space_group_symop_operation_xyz
x,y,z
-x,-y,z
-x,y,1/2+z
x,-y,1/2+z
1/2+x,1/2+y,z
1/2-x,1/2-y,z
1/2-x,1/2+y,1/2+z
1/2+x,1/2-y,1/2+z
loop_
_atom_site_type_symbol
_atom_site_label
_atom_site_fract_x
_atom_site_fract_y
_atom_site_fract_z
Si Si1 0.419858 0.794384 0.994420
Si Si2 0.007167 0.399252 0.834229
Si Si3 0.141476 0.002178 0.603462
Si Si4 0.756310 0.357318 0.734085
Si Si5 0.190147 0.343781 0.684491
Si Si6 0.171467 0.884990 0.932960
O O1 0.526369 0.836420 0.928835
O O2 0.302249 0.839115 0.945300
O O3 0.425335 0.685377 0.980485
O O4 0.416404 0.822984 0.105593
O O5 0.894749 0.378852 0.762953
O O6 0.000000 0.500000 0.875543
O O7 0.130763 0.391376 0.774900
O O8 0.203114 0.092114 0.646716
O O9 0.154941 0.017561 0.486947
O O10 0.213823 0.912227 0.638508
O O11 0.000000 0.000000 0.633328
O O12 0.750000 0.250000 0.712445
O O13 0.660594 0.391100 0.817267
O O14 0.250000 0.250000 0.716470
#
# Coordination Sequence:
#
# PCOD8177080 Si02
#       6
#     8   8   8   8   8   8
#     4   9  17  37  66  85 118 172 214 254 323 402
#     4  11  22  38  63 101 127 165 222 279 326 394
#     4  11  24  39  65  98 132 172 226 275 329 408
#     4  11  22  41  68  96 132 174 222 274 340 400
#     4  11  22  41  66  94 132 173 219 267 338 399
#     4   9  17  39  62  86 120 175 216 252 322 407
#
# _framework density 21.336562000000001
#
# number of rings (size 3 to 8) (size 9 to 14) (size 15 to 20)
#    0.000    1.667    8.333    0.000    2.333    1.333 
#    3.000    0.000    0.000    2.000    0.000    0.000 
#    0.000    0.000    0.000    0.000    0.000    0.000 
#
# Total GULP energy -297349.819568 kJ/mol
# GULP energy per Si atom -12389.575815 kJ/mol
# Density = 2.128800 g / cm^3
# Si number density = 21.336562 Si / 1000 Ang^3
#
#
#
# Elastic Constant Matrix: (Units=GPa)
#
#
# Indices 1 2 3 4 5 6 
#
# 1 50.0800 14.8093 13.2159 0.0000 0.0000 0.0000
# 2 14.8093 124.4497 49.3731 0.0000 0.0000 0.0000
# 3 13.2159 49.3731 99.3313 0.0000 0.0000 0.0000
# 4 0.0000 0.0000 0.0000 23.0957 0.0000 0.0000
# 5 0.0000 0.0000 0.0000 0.0000 17.0840 0.0000
# 6 0.0000 0.0000 0.0000 0.0000 0.0000 21.7849
#
#
#
# Elastic Compliance Matrix: (Units=1/GPa)
#
#
# Indices 1 2 3 4 5 6 
#
# 1 0.020990 -0.001731 -0.001932 0.000000 0.000000 0.000000
# 2 -0.001731 0.010152 -0.004816 0.000000 0.000000 0.000000
# 3 -0.001932 -0.004816 0.012718 0.000000 0.000000 0.000000
# 4 0.000000 0.000000 0.000000 0.043298 0.000000 0.000000
# 5 0.000000 0.000000 0.000000 0.000000 0.058534 0.000000
# 6 0.000000 0.000000 0.000000 0.000000 0.000000 0.045903
#
#
# Mechanical properties :
#
#
# Convention : Reuss Voigt Hill
#
# Bulk Modulus (GPa) = 37.17239 47.62860 42.40050
# Shear Modulus (GPa) = 22.98628 25.49043 24.23836
#
# Velocity S-wave (km/s) = 3.28581 3.46017 3.37412
# Velocity P-wave (km/s) = 5.64404 6.19150 5.92410
#
# Compressibility (1/GPa) = 0.02690169
#
# Stress axis : x y z
#
# Youngs Moduli (GPa) = 47.64199 98.50329 78.62821
#
# Poissons Ratio (x) = 0.17053 0.15192
# Poissons Ratio (y) = 0.08248 0.37865
# Poissons Ratio (z) = 0.09205 0.47437
#
# Static dielectric constant tensor:
#      x y z
#    x 3.650710 0.000000 0.000000 
#    y 0.000000 4.079190 0.000000 
#    z 0.000000 0.000000 4.120720 
# 
# 
# High freq. dielectric constant tensor:
#      x y z
#    x 1.799020 0.000000 0.000000 
#    y 0.000000 1.838820 0.000000 
#    z 0.000000 0.000000 1.831810 
# 
# From -- ./inp_files/11520.got.cif
#   From: 2010.03.12/outbox.cif.g09.slc.cpg/sg37_6_cif.got.tgz:11520.got - 2010.04.14 02:25:27.
