data_PCOD8177684
_publ_section_title
;
Structure prediction by ZEFSAII (Michael W. Deem and Ramdas Pophale) SiO2 
 PCOD8177684
Probable space group: A M M 2
;
_chemical_formula_sum "Si O2"
_cell_formula_units_Z 64
_cell_length_a 14.564688
_cell_length_b 8.860163
_cell_length_c 24.637304
_cell_angle_alpha 90.000000
_cell_angle_beta 90.000000
_cell_angle_gamma 90.000000
_cell_volume 3179.333453
_symmetry_space_group_name_H-M "A M M 2"
_symmetry_group_IT_number 38
_symmetry_cell_setting 'orthorhombic'
loop_
_space_group_symop_operation_xyz
x,y,z
-x,-y,z
-x,y,z
x,-y,z
x,1/2+y,1/2+z
-x,1/2-y,1/2+z
-x,1/2+y,1/2+z
x,1/2-y,1/2+z
loop_
_atom_site_type_symbol
_atom_site_label
_atom_site_fract_x
_atom_site_fract_y
_atom_site_fract_z
Si Si1 0.714996 0.674460 0.501440
Si Si2 0.599707 0.170255 0.711497
Si Si3 0.898637 0.824600 0.534113
Si Si4 0.682626 0.171522 0.123564
Si Si5 0.393894 0.178698 0.405853
Si Si6 0.897646 0.673160 0.766101
Si Si7 0.276340 0.178109 0.810369
Si Si8 0.860509 0.325210 0.155193
O O1 0.715410 0.500000 0.483720
O O2 0.821081 0.730013 0.502396
O O3 0.668237 0.698834 0.560008
O O4 0.650714 0.769568 0.462180
O O5 0.500000 0.179419 0.739785
O O6 0.594400 0.282007 0.659012
O O7 0.674137 0.225863 0.754904
O O8 0.620576 0.000000 0.692459
O O9 0.905377 0.779050 0.597612
O O10 0.000000 0.792494 0.508839
O O11 0.871991 0.000000 0.528876
O O12 0.753881 0.288506 0.149860
O O13 0.713526 0.000000 0.133880
O O14 0.500000 0.235127 0.401871
O O15 0.330818 0.246373 0.359129
O O16 0.390277 0.000000 0.402286
O O17 0.865765 0.500000 0.765207
O O18 0.828312 0.764403 0.805214
O O19 0.903173 0.732035 0.704380
O O20 0.000000 0.689687 0.790969
O O21 0.276545 0.000000 0.819969
O O22 0.875896 0.500000 0.168657
#
# Coordination Sequence:
#
# PCOD8177684 Si02
#       8
#     8   8   8   8   8   8   8   8
#     4  10  22  39  60  88 121 157 200 251 302 355
#     4  10  21  36  56  85 119 156 195 237 295 363
#     4   9  18  33  55  85 122 163 205 248 295 351
#     4  10  20  34  54  83 121 161 198 242 299 353
#     4  11  25  45  69  93 116 151 199 250 305 363
#     4  11  23  37  56  86 124 163 202 246 296 351
#     4  11  23  41  65  90 119 156 199 250 302 356
#     4  10  18  31  53  82 118 162 207 246 290 347
#
# _framework density 20.130006000000002
#
# number of rings (size 3 to 8) (size 9 to 14) (size 15 to 20)
#    0.000    1.750    1.250    3.000    0.000    6.500 
#    0.000    3.125    0.000    3.750    0.000    0.000 
#    0.000    0.000    0.000    0.000    0.000    0.000 
#
# Total GULP energy -396692.644667 kJ/mol
# GULP energy per Si atom -12396.645146 kJ/mol
# Density = 2.008419 g / cm^3
# Si number density = 20.130006 Si / 1000 Ang^3
#
#
#
# Elastic Constant Matrix: (Units=GPa)
#
#
# Indices 1 2 3 4 5 6 
#
# 1 124.7223 46.3626 53.6596 0.0000 0.0000 0.0000
# 2 46.3626 82.9172 46.1164 0.0000 0.0000 0.0000
# 3 53.6596 46.1164 93.0155 0.0000 0.0000 0.0000
# 4 0.0000 0.0000 0.0000 35.0266 0.0000 0.0000
# 5 0.0000 0.0000 0.0000 0.0000 -17.9775 0.0000
# 6 0.0000 0.0000 0.0000 0.0000 0.0000 27.2422
#
#
#
# Elastic Compliance Matrix: (Units=1/GPa)
#
#
# Indices 1 2 3 4 5 6 
#
# 1 0.011459 -0.003770 -0.004741 0.000000 0.000000 0.000000
# 2 -0.003770 0.017892 -0.006696 0.000000 0.000000 0.000000
# 3 -0.004741 -0.006696 0.016806 0.000000 0.000000 0.000000
# 4 0.000000 0.000000 0.000000 0.028550 0.000000 0.000000
# 5 0.000000 0.000000 0.000000 0.000000 -0.055625 0.000000
# 6 0.000000 0.000000 0.000000 0.000000 0.000000 0.036708
#
#
# Mechanical properties :
#
#
# Convention : Reuss Voigt Hill
#
# Bulk Modulus (GPa) = 63.52274 65.88135 64.70205
# Shear Modulus (GPa) = 54.67303 19.15936 36.91619
#
# Velocity S-wave (km/s) = 5.21718 3.08844 4.28704
# Velocity P-wave (km/s) = 8.24116 6.74662 7.53106
#
# Compressibility (1/GPa) = 0.01574239
#
# Stress axis : x y z
#
# Youngs Moduli (GPa) = 87.26576 55.88951 59.50276
#
# Poissons Ratio (x) = 0.21072 0.28213
# Poissons Ratio (y) = 0.32902 0.39842
# Poissons Ratio (z) = 0.41376 0.37423
#
# Static dielectric constant tensor:
#      x y z
#    x 3.874500 0.000000 0.000000 
#    y 0.000000 3.658930 0.000000 
#    z 0.000000 0.000000 3.538140 
# 
# 
# High freq. dielectric constant tensor:
#      x y z
#    x 1.794560 0.000000 0.000000 
#    y 0.000000 1.791270 0.000000 
#    z 0.000000 0.000000 1.766300 
# 
# From -- ./inp_files/23000.got.cif
#   From: 2010.03.12/outbox.cif.g09.slc.cpg/sg38_12_cif.got.tgz:23000.got - 2010.04.14 02:38:36.
