data_PCOD8177111
_publ_section_title
;
Structure prediction by ZEFSAII (Michael W. Deem and Ramdas Pophale) SiO2 
 PCOD8177111
Probable space group: C C C 2
;
_chemical_formula_sum "Si O2"
_cell_formula_units_Z 64
_cell_length_a 8.991259
_cell_length_b 20.610417
_cell_length_c 14.661910
_cell_angle_alpha 90.000000
_cell_angle_beta 90.000000
_cell_angle_gamma 90.000000
_cell_volume 2717.051286
_symmetry_space_group_name_H-M "C C C 2"
_symmetry_group_IT_number 37
_symmetry_cell_setting 'orthorhombic'
loop_
_space_group_symop_operation_xyz
x,y,z
-x,-y,z
-x,y,1/2+z
x,-y,1/2+z
1/2+x,1/2+y,z
1/2-x,1/2-y,z
1/2-x,1/2+y,1/2+z
1/2+x,1/2-y,1/2+z
loop_
_atom_site_type_symbol
_atom_site_label
_atom_site_fract_x
_atom_site_fract_y
_atom_site_fract_z
Si Si1 0.087154 0.090896 0.991500
Si Si2 0.965196 0.243914 0.745104
Si Si3 0.825357 0.913546 0.626482
Si Si4 0.154053 0.534471 0.599945
Si Si5 0.229763 0.642797 0.734829
Si Si6 0.003675 0.071730 0.291967
Si Si7 0.084088 0.232504 0.940784
Si Si8 0.626697 0.795425 0.573329
O O1 0.073097 0.069037 0.888311
O O2 0.082093 0.168467 0.002755
O O3 0.245542 0.058915 0.016109
O O4 0.949069 0.066385 0.051798
O O5 0.891559 0.311639 0.782006
O O6 0.851570 0.194310 0.694105
O O7 0.017472 0.213459 0.841223
O O8 0.087981 0.263895 0.671337
O O9 0.908867 0.885270 0.717262
O O10 0.697532 0.866414 0.585931
O O11 0.742069 0.979419 0.655664
O O12 0.138585 0.599338 0.661725
O O13 0.000000 0.500000 0.567922
O O14 0.325436 0.596491 0.801341
O O15 0.000000 0.000000 0.249362
O O16 0.250000 0.250000 0.917384
O O17 0.008007 0.291422 0.999355
O O18 0.750000 0.750000 0.526965
#
# Coordination Sequence:
#
# PCOD8177111 Si02
#       8
#     8   8   8   8   8   8   8   8
#     4  12  26  47  75 105 145 205 249 306 372 451
#     4  11  26  46  74 110 152 191 251 313 379 454
#     4  12  25  46  75 105 146 192 253 308 363 455
#     4  12  26  49  73 111 151 195 246 315 379 446
#     4  11  23  44  76 103 145 194 244 311 379 435
#     4  12  23  44  75 105 144 197 253 296 373 451
#     4  12  29  46  73 109 155 192 249 317 378 449
#     4  12  26  45  74 108 143 198 252 303 380 452
#
# _framework density 23.554948
#
# number of rings (size 3 to 8) (size 9 to 14) (size 15 to 20)
#    0.000    0.250    5.000    3.750   10.500    0.000 
#    0.000    0.625    0.000    0.000    0.000    0.000 
#    0.000    0.000    0.000    0.000    0.000    0.000 
#
# Total GULP energy -396462.048625 kJ/mol
# GULP energy per Si atom -12389.439020 kJ/mol
# Density = 2.350134 g / cm^3
# Si number density = 23.554948 Si / 1000 Ang^3
#
#
#
# Elastic Constant Matrix: (Units=GPa)
#
#
# Indices 1 2 3 4 5 6 
#
# 1 126.3639 37.6272 45.0227 0.0000 0.0000 0.0000
# 2 37.6272 103.0923 11.5960 0.0000 0.0000 0.0000
# 3 45.0227 11.5960 119.1946 0.0000 0.0000 0.0000
# 4 0.0000 0.0000 0.0000 24.7470 0.0000 0.0000
# 5 0.0000 0.0000 0.0000 0.0000 22.5638 0.0000
# 6 0.0000 0.0000 0.0000 0.0000 0.0000 48.9676
#
#
#
# Elastic Compliance Matrix: (Units=1/GPa)
#
#
# Indices 1 2 3 4 5 6 
#
# 1 0.010151 -0.003310 -0.003512 0.000000 0.000000 0.000000
# 2 -0.003310 0.010887 0.000191 0.000000 0.000000 0.000000
# 3 -0.003512 0.000191 0.009698 0.000000 0.000000 0.000000
# 4 0.000000 0.000000 0.000000 0.040409 0.000000 0.000000
# 5 0.000000 0.000000 0.000000 0.000000 0.044319 0.000000
# 6 0.000000 0.000000 0.000000 0.000000 0.000000 0.020422
#
#
# Mechanical properties :
#
#
# Convention : Reuss Voigt Hill
#
# Bulk Modulus (GPa) = 57.23064 59.68253 58.45659
# Shear Modulus (GPa) = 32.26427 36.21599 34.24013
#
# Velocity S-wave (km/s) = 3.70502 3.92536 3.81678
# Velocity P-wave (km/s) = 6.53087 6.77770 6.65543
#
# Compressibility (1/GPa) = 0.01747316
#
# Stress axis : x y z
#
# Youngs Moduli (GPa) = 98.51686 91.85626 103.11760
#
# Poissons Ratio (x) = 0.30402 0.36216
# Poissons Ratio (y) = 0.32607 -0.01970
# Poissons Ratio (z) = 0.34600 -0.01755
#
# Static dielectric constant tensor:
#      x y z
#    x 4.350710 0.000000 0.000000 
#    y 0.000000 4.789890 0.000000 
#    z 0.000000 0.000000 3.791470 
# 
# 
# High freq. dielectric constant tensor:
#      x y z
#    x 1.935150 0.000000 0.000000 
#    y 0.000000 1.957990 0.000000 
#    z 0.000000 0.000000 1.907530 
# 
# From -- ./inp_files/11005.got.cif
#   From: 2010.03.12/outbox.cif.g09.slc.cpg/sg37_6_cif.got.tgz:11005.got - 2010.04.14 02:25:27.
