data_PCOD8177871
_publ_section_title
;
Structure prediction by ZEFSAII (Michael W. Deem and Ramdas Pophale) SiO2 
 PCOD8177871
Probable space group: A M M 2
;
_chemical_formula_sum "Si O2"
_cell_formula_units_Z 56
_cell_length_a 9.156546
_cell_length_b 13.648868
_cell_length_c 28.740134
_cell_angle_alpha 90.000000
_cell_angle_beta 90.000000
_cell_angle_gamma 90.000000
_cell_volume 3591.841003
_symmetry_space_group_name_H-M "A M M 2"
_symmetry_group_IT_number 38
_symmetry_cell_setting 'orthorhombic'
loop_
_space_group_symop_operation_xyz
x,y,z
-x,-y,z
-x,y,z
x,-y,z
x,1/2+y,1/2+z
-x,1/2-y,1/2+z
-x,1/2+y,1/2+z
x,1/2-y,1/2+z
loop_
_atom_site_type_symbol
_atom_site_label
_atom_site_fract_x
_atom_site_fract_y
_atom_site_fract_z
Si Si1 0.673462 0.788097 0.554450
Si Si2 0.833215 0.705360 0.414547
Si Si3 0.167831 0.389495 0.972349
Si Si4 0.161087 0.116204 0.741477
Si Si5 0.828876 0.886309 0.637880
Si Si6 0.169421 0.388140 0.511591
Si Si7 0.671585 0.112176 0.830758
O O1 0.500000 0.787482 0.553834
O O2 0.730937 0.864033 0.515934
O O3 0.730321 0.820865 0.604524
O O4 0.732120 0.678956 0.544644
O O5 0.800339 0.817633 0.429124
O O6 0.796524 0.634606 0.457734
O O7 0.730188 0.679349 0.371945
O O8 0.000000 0.691461 0.398590
O O9 0.200163 0.500000 0.955886
O O10 0.000000 0.376244 0.988676
O O11 0.211392 0.149877 0.690098
O O12 0.270127 0.153576 0.781489
O O13 0.000000 0.158226 0.752589
O O14 0.154767 0.000000 0.740713
O O15 0.000000 0.869626 0.627766
O O16 0.788639 0.000000 0.630595
O O17 0.210286 0.500000 0.522069
O O18 0.000000 0.365780 0.521993
O O19 0.500000 0.120709 0.829778
O O20 0.722994 0.000000 0.838611
#
# Coordination Sequence:
#
# PCOD8177871 Si02
#       7
#     8   8   8   8   8   8   8
#     4  11  21  29  42  67  95 120 145 176 220 269
#     4   9  17  29  46  66  85 110 146 182 217 256
#     4   9  18  33  49  63  84 116 153 190 221 252
#     4   8  15  28  45  63  83 111 147 183 216 251
#     4   9  17  30  47  65  87 117 151 184 217 256
#     4   9  18  33  50  65  84 115 154 190 219 251
#     4  10  19  28  40  62  92 121 144 171 213 263
#
# _framework density 15.590890999999999
#
# number of rings (size 3 to 8) (size 9 to 14) (size 15 to 20)
#    0.000    2.714    0.000    4.286    0.000    6.857 
#    0.000    1.429    0.000    0.000    0.000    1.000 
#    0.000    3.429    0.000    0.000    0.000    0.000 
#
# Total GULP energy -347160.195478 kJ/mol
# GULP energy per Si atom -12398.578410 kJ/mol
# Density = 1.555541 g / cm^3
# Si number density = 15.590891 Si / 1000 Ang^3
#
#
#
# Elastic Constant Matrix: (Units=GPa)
#
#
# Indices 1 2 3 4 5 6 
#
# 1 88.7532 45.9543 66.3952 0.0000 0.0000 0.0000
# 2 45.9543 91.6749 51.6098 0.0000 0.0000 0.0000
# 3 66.3952 51.6098 118.7207 0.0000 0.0000 0.0000
# 4 0.0000 0.0000 0.0000 21.2015 0.0000 0.0000
# 5 0.0000 0.0000 0.0000 0.0000 10.5435 0.0000
# 6 0.0000 0.0000 0.0000 0.0000 0.0000 15.5617
#
#
#
# Elastic Compliance Matrix: (Units=1/GPa)
#
#
# Indices 1 2 3 4 5 6 
#
# 1 0.021096 -0.005207 -0.009534 0.000000 0.000000 0.000000
# 2 -0.005207 0.015728 -0.003925 0.000000 0.000000 0.000000
# 3 -0.009534 -0.003925 0.015461 0.000000 0.000000 0.000000
# 4 0.000000 0.000000 0.000000 0.047166 0.000000 0.000000
# 5 0.000000 0.000000 0.000000 0.000000 0.094845 0.000000
# 6 0.000000 0.000000 0.000000 0.000000 0.000000 0.064260
#
#
# Mechanical properties :
#
#
# Convention : Reuss Voigt Hill
#
# Bulk Modulus (GPa) = 66.87989 69.67418 68.27704
# Shear Modulus (GPa) = 16.61821 18.47398 17.54609
#
# Velocity S-wave (km/s) = 3.26834 3.44600 3.35835
# Velocity P-wave (km/s) = 7.56523 7.78584 7.67633
#
# Compressibility (1/GPa) = 0.01495218
#
# Stress axis : x y z
#
# Youngs Moduli (GPa) = 47.40244 63.58059 64.67682
#
# Poissons Ratio (x) = 0.33109 0.61665
# Poissons Ratio (y) = 0.24684 0.25386
# Poissons Ratio (z) = 0.45195 0.24955
#
# Static dielectric constant tensor:
#      x y z
#    x 2.951910 0.000000 0.000000 
#    y 0.000000 2.896480 0.000000 
#    z 0.000000 0.000000 2.991630 
# 
# 
# High freq. dielectric constant tensor:
#      x y z
#    x 1.596770 0.000000 0.000000 
#    y 0.000000 1.571420 0.000000 
#    z 0.000000 0.000000 1.592270 
# 
# From -- ./inp_files/24636.got.cif
#   From: 2010.03.12/outbox.cif.g09.slc.cpg/sg38_13_cif.got.tgz:24636.got - 2010.04.14 02:38:36.
