data_PCOD8177305
_publ_section_title
;
Structure prediction by ZEFSAII (Michael W. Deem and Ramdas Pophale) SiO2 
 PCOD8177305
Probable space group: A M M 2
;
_chemical_formula_sum "Si O2"
_cell_formula_units_Z 64
_cell_length_a 19.992154
_cell_length_b 9.131976
_cell_length_c 20.232798
_cell_angle_alpha 90.000000
_cell_angle_beta 90.000000
_cell_angle_gamma 90.000000
_cell_volume 3693.858845
_symmetry_space_group_name_H-M "A M M 2"
_symmetry_group_IT_number 38
_symmetry_cell_setting 'orthorhombic'
loop_
_space_group_symop_operation_xyz
x,y,z
-x,-y,z
-x,y,z
x,-y,z
x,1/2+y,1/2+z
-x,1/2-y,1/2+z
-x,1/2+y,1/2+z
x,1/2-y,1/2+z
loop_
_atom_site_type_symbol
_atom_site_label
_atom_site_fract_x
_atom_site_fract_y
_atom_site_fract_z
Si Si1 0.301248 0.670392 0.663870
Si Si2 0.843857 0.827224 0.204810
Si Si3 0.925622 0.674032 0.580044
Si Si4 0.671341 0.669983 0.806117
Si Si5 0.673774 0.674150 0.520571
Si Si6 0.576148 0.671203 0.922464
Si Si7 0.191991 0.828694 0.829448
Si Si8 0.181261 0.828816 0.977294
O O1 0.292948 0.500000 0.651157
O O2 0.226545 0.731666 0.675790
O O3 0.346140 0.704829 0.728932
O O4 0.333489 0.732488 0.596458
O O5 0.901444 0.781633 0.153506
O O6 0.855624 0.748171 0.275229
O O7 0.842358 0.000000 0.217698
O O8 0.926868 0.500000 0.573635
O O9 0.875353 0.741212 0.525003
O O10 0.000000 0.738658 0.569110
O O11 0.692358 0.500000 0.812813
O O12 0.607662 0.708533 0.850864
O O13 0.733144 0.766674 0.829617
O O14 0.667506 0.500000 0.513587
O O15 0.613719 0.744666 0.480289
O O16 0.744961 0.733709 0.493378
O O17 0.500000 0.725732 0.920577
O O18 0.581145 0.500000 0.937475
O O19 0.160993 0.796471 0.901668
O O20 0.195546 0.000000 0.814637
O O21 0.184554 0.000000 0.992373
#
# Coordination Sequence:
#
# PCOD8177305 Si02
#       8
#     8   8   8   8   8   8   8   8
#     4   8  14  26  48  72  92 115 152 201 243 271
#     4   9  16  29  48  71  97 124 158 202 244 286
#     4   9  16  28  49  74  98 129 169 207 245 290
#     4   9  17  31  50  71  94 124 160 198 241 287
#     4  10  17  30  51  73  97 125 160 206 248 286
#     4  10  21  35  49  69 101 134 161 195 244 300
#     4  10  18  28  46  72  99 125 157 200 246 288
#     4   9  16  27  45  71 100 126 159 205 247 282
#
# _framework density 17.326053999999999
#
# number of rings (size 3 to 8) (size 9 to 14) (size 15 to 20)
#    0.000    2.750    2.500    1.125    0.000    0.250 
#    0.000    3.750    0.000    4.875    0.000    0.000 
#    0.000    0.000    0.000    0.000    0.000    0.000 
#
# Total GULP energy -396603.216831 kJ/mol
# GULP energy per Si atom -12393.850526 kJ/mol
# Density = 1.728662 g / cm^3
# Si number density = 17.326054 Si / 1000 Ang^3
#
#
#
# Elastic Constant Matrix: (Units=GPa)
#
#
# Indices 1 2 3 4 5 6 
#
# 1 111.7278 25.5325 72.0921 0.0000 0.0000 0.0000
# 2 25.5325 34.0476 39.0433 0.0000 0.0000 0.0000
# 3 72.0921 39.0433 154.6683 0.0000 0.0000 0.0000
# 4 0.0000 0.0000 0.0000 25.2295 0.0000 0.0000
# 5 0.0000 0.0000 0.0000 0.0000 27.9696 0.0000
# 6 0.0000 0.0000 0.0000 0.0000 0.0000 14.5140
#
#
#
# Elastic Compliance Matrix: (Units=1/GPa)
#
#
# Indices 1 2 3 4 5 6 
#
# 1 0.013175 -0.003994 -0.005133 0.000000 0.000000 0.000000
# 2 -0.003994 0.042547 -0.008879 0.000000 0.000000 0.000000
# 3 -0.005133 -0.008879 0.011099 0.000000 0.000000 0.000000
# 4 0.000000 0.000000 0.000000 0.039636 0.000000 0.000000
# 5 0.000000 0.000000 0.000000 0.000000 0.035753 0.000000
# 6 0.000000 0.000000 0.000000 0.000000 0.000000 0.068899
#
#
# Mechanical properties :
#
#
# Convention : Reuss Voigt Hill
#
# Bulk Modulus (GPa) = 32.45667 63.75327 48.10497
# Shear Modulus (GPa) = 19.42576 24.46102 21.94339
#
# Velocity S-wave (km/s) = 3.35205 3.76148 3.56265
# Velocity P-wave (km/s) = 5.80992 7.46599 6.68940
#
# Compressibility (1/GPa) = 0.03081031
#
# Stress axis : x y z
#
# Youngs Moduli (GPa) = 75.90169 23.50337 90.09770
#
# Poissons Ratio (x) = 0.09388 0.46244
# Poissons Ratio (y) = 0.30316 0.79994
# Poissons Ratio (z) = 0.38958 0.20868
#
# Static dielectric constant tensor:
#      x y z
#    x 3.147310 0.000000 0.000000 
#    y 0.000000 2.865860 0.000000 
#    z 0.000000 0.000000 3.597160 
# 
# 
# High freq. dielectric constant tensor:
#      x y z
#    x 1.641700 0.000000 0.000000 
#    y 0.000000 1.627510 0.000000 
#    z 0.000000 0.000000 1.689670 
# 
# From -- ./inp_files/21517.got.cif
#   From: 2010.03.12/outbox.cif.g09.slc.cpg/sg38_11_cif.got.tgz:21517.got - 2010.04.14 02:38:36.
