data_PCOD8177697
_publ_section_title
;
Structure prediction by ZEFSAII (Michael W. Deem and Ramdas Pophale) SiO2 
 PCOD8177697
Probable space group: A M M 2
;
_chemical_formula_sum "Si O2"
_cell_formula_units_Z 48
_cell_length_a 9.140285
_cell_length_b 20.553421
_cell_length_c 14.381448
_cell_angle_alpha 90.000000
_cell_angle_beta 90.000000
_cell_angle_gamma 90.000000
_cell_volume 2701.758154
_symmetry_space_group_name_H-M "A M M 2"
_symmetry_group_IT_number 38
_symmetry_cell_setting 'orthorhombic'
loop_
_space_group_symop_operation_xyz
x,y,z
-x,-y,z
-x,y,z
x,-y,z
x,1/2+y,1/2+z
-x,1/2-y,1/2+z
-x,1/2+y,1/2+z
x,1/2-y,1/2+z
loop_
_atom_site_type_symbol
_atom_site_label
_atom_site_fract_x
_atom_site_fract_y
_atom_site_fract_z
Si Si1 0.173719 0.428538 0.239070
Si Si2 0.830608 0.229435 0.419919
Si Si3 0.827221 0.122315 0.935810
Si Si4 0.668156 0.573213 0.614138
Si Si5 0.672332 0.693390 0.737229
Si Si6 0.829473 0.193708 0.625574
O O1 0.234094 0.500000 0.210873
O O2 0.230880 0.411042 0.341774
O O3 0.229231 0.374781 0.165849
O O4 0.000000 0.428956 0.239774
O O5 0.775948 0.302989 0.434379
O O6 0.737067 0.194871 0.340527
O O7 0.803526 0.190873 0.515435
O O8 0.000000 0.228444 0.389990
O O9 0.000000 0.117447 0.945566
O O10 0.760258 0.084643 0.021893
O O11 0.500000 0.583865 0.587073
O O12 0.697361 0.500000 0.650660
O O13 0.713993 0.623092 0.695179
O O14 0.500000 0.704725 0.742280
O O15 0.740725 0.748257 0.671935
O O16 0.000000 0.205022 0.649526
#
# Coordination Sequence:
#
# PCOD8177697 Si02
#       6
#     8   8   8   8   8   8
#     4   9  17  30  50  77 106 135 168 207 259 318
#     4  10  20  34  55  81 108 137 174 220 269 316
#     4  10  18  31  55  82 108 137 172 218 268 323
#     4  10  22  38  53  75 110 147 180 220 272 321
#     4  11  22  35  55  79 106 141 181 222 263 317
#     4  10  19  35  56  77 105 140 175 217 266 315
#
# _framework density 17.766210000000001
#
# number of rings (size 3 to 8) (size 9 to 14) (size 15 to 20)
#    0.000    2.000    3.333    1.000    0.000    3.000 
#    0.000    0.833    0.000    1.500    0.000    0.000 
#    0.000    0.000    0.000    0.000    0.000    0.000 
#
# Total GULP energy -297622.649400 kJ/mol
# GULP energy per Si atom -12400.943725 kJ/mol
# Density = 1.772577 g / cm^3
# Si number density = 17.766210 Si / 1000 Ang^3
#
#
#
# Elastic Constant Matrix: (Units=GPa)
#
#
# Indices 1 2 3 4 5 6 
#
# 1 46.8942 41.2420 44.4465 0.0000 0.0000 0.0000
# 2 41.2420 157.3388 73.3344 0.0000 0.0000 0.0000
# 3 44.4465 73.3344 120.1094 0.0000 0.0000 0.0000
# 4 0.0000 0.0000 0.0000 30.7740 0.0000 0.0000
# 5 0.0000 0.0000 0.0000 0.0000 17.3073 0.0000
# 6 0.0000 0.0000 0.0000 0.0000 0.0000 16.1925
#
#
#
# Elastic Compliance Matrix: (Units=1/GPa)
#
#
# Indices 1 2 3 4 5 6 
#
# 1 0.034868 -0.004369 -0.010235 0.000000 0.000000 0.000000
# 2 -0.004369 0.009431 -0.004142 0.000000 0.000000 0.000000
# 3 -0.010235 -0.004142 0.014642 0.000000 0.000000 0.000000
# 4 0.000000 0.000000 0.000000 0.032495 0.000000 0.000000
# 5 0.000000 0.000000 0.000000 0.000000 0.057779 0.000000
# 6 0.000000 0.000000 0.000000 0.000000 0.000000 0.061757
#
#
# Mechanical properties :
#
#
# Convention : Reuss Voigt Hill
#
# Bulk Modulus (GPa) = 46.62140 71.37643 58.99892
# Shear Modulus (GPa) = 19.56069 23.87605 21.71837
#
# Velocity S-wave (km/s) = 3.32174 3.66990 3.50015
# Velocity P-wave (km/s) = 6.40395 7.63022 7.04382
#
# Compressibility (1/GPa) = 0.02144938
#
# Stress axis : x y z
#
# Youngs Moduli (GPa) = 28.67949 106.02953 68.29640
#
# Poissons Ratio (x) = 0.46325 0.69904
# Poissons Ratio (y) = 0.12530 0.28286
# Poissons Ratio (z) = 0.29354 0.43914
#
# Static dielectric constant tensor:
#      x y z
#    x 3.103680 0.000000 0.000000 
#    y 0.000000 3.580350 0.000000 
#    z 0.000000 0.000000 3.333110 
# 
# 
# High freq. dielectric constant tensor:
#      x y z
#    x 1.665470 0.000000 0.000000 
#    y 0.000000 1.692000 0.000000 
#    z 0.000000 0.000000 1.688480 
# 
# From -- ./inp_files/12036.got.cif
#   From: 2010.03.12/outbox.cif.g09.slc.cpg/sg38_7_cif.got.tgz:12036.got - 2010.04.14 02:38:36.
