data_PCOD8177497
_publ_section_title
;
Structure prediction by ZEFSAII (Michael W. Deem and Ramdas Pophale) SiO2 
 PCOD8177497
Probable space group: A M M 2
;
_chemical_formula_sum "Si O2"
_cell_formula_units_Z 64
_cell_length_a 9.100569
_cell_length_b 29.945634
_cell_length_c 14.232865
_cell_angle_alpha 90.000000
_cell_angle_beta 90.000000
_cell_angle_gamma 90.000000
_cell_volume 3878.773226
_symmetry_space_group_name_H-M "A M M 2"
_symmetry_group_IT_number 38
_symmetry_cell_setting 'orthorhombic'
loop_
_space_group_symop_operation_xyz
x,y,z
-x,-y,z
-x,y,z
x,-y,z
x,1/2+y,1/2+z
-x,1/2-y,1/2+z
-x,1/2+y,1/2+z
x,1/2-y,1/2+z
loop_
_atom_site_type_symbol
_atom_site_label
_atom_site_fract_x
_atom_site_fract_y
_atom_site_fract_z
Si Si1 0.331405 0.777000 0.721410
Si Si2 0.334811 0.628078 0.544192
Si Si3 0.830976 0.129820 0.395434
Si Si4 0.329314 0.550345 0.815843
Si Si5 0.830271 0.550628 0.618594
Si Si6 0.337480 0.676075 0.737304
Si Si7 0.829355 0.203882 0.541469
Si Si8 0.674321 0.714673 0.436164
O O1 0.500000 0.791452 0.707738
O O2 0.306682 0.725118 0.697868
O O3 0.232244 0.803305 0.646589
O O4 0.279382 0.786880 0.827257
O O5 0.500000 0.616485 0.511293
O O6 0.235868 0.583373 0.538385
O O7 0.331793 0.642164 0.652126
O O8 0.269872 0.667988 0.480467
O O9 0.736185 0.084279 0.393085
O O10 0.784898 0.163001 0.312018
O O11 0.803610 0.156100 0.492078
O O12 0.000000 0.116817 0.382263
O O13 0.500000 0.561060 0.800677
O O14 0.304783 0.500000 0.852826
O O15 0.250314 0.558009 0.717142
O O16 0.807979 0.500000 0.582893
O O17 0.000000 0.562150 0.634091
O O18 0.500000 0.675038 0.784928
O O19 0.747349 0.243148 0.486041
O O20 0.000000 0.216531 0.544798
O O21 0.500000 0.720027 0.449915
#
# Coordination Sequence:
#
# PCOD8177497 Si02
#       8
#     8   8   8   8   8   8   8   8
#     4  10  20  35  53  70  95 133 172 211 248 284
#     4  10  19  31  48  73 100 129 168 205 243 290
#     4  11  22  33  47  71 101 135 168 199 242 293
#     4  10  20  33  50  72  97 127 163 203 247 293
#     4  10  20  32  47  70 100 132 164 199 243 297
#     4  10  18  29  49  72  97 131 168 205 240 282
#     4  11  23  34  48  73 103 133 167 205 246 294
#     4  10  20  35  53  73  97 130 173 210 245 292
#
# _framework density 16.500062
#
# number of rings (size 3 to 8) (size 9 to 14) (size 15 to 20)
#    0.000    1.750    3.750    1.500    0.000    4.500 
#    0.000    0.000    0.000    0.000    0.000    0.875 
#    0.000    1.000    0.000    0.000    0.000    0.000 
#
# Total GULP energy -396789.270932 kJ/mol
# GULP energy per Si atom -12399.664717 kJ/mol
# Density = 1.646251 g / cm^3
# Si number density = 16.500062 Si / 1000 Ang^3
#
#
#
# Elastic Constant Matrix: (Units=GPa)
#
#
# Indices 1 2 3 4 5 6 
#
# 1 89.1552 53.5788 37.9682 0.0000 0.0000 0.0000
# 2 53.5788 99.6250 30.1970 0.0000 0.0000 0.0000
# 3 37.9682 30.1970 68.8537 0.0000 0.0000 0.0000
# 4 0.0000 0.0000 0.0000 22.6905 0.0000 0.0000
# 5 0.0000 0.0000 0.0000 0.0000 22.2715 0.0000
# 6 0.0000 0.0000 0.0000 0.0000 0.0000 27.7368
#
#
#
# Elastic Compliance Matrix: (Units=1/GPa)
#
#
# Indices 1 2 3 4 5 6 
#
# 1 0.019072 -0.008153 -0.006941 0.000000 0.000000 0.000000
# 2 -0.008153 0.015062 -0.002110 0.000000 0.000000 0.000000
# 3 -0.006941 -0.002110 0.019276 0.000000 0.000000 0.000000
# 4 0.000000 0.000000 0.000000 0.044071 0.000000 0.000000
# 5 0.000000 0.000000 0.000000 0.000000 0.044900 0.000000
# 6 0.000000 0.000000 0.000000 0.000000 0.000000 0.036053
#
#
# Mechanical properties :
#
#
# Convention : Reuss Voigt Hill
#
# Bulk Modulus (GPa) = 52.62564 55.68020 54.15292
# Shear Modulus (GPa) = 22.81252 23.59911 23.20581
#
# Velocity S-wave (km/s) = 3.72233 3.78596 3.75428
# Velocity P-wave (km/s) = 7.10195 7.27530 7.18915
#
# Compressibility (1/GPa) = 0.01900215
#
# Stress axis : x y z
#
# Youngs Moduli (GPa) = 52.43242 66.39262 51.87671
#
# Poissons Ratio (x) = 0.54131 0.36009
# Poissons Ratio (y) = 0.42749 0.10945
# Poissons Ratio (z) = 0.36395 0.14007
#
# Static dielectric constant tensor:
#      x y z
#    x 3.188620 0.000000 0.000000 
#    y 0.000000 3.225320 0.000000 
#    z 0.000000 0.000000 2.940300 
# 
# 
# High freq. dielectric constant tensor:
#      x y z
#    x 1.641420 0.000000 0.000000 
#    y 0.000000 1.632890 0.000000 
#    z 0.000000 0.000000 1.602690 
# 
# From -- ./inp_files/13118.got.cif
#   From: 2010.03.12/outbox.cif.g09.slc.cpg/sg38_7_cif.got.tgz:13118.got - 2010.04.14 02:38:36.
