data_PCOD8177357
_publ_section_title
;
Structure prediction by ZEFSAII (Michael W. Deem and Ramdas Pophale) SiO2 
 PCOD8177357
Probable space group: A M M 2
;
_chemical_formula_sum "Si O2"
_cell_formula_units_Z 64
_cell_length_a 9.070013
_cell_length_b 18.527351
_cell_length_c 26.440578
_cell_angle_alpha 90.000000
_cell_angle_beta 90.000000
_cell_angle_gamma 90.000000
_cell_volume 4443.162362
_symmetry_space_group_name_H-M "A M M 2"
_symmetry_group_IT_number 38
_symmetry_cell_setting 'orthorhombic'
loop_
_space_group_symop_operation_xyz
x,y,z
-x,-y,z
-x,y,z
x,-y,z
x,1/2+y,1/2+z
-x,1/2-y,1/2+z
-x,1/2+y,1/2+z
x,1/2-y,1/2+z
loop_
_atom_site_type_symbol
_atom_site_label
_atom_site_fract_x
_atom_site_fract_y
_atom_site_fract_z
Si Si1 0.167895 0.780643 0.037830
Si Si2 0.669428 0.715241 0.129316
Si Si3 0.326939 0.416978 0.882177
Si Si4 0.171906 0.916851 0.279572
Si Si5 0.174302 0.834129 0.180887
Si Si6 0.830483 0.350096 0.975248
Si Si7 0.171255 0.078683 0.083601
Si Si8 0.670491 0.918041 0.569858
O O1 0.287704 0.750049 0.076009
O O2 0.185250 0.736701 0.985407
O O3 0.197322 0.867509 0.035245
O O4 0.000000 0.768645 0.058806
O O5 0.500000 0.730070 0.141442
O O6 0.762176 0.752628 0.174477
O O7 0.701492 0.629725 0.120586
O O8 0.500000 0.405331 0.879955
O O9 0.285327 0.500000 0.893694
O O10 0.259661 0.391994 0.829016
O O11 0.261625 0.366892 0.925602
O O12 0.230274 0.868485 0.233198
O O13 0.000000 0.904381 0.289891
O O14 0.204488 0.000000 0.266113
O O15 0.233632 0.883706 0.134606
O O16 0.000000 0.829195 0.180508
O O17 0.772055 0.394995 0.023024
O O18 0.000000 0.371771 0.966351
O O19 0.000000 0.065515 0.092192
O O20 0.246939 0.000000 0.074413
O O21 0.500000 0.908845 0.552984
O O22 0.707373 0.000000 0.584566
#
# Coordination Sequence:
#
# PCOD8177357 Si02
#       8
#     8   8   8   8   8   8   8   8
#     4   8  15  26  38  54  76 100 127 160 192 222
#     4   9  16  25  38  55  75 101 130 158 189 226
#     4  10  20  31  41  55  77 103 130 162 197 229
#     4   9  17  29  44  60  77 100 132 165 193 223
#     4   9  16  26  40  57  78 103 129 157 189 223
#     4  10  18  27  40  57  77 102 132 163 195 231
#     4   8  12  20  37  58  77  99 127 154 180 216
#     4   9  17  28  40  55  77 104 133 163 193 226
#
# _framework density 14.404154999999999
#
# number of rings (size 3 to 8) (size 9 to 14) (size 15 to 20)
#    0.000    3.000    0.000    2.625    0.000    5.500 
#    0.000    0.000    0.000    9.000    0.000    0.000 
#    0.000    1.000    0.000    4.250    0.000    2.625 
#
# Total GULP energy -396465.664358 kJ/mol
# GULP energy per Si atom -12389.552011 kJ/mol
# Density = 1.437137 g / cm^3
# Si number density = 14.404155 Si / 1000 Ang^3
#
#
#
# Elastic Constant Matrix: (Units=GPa)
#
#
# Indices 1 2 3 4 5 6 
#
# 1 37.2966 29.4241 30.5583 0.0000 0.0000 0.0000
# 2 29.4241 110.0034 56.3618 0.0000 0.0000 0.0000
# 3 30.5583 56.3618 85.6106 0.0000 0.0000 0.0000
# 4 0.0000 0.0000 0.0000 25.0565 0.0000 0.0000
# 5 0.0000 0.0000 0.0000 0.0000 18.4367 0.0000
# 6 0.0000 0.0000 0.0000 0.0000 0.0000 16.2444
#
#
#
# Elastic Compliance Matrix: (Units=1/GPa)
#
#
# Indices 1 2 3 4 5 6 
#
# 1 0.039681 -0.005066 -0.010829 0.000000 0.000000 0.000000
# 2 -0.005066 0.014365 -0.007649 0.000000 0.000000 0.000000
# 3 -0.010829 -0.007649 0.020582 0.000000 0.000000 0.000000
# 4 0.000000 0.000000 0.000000 0.039910 0.000000 0.000000
# 5 0.000000 0.000000 0.000000 0.000000 0.054240 0.000000
# 6 0.000000 0.000000 0.000000 0.000000 0.000000 0.061560
#
#
# Mechanical properties :
#
#
# Convention : Reuss Voigt Hill
#
# Bulk Modulus (GPa) = 36.31016 51.73324 44.02170
# Shear Modulus (GPa) = 17.44571 19.71860 18.58215
#
# Velocity S-wave (km/s) = 3.48394 3.70395 3.59563
# Velocity P-wave (km/s) = 6.43791 7.36789 6.91854
#
# Compressibility (1/GPa) = 0.02754050
#
# Stress axis : x y z
#
# Youngs Moduli (GPa) = 25.20099 69.61573 48.58677
#
# Poissons Ratio (x) = 0.35265 0.52614
# Poissons Ratio (y) = 0.12766 0.37163
# Poissons Ratio (z) = 0.27290 0.53247
#
# Static dielectric constant tensor:
#      x y z
#    x 2.774930 0.000000 0.000000 
#    y 0.000000 3.130170 0.000000 
#    z 0.000000 0.000000 2.661980 
# 
# 
# High freq. dielectric constant tensor:
#      x y z
#    x 1.548430 0.000000 0.000000 
#    y 0.000000 1.544860 0.000000 
#    z 0.000000 0.000000 1.513750 
# 
# From -- ./inp_files/22269.got.cif
#   From: 2010.03.12/outbox.cif.g09.slc.cpg/sg38_12_cif.got.tgz:22269.got - 2010.04.14 02:38:36.
