data_PCOD8177249
_publ_section_title
;
Structure prediction by ZEFSAII (Michael W. Deem and Ramdas Pophale) SiO2 
 PCOD8177249
Probable space group: A M M 2
;
_chemical_formula_sum "Si O2"
_cell_formula_units_Z 64
_cell_length_a 8.931548
_cell_length_b 14.650108
_cell_length_c 28.545390
_cell_angle_alpha 90.000000
_cell_angle_beta 90.000000
_cell_angle_gamma 90.000000
_cell_volume 3735.111267
_symmetry_space_group_name_H-M "A M M 2"
_symmetry_group_IT_number 38
_symmetry_cell_setting 'orthorhombic'
loop_
_space_group_symop_operation_xyz
x,y,z
-x,-y,z
-x,y,z
x,-y,z
x,1/2+y,1/2+z
-x,1/2-y,1/2+z
-x,1/2+y,1/2+z
x,1/2-y,1/2+z
loop_
_atom_site_type_symbol
_atom_site_label
_atom_site_fract_x
_atom_site_fract_y
_atom_site_fract_z
Si Si1 0.321722 0.229389 0.216380
Si Si2 0.677639 0.898756 0.298423
Si Si3 0.678396 0.284293 0.443253
Si Si4 0.321925 0.602430 0.529371
Si Si5 0.328655 0.105881 0.853669
Si Si6 0.321999 0.602375 0.633486
Si Si7 0.678073 0.100204 0.403235
Si Si8 0.176189 0.104024 0.756958
O O1 0.500000 0.237489 0.215730
O O2 0.259822 0.174152 0.261458
O O3 0.260973 0.176526 0.170401
O O4 0.251524 0.330551 0.218145
O O5 0.500000 0.896993 0.296491
O O6 0.733893 0.874811 0.350801
O O7 0.734306 0.000000 0.284473
O O8 0.500000 0.290092 0.444563
O O9 0.745841 0.327916 0.490809
O O10 0.736207 0.339665 0.398082
O O11 0.733936 0.179014 0.438802
O O12 0.500000 0.605139 0.527724
O O13 0.266789 0.500000 0.517535
O O14 0.266657 0.630742 0.581364
O O15 0.500000 0.133975 0.842926
O O16 0.232854 0.132174 0.808384
O O17 0.315480 0.000000 0.866292
O O18 0.500000 0.600880 0.635299
O O19 0.263819 0.500000 0.645725
O O20 0.500000 0.097073 0.402719
O O21 0.739696 0.000000 0.418567
O O22 0.000000 0.116186 0.755178
O O23 0.223955 0.000000 0.745455
#
# Coordination Sequence:
#
# PCOD8177249 Si02
#       8
#     8   8   8   8   8   8   8   8
#     4  10  17  26  45  67  83 105 141 180 212 248
#     4   8  13  21  35  58  85 107 130 166 211 253
#     4   9  14  20  34  56  82 111 142 174 206 241
#     4   8  13  21  33  53  84 115 137 163 206 255
#     4   9  16  26  42  64  85 105 137 179 214 246
#     4   8  14  24  39  62  89 112 136 170 214 261
#     4   8  13  19  26  41  69 103 135 165 197 235
#     4  10  21  34  44  57  83 117 146 174 214 260
#
# _framework density 17.134698
#
# number of rings (size 3 to 8) (size 9 to 14) (size 15 to 20)
#    0.000    3.250    0.000    3.375    0.000    5.750 
#    0.000    0.000    0.000    2.250    0.000    4.375 
#    0.000    1.000    0.000    0.000    0.000    0.375 
#
# Total GULP energy -396547.322175 kJ/mol
# GULP energy per Si atom -12392.103818 kJ/mol
# Density = 1.709570 g / cm^3
# Si number density = 17.134698 Si / 1000 Ang^3
#
#
#
# Elastic Constant Matrix: (Units=GPa)
#
#
# Indices 1 2 3 4 5 6 
#
# 1 15.1916 18.7500 15.9460 0.0000 0.0000 0.0000
# 2 18.7500 136.6841 95.3204 0.0000 0.0000 0.0000
# 3 15.9460 95.3204 123.8111 0.0000 0.0000 0.0000
# 4 0.0000 0.0000 0.0000 33.4179 0.0000 0.0000
# 5 0.0000 0.0000 0.0000 0.0000 2.4618 0.0000
# 6 0.0000 0.0000 0.0000 0.0000 0.0000 8.3169
#
#
#
# Elastic Compliance Matrix: (Units=1/GPa)
#
#
# Indices 1 2 3 4 5 6 
#
# 1 0.080155 -0.008197 -0.004012 0.000000 0.000000 0.000000
# 2 -0.008197 0.016637 -0.011752 0.000000 0.000000 0.000000
# 3 -0.004012 -0.011752 0.017642 0.000000 0.000000 0.000000
# 4 0.000000 0.000000 0.000000 0.029924 0.000000 0.000000
# 5 0.000000 0.000000 0.000000 0.000000 0.406200 0.000000
# 6 0.000000 0.000000 0.000000 0.000000 0.000000 0.120236
#
#
# Mechanical properties :
#
#
# Convention : Reuss Voigt Hill
#
# Bulk Modulus (GPa) = 15.03564 59.52440 37.28002
# Shear Modulus (GPa) = 6.74866 18.55071 12.64969
#
# Velocity S-wave (km/s) = 1.98674 3.29392 2.72002
# Velocity P-wave (km/s) = 3.74925 7.02005 5.62752
#
# Compressibility (1/GPa) = 0.06650865
#
# Stress axis : x y z
#
# Youngs Moduli (GPa) = 12.47586 60.10877 56.68405
#
# Poissons Ratio (x) = 0.49273 0.22744
# Poissons Ratio (y) = 0.10227 0.66618
# Poissons Ratio (z) = 0.05006 0.70643
#
# Static dielectric constant tensor:
#      x y z
#    x 2.530580 0.000000 0.000000 
#    y 0.000000 3.523060 0.000000 
#    z 0.000000 0.000000 3.376330 
# 
# 
# High freq. dielectric constant tensor:
#      x y z
#    x 1.589470 0.000000 0.000000 
#    y 0.000000 1.669450 0.000000 
#    z 0.000000 0.000000 1.647220 
# 
# From -- ./inp_files/24728.got.cif
#   From: 2010.03.12/outbox.cif.g09.slc.cpg/sg38_13_cif.got.tgz:24728.got - 2010.04.14 02:38:36.
