data_PCOD8177101
_publ_section_title
;
Structure prediction by ZEFSAII (Michael W. Deem and Ramdas Pophale) SiO2 
 PCOD8177101
Probable space group: C C C 2
;
_chemical_formula_sum "Si O2"
_cell_formula_units_Z 64
_cell_length_a 12.985191
_cell_length_b 18.634137
_cell_length_c 12.961960
_cell_angle_alpha 90.000000
_cell_angle_beta 90.000000
_cell_angle_gamma 90.000000
_cell_volume 3136.377309
_symmetry_space_group_name_H-M "C C C 2"
_symmetry_group_IT_number 37
_symmetry_cell_setting 'orthorhombic'
loop_
_space_group_symop_operation_xyz
x,y,z
-x,-y,z
-x,y,1/2+z
x,-y,1/2+z
1/2+x,1/2+y,z
1/2-x,1/2-y,z
1/2-x,1/2+y,1/2+z
1/2+x,1/2-y,1/2+z
loop_
_atom_site_type_symbol
_atom_site_label
_atom_site_fract_x
_atom_site_fract_y
_atom_site_fract_z
Si Si1 0.978654 0.202472 0.119510
Si Si2 0.346284 0.292167 0.953228
Si Si3 0.575855 0.061000 0.224555
Si Si4 0.269750 0.559438 0.364840
Si Si5 0.008376 0.291663 0.805209
Si Si6 0.212250 0.452767 0.541413
Si Si7 0.097782 0.952450 0.179544
Si Si8 0.841398 0.702949 0.478310
O O1 0.031650 0.233646 0.222700
O O2 0.924463 0.129702 0.153524
O O3 0.066174 0.189939 0.035442
O O4 0.891968 0.257233 0.076742
O O5 0.250000 0.250000 0.003715
O O6 0.301946 0.367960 0.919300
O O7 0.390398 0.242403 0.860253
O O8 0.680628 0.074032 0.284377
O O9 0.522388 0.137781 0.235096
O O10 0.606594 0.037111 0.107540
O O11 0.500000 0.000000 0.269867
O O12 0.218994 0.501590 0.440606
O O13 0.369480 0.533621 0.299037
O O14 0.924783 0.311044 0.890508
O O15 0.310657 0.477767 0.606180
O O16 0.214232 0.369912 0.510873
O O17 0.000000 0.000000 0.152917
O O18 0.750000 0.750000 0.430336
#
# Coordination Sequence:
#
# PCOD8177101 Si02
#       8
#     8   8   8   8   8   8   8   8
#     4  11  23  41  68  98 131 176 223 274 338 401
#     4  11  23  41  69  98 131 174 226 282 334 403
#     4  11  24  42  67  96 133 177 221 278 338 405
#     4  11  24  42  67  96 132 178 223 273 337 406
#     4  11  23  41  68  98 131 176 223 274 338 401
#     4  11  24  42  67  96 132 178 223 273 337 406
#     4  11  24  42  67  96 133 177 221 278 338 405
#     4  11  23  41  69  98 131 174 226 282 334 403
#
# _framework density 20.405708000000001
#
# number of rings (size 3 to 8) (size 9 to 14) (size 15 to 20)
#    0.000    1.000    5.000    1.500    0.000    6.000 
#    0.000    0.000    0.000    0.000    0.000    0.000 
#    0.000    0.000    0.000    0.000    0.000    0.000 
#
# Total GULP energy -396669.916089 kJ/mol
# GULP energy per Si atom -12395.934878 kJ/mol
# Density = 2.035926 g / cm^3
# Si number density = 20.405708 Si / 1000 Ang^3
#
#
#
# Elastic Constant Matrix: (Units=GPa)
#
#
# Indices 1 2 3 4 5 6 
#
# 1 84.1618 32.2970 22.3605 0.0000 0.0000 0.0000
# 2 32.2970 93.9413 30.0481 0.0000 0.0000 0.0000
# 3 22.3605 30.0481 90.5271 0.0000 0.0000 0.0000
# 4 0.0000 0.0000 0.0000 22.1680 0.0000 0.0000
# 5 0.0000 0.0000 0.0000 0.0000 19.8364 0.0000
# 6 0.0000 0.0000 0.0000 0.0000 0.0000 42.2626
#
#
#
# Elastic Compliance Matrix: (Units=1/GPa)
#
#
# Indices 1 2 3 4 5 6 
#
# 1 0.014031 -0.004157 -0.002086 0.000000 0.000000 0.000000
# 2 -0.004157 0.013141 -0.003335 0.000000 0.000000 0.000000
# 3 -0.002086 -0.003335 0.012669 0.000000 0.000000 0.000000
# 4 0.000000 0.000000 0.000000 0.045110 0.000000 0.000000
# 5 0.000000 0.000000 0.000000 0.000000 0.050412 0.000000
# 6 0.000000 0.000000 0.000000 0.000000 0.000000 0.023662
#
#
# Mechanical properties :
#
#
# Convention : Reuss Voigt Hill
#
# Bulk Modulus (GPa) = 48.34394 48.67127 48.50761
# Shear Modulus (GPa) = 27.01605 29.11505 28.06555
#
# Velocity S-wave (km/s) = 3.64255 3.78141 3.71263
# Velocity P-wave (km/s) = 6.43690 6.55507 6.49626
#
# Compressibility (1/GPa) = 0.02068512
#
# Stress axis : x y z
#
# Youngs Moduli (GPa) = 71.26960 76.09918 78.93504
#
# Poissons Ratio (x) = 0.31632 0.16466
# Poissons Ratio (y) = 0.29625 0.26325
# Poissons Ratio (z) = 0.14867 0.25379
#
# Static dielectric constant tensor:
#      x y z
#    x 3.762000 0.000000 0.000000 
#    y 0.000000 3.777090 0.000000 
#    z 0.000000 0.000000 3.812370 
# 
# 
# High freq. dielectric constant tensor:
#      x y z
#    x 1.801920 0.000000 0.000000 
#    y 0.000000 1.804430 0.000000 
#    z 0.000000 0.000000 1.798270 
# 
# From -- ./inp_files/11766.got.cif
#   From: 2010.03.12/outbox.cif.g09.slc.cpg/sg37_6_cif.got.tgz:11766.got - 2010.04.14 02:25:27.
