data_PCOD8177223
_publ_section_title
;
Structure prediction by ZEFSAII (Michael W. Deem and Ramdas Pophale) SiO2 
 PCOD8177223
Probable space group: A M M 2
;
_chemical_formula_sum "Si O2"
_cell_formula_units_Z 64
_cell_length_a 8.520879
_cell_length_b 26.587108
_cell_length_c 18.504958
_cell_angle_alpha 90.000000
_cell_angle_beta 90.000000
_cell_angle_gamma 90.000000
_cell_volume 4192.215522
_symmetry_space_group_name_H-M "A M M 2"
_symmetry_group_IT_number 38
_symmetry_cell_setting 'orthorhombic'
loop_
_space_group_symop_operation_xyz
x,y,z
-x,-y,z
-x,y,z
x,-y,z
x,1/2+y,1/2+z
-x,1/2-y,1/2+z
-x,1/2+y,1/2+z
x,1/2-y,1/2+z
loop_
_atom_site_type_symbol
_atom_site_label
_atom_site_fract_x
_atom_site_fract_y
_atom_site_fract_z
Si Si1 0.181558 0.057904 0.809660
Si Si2 0.683487 0.853314 0.894534
Si Si3 0.314929 0.747968 0.142430
Si Si4 0.183660 0.848414 0.564324
Si Si5 0.681292 0.799768 0.437012
Si Si6 0.685931 0.758674 0.803846
Si Si7 0.182922 0.295008 0.513448
Si Si8 0.813677 0.444954 0.147229
O O1 0.280635 0.091598 0.864491
O O2 0.244066 0.067759 0.728282
O O3 0.000000 0.072857 0.816068
O O4 0.208058 0.000000 0.831187
O O5 0.500000 0.847418 0.908091
O O6 0.748579 0.810973 0.838471
O O7 0.772079 0.846588 0.972130
O O8 0.500000 0.756921 0.142104
O O9 0.276473 0.693889 0.108249
O O10 0.245250 0.749115 0.223799
O O11 0.230229 0.793451 0.098324
O O12 0.219764 0.843216 0.478228
O O13 0.245671 0.902630 0.591446
O O14 0.000000 0.841813 0.578909
O O15 0.500000 0.814993 0.441150
O O16 0.734520 0.789516 0.353923
O O17 0.708093 0.747421 0.477862
O O18 0.500000 0.762646 0.800200
O O19 0.000000 0.282475 0.504678
O O20 0.748460 0.500000 0.123417
O O21 0.000000 0.447283 0.148535
#
# Coordination Sequence:
#
# PCOD8177223 Si02
#       8
#     8   8   8   8   8   8   8   8
#     4   9  17  29  43  59  80 107 138 171 205 236
#     4  10  18  29  43  59  80 108 139 167 200 238
#     4  10  17  27  41  57  79 105 132 162 199 238
#     4  10  17  25  39  59  79 103 137 168 197 234
#     4   9  16  28  41  55  78 106 133 162 199 238
#     4   8  16  27  40  57  77 104 135 163 193 236
#     4  10  18  28  40  57  79 103 133 165 197 234
#     4   8  15  27  41  57  80 109 139 171 204 236
#
# _framework density 15.266391
#
# number of rings (size 3 to 8) (size 9 to 14) (size 15 to 20)
#    0.000    2.750    0.000    6.375    0.000    0.250 
#    0.000    7.500    0.000    3.000    0.000    0.000 
#    0.000    1.000    0.000    8.000    0.000    2.625 
#
# Total GULP energy -396539.715151 kJ/mol
# GULP energy per Si atom -12391.866098 kJ/mol
# Density = 1.523164 g / cm^3
# Si number density = 15.266391 Si / 1000 Ang^3
#
#
#
# Elastic Constant Matrix: (Units=GPa)
#
#
# Indices 1 2 3 4 5 6 
#
# 1 39.6047 16.4086 21.8691 0.0000 0.0000 0.0000
# 2 16.4086 76.5560 51.5315 0.0000 0.0000 0.0000
# 3 21.8691 51.5315 107.5960 0.0000 0.0000 0.0000
# 4 0.0000 0.0000 0.0000 27.2578 0.0000 0.0000
# 5 0.0000 0.0000 0.0000 0.0000 18.9879 0.0000
# 6 0.0000 0.0000 0.0000 0.0000 0.0000 16.1637
#
#
#
# Elastic Compliance Matrix: (Units=1/GPa)
#
#
# Indices 1 2 3 4 5 6 
#
# 1 0.029002 -0.003318 -0.004306 0.000000 0.000000 0.000000
# 2 -0.003318 0.019656 -0.008740 0.000000 0.000000 0.000000
# 3 -0.004306 -0.008740 0.014355 0.000000 0.000000 0.000000
# 4 0.000000 0.000000 0.000000 0.036687 0.000000 0.000000
# 5 0.000000 0.000000 0.000000 0.000000 0.052665 0.000000
# 6 0.000000 0.000000 0.000000 0.000000 0.000000 0.061867
#
#
# Mechanical properties :
#
#
# Convention : Reuss Voigt Hill
#
# Bulk Modulus (GPa) = 33.01799 44.81944 38.91872
# Shear Modulus (GPa) = 19.45119 21.41172 20.43145
#
# Velocity S-wave (km/s) = 3.57335 3.74911 3.66229
# Velocity P-wave (km/s) = 6.22093 6.93996 6.59026
#
# Compressibility (1/GPa) = 0.03028652
#
# Stress axis : x y z
#
# Youngs Moduli (GPa) = 34.48080 50.87399 69.66238
#
# Poissons Ratio (x) = 0.16879 0.29994
# Poissons Ratio (y) = 0.11440 0.60883
# Poissons Ratio (z) = 0.14846 0.44463
#
# Static dielectric constant tensor:
#      x y z
#    x 2.766140 0.000000 0.000000 
#    y 0.000000 2.897900 0.000000 
#    z 0.000000 0.000000 3.390700 
# 
# 
# High freq. dielectric constant tensor:
#      x y z
#    x 1.579610 0.000000 0.000000 
#    y 0.000000 1.547790 0.000000 
#    z 0.000000 0.000000 1.577870 
# 
# From -- ./inp_files/17350.got.cif
#   From: 2010.03.12/outbox.cif.g09.slc.cpg/sg38_9_cif.got.tgz:17350.got - 2010.04.14 02:38:36.
