data_PCOD8177626
_publ_section_title
;
Structure prediction by ZEFSAII (Michael W. Deem and Ramdas Pophale) SiO2 
 PCOD8177626
Probable space group: A M M 2
;
_chemical_formula_sum "Si O2"
_cell_formula_units_Z 64
_cell_length_a 8.659081
_cell_length_b 23.529382
_cell_length_c 19.128174
_cell_angle_alpha 90.000000
_cell_angle_beta 90.000000
_cell_angle_gamma 90.000000
_cell_volume 3897.228201
_symmetry_space_group_name_H-M "A M M 2"
_symmetry_group_IT_number 38
_symmetry_cell_setting 'orthorhombic'
loop_
_space_group_symop_operation_xyz
x,y,z
-x,-y,z
-x,y,z
x,-y,z
x,1/2+y,1/2+z
-x,1/2-y,1/2+z
-x,1/2+y,1/2+z
x,1/2-y,1/2+z
loop_
_atom_site_type_symbol
_atom_site_label
_atom_site_fract_x
_atom_site_fract_y
_atom_site_fract_z
Si Si1 0.817884 0.267436 0.027210
Si Si2 0.318447 0.833342 0.114868
Si Si3 0.817690 0.332797 0.158833
Si Si4 0.682022 0.247245 0.882090
Si Si5 0.316702 0.382160 0.383361
Si Si6 0.317944 0.062790 0.025232
Si Si7 0.817341 0.276833 0.740973
Si Si8 0.182753 0.936108 0.746511
O O1 0.771386 0.208421 0.062871
O O2 0.766736 0.319010 0.079262
O O3 0.000000 0.267481 0.013575
O O4 0.729420 0.276507 0.954751
O O5 0.500000 0.820822 0.108169
O O6 0.277164 0.897389 0.091186
O O7 0.260675 0.826230 0.194338
O O8 0.756908 0.283609 0.210895
O O9 0.754853 0.393798 0.185451
O O10 0.000000 0.332057 0.162693
O O11 0.500000 0.250221 0.872950
O O12 0.744296 0.182537 0.879452
O O13 0.761612 0.283082 0.820391
O O14 0.500000 0.382186 0.382727
O O15 0.250180 0.410125 0.454063
O O16 0.256190 0.419279 0.319690
O O17 0.500000 0.058065 0.016283
O O18 0.246373 0.000000 0.037523
O O19 0.000000 0.283354 0.736071
O O20 0.000000 0.931183 0.754246
O O21 0.233484 0.000000 0.726477
#
# Coordination Sequence:
#
# PCOD8177626 Si02
#       8
#     8   8   8   8   8   8   8   8
#     4  10  19  31  48  67  93 127 158 194 242 292
#     4  10  18  31  48  70  96 123 161 204 236 279
#     4   8  16  30  45  65  90 120 156 190 228 275
#     4  11  20  31  48  73  96 123 159 198 241 283
#     4  10  19  31  45  65  95 129 162 193 227 274
#     4   9  17  30  47  66  93 130 165 196 234 276
#     4  10  19  32  49  68  94 127 157 193 242 292
#     4  10  19  31  47  67  93 126 162 196 228 270
#
# _framework density 16.421927
#
# number of rings (size 3 to 8) (size 9 to 14) (size 15 to 20)
#    0.000    2.250    2.500    2.625    0.000    1.250 
#    0.000    0.625    0.000    2.250    0.000    0.875 
#    0.000    3.000    0.000    0.000    0.000    0.000 
#
# Total GULP energy -396723.337741 kJ/mol
# GULP energy per Si atom -12397.604304 kJ/mol
# Density = 1.638455 g / cm^3
# Si number density = 16.421927 Si / 1000 Ang^3
#
#
#
# Elastic Constant Matrix: (Units=GPa)
#
#
# Indices 1 2 3 4 5 6 
#
# 1 23.1197 16.0793 8.4636 0.0000 0.0000 0.0000
# 2 16.0793 95.6108 62.5635 0.0000 0.0000 0.0000
# 3 8.4636 62.5635 115.8475 0.0000 0.0000 0.0000
# 4 0.0000 0.0000 0.0000 25.5782 0.0000 0.0000
# 5 0.0000 0.0000 0.0000 0.0000 27.6640 0.0000
# 6 0.0000 0.0000 0.0000 0.0000 0.0000 14.5257
#
#
#
# Elastic Compliance Matrix: (Units=1/GPa)
#
#
# Indices 1 2 3 4 5 6 
#
# 1 0.049118 -0.009144 0.001349 0.000000 0.000000 0.000000
# 2 -0.009144 0.017877 -0.008987 0.000000 0.000000 0.000000
# 3 0.001349 -0.008987 0.013387 0.000000 0.000000 0.000000
# 4 0.000000 0.000000 0.000000 0.039096 0.000000 0.000000
# 5 0.000000 0.000000 0.000000 0.000000 0.036148 0.000000
# 6 0.000000 0.000000 0.000000 0.000000 0.000000 0.068844
#
#
# Mechanical properties :
#
#
# Convention : Reuss Voigt Hill
#
# Bulk Modulus (GPa) = 21.35796 45.42120 33.38958
# Shear Modulus (GPa) = 18.27232 23.38501 20.82866
#
# Velocity S-wave (km/s) = 3.33930 3.77770 3.56525
# Velocity P-wave (km/s) = 5.28223 6.83717 6.10937
#
# Compressibility (1/GPa) = 0.04682096
#
# Stress axis : x y z
#
# Youngs Moduli (GPa) = 20.35900 55.93717 74.70127
#
# Poissons Ratio (x) = 0.51146 -0.10081
# Poissons Ratio (y) = 0.18615 0.67131
# Poissons Ratio (z) = -0.02747 0.50268
#
# Static dielectric constant tensor:
#      x y z
#    x 2.942500 0.000000 0.000000 
#    y 0.000000 3.255620 0.000000 
#    z 0.000000 0.000000 3.212670 
# 
# 
# High freq. dielectric constant tensor:
#      x y z
#    x 1.621450 0.000000 0.000000 
#    y 0.000000 1.606060 0.000000 
#    z 0.000000 0.000000 1.630300 
# 
# From -- ./inp_files/17283.got.cif
#   From: 2010.03.12/outbox.cif.g09.slc.cpg/sg38_9_cif.got.tgz:17283.got - 2010.04.14 02:38:36.
