data_PCOD8177852
_publ_section_title
;
Structure prediction by ZEFSAII (Michael W. Deem and Ramdas Pophale) SiO2 
 PCOD8177852
Probable space group: A M M 2
;
_chemical_formula_sum "Si O2"
_cell_formula_units_Z 64
_cell_length_a 9.081781
_cell_length_b 18.426518
_cell_length_c 26.610997
_cell_angle_alpha 90.000000
_cell_angle_beta 90.000000
_cell_angle_gamma 90.000000
_cell_volume 4453.233288
_symmetry_space_group_name_H-M "A M M 2"
_symmetry_group_IT_number 38
_symmetry_cell_setting 'orthorhombic'
loop_
_space_group_symop_operation_xyz
x,y,z
-x,-y,z
-x,y,z
x,-y,z
x,1/2+y,1/2+z
-x,1/2-y,1/2+z
-x,1/2+y,1/2+z
x,1/2-y,1/2+z
loop_
_atom_site_type_symbol
_atom_site_label
_atom_site_fract_x
_atom_site_fract_y
_atom_site_fract_z
Si Si1 0.323451 0.419203 0.523980
Si Si2 0.331338 0.915768 0.314153
Si Si3 0.830103 0.916738 0.511538
Si Si4 0.338308 0.699486 0.067450
Si Si5 0.325970 0.838705 0.123173
Si Si6 0.173669 0.916877 0.212987
Si Si7 0.661008 0.710346 0.465983
Si Si8 0.323577 0.349390 0.918200
O O1 0.500000 0.416436 0.522063
O O2 0.262102 0.500000 0.514936
O O3 0.270937 0.391392 0.578359
O O4 0.258946 0.366365 0.479381
O O5 0.500000 0.896203 0.301636
O O6 0.231426 0.892469 0.267478
O O7 0.273920 0.872617 0.362878
O O8 0.313975 0.000000 0.326913
O O9 0.771907 0.867372 0.557825
O O10 0.744297 0.902703 0.459674
O O11 0.000000 0.897984 0.502540
O O12 0.806932 0.000000 0.527294
O O13 0.500000 0.668078 0.081235
O O14 0.283688 0.754557 0.111343
O O15 0.353877 0.747702 0.018159
O O16 0.500000 0.846788 0.131278
O O17 0.242956 0.862609 0.173037
O O18 0.000000 0.908653 0.212106
O O19 0.222394 0.000000 0.201927
O O20 0.500000 0.692079 0.444098
O O21 0.737870 0.766467 0.427091
O O22 0.500000 0.352599 0.924735
#
# Coordination Sequence:
#
# PCOD8177852 Si02
#       8
#     8   8   8   8   8   8   8   8
#     4   8  12  18  32  55  79 101 124 150 181 218
#     4   9  17  28  41  55  70  94 131 169 201 233
#     4  10  19  27  37  57  83 108 132 158 191 233
#     4   8  15  27  41  56  74  99 131 164 195 227
#     4   9  16  27  43  59  75 100 135 168 194 223
#     4  10  20  30  39  55  80 106 129 158 199 240
#     4   7  11  20  33  51  74  96 121 154 187 220
#     4   9  16  27  42  56  73 101 135 168 200 231
#
# _framework density 14.37158
#
# number of rings (size 3 to 8) (size 9 to 14) (size 15 to 20)
#    0.000    3.250    0.000    3.750    0.000    3.750 
#    0.000    1.250    0.000    0.000    0.000    0.000 
#    0.000    1.000    0.000    7.500    0.000    1.875 
#
# Total GULP energy -396447.436807 kJ/mol
# GULP energy per Si atom -12388.982400 kJ/mol
# Density = 1.433887 g / cm^3
# Si number density = 14.371580 Si / 1000 Ang^3
#
#
#
# Elastic Constant Matrix: (Units=GPa)
#
#
# Indices 1 2 3 4 5 6 
#
# 1 43.9484 34.6696 31.6710 0.0000 0.0000 0.0000
# 2 34.6696 100.3916 56.4049 0.0000 0.0000 0.0000
# 3 31.6710 56.4049 88.3677 0.0000 0.0000 0.0000
# 4 0.0000 0.0000 0.0000 26.7393 0.0000 0.0000
# 5 0.0000 0.0000 0.0000 0.0000 10.6370 0.0000
# 6 0.0000 0.0000 0.0000 0.0000 0.0000 14.4837
#
#
#
# Elastic Compliance Matrix: (Units=1/GPa)
#
#
# Indices 1 2 3 4 5 6 
#
# 1 0.034068 -0.007648 -0.007329 0.000000 0.000000 0.000000
# 2 -0.007648 0.017247 -0.008268 0.000000 0.000000 0.000000
# 3 -0.007329 -0.008268 0.019220 0.000000 0.000000 0.000000
# 4 0.000000 0.000000 0.000000 0.037398 0.000000 0.000000
# 5 0.000000 0.000000 0.000000 0.000000 0.094011 0.000000
# 6 0.000000 0.000000 0.000000 0.000000 0.000000 0.069043
#
#
# Mechanical properties :
#
#
# Convention : Reuss Voigt Hill
#
# Bulk Modulus (GPa) = 41.58447 53.13317 47.35882
# Shear Modulus (GPa) = 15.36131 17.70283 16.53207
#
# Velocity S-wave (km/s) = 3.27290 3.51350 3.39533
# Velocity P-wave (km/s) = 6.57879 7.31511 6.95670
#
# Compressibility (1/GPa) = 0.02404744
#
# Stress axis : x y z
#
# Youngs Moduli (GPa) = 29.35287 57.97943 52.02806
#
# Poissons Ratio (x) = 0.44341 0.38129
# Poissons Ratio (y) = 0.22448 0.43017
# Poissons Ratio (z) = 0.21511 0.47938
#
# Static dielectric constant tensor:
#      x y z
#    x 2.622750 0.000000 0.000000 
#    y 0.000000 3.070490 0.000000 
#    z 0.000000 0.000000 2.696780 
# 
# 
# High freq. dielectric constant tensor:
#      x y z
#    x 1.528570 0.000000 0.000000 
#    y 0.000000 1.542480 0.000000 
#    z 0.000000 0.000000 1.519030 
# 
# From -- ./inp_files/23645.got.cif
#   From: 2010.03.12/outbox.cif.g09.slc.cpg/sg38_12_cif.got.tgz:23645.got - 2010.04.14 02:38:36.
