data_PCOD8177631
_publ_section_title
;
Structure prediction by ZEFSAII (Michael W. Deem and Ramdas Pophale) SiO2 
 PCOD8177631
Probable space group: A M M 2
;
_chemical_formula_sum "Si O2"
_cell_formula_units_Z 64
_cell_length_a 9.108448
_cell_length_b 30.137381
_cell_length_c 14.211390
_cell_angle_alpha 90.000000
_cell_angle_beta 90.000000
_cell_angle_gamma 90.000000
_cell_volume 3901.094311
_symmetry_space_group_name_H-M "A M M 2"
_symmetry_group_IT_number 38
_symmetry_cell_setting 'orthorhombic'
loop_
_space_group_symop_operation_xyz
x,y,z
-x,-y,z
-x,y,z
x,-y,z
x,1/2+y,1/2+z
-x,1/2-y,1/2+z
-x,1/2+y,1/2+z
x,1/2-y,1/2+z
loop_
_atom_site_type_symbol
_atom_site_label
_atom_site_fract_x
_atom_site_fract_y
_atom_site_fract_z
Si Si1 0.172940 0.283479 0.169000
Si Si2 0.674292 0.048473 0.284479
Si Si3 0.332067 0.277596 0.366778
Si Si4 0.173509 0.302303 0.548123
Si Si5 0.828626 0.133368 0.544027
Si Si6 0.327471 0.049824 0.498461
Si Si7 0.336706 0.824166 0.381089
Si Si8 0.670076 0.864627 0.184105
O O1 0.257751 0.283135 0.266345
O O2 0.222495 0.242070 0.104154
O O3 0.218430 0.329486 0.119212
O O4 0.000000 0.280880 0.188506
O O5 0.500000 0.049090 0.286308
O O6 0.726971 0.057683 0.391065
O O7 0.729733 0.086480 0.213277
O O8 0.731386 0.000000 0.250544
O O9 0.500000 0.293944 0.360232
O O10 0.245357 0.305282 0.445158
O O11 0.322809 0.227383 0.401767
O O12 0.229648 0.346276 0.600806
O O13 0.000000 0.304140 0.536549
O O14 0.751207 0.086096 0.565327
O O15 0.782652 0.149702 0.440822
O O16 0.000000 0.125362 0.545507
O O17 0.500000 0.056550 0.507523
O O18 0.283672 0.000000 0.530714
O O19 0.500000 0.841834 0.407674
O O20 0.307689 0.831679 0.271405
O O21 0.500000 0.865965 0.152245
#
# Coordination Sequence:
#
# PCOD8177631 Si02
#       8
#     8   8   8   8   8   8   8   8
#     4  10  22  36  49  69  99 135 168 202 247 299
#     4   8  14  26  46  70  97 129 162 200 245 289
#     4  11  22  35  52  72  96 129 171 216 249 282
#     4  11  22  35  50  70 101 135 166 201 248 302
#     4  11  21  32  48  72 102 136 171 202 244 300
#     4   9  17  31  50  72 100 133 167 204 249 295
#     4  10  19  30  47  71 100 131 166 208 247 283
#     4  10  18  31  49  72  99 130 172 208 240 287
#
# _framework density 16.405653999999998
#
# number of rings (size 3 to 8) (size 9 to 14) (size 15 to 20)
#    0.000    2.000    3.750    1.875    0.000    2.750 
#    0.000    0.000    0.000    0.375    0.000    0.875 
#    0.000    5.000    0.000    0.000    0.000    0.000 
#
# Total GULP energy -396728.933933 kJ/mol
# GULP energy per Si atom -12397.779185 kJ/mol
# Density = 1.636831 g / cm^3
# Si number density = 16.405654 Si / 1000 Ang^3
#
#
#
# Elastic Constant Matrix: (Units=GPa)
#
#
# Indices 1 2 3 4 5 6 
#
# 1 51.2096 37.7609 37.0827 0.0000 0.0000 0.0000
# 2 37.7609 97.4084 31.7701 0.0000 0.0000 0.0000
# 3 37.0827 31.7701 69.2122 0.0000 0.0000 0.0000
# 4 0.0000 0.0000 0.0000 24.7075 0.0000 0.0000
# 5 0.0000 0.0000 0.0000 0.0000 27.8189 0.0000
# 6 0.0000 0.0000 0.0000 0.0000 0.0000 23.3504
#
#
#
# Elastic Compliance Matrix: (Units=1/GPa)
#
#
# Indices 1 2 3 4 5 6 
#
# 1 0.038243 -0.009576 -0.016094 0.000000 0.000000 0.000000
# 2 -0.009576 0.014471 -0.001512 0.000000 0.000000 0.000000
# 3 -0.016094 -0.001512 0.023766 0.000000 0.000000 0.000000
# 4 0.000000 0.000000 0.000000 0.040474 0.000000 0.000000
# 5 0.000000 0.000000 0.000000 0.000000 0.035947 0.000000
# 6 0.000000 0.000000 0.000000 0.000000 0.000000 0.042826
#
#
# Mechanical properties :
#
#
# Convention : Reuss Voigt Hill
#
# Bulk Modulus (GPa) = 45.21783 47.89529 46.55656
# Shear Modulus (GPa) = 19.42024 22.58978 21.00501
#
# Velocity S-wave (km/s) = 3.44430 3.71475 3.58208
# Velocity P-wave (km/s) = 6.59089 6.90340 6.74895
#
# Compressibility (1/GPa) = 0.02211517
#
# Stress axis : x y z
#
# Youngs Moduli (GPa) = 26.14835 69.10173 42.07769
#
# Poissons Ratio (x) = 0.66172 0.67722
# Poissons Ratio (y) = 0.25040 0.06363
# Poissons Ratio (z) = 0.42084 0.10449
#
# Static dielectric constant tensor:
#      x y z
#    x 2.988320 0.000000 0.000000 
#    y 0.000000 3.368190 0.000000 
#    z 0.000000 0.000000 2.849310 
# 
# 
# High freq. dielectric constant tensor:
#      x y z
#    x 1.623670 0.000000 0.000000 
#    y 0.000000 1.630640 0.000000 
#    z 0.000000 0.000000 1.601180 
# 
# From -- ./inp_files/13066.got.cif
#   From: 2010.03.12/outbox.cif.g09.slc.cpg/sg38_7_cif.got.tgz:13066.got - 2010.04.14 02:38:36.
