data_PCOD8177108
_publ_section_title
;
Structure prediction by ZEFSAII (Michael W. Deem and Ramdas Pophale) SiO2 
 PCOD8177108
Probable space group: C C C 2
;
_chemical_formula_sum "Si O2"
_cell_formula_units_Z 48
_cell_length_a 4.962832
_cell_length_b 22.620798
_cell_length_c 19.977467
_cell_angle_alpha 90.000000
_cell_angle_beta 90.000000
_cell_angle_gamma 90.000000
_cell_volume 2242.734776
_symmetry_space_group_name_H-M "C C C 2"
_symmetry_group_IT_number 37
_symmetry_cell_setting 'orthorhombic'
loop_
_space_group_symop_operation_xyz
x,y,z
-x,-y,z
-x,y,1/2+z
x,-y,1/2+z
1/2+x,1/2+y,z
1/2-x,1/2-y,z
1/2-x,1/2+y,1/2+z
1/2+x,1/2-y,1/2+z
loop_
_atom_site_type_symbol
_atom_site_label
_atom_site_fract_x
_atom_site_fract_y
_atom_site_fract_z
Si Si1 0.643898 0.886013 0.385600
Si Si2 0.349045 0.684881 0.336671
Si Si3 0.979747 0.432485 0.026571
Si Si4 0.475665 0.594106 0.611597
Si Si5 0.509674 0.289161 0.187946
Si Si6 0.500000 0.000000 0.807832
Si Si7 0.000000 0.000000 0.220063
O O1 0.389423 0.859046 0.349877
O O2 0.609344 0.891685 0.465042
O O3 0.893573 0.841581 0.375175
O O4 0.656857 0.950872 0.352283
O O5 0.250000 0.750000 0.360819
O O6 0.405752 0.682606 0.258106
O O7 0.773391 0.424166 0.087759
O O8 0.000000 0.500000 0.002887
O O9 0.275191 0.413432 0.049715
O O10 0.453504 0.661673 0.633044
O O11 0.391866 0.553436 0.674090
O O12 0.750000 0.250000 0.158277
O O13 0.250000 0.250000 0.200930
O O14 0.253790 0.024627 0.762705
#
# Coordination Sequence:
#
# PCOD8177108 Si02
#       7
#     8   8   8   8   8   4   4
#     4  12  24  43  66  98 132 174 226 269 334 402
#     4  11  24  44  69  97 132 175 219 276 340 396
#     4  12  24  45  65  94 134 186 214 266 334 397
#     4  12  24  43  66  96 131 173 228 263 331 398
#     4  11  23  43  69  96 131 173 215 273 337 390
#     4  12  24  38  64 100 132 162 214 286 342 390
#     4  12  24  38  64  98 132 164 214 286 334 396
#
# _framework density 21.402442000000001
#
# number of rings (size 3 to 8) (size 9 to 14) (size 15 to 20)
#    0.000    0.333    2.500    8.500    0.000    0.000 
#    0.000    8.333    0.000    0.000    0.000    0.000 
#    0.000    0.000    0.000    0.000    0.000    0.000 
#
# Total GULP energy -297678.294248 kJ/mol
# GULP energy per Si atom -12403.262260 kJ/mol
# Density = 2.135373 g / cm^3
# Si number density = 21.402442 Si / 1000 Ang^3
#
#
#
# Elastic Constant Matrix: (Units=GPa)
#
#
# Indices 1 2 3 4 5 6 
#
# 1 128.2296 41.0905 28.8086 0.0000 0.0000 0.0000
# 2 41.0905 129.1128 45.1947 0.0000 0.0000 0.0000
# 3 28.8086 45.1947 89.0607 0.0000 0.0000 0.0000
# 4 0.0000 0.0000 0.0000 38.6098 0.0000 0.0000
# 5 0.0000 0.0000 0.0000 0.0000 17.7287 0.0000
# 6 0.0000 0.0000 0.0000 0.0000 0.0000 48.6321
#
#
#
# Elastic Compliance Matrix: (Units=1/GPa)
#
#
# Indices 1 2 3 4 5 6 
#
# 1 0.008904 -0.002220 -0.001754 0.000000 0.000000 0.000000
# 2 -0.002220 0.009972 -0.004342 0.000000 0.000000 0.000000
# 3 -0.001754 -0.004342 0.013999 0.000000 0.000000 0.000000
# 4 0.000000 0.000000 0.000000 0.025900 0.000000 0.000000
# 5 0.000000 0.000000 0.000000 0.000000 0.056406 0.000000
# 6 0.000000 0.000000 0.000000 0.000000 0.000000 0.020563
#
#
# Mechanical properties :
#
#
# Convention : Reuss Voigt Hill
#
# Bulk Modulus (GPa) = 61.56425 64.06564 62.81495
# Shear Modulus (GPa) = 31.68802 36.41474 34.05138
#
# Velocity S-wave (km/s) = 3.85200 4.12931 3.99307
# Velocity P-wave (km/s) = 6.97219 7.26180 7.11847
#
# Compressibility (1/GPa) = 0.01624319
#
# Stress axis : x y z
#
# Youngs Moduli (GPa) = 112.31125 100.28538 71.43363
#
# Poissons Ratio (x) = 0.22262 0.12527
# Poissons Ratio (y) = 0.24931 0.31017
# Poissons Ratio (z) = 0.19696 0.43545
#
# Static dielectric constant tensor:
#      x y z
#    x 3.949480 0.000000 0.000000 
#    y 0.000000 3.997370 0.000000 
#    z 0.000000 0.000000 3.709710 
# 
# 
# High freq. dielectric constant tensor:
#      x y z
#    x 1.857540 0.000000 0.000000 
#    y 0.000000 1.846300 0.000000 
#    z 0.000000 0.000000 1.834950 
# 
# From -- ./inp_files/13926.got.cif
#   From: 2010.03.12/outbox.cif.g09.slc.cpg/sg37_7_cif.got.tgz:13926.got - 2010.04.14 02:25:27.
