data_PCOD8177918
_publ_section_title
;
Structure prediction by ZEFSAII (Michael W. Deem and Ramdas Pophale) SiO2 
 PCOD8177918
Probable space group: A M M 2
;
_chemical_formula_sum "Si O2"
_cell_formula_units_Z 56
_cell_length_a 9.185238
_cell_length_b 13.623259
_cell_length_c 28.710619
_cell_angle_alpha 90.000000
_cell_angle_beta 90.000000
_cell_angle_gamma 90.000000
_cell_volume 3592.642334
_symmetry_space_group_name_H-M "A M M 2"
_symmetry_group_IT_number 38
_symmetry_cell_setting 'orthorhombic'
loop_
_space_group_symop_operation_xyz
x,y,z
-x,-y,z
-x,y,z
x,-y,z
x,1/2+y,1/2+z
-x,1/2-y,1/2+z
-x,1/2+y,1/2+z
x,1/2-y,1/2+z
loop_
_atom_site_type_symbol
_atom_site_label
_atom_site_fract_x
_atom_site_fract_y
_atom_site_fract_z
Si Si1 0.329244 0.112557 0.174790
Si Si2 0.169158 0.884971 0.981905
Si Si3 0.830692 0.387002 0.850727
Si Si4 0.170357 0.219669 0.256331
Si Si5 0.668794 0.612650 0.303678
Si Si6 0.339382 0.116292 0.071208
Si Si7 0.670304 0.781032 0.898499
O O1 0.500000 0.122843 0.185140
O O2 0.239396 0.179863 0.209381
O O3 0.292295 0.151649 0.122739
O O4 0.279312 0.000000 0.181100
O O5 0.256247 0.824409 0.943991
O O6 0.000000 0.860531 0.977582
O O7 0.201042 0.000000 0.974745
O O8 0.223546 0.849045 0.032667
O O9 0.787316 0.500000 0.856547
O O10 0.792019 0.354682 0.798248
O O11 0.736852 0.325678 0.887657
O O12 0.000000 0.368428 0.861150
O O13 0.236590 0.326286 0.267078
O O14 0.000000 0.231534 0.248796
O O15 0.500000 0.630195 0.292340
O O16 0.714054 0.500000 0.298428
O O17 0.704509 0.645447 0.356194
O O18 0.500000 0.157969 0.058535
O O19 0.348748 0.000000 0.073047
O O20 0.500000 0.769304 0.907705
#
# Coordination Sequence:
#
# PCOD8177918 Si02
#       7
#     8   8   8   8   8   8   8
#     4   9  17  29  45  65  90 120 151 182 217 258
#     4  10  19  29  43  65  92 120 148 179 218 264
#     4   9  18  32  46  62  89 121 150 182 219 258
#     4  10  19  29  44  67  92 118 148 181 220 264
#     4   9  18  32  47  63  86 117 152 187 220 256
#     4   8  15  28  44  62  86 116 148 181 217 257
#     4  10  19  30  46  67  89 115 149 185 220 260
#
# _framework density 15.587413
#
# number of rings (size 3 to 8) (size 9 to 14) (size 15 to 20)
#    0.000    2.714    0.000    3.000    0.000    4.571 
#    0.000    1.429    0.000    0.000    0.000    1.000 
#    0.000    1.143    0.000    0.000    0.000    0.000 
#
# Total GULP energy -347200.929035 kJ/mol
# GULP energy per Si atom -12400.033180 kJ/mol
# Density = 1.555194 g / cm^3
# Si number density = 15.587413 Si / 1000 Ang^3
#
#
#
# Elastic Constant Matrix: (Units=GPa)
#
#
# Indices 1 2 3 4 5 6 
#
# 1 85.0321 55.6861 65.1898 0.0000 0.0000 0.0000
# 2 55.6861 94.8055 57.4093 0.0000 0.0000 0.0000
# 3 65.1898 57.4093 114.0222 0.0000 0.0000 0.0000
# 4 0.0000 0.0000 0.0000 24.5335 0.0000 0.0000
# 5 0.0000 0.0000 0.0000 0.0000 28.1488 0.0000
# 6 0.0000 0.0000 0.0000 0.0000 0.0000 23.7708
#
#
#
# Elastic Compliance Matrix: (Units=1/GPa)
#
#
# Indices 1 2 3 4 5 6 
#
# 1 0.025107 -0.008711 -0.009969 0.000000 0.000000 0.000000
# 2 -0.008711 0.018197 -0.004182 0.000000 0.000000 0.000000
# 3 -0.009969 -0.004182 0.016575 0.000000 0.000000 0.000000
# 4 0.000000 0.000000 0.000000 0.040761 0.000000 0.000000
# 5 0.000000 0.000000 0.000000 0.000000 0.035526 0.000000
# 6 0.000000 0.000000 0.000000 0.000000 0.000000 0.042068
#
#
# Mechanical properties :
#
#
# Convention : Reuss Voigt Hill
#
# Bulk Modulus (GPa) = 70.63840 72.27005 71.45422
# Shear Modulus (GPa) = 21.86509 22.99558 22.43033
#
# Velocity S-wave (km/s) = 3.74938 3.84509 3.79753
# Velocity P-wave (km/s) = 8.00998 8.13498 8.07272
#
# Compressibility (1/GPa) = 0.01415661
#
# Stress axis : x y z
#
# Youngs Moduli (GPa) = 39.82886 54.95540 60.33140
#
# Poissons Ratio (x) = 0.47871 0.60143
# Poissons Ratio (y) = 0.34694 0.25228
# Poissons Ratio (z) = 0.39705 0.22980
#
# Static dielectric constant tensor:
#      x y z
#    x 3.044140 0.000000 0.000000 
#    y 0.000000 2.805960 0.000000 
#    z 0.000000 0.000000 3.001770 
# 
# 
# High freq. dielectric constant tensor:
#      x y z
#    x 1.606730 0.000000 0.000000 
#    y 0.000000 1.569330 0.000000 
#    z 0.000000 0.000000 1.593630 
# 
# From -- ./inp_files/24631.got.cif
#   From: 2010.03.12/outbox.cif.g09.slc.cpg/sg38_13_cif.got.tgz:24631.got - 2010.04.14 02:38:36.
