data_PCOD8177648
_publ_section_title
;
Structure prediction by ZEFSAII (Michael W. Deem and Ramdas Pophale) SiO2 
 PCOD8177648
Probable space group: A M M 2
;
_chemical_formula_sum "Si O2"
_cell_formula_units_Z 64
_cell_length_a 19.010961
_cell_length_b 18.314021
_cell_length_c 10.272859
_cell_angle_alpha 90.000000
_cell_angle_beta 90.000000
_cell_angle_gamma 90.000000
_cell_volume 3576.671927
_symmetry_space_group_name_H-M "A M M 2"
_symmetry_group_IT_number 38
_symmetry_cell_setting 'orthorhombic'
loop_
_space_group_symop_operation_xyz
x,y,z
-x,-y,z
-x,y,z
x,-y,z
x,1/2+y,1/2+z
-x,1/2-y,1/2+z
-x,1/2+y,1/2+z
x,1/2-y,1/2+z
loop_
_atom_site_type_symbol
_atom_site_label
_atom_site_fract_x
_atom_site_fract_y
_atom_site_fract_z
Si Si1 0.663892 0.163329 0.550420
Si Si2 0.579275 0.661749 0.799133
Si Si3 0.080331 0.688137 0.151046
Si Si4 0.794723 0.584031 0.449124
Si Si5 0.663892 0.336670 0.547846
Si Si6 0.421832 0.835051 0.799133
Si Si7 0.205277 0.415969 0.149141
Si Si8 0.080331 0.688137 0.447219
O O1 0.622186 0.134942 0.424563
O O2 0.675688 0.250000 0.549133
O O3 0.618176 0.136771 0.672349
O O4 0.739565 0.125159 0.556417
O O5 0.500000 0.628866 0.799132
O O6 0.622186 0.634942 0.673703
O O7 0.573911 0.748316 0.799133
O O8 0.128256 0.617597 0.126097
O O9 0.090439 0.717587 0.299133
O O10 0.000000 0.663965 0.126765
O O11 0.103305 0.750000 0.049133
O O12 0.798386 0.500000 0.490093
O O13 0.739565 0.625159 0.541848
O O14 0.771467 0.593804 0.299132
O O15 0.871744 0.617597 0.472168
O O16 0.618176 0.363229 0.425917
O O17 0.500000 0.868535 0.799132
O O18 0.201614 0.500000 0.108172
O O19 0.000000 0.663965 0.471500
#
# Coordination Sequence:
#
# PCOD8177648 Si02
#       8
#     8   8   8   8   8   8   8   8
#     4  10  18  31  51  75 102 133 169 214 260 306
#     4   9  18  30  49  77 102 127 166 219 269 308
#     4   9  18  34  57  83 108 135 169 210 255 301
#     4  10  20  34  52  75 105 139 176 214 249 297
#     4  10  18  31  51  75 102 133 169 214 260 306
#     4   9  16  28  49  75 100 127 166 213 261 308
#     4  10  20  34  52  75 105 139 176 214 249 297
#     4   9  18  34  57  83 108 135 169 210 255 301
#
# _framework density 17.893730000000001
#
# number of rings (size 3 to 8) (size 9 to 14) (size 15 to 20)
#    0.000    2.500    1.250    1.500    0.000    3.500 
#    2.250    3.125    0.000    4.500    0.000    3.500 
#    0.000    0.000    0.000    0.000    0.000    0.000 
#
# Total GULP energy -396805.571483 kJ/mol
# GULP energy per Si atom -12400.174109 kJ/mol
# Density = 1.785300 g / cm^3
# Si number density = 17.893730 Si / 1000 Ang^3
#
#
#
# Elastic Constant Matrix: (Units=GPa)
#
#
# Indices 1 2 3 4 5 6 
#
# 1 129.3689 56.0181 61.9181 0.0000 0.0000 0.0000
# 2 56.0181 73.5574 40.9912 0.0000 0.0000 0.0000
# 3 61.9181 40.9912 122.5529 0.0000 0.0000 0.0000
# 4 0.0000 0.0000 0.0000 15.6852 0.0000 0.0000
# 5 0.0000 0.0000 0.0000 0.0000 30.9005 0.0000
# 6 0.0000 0.0000 0.0000 0.0000 0.0000 9.1643
#
#
#
# Elastic Compliance Matrix: (Units=1/GPa)
#
#
# Indices 1 2 3 4 5 6 
#
# 1 0.012944 -0.007637 -0.003986 0.000000 0.000000 0.000000
# 2 -0.007637 0.021215 -0.003238 0.000000 0.000000 0.000000
# 3 -0.003986 -0.003238 0.011256 0.000000 0.000000 0.000000
# 4 0.000000 0.000000 0.000000 0.063754 0.000000 0.000000
# 5 0.000000 0.000000 0.000000 0.000000 0.032362 0.000000
# 6 0.000000 0.000000 0.000000 0.000000 0.000000 0.109120
#
#
# Mechanical properties :
#
#
# Convention : Reuss Voigt Hill
#
# Bulk Modulus (GPa) = 63.71196 71.48156 67.59676
# Shear Modulus (GPa) = 17.50685 22.25344 19.88015
#
# Velocity S-wave (km/s) = 3.13130 3.53036 3.33680
# Velocity P-wave (km/s) = 6.98258 7.52678 7.25978
#
# Compressibility (1/GPa) = 0.01569564
#
# Stress axis : x y z
#
# Youngs Moduli (GPa) = 77.25509 47.13703 88.83938
#
# Poissons Ratio (x) = 0.35997 0.35407
# Poissons Ratio (y) = 0.58997 0.28762
# Poissons Ratio (z) = 0.30790 0.15261
#
# Static dielectric constant tensor:
#      x y z
#    x 3.420250 0.000000 0.000000 
#    y 0.000000 2.893750 0.000000 
#    z 0.000000 0.000000 3.408280 
# 
# 
# High freq. dielectric constant tensor:
#      x y z
#    x 1.708500 0.000000 0.000000 
#    y 0.000000 1.650130 0.000000 
#    z 0.000000 0.000000 1.691600 
# 
# From -- ./inp_files/6817.got.cif
#   From: 2010.03.12/outbox.cif.g09.slc.cpg/sg38_4_cif.got.tgz:6817.got - 2010.04.14 02:38:36.
