data_PCOD8177644
_publ_section_title
;
Structure prediction by ZEFSAII (Michael W. Deem and Ramdas Pophale) SiO2 
 PCOD8177644
Probable space group: A M M 2
;
_chemical_formula_sum "Si O2"
_cell_formula_units_Z 64
_cell_length_a 9.368172
_cell_length_b 19.482761
_cell_length_c 20.838119
_cell_angle_alpha 90.000000
_cell_angle_beta 90.000000
_cell_angle_gamma 90.000000
_cell_volume 3803.328805
_symmetry_space_group_name_H-M "A M M 2"
_symmetry_group_IT_number 38
_symmetry_cell_setting 'orthorhombic'
loop_
_space_group_symop_operation_xyz
x,y,z
-x,-y,z
-x,y,z
x,-y,z
x,1/2+y,1/2+z
-x,1/2-y,1/2+z
-x,1/2+y,1/2+z
x,1/2-y,1/2+z
loop_
_atom_site_type_symbol
_atom_site_label
_atom_site_fract_x
_atom_site_fract_y
_atom_site_fract_z
Si Si1 0.834424 0.198125 0.900560
Si Si2 0.665531 0.922290 0.701853
Si Si3 0.835136 0.924095 0.571772
Si Si4 0.832121 0.784887 0.517362
Si Si5 0.666505 0.922213 0.101771
Si Si6 0.831485 0.704077 0.642468
Si Si7 0.164941 0.302647 0.256982
Si Si8 0.335567 0.078067 0.954149
O O1 0.810628 0.226775 0.828704
O O2 0.757622 0.125364 0.908115
O O3 0.000000 0.185346 0.914403
O O4 0.768725 0.252451 0.951920
O O5 0.500000 0.902867 0.695499
O O6 0.737434 0.913417 0.633043
O O7 0.741399 0.871308 0.751233
O O8 0.684813 0.000000 0.727246
O O9 0.791104 0.865749 0.520319
O O10 0.000000 0.914059 0.593105
O O11 0.811691 0.000000 0.541538
O O12 0.773849 0.745798 0.580473
O O13 0.000000 0.776369 0.516157
O O14 0.500000 0.907199 0.111191
O O15 0.756427 0.870017 0.145421
O O16 0.702447 0.000000 0.123193
O O17 0.710965 0.911566 0.027840
O O18 0.785624 0.745380 0.706152
O O19 0.000000 0.692505 0.639977
O O20 0.000000 0.322269 0.245269
O O21 0.500000 0.098015 0.945400
O O22 0.308936 0.000000 0.932834
#
# Coordination Sequence:
#
# PCOD8177644 Si02
#       8
#     8   8   8   8   8   8   8   8
#     4  10  20  33  49  69  96 128 161 198 236 280
#     4  10  20  32  47  70  99 129 162 199 237 280
#     4   9  16  29  51  74  97 126 158 194 239 287
#     4   9  16  29  49  73  96 121 158 200 235 274
#     4   9  18  32  50  74 101 127 158 198 242 285
#     4  10  18  31  51  73  96 125 162 202 240 280
#     4  10  21  35  49  68  97 132 163 196 242 288
#     4   9  18  32  48  68  98 130 158 193 236 281
#
# _framework density 16.827365
#
# number of rings (size 3 to 8) (size 9 to 14) (size 15 to 20)
#    0.000    2.500    2.500    1.125    0.000    2.750 
#    0.000    4.375    0.000    0.750    0.000    3.500 
#    0.000    2.000    0.000    0.000    0.000    0.000 
#
# Total GULP energy -396720.006170 kJ/mol
# GULP energy per Si atom -12397.500193 kJ/mol
# Density = 1.678907 g / cm^3
# Si number density = 16.827365 Si / 1000 Ang^3
#
#
#
# Elastic Constant Matrix: (Units=GPa)
#
#
# Indices 1 2 3 4 5 6 
#
# 1 49.2890 41.7144 33.3550 0.0000 0.0000 0.0000
# 2 41.7144 120.9980 64.2715 0.0000 0.0000 0.0000
# 3 33.3550 64.2715 104.6639 0.0000 0.0000 0.0000
# 4 0.0000 0.0000 0.0000 24.5182 0.0000 0.0000
# 5 0.0000 0.0000 0.0000 0.0000 12.1008 0.0000
# 6 0.0000 0.0000 0.0000 0.0000 0.0000 25.1324
#
#
#
# Elastic Compliance Matrix: (Units=1/GPa)
#
#
# Indices 1 2 3 4 5 6 
#
# 1 0.030184 -0.007860 -0.004792 0.000000 0.000000 0.000000
# 2 -0.007860 0.014312 -0.006284 0.000000 0.000000 0.000000
# 3 -0.004792 -0.006284 0.014940 0.000000 0.000000 0.000000
# 4 0.000000 0.000000 0.000000 0.040786 0.000000 0.000000
# 5 0.000000 0.000000 0.000000 0.000000 0.082639 0.000000
# 6 0.000000 0.000000 0.000000 0.000000 0.000000 0.039789
#
#
# Mechanical properties :
#
#
# Convention : Reuss Voigt Hill
#
# Bulk Modulus (GPa) = 46.37457 61.51473 53.94465
# Shear Modulus (GPa) = 18.67676 21.39094 20.03385
#
# Velocity S-wave (km/s) = 3.33514 3.56926 3.45418
# Velocity P-wave (km/s) = 6.51534 7.32269 6.93078
#
# Compressibility (1/GPa) = 0.02156354
#
# Stress axis : x y z
#
# Youngs Moduli (GPa) = 33.13002 69.86970 66.93260
#
# Poissons Ratio (x) = 0.54921 0.32077
# Poissons Ratio (y) = 0.26042 0.42059
# Poissons Ratio (z) = 0.15877 0.43905
#
# Static dielectric constant tensor:
#      x y z
#    x 3.014250 0.000000 0.000000 
#    y 0.000000 3.302270 0.000000 
#    z 0.000000 0.000000 3.073290 
# 
# 
# High freq. dielectric constant tensor:
#      x y z
#    x 1.635430 0.000000 0.000000 
#    y 0.000000 1.650650 0.000000 
#    z 0.000000 0.000000 1.624020 
# 
# From -- ./inp_files/17176.got.cif
#   From: 2010.03.12/outbox.cif.g09.slc.cpg/sg38_9_cif.got.tgz:17176.got - 2010.04.14 02:38:36.
