data_PCOD8177859
_publ_section_title
;
Structure prediction by ZEFSAII (Michael W. Deem and Ramdas Pophale) SiO2 
 PCOD8177859
Probable space group: A M M 2
;
_chemical_formula_sum "Si O2"
_cell_formula_units_Z 56
_cell_length_a 7.842116
_cell_length_b 13.770296
_cell_length_c 32.092059
_cell_angle_alpha 90.000000
_cell_angle_beta 90.000000
_cell_angle_gamma 90.000000
_cell_volume 3465.565566
_symmetry_space_group_name_H-M "A M M 2"
_symmetry_group_IT_number 38
_symmetry_cell_setting 'orthorhombic'
loop_
_space_group_symop_operation_xyz
x,y,z
-x,-y,z
-x,y,z
x,-y,z
x,1/2+y,1/2+z
-x,1/2-y,1/2+z
-x,1/2+y,1/2+z
x,1/2-y,1/2+z
loop_
_atom_site_type_symbol
_atom_site_label
_atom_site_fract_x
_atom_site_fract_y
_atom_site_fract_z
Si Si1 0.196008 0.895058 0.562670
Si Si2 0.500000 0.114501 0.795267
Si Si3 0.810967 0.884173 0.849138
Si Si4 0.500000 0.883968 0.698863
Si Si5 0.800758 0.295563 0.146720
Si Si6 0.702794 0.390740 0.603578
Si Si7 0.306414 0.715078 0.522138
Si Si8 0.800789 0.108596 0.942125
O O1 0.268225 0.848177 0.605031
O O2 0.221001 0.821514 0.524229
O O3 0.000000 0.913104 0.570090
O O4 0.284364 0.000000 0.554025
O O5 0.329799 0.157624 0.817265
O O6 0.500000 0.142782 0.747387
O O7 0.500000 0.000000 0.801854
O O8 0.763284 0.849768 0.895987
O O9 0.000000 0.845262 0.836612
O O10 0.815831 0.000000 0.849082
O O11 0.674552 0.835561 0.682225
O O12 0.500000 0.000000 0.691011
O O13 0.779686 0.179809 0.139250
O O14 0.000000 0.318205 0.157757
O O15 0.500000 0.388536 0.606086
O O16 0.770840 0.500000 0.611337
O O17 0.769613 0.356974 0.557615
O O18 0.500000 0.731960 0.533663
O O19 0.290083 0.675575 0.475756
O O20 0.000000 0.108096 0.951418
O O21 0.726069 0.000000 0.946477
#
# Coordination Sequence:
#
# PCOD8177859 Si02
#       8
#     8   4   8   4   8   8   8   8
#     4   9  18  32  47  61  83 121 162 196 230 266
#     4   9  18  30  46  66  87 117 151 184 228 279
#     4   8  15  28  44  63  88 118 151 183 219 270
#     4  11  22  34  49  70  95 123 158 198 241 279
#     4  10  20  34  50  71  95 122 161 199 236 283
#     4   9  17  31  48  67  97 131 160 194 235 278
#     4  10  19  27  40  67  94 119 156 194 227 266
#     4   9  17  28  42  61  89 124 155 185 221 262
#
# _framework density 16.158978999999999
#
# number of rings (size 3 to 8) (size 9 to 14) (size 15 to 20)
#    0.000    2.714    0.714    2.143    2.000    3.429 
#    0.000    1.429    0.000    0.000    0.000    0.000 
#    0.000    2.286    0.000    2.286    0.000    0.000 
#
# Total GULP energy -346999.243207 kJ/mol
# GULP energy per Si atom -12392.830115 kJ/mol
# Density = 1.612220 g / cm^3
# Si number density = 16.158979 Si / 1000 Ang^3
#
#
#
# Elastic Constant Matrix: (Units=GPa)
#
#
# Indices 1 2 3 4 5 6 
#
# 1 76.9030 29.3320 47.7045 0.0000 0.0000 0.0000
# 2 29.3320 100.8380 40.8002 0.0000 0.0000 0.0000
# 3 47.7045 40.8002 98.6216 0.0000 0.0000 0.0000
# 4 0.0000 0.0000 0.0000 16.9599 0.0000 0.0000
# 5 0.0000 0.0000 0.0000 0.0000 23.8275 0.0000
# 6 0.0000 0.0000 0.0000 0.0000 0.0000 16.3452
#
#
#
# Elastic Compliance Matrix: (Units=1/GPa)
#
#
# Indices 1 2 3 4 5 6 
#
# 1 0.018964 -0.002168 -0.008276 0.000000 0.000000 0.000000
# 2 -0.002168 0.012158 -0.003981 0.000000 0.000000 0.000000
# 3 -0.008276 -0.003981 0.015790 0.000000 0.000000 0.000000
# 4 0.000000 0.000000 0.000000 0.058963 0.000000 0.000000
# 5 0.000000 0.000000 0.000000 0.000000 0.041968 0.000000
# 6 0.000000 0.000000 0.000000 0.000000 0.000000 0.061180
#
#
# Mechanical properties :
#
#
# Convention : Reuss Voigt Hill
#
# Bulk Modulus (GPa) = 55.36539 56.89290 56.12915
# Shear Modulus (GPa) = 20.50056 21.99490 21.24773
#
# Velocity S-wave (km/s) = 3.56572 3.69339 3.63011
# Velocity P-wave (km/s) = 7.16169 7.31251 7.23749
#
# Compressibility (1/GPa) = 0.01806182
#
# Stress axis : x y z
#
# Youngs Moduli (GPa) = 52.73082 82.24792 63.32974
#
# Poissons Ratio (x) = 0.17828 0.52415
# Poissons Ratio (y) = 0.11430 0.25215
# Poissons Ratio (z) = 0.43643 0.32747
#
# Static dielectric constant tensor:
#      x y z
#    x 3.120670 0.000000 0.000000 
#    y 0.000000 3.039140 0.000000 
#    z 0.000000 0.000000 2.907890 
# 
# 
# High freq. dielectric constant tensor:
#      x y z
#    x 1.630690 0.000000 0.000000 
#    y 0.000000 1.589370 0.000000 
#    z 0.000000 0.000000 1.595410 
# 
# From -- ./inp_files/24671.got.cif
#   From: 2010.03.12/outbox.cif.g09.slc.cpg/sg38_13_cif.got.tgz:24671.got - 2010.04.14 02:38:36.
