data_PCOD8177827
_publ_section_title
;
Structure prediction by ZEFSAII (Michael W. Deem and Ramdas Pophale) SiO2 
 PCOD8177827
Probable space group: A M M 2
;
_chemical_formula_sum "Si O2"
_cell_formula_units_Z 48
_cell_length_a 8.653879
_cell_length_b 14.591468
_cell_length_c 20.480874
_cell_angle_alpha 90.000000
_cell_angle_beta 90.000000
_cell_angle_gamma 90.000000
_cell_volume 2586.177276
_symmetry_space_group_name_H-M "A M M 2"
_symmetry_group_IT_number 38
_symmetry_cell_setting 'orthorhombic'
loop_
_space_group_symop_operation_xyz
x,y,z
-x,-y,z
-x,y,z
x,-y,z
x,1/2+y,1/2+z
-x,1/2-y,1/2+z
-x,1/2+y,1/2+z
x,1/2-y,1/2+z
loop_
_atom_site_type_symbol
_atom_site_label
_atom_site_fract_x
_atom_site_fract_y
_atom_site_fract_z
Si Si1 0.683182 0.196055 0.058060
Si Si2 0.316808 0.000000 0.249683
Si Si3 0.317040 0.500000 0.994825
Si Si4 0.316642 0.694619 0.184874
Si Si5 0.683984 0.500000 0.142451
Si Si6 0.818694 0.313622 0.944609
Si Si7 0.682587 0.000000 0.103732
Si Si8 0.683768 0.808589 0.307656
O O1 0.500000 0.207601 0.049232
O O2 0.742615 0.248495 0.122550
O O3 0.734398 0.090066 0.064136
O O4 0.767605 0.236929 0.995703
O O5 0.260848 0.089389 0.288549
O O6 0.500000 0.000000 0.243814
O O7 0.245239 0.000000 0.176646
O O8 0.500000 0.500000 0.994315
O O9 0.251902 0.500000 0.068564
O O10 0.261338 0.589566 0.957562
O O11 0.500000 0.697633 0.184450
O O12 0.254815 0.590234 0.179844
O O13 0.256038 0.739428 0.251590
O O14 0.500000 0.500000 0.139963
O O15 0.766634 0.278042 0.873811
O O16 0.000000 0.327288 0.947758
O O17 0.500000 0.000000 0.112045
O O18 0.500000 0.803465 0.316343
#
# Coordination Sequence:
#
# PCOD8177827 Si02
#       8
#     8   4   4   8   4   8   4   8
#     4  10  18  34  59  85 111 144 188 237 287 334
#     4   9  15  27  53  85 109 129 167 230 295 335
#     4  11  20  36  63  87 111 143 185 237 290 336
#     4   9  16  29  54  84 110 137 181 236 281 330
#     4   9  16  28  53  88 112 132 171 234 291 328
#     4  12  25  38  52  79 121 158 190 227 276 343
#     4   9  16  29  57  92 114 130 177 245 288 323
#     4  10  19  33  55  81 109 144 186 231 282 335
#
# _framework density 18.560210999999999
#
# number of rings (size 3 to 8) (size 9 to 14) (size 15 to 20)
#    0.000    2.000    3.333    2.250    0.000    0.667 
#    0.000    2.083    0.000    4.000    0.000    0.000 
#    0.000    0.000    0.000    0.000    0.000    0.000 
#
# Total GULP energy -297603.833064 kJ/mol
# GULP energy per Si atom -12400.159711 kJ/mol
# Density = 1.851797 g / cm^3
# Si number density = 18.560211 Si / 1000 Ang^3
#
#
#
# Elastic Constant Matrix: (Units=GPa)
#
#
# Indices 1 2 3 4 5 6 
#
# 1 45.0101 23.3150 32.2539 0.0000 0.0000 0.0000
# 2 23.3150 153.9877 78.9153 0.0000 0.0000 0.0000
# 3 32.2539 78.9153 163.6273 0.0000 0.0000 0.0000
# 4 0.0000 0.0000 0.0000 7.8152 0.0000 0.0000
# 5 0.0000 0.0000 0.0000 0.0000 -1.6187 0.0000
# 6 0.0000 0.0000 0.0000 0.0000 0.0000 10.0531
#
#
#
# Elastic Compliance Matrix: (Units=1/GPa)
#
#
# Indices 1 2 3 4 5 6 
#
# 1 0.026224 -0.001755 -0.004323 0.000000 0.000000 0.000000
# 2 -0.001755 0.008744 -0.003871 0.000000 0.000000 0.000000
# 3 -0.004323 -0.003871 0.008830 0.000000 0.000000 0.000000
# 4 0.000000 0.000000 0.000000 0.127956 0.000000 0.000000
# 5 0.000000 0.000000 0.000000 0.000000 -0.617775 0.000000
# 6 0.000000 0.000000 0.000000 0.000000 0.000000 0.099471
#
#
# Mechanical properties :
#
#
# Convention : Reuss Voigt Hill
#
# Bulk Modulus (GPa) = 41.84048 70.17704 56.00876
# Shear Modulus (GPa) = -15.68944 18.45932 1.38494
#
# Velocity S-wave (km/s) = -2.91060 3.15709 0.86476
# Velocity P-wave (km/s) = 3.36103 7.15417 5.58922
#
# Compressibility (1/GPa) = 0.02390030
#
# Stress axis : x y z
#
# Youngs Moduli (GPa) = 38.13295 114.37019 113.24488
#
# Poissons Ratio (x) = 0.20075 0.48952
# Poissons Ratio (y) = 0.06693 0.43836
# Poissons Ratio (z) = 0.16484 0.44272
#
# Static dielectric constant tensor:
#      x y z
#    x 2.907780 0.000000 0.000000 
#    y 0.000000 3.950210 0.000000 
#    z 0.000000 0.000000 3.520640 
# 
# 
# High freq. dielectric constant tensor:
#      x y z
#    x 1.671370 0.000000 0.000000 
#    y 0.000000 1.726910 0.000000 
#    z 0.000000 0.000000 1.724430 
# 
# From -- ./inp_files/16710.got.cif
#   From: 2010.03.12/outbox.cif.g09.slc.cpg/sg38_9_cif.got.tgz:16710.got - 2010.04.14 02:38:36.
