data_PCOD8177861
_publ_section_title
;
Structure prediction by ZEFSAII (Michael W. Deem and Ramdas Pophale) SiO2 
 PCOD8177861
Probable space group: A M M 2
;
_chemical_formula_sum "Si O2"
_cell_formula_units_Z 64
_cell_length_a 8.975233
_cell_length_b 13.647696
_cell_length_c 34.009975
_cell_angle_alpha 90.000000
_cell_angle_beta 90.000000
_cell_angle_gamma 90.000000
_cell_volume 4165.924402
_symmetry_space_group_name_H-M "A M M 2"
_symmetry_group_IT_number 38
_symmetry_cell_setting 'orthorhombic'
loop_
_space_group_symop_operation_xyz
x,y,z
-x,-y,z
-x,y,z
x,-y,z
x,1/2+y,1/2+z
-x,1/2-y,1/2+z
-x,1/2+y,1/2+z
x,1/2-y,1/2+z
loop_
_atom_site_type_symbol
_atom_site_label
_atom_site_fract_x
_atom_site_fract_y
_atom_site_fract_z
Si Si1 0.176030 0.210067 0.226010
Si Si2 0.674819 0.886031 0.299699
Si Si3 0.670410 0.204890 0.606556
Si Si4 0.667920 0.616687 0.955808
Si Si5 0.327055 0.611638 0.188766
Si Si6 0.825523 0.387730 0.034490
Si Si7 0.167448 0.116383 0.379041
Si Si8 0.328834 0.610341 0.654984
O O1 0.245531 0.177936 0.266947
O O2 0.228777 0.320322 0.216864
O O3 0.226937 0.135647 0.192071
O O4 0.000000 0.207152 0.229397
O O5 0.500000 0.866093 0.298745
O O6 0.737466 0.849939 0.341509
O O7 0.711608 0.000000 0.292434
O O8 0.500000 0.190729 0.592924
O O9 0.707158 0.134894 0.643303
O O10 0.778584 0.178217 0.571167
O O11 0.703548 0.317426 0.618592
O O12 0.500000 0.657142 0.954777
O O13 0.670112 0.500000 0.954417
O O14 0.755740 0.659617 0.918245
O O15 0.745909 0.653711 0.995606
O O16 0.500000 0.632511 0.197607
O O17 0.282993 0.500000 0.197488
O O18 0.778173 0.500000 0.042688
O O19 0.000000 0.378540 0.027640
O O20 0.000000 0.158252 0.375815
O O21 0.164245 0.000000 0.381588
O O22 0.500000 0.623157 0.668763
O O23 0.295046 0.500000 0.640943
#
# Coordination Sequence:
#
# PCOD8177861 Si02
#       8
#     8   8   8   8   8   8   8   8
#     4  11  21  30  43  65  90 113 141 179 220 259
#     4  10  19  30  44  61  84 116 151 182 211 249
#     4   9  17  29  45  64  83 106 140 178 214 253
#     4   9  16  26  40  57  79 110 145 175 205 246
#     4   9  18  33  50  64  82 112 147 180 215 257
#     4  10  19  28  39  58  85 115 144 175 211 249
#     4   9  16  26  40  59  84 111 139 173 213 254
#     4   9  18  33  49  62  81 112 147 181 217 258
#
# _framework density 15.362736999999999
#
# number of rings (size 3 to 8) (size 9 to 14) (size 15 to 20)
#    0.000    2.500    0.000    4.125    0.000    9.000 
#    0.000    0.000    0.000    0.000    0.000    0.000 
#    0.000    1.000    0.000    6.000    0.000    4.625 
#
# Total GULP energy -396827.132887 kJ/mol
# GULP energy per Si atom -12400.847903 kJ/mol
# Density = 1.532777 g / cm^3
# Si number density = 15.362737 Si / 1000 Ang^3
#
#
#
# Elastic Constant Matrix: (Units=GPa)
#
#
# Indices 1 2 3 4 5 6 
#
# 1 106.2777 35.3314 65.2205 0.0000 0.0000 0.0000
# 2 35.3314 71.2256 42.7543 0.0000 0.0000 0.0000
# 3 65.2205 42.7543 121.5573 0.0000 0.0000 0.0000
# 4 0.0000 0.0000 0.0000 17.0340 0.0000 0.0000
# 5 0.0000 0.0000 0.0000 0.0000 26.1987 0.0000
# 6 0.0000 0.0000 0.0000 0.0000 0.0000 15.3523
#
#
#
# Elastic Compliance Matrix: (Units=1/GPa)
#
#
# Indices 1 2 3 4 5 6 
#
# 1 0.014588 -0.003217 -0.006695 0.000000 0.000000 0.000000
# 2 -0.003217 0.018507 -0.004783 0.000000 0.000000 0.000000
# 3 -0.006695 -0.004783 0.013501 0.000000 0.000000 0.000000
# 4 0.000000 0.000000 0.000000 0.058706 0.000000 0.000000
# 5 0.000000 0.000000 0.000000 0.000000 0.038170 0.000000
# 6 0.000000 0.000000 0.000000 0.000000 0.000000 0.065137
#
#
# Mechanical properties :
#
#
# Convention : Reuss Voigt Hill
#
# Bulk Modulus (GPa) = 58.12431 65.07477 61.59954
# Shear Modulus (GPa) = 20.51413 22.10063 21.30738
#
# Velocity S-wave (km/s) = 3.65816 3.79699 3.72822
# Velocity P-wave (km/s) = 7.46724 7.85325 7.66268
#
# Compressibility (1/GPa) = 0.01720451
#
# Stress axis : x y z
#
# Youngs Moduli (GPa) = 68.55121 54.03378 74.06748
#
# Poissons Ratio (x) = 0.17384 0.49590
# Poissons Ratio (y) = 0.22054 0.35427
# Poissons Ratio (z) = 0.45897 0.25845
#
# Static dielectric constant tensor:
#      x y z
#    x 3.038540 0.000000 0.000000 
#    y 0.000000 2.739610 0.000000 
#    z 0.000000 0.000000 2.940000 
# 
# 
# High freq. dielectric constant tensor:
#      x y z
#    x 1.600920 0.000000 0.000000 
#    y 0.000000 1.543510 0.000000 
#    z 0.000000 0.000000 1.587290 
# 
# From -- ./inp_files/24740.got.cif
#   From: 2010.03.12/outbox.cif.g09.slc.cpg/sg38_13_cif.got.tgz:24740.got - 2010.04.14 02:38:36.
