data_PCOD8177464
_publ_section_title
;
Structure prediction by ZEFSAII (Michael W. Deem and Ramdas Pophale) SiO2 
 PCOD8177464
Probable space group: A M M 2
;
_chemical_formula_sum "Si O2"
_cell_formula_units_Z 64
_cell_length_a 14.185686
_cell_length_b 9.359793
_cell_length_c 30.884831
_cell_angle_alpha 90.000000
_cell_angle_beta 90.000000
_cell_angle_gamma 90.000000
_cell_volume 4100.736047
_symmetry_space_group_name_H-M "A M M 2"
_symmetry_group_IT_number 38
_symmetry_cell_setting 'orthorhombic'
loop_
_space_group_symop_operation_xyz
x,y,z
-x,-y,z
-x,y,z
x,-y,z
x,1/2+y,1/2+z
-x,1/2-y,1/2+z
-x,1/2+y,1/2+z
x,1/2-y,1/2+z
loop_
_atom_site_type_symbol
_atom_site_label
_atom_site_fract_x
_atom_site_fract_y
_atom_site_fract_z
Si Si1 0.222771 0.831945 0.767030
Si Si2 0.397917 0.169342 0.140773
Si Si3 0.890358 0.834347 0.851551
Si Si4 0.393126 0.834656 0.238766
Si Si5 0.109526 0.334367 0.516859
Si Si6 0.202450 0.668839 0.606089
Si Si7 0.887887 0.838444 0.434142
Si Si8 0.890745 0.664798 0.182637
O O1 0.164305 0.784243 0.808932
O O2 0.323874 0.755314 0.769247
O O3 0.166507 0.781479 0.724460
O O4 0.238936 0.000000 0.766731
O O5 0.500000 0.227486 0.123618
O O6 0.381604 0.223036 0.189721
O O7 0.311154 0.221575 0.111057
O O8 0.402325 0.000000 0.141640
O O9 0.850382 0.742877 0.891681
O O10 0.000000 0.803797 0.843259
O O11 0.873043 0.000000 0.862294
O O12 0.500000 0.810874 0.254893
O O13 0.364802 0.000000 0.241711
O O14 0.125624 0.500000 0.505736
O O15 0.168359 0.285889 0.558674
O O16 0.148947 0.242293 0.476890
O O17 0.000000 0.303144 0.526186
O O18 0.192948 0.500000 0.613179
O O19 0.136610 0.742878 0.641216
O O20 0.000000 0.834768 0.434162
O O21 0.849134 0.000000 0.434176
O O22 0.868362 0.500000 0.172431
O O23 0.000000 0.687752 0.193147
#
# Coordination Sequence:
#
# PCOD8177464 Si02
#       8
#     8   8   8   8   8   8   8   8
#     4  10  19  30  45  66  90 119 153 185 220 264
#     4   8  14  26  44  64  86 113 146 186 228 262
#     4   9  17  30  47  65  89 121 152 183 222 267
#     4   9  17  30  47  65  87 117 151 188 230 269
#     4   9  17  28  42  62  88 116 146 181 221 265
#     4  10  18  29  46  66  87 116 155 190 218 257
#     4   9  17  29  45  65  87 112 145 185 226 266
#     4  10  20  31  41  58  90 126 153 178 214 261
#
# _framework density 15.606954999999999
#
# number of rings (size 3 to 8) (size 9 to 14) (size 15 to 20)
#    0.000    2.750    1.250    1.875    0.000    5.000 
#    0.000    1.250    0.000    2.625    0.000    0.875 
#    0.000    5.000    0.000    0.000    0.000    0.000 
#
# Total GULP energy -396747.528265 kJ/mol
# GULP energy per Si atom -12398.360258 kJ/mol
# Density = 1.557143 g / cm^3
# Si number density = 15.606955 Si / 1000 Ang^3
#
#
#
# Elastic Constant Matrix: (Units=GPa)
#
#
# Indices 1 2 3 4 5 6 
#
# 1 81.0588 32.3925 49.9373 0.0000 0.0000 0.0000
# 2 32.3925 52.4681 53.3479 0.0000 0.0000 0.0000
# 3 49.9373 53.3479 121.2670 0.0000 0.0000 0.0000
# 4 0.0000 0.0000 0.0000 23.9275 0.0000 0.0000
# 5 0.0000 0.0000 0.0000 0.0000 12.0171 0.0000
# 6 0.0000 0.0000 0.0000 0.0000 0.0000 20.6273
#
#
#
# Elastic Compliance Matrix: (Units=1/GPa)
#
#
# Indices 1 2 3 4 5 6 
#
# 1 0.017622 -0.006334 -0.004470 0.000000 0.000000 0.000000
# 2 -0.006334 0.036761 -0.013563 0.000000 0.000000 0.000000
# 3 -0.004470 -0.013563 0.016054 0.000000 0.000000 0.000000
# 4 0.000000 0.000000 0.000000 0.041793 0.000000 0.000000
# 5 0.000000 0.000000 0.000000 0.000000 0.083215 0.000000
# 6 0.000000 0.000000 0.000000 0.000000 0.000000 0.048479
#
#
# Mechanical properties :
#
#
# Convention : Reuss Voigt Hill
#
# Bulk Modulus (GPa) = 46.08092 58.46102 52.27097
# Shear Modulus (GPa) = 16.67266 19.25547 17.96407
#
# Velocity S-wave (km/s) = 3.27201 3.51632 3.39636
# Velocity P-wave (km/s) = 6.62304 7.35022 6.99608
#
# Compressibility (1/GPa) = 0.02170096
#
# Stress axis : x y z
#
# Youngs Moduli (GPa) = 56.74782 27.20305 62.29068
#
# Poissons Ratio (x) = 0.17231 0.27844
# Poissons Ratio (y) = 0.35946 0.84487
# Poissons Ratio (z) = 0.25366 0.36896
#
# Static dielectric constant tensor:
#      x y z
#    x 3.033440 0.000000 0.000000 
#    y 0.000000 2.876820 0.000000 
#    z 0.000000 0.000000 2.960340 
# 
# 
# High freq. dielectric constant tensor:
#      x y z
#    x 1.581800 0.000000 0.000000 
#    y 0.000000 1.588410 0.000000 
#    z 0.000000 0.000000 1.587490 
# 
# From -- ./inp_files/25027.got.cif
#   From: 2010.03.12/outbox.cif.g09.slc.cpg/sg38_13_cif.got.tgz:25027.got - 2010.04.14 02:38:36.
