data_PCOD8177024
_publ_section_title
;
Structure prediction by ZEFSAII (Michael W. Deem and Ramdas Pophale) SiO2 
 PCOD8177024
Probable space group: C C C 2
;
_chemical_formula_sum "Si O2"
_cell_formula_units_Z 44
_cell_length_a 22.523809
_cell_length_b 6.285740
_cell_length_c 14.139253
_cell_angle_alpha 90.000000
_cell_angle_beta 90.000000
_cell_angle_gamma 90.000000
_cell_volume 2001.818574
_symmetry_space_group_name_H-M "C C C 2"
_symmetry_group_IT_number 37
_symmetry_cell_setting 'orthorhombic'
loop_
_space_group_symop_operation_xyz
x,y,z
-x,-y,z
-x,y,1/2+z
x,-y,1/2+z
1/2+x,1/2+y,z
1/2-x,1/2-y,z
1/2-x,1/2+y,1/2+z
1/2+x,1/2-y,1/2+z
loop_
_atom_site_type_symbol
_atom_site_label
_atom_site_fract_x
_atom_site_fract_y
_atom_site_fract_z
Si Si1 0.787892 0.554790 0.267690
Si Si2 0.500000 0.000000 0.805499
Si Si3 0.655226 0.579271 0.043482
Si Si4 0.750000 0.250000 0.113669
Si Si5 0.899670 0.212699 0.741715
Si Si6 0.560761 0.611370 0.886759
Si Si7 0.750000 0.250000 0.423426
O O1 0.750000 0.750000 0.228155
O O2 0.791654 0.393485 0.180340
O O3 0.853572 0.633363 0.296576
O O4 0.753770 0.458563 0.357876
O O5 0.537386 0.162003 0.738858
O O6 0.453774 0.137883 0.869965
O O7 0.701597 0.381371 0.052200
O O8 0.628516 0.664840 0.140456
O O9 0.599605 0.540416 0.976024
O O10 0.692161 0.761198 0.989421
O O11 0.907721 0.986399 0.793520
O O12 0.500000 0.500000 0.910022
#
# Coordination Sequence:
#
# PCOD8177024 Si02
#       7
#     8   4   8   4   8   8   4
#     4  11  22  45  68  96 144 194 230 297 358 432
#     4  10  24  48  72  96 138 190 238 300 360 420
#     4  12  25  44  69 108 142 186 235 295 354 431
#     4  11  26  42  65 104 148 182 245 284 359 438
#     4  11  24  44  70  98 140 180 245 288 359 420
#     4  10  25  48  69 103 137 187 240 296 359 424
#     4  11  26  40  67 106 142 188 241 282 369 424
#
# _framework density 21.980013
#
# number of rings (size 3 to 8) (size 9 to 14) (size 15 to 20)
#    0.000    1.091    1.818    3.273    8.909    2.909 
#    6.545    0.000    0.000    0.000    0.000    0.000 
#    0.000    0.000    0.000    0.000    0.000    0.000 
#
# Total GULP energy -272659.187789 kJ/mol
# GULP energy per Si atom -12393.599445 kJ/mol
# Density = 2.192999 g / cm^3
# Si number density = 21.980013 Si / 1000 Ang^3
#
#
#
# Elastic Constant Matrix: (Units=GPa)
#
#
# Indices 1 2 3 4 5 6 
#
# 1 128.3033 40.8940 60.0784 0.0000 0.0000 0.0000
# 2 40.8940 112.2699 45.4267 0.0000 0.0000 0.0000
# 3 60.0784 45.4267 125.7593 0.0000 0.0000 0.0000
# 4 0.0000 0.0000 0.0000 11.7398 0.0000 0.0000
# 5 0.0000 0.0000 0.0000 0.0000 23.6093 0.0000
# 6 0.0000 0.0000 0.0000 0.0000 0.0000 43.4913
#
#
#
# Elastic Compliance Matrix: (Units=1/GPa)
#
#
# Indices 1 2 3 4 5 6 
#
# 1 0.010443 -0.002091 -0.004234 0.000000 0.000000 0.000000
# 2 -0.002091 0.010850 -0.002921 0.000000 0.000000 0.000000
# 3 -0.004234 -0.002921 0.011029 0.000000 0.000000 0.000000
# 4 0.000000 0.000000 0.000000 0.085180 0.000000 0.000000
# 5 0.000000 0.000000 0.000000 0.000000 0.042356 0.000000
# 6 0.000000 0.000000 0.000000 0.000000 0.000000 0.022993
#
#
# Mechanical properties :
#
#
# Convention : Reuss Voigt Hill
#
# Bulk Modulus (GPa) = 72.29330 73.23675 72.76502
# Shear Modulus (GPa) = 24.27744 30.43029 27.35386
#
# Velocity S-wave (km/s) = 3.32704 3.72486 3.53156
# Velocity P-wave (km/s) = 6.90803 7.20357 7.05735
#
# Compressibility (1/GPa) = 0.01383254
#
# Stress axis : x y z
#
# Youngs Moduli (GPa) = 95.75976 92.16263 90.66893
#
# Poissons Ratio (x) = 0.19269 0.38385
# Poissons Ratio (y) = 0.20021 0.26480
# Poissons Ratio (z) = 0.40540 0.26917
#
# Static dielectric constant tensor:
#      x y z
#    x 4.487730 0.000000 0.000000 
#    y 0.000000 4.272670 0.000000 
#    z 0.000000 0.000000 3.785850 
# 
# 
# High freq. dielectric constant tensor:
#      x y z
#    x 1.882120 0.000000 0.000000 
#    y 0.000000 1.868660 0.000000 
#    z 0.000000 0.000000 1.853400 
# 
# From -- ./inp_files/13250.got.cif
#   From: 2010.03.12/outbox.cif.g09.slc.cpg/sg37_7_cif.got.tgz:13250.got - 2010.04.14 02:25:27.
