data_PCOD8177503
_publ_section_title
;
Structure prediction by ZEFSAII (Michael W. Deem and Ramdas Pophale) SiO2 
 PCOD8177503
Probable space group: A M M 2
;
_chemical_formula_sum "Si O2"
_cell_formula_units_Z 48
_cell_length_a 16.155703
_cell_length_b 18.459028
_cell_length_c 9.129177
_cell_angle_alpha 90.000000
_cell_angle_beta 90.000000
_cell_angle_gamma 90.000000
_cell_volume 2722.490147
_symmetry_space_group_name_H-M "A M M 2"
_symmetry_group_IT_number 38
_symmetry_cell_setting 'orthorhombic'
loop_
_space_group_symop_operation_xyz
x,y,z
-x,-y,z
-x,y,z
x,-y,z
x,1/2+y,1/2+z
-x,1/2-y,1/2+z
-x,1/2+y,1/2+z
x,1/2-y,1/2+z
loop_
_atom_site_type_symbol
_atom_site_label
_atom_site_fract_x
_atom_site_fract_y
_atom_site_fract_z
Si Si1 0.835059 0.293340 0.569510
Si Si2 0.279772 0.917408 0.074908
Si Si3 0.247274 0.582968 0.913023
Si Si4 0.596629 0.321531 0.421192
Si Si5 0.906717 0.322859 0.868033
Si Si6 0.676483 0.200811 0.607654
O O1 0.794740 0.368150 0.509419
O O2 0.901096 0.311402 0.694578
O O3 0.882544 0.253784 0.439580
O O4 0.761129 0.244544 0.636255
O O5 0.283367 0.908022 0.250100
O O6 0.263188 0.000000 0.029019
O O7 0.366302 0.890372 0.007979
O O8 0.245326 0.500000 0.963321
O O9 0.153814 0.613533 0.921733
O O10 0.306623 0.625951 0.023056
O O11 0.500000 0.334520 0.405801
O O12 0.614025 0.247886 0.509466
O O13 0.636286 0.317170 0.261655
O O14 0.000000 0.344958 0.910151
#
# Coordination Sequence:
#
# PCOD8177503 Si02
#       6
#     8   8   8   8   8   8
#     4   9  17  31  49  71  96 129 167 199 240 293
#     4   9  18  34  53  72  98 133 169 202 242 295
#     4   9  19  35  53  72  98 134 171 203 241 294
#     4  11  21  33  53  78 102 126 160 209 253 291
#     4  10  18  29  49  75 101 126 160 208 250 286
#     4  10  19  34  53  74  99 132 169 201 242 297
#
# _framework density 17.630918000000001
#
# number of rings (size 3 to 8) (size 9 to 14) (size 15 to 20)
#    0.000    2.333    0.000    6.000    0.000    1.333 
#    0.000    0.833    0.000    5.000    0.000    0.000 
#    0.000    0.000    0.000    0.000    0.000    0.000 
#
# Total GULP energy -297615.703539 kJ/mol
# GULP energy per Si atom -12400.654314 kJ/mol
# Density = 1.759079 g / cm^3
# Si number density = 17.630918 Si / 1000 Ang^3
#
#
#
# Elastic Constant Matrix: (Units=GPa)
#
#
# Indices 1 2 3 4 5 6 
#
# 1 110.0177 41.8254 43.8182 0.0000 0.0000 0.0000
# 2 41.8254 141.5415 43.4901 0.0000 0.0000 0.0000
# 3 43.8182 43.4901 67.2098 0.0000 0.0000 0.0000
# 4 0.0000 0.0000 0.0000 27.1516 0.0000 0.0000
# 5 0.0000 0.0000 0.0000 0.0000 21.8740 0.0000
# 6 0.0000 0.0000 0.0000 0.0000 0.0000 14.4826
#
#
#
# Elastic Compliance Matrix: (Units=1/GPa)
#
#
# Indices 1 2 3 4 5 6 
#
# 1 0.012524 -0.001488 -0.007202 0.000000 0.000000 0.000000
# 2 -0.001488 0.008995 -0.004851 0.000000 0.000000 0.000000
# 3 -0.007202 -0.004851 0.022713 0.000000 0.000000 0.000000
# 4 0.000000 0.000000 0.000000 0.036830 0.000000 0.000000
# 5 0.000000 0.000000 0.000000 0.000000 0.045716 0.000000
# 6 0.000000 0.000000 0.000000 0.000000 0.000000 0.069048
#
#
# Mechanical properties :
#
#
# Convention : Reuss Voigt Hill
#
# Bulk Modulus (GPa) = 58.30684 64.11516 61.21100
# Shear Modulus (GPa) = 21.86992 25.34400 23.60696
#
# Velocity S-wave (km/s) = 3.52580 3.79552 3.66314
# Velocity P-wave (km/s) = 7.05107 7.46003 7.25843
#
# Compressibility (1/GPa) = 0.01715065
#
# Stress axis : x y z
#
# Youngs Moduli (GPa) = 79.84956 111.17173 44.02763
#
# Poissons Ratio (x) = 0.16540 0.31709
# Poissons Ratio (y) = 0.11880 0.21356
# Poissons Ratio (z) = 0.57509 0.53925
#
# Static dielectric constant tensor:
#      x y z
#    x 3.207320 0.000000 0.000000 
#    y 0.000000 3.383480 0.000000 
#    z 0.000000 0.000000 3.228930 
# 
# 
# High freq. dielectric constant tensor:
#      x y z
#    x 1.670050 0.000000 0.000000 
#    y 0.000000 1.678500 0.000000 
#    z 0.000000 0.000000 1.681570 
# 
# From -- ./inp_files/5450.got.cif
#   From: 2010.03.12/outbox.cif.g09.slc.cpg/sg38_3_cif.got.tgz:5450.got - 2010.04.14 02:38:36.
