data_PCOD8177610
_publ_section_title
;
Structure prediction by ZEFSAII (Michael W. Deem and Ramdas Pophale) SiO2 
 PCOD8177610
Probable space group: A M M 2
;
_chemical_formula_sum "Si O2"
_cell_formula_units_Z 64
_cell_length_a 14.672473
_cell_length_b 8.690066
_cell_length_c 24.743976
_cell_angle_alpha 90.000000
_cell_angle_beta 90.000000
_cell_angle_gamma 90.000000
_cell_volume 3154.974690
_symmetry_space_group_name_H-M "A M M 2"
_symmetry_group_IT_number 38
_symmetry_cell_setting 'orthorhombic'
loop_
_space_group_symop_operation_xyz
x,y,z
-x,-y,z
-x,y,z
x,-y,z
x,1/2+y,1/2+z
-x,1/2-y,1/2+z
-x,1/2+y,1/2+z
x,1/2-y,1/2+z
loop_
_atom_site_type_symbol
_atom_site_label
_atom_site_fract_x
_atom_site_fract_y
_atom_site_fract_z
Si Si1 0.155037 0.677108 0.036140
Si Si2 0.726488 0.679539 0.189741
Si Si3 0.669324 0.174408 0.996617
Si Si4 0.101203 0.823101 0.144821
Si Si5 0.600023 0.324064 0.607139
Si Si6 0.097148 0.322268 0.918230
Si Si7 0.603385 0.817671 0.787711
Si Si8 0.705788 0.180763 0.388347
O O1 0.187266 0.500000 0.041637
O O2 0.101192 0.725799 0.089566
O O3 0.239486 0.790798 0.029908
O O4 0.093725 0.697643 0.982870
O O5 0.743567 0.500000 0.196935
O O6 0.824999 0.761270 0.188108
O O7 0.673307 0.710709 0.133959
O O8 0.665242 0.746955 0.238700
O O9 0.656491 0.287426 0.945691
O O10 0.669751 0.000000 0.974591
O O11 0.592474 0.200370 0.042218
O O12 0.000000 0.805086 0.170344
O O13 0.122873 0.000000 0.131601
O O14 0.500000 0.287253 0.631051
O O15 0.628619 0.500000 0.619806
O O16 0.099600 0.500000 0.902703
O O17 0.189776 0.251608 0.891971
O O18 0.000000 0.251020 0.896581
O O19 0.500000 0.751530 0.783834
O O20 0.649749 0.767467 0.843049
O O21 0.599774 0.000000 0.785270
O O22 0.704587 0.000000 0.376907
#
# Coordination Sequence:
#
# PCOD8177610 Si02
#       8
#     8   8   8   8   8   8   8   8
#     4  10  18  30  52  82 116 156 201 244 285 336
#     4  11  23  40  63  87 114 148 194 252 303 351
#     4  10  19  33  54  81 121 164 194 233 292 353
#     4  11  23  37  55  83 120 160 199 239 289 351
#     4  10  21  36  56  84 118 156 193 232 291 363
#     4   8  15  29  50  79 116 153 188 228 276 331
#     4  10  23  44  66  86 110 146 192 243 304 365
#     4  10  21  36  58  88 117 149 196 248 293 342
#
# _framework density 20.285423999999999
#
# number of rings (size 3 to 8) (size 9 to 14) (size 15 to 20)
#    0.000    2.000    1.250    3.375    0.000    4.500 
#    0.000    1.875    0.000    9.750    0.000    0.000 
#    0.000    0.000    0.000    0.000    0.000    0.000 
#
# Total GULP energy -396607.994937 kJ/mol
# GULP energy per Si atom -12393.999842 kJ/mol
# Density = 2.023925 g / cm^3
# Si number density = 20.285424 Si / 1000 Ang^3
#
#
#
# Elastic Constant Matrix: (Units=GPa)
#
#
# Indices 1 2 3 4 5 6 
#
# 1 137.9964 26.4954 55.0888 0.0000 0.0000 0.0000
# 2 26.4954 35.7135 11.4454 0.0000 0.0000 0.0000
# 3 55.0888 11.4454 92.2497 0.0000 0.0000 0.0000
# 4 0.0000 0.0000 0.0000 28.4950 0.0000 0.0000
# 5 0.0000 0.0000 0.0000 0.0000 22.3586 0.0000
# 6 0.0000 0.0000 0.0000 0.0000 0.0000 24.7020
#
#
#
# Elastic Compliance Matrix: (Units=1/GPa)
#
#
# Indices 1 2 3 4 5 6 
#
# 1 0.010658 -0.006110 -0.005606 0.000000 0.000000 0.000000
# 2 -0.006110 0.032663 -0.000404 0.000000 0.000000 0.000000
# 3 -0.005606 -0.000404 0.014238 0.000000 0.000000 0.000000
# 4 0.000000 0.000000 0.000000 0.035094 0.000000 0.000000
# 5 0.000000 0.000000 0.000000 0.000000 0.044726 0.000000
# 6 0.000000 0.000000 0.000000 0.000000 0.000000 0.040483
#
#
# Mechanical properties :
#
#
# Convention : Reuss Voigt Hill
#
# Bulk Modulus (GPa) = 30.01338 50.22431 40.11885
# Shear Modulus (GPa) = 23.45129 26.63977 25.04553
#
# Velocity S-wave (km/s) = 3.40379 3.62781 3.51758
# Velocity P-wave (km/s) = 5.50230 6.50850 6.02644
#
# Compressibility (1/GPa) = 0.03331847
#
# Stress axis : x y z
#
# Youngs Moduli (GPa) = 93.82760 30.61569 70.23341
#
# Poissons Ratio (x) = 0.18707 0.39376
# Poissons Ratio (y) = 0.57330 0.02835
# Poissons Ratio (z) = 0.52604 0.01236
#
# Static dielectric constant tensor:
#      x y z
#    x 4.020810 0.000000 0.000000 
#    y 0.000000 3.485200 0.000000 
#    z 0.000000 0.000000 3.534600 
# 
# 
# High freq. dielectric constant tensor:
#      x y z
#    x 1.801840 0.000000 0.000000 
#    y 0.000000 1.777610 0.000000 
#    z 0.000000 0.000000 1.769690 
# 
# From -- ./inp_files/22950.got.cif
#   From: 2010.03.12/outbox.cif.g09.slc.cpg/sg38_12_cif.got.tgz:22950.got - 2010.04.14 02:38:36.
