data_PCOD8177822
_publ_section_title
;
Structure prediction by ZEFSAII (Michael W. Deem and Ramdas Pophale) SiO2 
 PCOD8177822
Probable space group: A M M 2
;
_chemical_formula_sum "Si O2"
_cell_formula_units_Z 56
_cell_length_a 9.116857
_cell_length_b 18.552881
_cell_length_c 17.170107
_cell_angle_alpha 90.000000
_cell_angle_beta 90.000000
_cell_angle_gamma 90.000000
_cell_volume 2904.219943
_symmetry_space_group_name_H-M "A M M 2"
_symmetry_group_IT_number 38
_symmetry_cell_setting 'orthorhombic'
loop_
_space_group_symop_operation_xyz
x,y,z
-x,-y,z
-x,y,z
x,-y,z
x,1/2+y,1/2+z
-x,1/2-y,1/2+z
-x,1/2+y,1/2+z
x,1/2-y,1/2+z
loop_
_atom_site_type_symbol
_atom_site_label
_atom_site_fract_x
_atom_site_fract_y
_atom_site_fract_z
Si Si1 0.169705 0.695269 0.964710
Si Si2 0.325675 0.079929 0.049505
Si Si3 0.670507 0.691212 0.128397
Si Si4 0.674657 0.328966 0.402660
Si Si5 0.328641 0.841234 0.202390
Si Si6 0.326774 0.580615 0.256153
Si Si7 0.169417 0.418596 0.840804
O O1 0.250821 0.751115 0.907366
O O2 0.190551 0.616437 0.926256
O O3 0.000000 0.716669 0.970884
O O4 0.236280 0.695482 0.050550
O O5 0.500000 0.078226 0.049444
O O6 0.266858 0.113798 0.129300
O O7 0.260288 0.000000 0.040892
O O8 0.270675 0.127319 0.977842
O O9 0.500000 0.693248 0.104146
O O10 0.705046 0.757313 0.186607
O O11 0.713015 0.618472 0.174390
O O12 0.500000 0.318552 0.399638
O O13 0.734653 0.372022 0.327603
O O14 0.500000 0.854622 0.214168
O O15 0.249997 0.868341 0.279155
O O16 0.500000 0.575439 0.266259
O O17 0.258412 0.500000 0.257110
O O18 0.233970 0.500000 0.842262
O O19 0.000000 0.420325 0.817367
#
# Coordination Sequence:
#
# PCOD8177822 Si02
#       7
#     8   8   8   8   8   8   8
#     4  11  23  38  57  80 108 145 189 230 271 324
#     4   9  16  27  49  81 113 142 173 213 262 320
#     4  10  20  36  57  83 114 145 182 227 273 322
#     4  10  18  34  58  82 111 144 180 222 273 328
#     4  10  19  34  56  84 113 141 180 227 273 325
#     4   9  18  32  55  87 116 143 179 225 274 324
#     4  10  23  41  57  77 109 147 185 228 277 326
#
# _framework density 19.282287
#
# number of rings (size 3 to 8) (size 9 to 14) (size 15 to 20)
#    0.000    2.143    1.429    2.143    0.000    6.000 
#    0.000    0.714    0.000    2.571    0.000    0.000 
#    0.000    0.000    0.000    0.000    0.000    0.000 
#
# Total GULP energy -347199.028026 kJ/mol
# GULP energy per Si atom -12399.965287 kJ/mol
# Density = 1.923840 g / cm^3
# Si number density = 19.282287 Si / 1000 Ang^3
#
#
#
# Elastic Constant Matrix: (Units=GPa)
#
#
# Indices 1 2 3 4 5 6 
#
# 1 49.4647 39.3827 38.6146 0.0000 0.0000 0.0000
# 2 39.3827 133.7439 62.1235 0.0000 0.0000 0.0000
# 3 38.6146 62.1235 92.9582 0.0000 0.0000 0.0000
# 4 0.0000 0.0000 0.0000 30.1707 0.0000 0.0000
# 5 0.0000 0.0000 0.0000 0.0000 19.9565 0.0000
# 6 0.0000 0.0000 0.0000 0.0000 0.0000 13.5620
#
#
#
# Elastic Compliance Matrix: (Units=1/GPa)
#
#
# Indices 1 2 3 4 5 6 
#
# 1 0.031821 -0.004684 -0.010088 0.000000 0.000000 0.000000
# 2 -0.004684 0.011532 -0.005761 0.000000 0.000000 0.000000
# 3 -0.010088 -0.005761 0.018798 0.000000 0.000000 0.000000
# 4 0.000000 0.000000 0.000000 0.033145 0.000000 0.000000
# 5 0.000000 0.000000 0.000000 0.000000 0.050109 0.000000
# 6 0.000000 0.000000 0.000000 0.000000 0.000000 0.073736
#
#
# Mechanical properties :
#
#
# Convention : Reuss Voigt Hill
#
# Bulk Modulus (GPa) = 47.42743 61.82316 54.62529
# Shear Modulus (GPa) = 18.71007 21.80759 20.25883
#
# Velocity S-wave (km/s) = 3.11838 3.36663 3.24488
# Velocity P-wave (km/s) = 6.13315 6.87343 6.51381
#
# Compressibility (1/GPa) = 0.02108485
#
# Stress axis : x y z
#
# Youngs Moduli (GPa) = 31.42570 86.71229 53.19682
#
# Poissons Ratio (x) = 0.40620 0.53664
# Poissons Ratio (y) = 0.14721 0.30647
# Poissons Ratio (z) = 0.31702 0.49956
#
# Static dielectric constant tensor:
#      x y z
#    x 3.145850 0.000000 0.000000 
#    y 0.000000 3.853010 0.000000 
#    z 0.000000 0.000000 3.524000 
# 
# 
# High freq. dielectric constant tensor:
#      x y z
#    x 1.706190 0.000000 0.000000 
#    y 0.000000 1.764910 0.000000 
#    z 0.000000 0.000000 1.759160 
# 
# From -- ./inp_files/12403.got.cif
#   From: 2010.03.12/outbox.cif.g09.slc.cpg/sg38_7_cif.got.tgz:12403.got - 2010.04.14 02:38:36.
