data_PCOD8177229
_publ_section_title
;
Structure prediction by ZEFSAII (Michael W. Deem and Ramdas Pophale) SiO2 
 PCOD8177229
Probable space group: A M M 2
;
_chemical_formula_sum "Si O2"
_cell_formula_units_Z 56
_cell_length_a 9.197069
_cell_length_b 22.317012
_cell_length_c 17.549589
_cell_angle_alpha 90.000000
_cell_angle_beta 90.000000
_cell_angle_gamma 90.000000
_cell_volume 3602.072433
_symmetry_space_group_name_H-M "A M M 2"
_symmetry_group_IT_number 38
_symmetry_cell_setting 'orthorhombic'
loop_
_space_group_symop_operation_xyz
x,y,z
-x,-y,z
-x,y,z
x,-y,z
x,1/2+y,1/2+z
-x,1/2-y,1/2+z
-x,1/2+y,1/2+z
x,1/2-y,1/2+z
loop_
_atom_site_type_symbol
_atom_site_label
_atom_site_fract_x
_atom_site_fract_y
_atom_site_fract_z
Si Si1 0.827514 0.351396 0.330950
Si Si2 0.660730 0.817044 0.419097
Si Si3 0.669196 0.158364 0.581076
Si Si4 0.667290 0.930761 0.712703
Si Si5 0.170041 0.221506 0.113507
Si Si6 0.166623 0.280247 0.784628
Si Si7 0.334845 0.180982 0.974351
O O1 0.770283 0.404135 0.277460
O O2 0.777576 0.288100 0.294236
O O3 0.753106 0.359226 0.413740
O O4 0.000000 0.356797 0.339655
O O5 0.500000 0.834849 0.392896
O O6 0.709434 0.856708 0.492443
O O7 0.758576 0.825693 0.344305
O O8 0.669062 0.749173 0.447893
O O9 0.500000 0.179103 0.584986
O O10 0.698903 0.099814 0.631239
O O11 0.769920 0.211177 0.612183
O O12 0.500000 0.920644 0.736958
O O13 0.705627 0.000000 0.702797
O O14 0.195156 0.196848 0.199075
O O15 0.000000 0.223016 0.092201
O O16 0.254629 0.177251 0.056186
O O17 0.000000 0.281580 0.806781
O O18 0.500000 0.157214 0.981851
#
# Coordination Sequence:
#
# PCOD8177229 Si02
#       7
#     8   8   8   8   8   8   8
#     4  10  18  30  44  60  83 113 145 181 221 258
#     4   8  15  25  38  56  77 105 139 171 206 252
#     4   9  17  29  42  57  80 111 146 181 217 257
#     4  10  20  32  46  63  84 114 152 191 226 259
#     4  10  17  26  40  61  86 112 141 172 210 256
#     4   9  17  26  38  59  85 111 139 169 208 255
#     4   9  17  28  41  60  82 110 143 173 210 257
#
# _framework density 15.546606000000001
#
# number of rings (size 3 to 8) (size 9 to 14) (size 15 to 20)
#    0.000    2.714    1.429    2.143    0.000    5.429 
#    0.000    0.000    0.000    0.000    0.000    0.000 
#    0.000    1.143    0.000   10.571    0.000    2.857 
#
# Total GULP energy -347079.512771 kJ/mol
# GULP energy per Si atom -12395.696885 kJ/mol
# Density = 1.551122 g / cm^3
# Si number density = 15.546606 Si / 1000 Ang^3
#
#
#
# Elastic Constant Matrix: (Units=GPa)
#
#
# Indices 1 2 3 4 5 6 
#
# 1 85.7393 26.4308 66.6603 0.0000 0.0000 0.0000
# 2 26.4308 41.7815 42.0185 0.0000 0.0000 0.0000
# 3 66.6603 42.0185 136.5189 0.0000 0.0000 0.0000
# 4 0.0000 0.0000 0.0000 15.6542 0.0000 0.0000
# 5 0.0000 0.0000 0.0000 0.0000 31.8235 0.0000
# 6 0.0000 0.0000 0.0000 0.0000 0.0000 12.9664
#
#
#
# Elastic Compliance Matrix: (Units=1/GPa)
#
#
# Indices 1 2 3 4 5 6 
#
# 1 0.019239 -0.003944 -0.008180 0.000000 0.000000 0.000000
# 2 -0.003944 0.035472 -0.008992 0.000000 0.000000 0.000000
# 3 -0.008180 -0.008992 0.014087 0.000000 0.000000 0.000000
# 4 0.000000 0.000000 0.000000 0.063881 0.000000 0.000000
# 5 0.000000 0.000000 0.000000 0.000000 0.031423 0.000000
# 6 0.000000 0.000000 0.000000 0.000000 0.000000 0.077122
#
#
# Mechanical properties :
#
#
# Convention : Reuss Voigt Hill
#
# Bulk Modulus (GPa) = 37.64270 59.36212 48.50241
# Shear Modulus (GPa) = 17.10502 20.68414 18.89458
#
# Velocity S-wave (km/s) = 3.32059 3.65150 3.48997
# Velocity P-wave (km/s) = 6.24236 7.48627 6.89243
#
# Compressibility (1/GPa) = 0.02656558
#
# Stress axis : x y z
#
# Youngs Moduli (GPa) = 51.97772 28.19130 70.98770
#
# Poissons Ratio (x) = 0.11118 0.58070
# Poissons Ratio (y) = 0.20499 0.63832
# Poissons Ratio (z) = 0.42519 0.25350
#
# Static dielectric constant tensor:
#      x y z
#    x 3.062300 0.000000 0.000000 
#    y 0.000000 2.459340 0.000000 
#    z 0.000000 0.000000 3.259410 
# 
# 
# High freq. dielectric constant tensor:
#      x y z
#    x 1.606330 0.000000 0.000000 
#    y 0.000000 1.521220 0.000000 
#    z 0.000000 0.000000 1.611320 
# 
# From -- ./inp_files/17065.got.cif
#   From: 2010.03.12/outbox.cif.g09.slc.cpg/sg38_9_cif.got.tgz:17065.got - 2010.04.14 02:38:36.
