data_PCOD8177505
_publ_section_title
;
Structure prediction by ZEFSAII (Michael W. Deem and Ramdas Pophale) SiO2 
 PCOD8177505
Probable space group: A M M 2
;
_chemical_formula_sum "Si O2"
_cell_formula_units_Z 52
_cell_length_a 12.541084
_cell_length_b 9.026794
_cell_length_c 25.593366
_cell_angle_alpha 90.000000
_cell_angle_beta 90.000000
_cell_angle_gamma 90.000000
_cell_volume 2897.317007
_symmetry_space_group_name_H-M "A M M 2"
_symmetry_group_IT_number 38
_symmetry_cell_setting 'orthorhombic'
loop_
_space_group_symop_operation_xyz
x,y,z
-x,-y,z
-x,y,z
x,-y,z
x,1/2+y,1/2+z
-x,1/2-y,1/2+z
-x,1/2+y,1/2+z
x,1/2-y,1/2+z
loop_
_atom_site_type_symbol
_atom_site_label
_atom_site_fract_x
_atom_site_fract_y
_atom_site_fract_z
Si Si1 0.729149 0.837637 0.721650
Si Si2 0.124746 0.327972 0.917480
Si Si3 0.719538 0.676670 0.337910
Si Si4 0.500000 0.659757 0.613094
Si Si5 0.500000 0.748058 0.723639
Si Si6 0.500000 0.833985 0.337750
Si Si7 0.730161 0.823894 0.117606
Si Si8 0.123274 0.170540 0.023334
O O1 0.757075 0.773996 0.779395
O O2 0.601608 0.854971 0.720748
O O3 0.769554 0.734703 0.674140
O O4 0.780166 0.000000 0.713776
O O5 0.154828 0.500000 0.912689
O O6 0.188257 0.233034 0.875556
O O7 0.000000 0.300063 0.907605
O O8 0.157518 0.271396 0.974806
O O9 0.708002 0.500000 0.341038
O O10 0.606525 0.747090 0.355661
O O11 0.500000 0.500000 0.584868
O O12 0.500000 0.633914 0.675646
O O13 0.387301 0.741327 0.600048
O O14 0.500000 0.649583 0.775470
O O15 0.500000 0.000000 0.361919
O O16 0.813113 0.772536 0.073922
O O17 0.722543 0.000000 0.122355
O O18 0.000000 0.190548 0.037064
O O19 0.150568 0.000000 0.010161
#
# Coordination Sequence:
#
# PCOD8177505 Si02
#       8
#     8   8   8   4   4   4   8   8
#     4   9  17  28  45  70 100 132 164 200 242 290
#     4  10  21  37  57  78  97 124 169 222 268 309
#     4  10  20  34  52  76 107 141 174 208 253 309
#     4   8  13  23  40  65  95 123 153 190 231 277
#     4   8  14  24  41  65  95 131 169 200 234 282
#     4  10  18  29  49  76 106 138 172 212 253 295
#     4   9  17  29  47  71  98 128 162 198 241 295
#     4   9  18  34  54  72  92 124 165 206 250 303
#
# _framework density 17.947638999999999
#
# number of rings (size 3 to 8) (size 9 to 14) (size 15 to 20)
#    0.000    2.769    0.000    1.615    0.000    7.692 
#    0.000    1.538    0.000    4.615    0.000    0.000 
#    0.000    0.000    0.000    0.000    0.000    0.000 
#
# Total GULP energy -322161.994583 kJ/mol
# GULP energy per Si atom -12390.845945 kJ/mol
# Density = 1.790679 g / cm^3
# Si number density = 17.947639 Si / 1000 Ang^3
#
#
#
# Elastic Constant Matrix: (Units=GPa)
#
#
# Indices 1 2 3 4 5 6 
#
# 1 72.1278 33.1462 62.3823 0.0000 0.0000 0.0000
# 2 33.1462 76.7634 42.3936 0.0000 0.0000 0.0000
# 3 62.3823 42.3936 117.3575 0.0000 0.0000 0.0000
# 4 0.0000 0.0000 0.0000 28.3003 0.0000 0.0000
# 5 0.0000 0.0000 0.0000 0.0000 23.7003 0.0000
# 6 0.0000 0.0000 0.0000 0.0000 0.0000 21.7322
#
#
#
# Elastic Compliance Matrix: (Units=1/GPa)
#
#
# Indices 1 2 3 4 5 6 
#
# 1 0.026928 -0.004650 -0.012634 0.000000 0.000000 0.000000
# 2 -0.004650 0.017077 -0.003697 0.000000 0.000000 0.000000
# 3 -0.012634 -0.003697 0.016572 0.000000 0.000000 0.000000
# 4 0.000000 0.000000 0.000000 0.035335 0.000000 0.000000
# 5 0.000000 0.000000 0.000000 0.000000 0.042194 0.000000
# 6 0.000000 0.000000 0.000000 0.000000 0.000000 0.046015
#
#
# Mechanical properties :
#
#
# Convention : Reuss Voigt Hill
#
# Bulk Modulus (GPa) = 53.72074 60.23255 56.97665
# Shear Modulus (GPa) = 21.52502 23.30168 22.41335
#
# Velocity S-wave (km/s) = 3.46688 3.60712 3.53770
# Velocity P-wave (km/s) = 6.78400 7.14013 6.96434
#
# Compressibility (1/GPa) = 0.01861478
#
# Stress axis : x y z
#
# Youngs Moduli (GPa) = 37.13554 58.55967 60.34206
#
# Poissons Ratio (x) = 0.27231 0.76237
# Poissons Ratio (y) = 0.17269 0.22307
# Poissons Ratio (z) = 0.46918 0.21648
#
# Static dielectric constant tensor:
#      x y z
#    x 3.382180 0.000000 0.000000 
#    y 0.000000 3.164120 0.000000 
#    z 0.000000 0.000000 3.276770 
# 
# 
# High freq. dielectric constant tensor:
#      x y z
#    x 1.681280 0.000000 0.000000 
#    y 0.000000 1.686670 0.000000 
#    z 0.000000 0.000000 1.682400 
# 
# From -- ./inp_files/23799.got.cif
#   From: 2010.03.12/outbox.cif.g09.slc.cpg/sg38_12_cif.got.tgz:23799.got - 2010.04.14 02:38:36.
