data_PCOD8177233
_publ_section_title
;
Structure prediction by ZEFSAII (Michael W. Deem and Ramdas Pophale) SiO2 
 PCOD8177233
Probable space group: A M M 2
;
_chemical_formula_sum "Si O2"
_cell_formula_units_Z 64
_cell_length_a 8.856959
_cell_length_b 18.458083
_cell_length_c 26.661711
_cell_angle_alpha 90.000000
_cell_angle_beta 90.000000
_cell_angle_gamma 90.000000
_cell_volume 4358.722751
_symmetry_space_group_name_H-M "A M M 2"
_symmetry_group_IT_number 38
_symmetry_cell_setting 'orthorhombic'
loop_
_space_group_symop_operation_xyz
x,y,z
-x,-y,z
-x,y,z
x,-y,z
x,1/2+y,1/2+z
-x,1/2-y,1/2+z
-x,1/2+y,1/2+z
x,1/2-y,1/2+z
loop_
_atom_site_type_symbol
_atom_site_label
_atom_site_fract_x
_atom_site_fract_y
_atom_site_fract_z
Si Si1 0.320840 0.833668 0.011950
Si Si2 0.321053 0.419883 0.607436
Si Si3 0.674601 0.583433 0.906792
Si Si4 0.167324 0.704281 0.963890
Si Si5 0.673675 0.584779 0.719132
Si Si6 0.820189 0.347421 0.812536
Si Si7 0.819695 0.417686 0.421865
Si Si8 0.835062 0.290936 0.361075
O O1 0.500000 0.830581 0.006998
O O2 0.266692 0.861520 0.066605
O O3 0.255453 0.752938 0.004722
O O4 0.258499 0.892125 0.972696
O O5 0.500000 0.426093 0.607532
O O6 0.254546 0.500000 0.595084
O O7 0.269693 0.395390 0.663116
O O8 0.500000 0.604018 0.901372
O O9 0.698303 0.500000 0.921068
O O10 0.744974 0.629844 0.952314
O O11 0.752106 0.597652 0.853152
O O12 0.153869 0.749659 0.913566
O O13 0.000000 0.685963 0.984508
O O14 0.500000 0.606952 0.727355
O O15 0.695574 0.500000 0.729491
O O16 0.776766 0.629970 0.756866
O O17 0.754513 0.265119 0.822658
O O18 0.000000 0.347543 0.819494
O O19 0.773953 0.500000 0.410618
O O20 0.757826 0.368408 0.374681
O O21 0.000000 0.407734 0.427620
O O22 0.000000 0.308000 0.339027
#
# Coordination Sequence:
#
# PCOD8177233 Si02
#       8
#     8   8   8   8   8   8   8   8
#     4  10  17  26  42  60  79 105 136 167 201 242
#     4   8  15  27  41  57  78 105 136 170 207 243
#     4  10  19  29  42  61  83 107 137 169 199 236
#     4   9  17  29  42  57  80 107 134 164 199 238
#     4   9  17  29  42  55  75 104 138 174 206 237
#     4  10  18  27  40  57  80 109 137 166 203 245
#     4   9  16  26  40  57  78 105 135 164 196 238
#     4   7  13  25  37  51  73 100 127 156 191 232
#
# _framework density 14.683199999999999
#
# number of rings (size 3 to 8) (size 9 to 14) (size 15 to 20)
#    0.000    3.000    0.000    4.500    0.000    3.500 
#    0.000    1.875    0.000    1.500    0.000    0.000 
#    0.000    1.000    0.000    6.750    0.000    2.500 
#
# Total GULP energy -396469.817917 kJ/mol
# GULP energy per Si atom -12389.681810 kJ/mol
# Density = 1.464978 g / cm^3
# Si number density = 14.683200 Si / 1000 Ang^3
#
#
#
# Elastic Constant Matrix: (Units=GPa)
#
#
# Indices 1 2 3 4 5 6 
#
# 1 61.1442 39.1508 30.0056 0.0000 0.0000 0.0000
# 2 39.1508 106.1150 59.0337 0.0000 0.0000 0.0000
# 3 30.0056 59.0337 86.2138 0.0000 0.0000 0.0000
# 4 0.0000 0.0000 0.0000 24.3160 0.0000 0.0000
# 5 0.0000 0.0000 0.0000 0.0000 13.1403 0.0000
# 6 0.0000 0.0000 0.0000 0.0000 0.0000 19.4902
#
#
#
# Elastic Compliance Matrix: (Units=1/GPa)
#
#
# Indices 1 2 3 4 5 6 
#
# 1 0.022011 -0.006234 -0.003392 0.000000 0.000000 0.000000
# 2 -0.006234 0.016988 -0.009463 0.000000 0.000000 0.000000
# 3 -0.003392 -0.009463 0.019259 0.000000 0.000000 0.000000
# 4 0.000000 0.000000 0.000000 0.041125 0.000000 0.000000
# 5 0.000000 0.000000 0.000000 0.000000 0.076102 0.000000
# 6 0.000000 0.000000 0.000000 0.000000 0.000000 0.051308
#
#
# Mechanical properties :
#
#
# Convention : Reuss Voigt Hill
#
# Bulk Modulus (GPa) = 49.79877 56.65036 53.22457
# Shear Modulus (GPa) = 18.40512 19.74149 19.07330
#
# Velocity S-wave (km/s) = 3.54429 3.67071 3.60806
# Velocity P-wave (km/s) = 7.12309 7.52536 7.32699
#
# Compressibility (1/GPa) = 0.02008082
#
# Stress axis : x y z
#
# Youngs Moduli (GPa) = 45.43198 58.86535 51.92354
#
# Poissons Ratio (x) = 0.36695 0.17613
# Poissons Ratio (y) = 0.28321 0.49134
# Poissons Ratio (z) = 0.15411 0.55702
#
# Static dielectric constant tensor:
#      x y z
#    x 2.787890 0.000000 0.000000 
#    y 0.000000 3.071580 0.000000 
#    z 0.000000 0.000000 2.784310 
# 
# 
# High freq. dielectric constant tensor:
#      x y z
#    x 1.554110 0.000000 0.000000 
#    y 0.000000 1.555410 0.000000 
#    z 0.000000 0.000000 1.529000 
# 
# From -- ./inp_files/22267.got.cif
#   From: 2010.03.12/outbox.cif.g09.slc.cpg/sg38_12_cif.got.tgz:22267.got - 2010.04.14 02:38:36.
