data_PCOD8177523
_publ_section_title
;
Structure prediction by ZEFSAII (Michael W. Deem and Ramdas Pophale) SiO2 
 PCOD8177523
Probable space group: A M M 2
;
_chemical_formula_sum "Si O2"
_cell_formula_units_Z 60
_cell_length_a 27.152243
_cell_length_b 26.912730
_cell_length_c 5.310196
_cell_angle_alpha 90.000000
_cell_angle_beta 90.000000
_cell_angle_gamma 90.000000
_cell_volume 3880.377854
_symmetry_space_group_name_H-M "A M M 2"
_symmetry_group_IT_number 38
_symmetry_cell_setting 'orthorhombic'
loop_
_space_group_symop_operation_xyz
x,y,z
-x,-y,z
-x,y,z
x,-y,z
x,1/2+y,1/2+z
-x,1/2-y,1/2+z
-x,1/2+y,1/2+z
x,1/2-y,1/2+z
loop_
_atom_site_type_symbol
_atom_site_label
_atom_site_fract_x
_atom_site_fract_y
_atom_site_fract_z
Si Si1 0.191666 0.262298 0.313780
Si Si2 0.105477 0.178180 0.310186
Si Si3 0.222504 0.558897 0.326171
Si Si4 0.389939 0.440709 0.825121
Si Si5 0.000000 0.278489 0.777588
Si Si6 0.142727 0.863012 0.812121
Si Si7 0.444245 0.559194 0.325123
Si Si8 0.720986 0.058867 0.326080
O O1 0.222834 0.248795 0.562197
O O2 0.141245 0.227432 0.307556
O O3 0.183662 0.320446 0.321620
O O4 0.049037 0.191824 0.339357
O O5 0.114527 0.142444 0.548646
O O6 0.109079 0.145131 0.057687
O O7 0.214958 0.500000 0.326321
O O8 0.168645 0.583499 0.325174
O O9 0.251213 0.577411 0.575265
O O10 0.251618 0.577338 0.078136
O O11 0.390079 0.500000 0.825152
O O12 0.417141 0.420550 0.575175
O O13 0.334346 0.419759 0.825146
O O14 0.417166 0.420551 0.075004
O O15 0.000000 0.265757 0.481863
O O16 0.500000 0.579234 0.325192
O O17 0.443549 0.500000 0.325142
O O18 0.718820 0.000000 0.325644
#
# Coordination Sequence:
#
# PCOD8177523 Si02
#       8
#     8   8   8   8   4   8   8   8
#     4   8  14  25  39  57  81 104 124 146 182 228
#     4  10  19  30  45  67  90 112 131 153 191 238
#     4  10  19  30  44  61  78 101 138 182 217 245
#     4   9  15  23  34  46  65  93 119 155 208 251
#     4  12  20  30  48  72  99 120 133 154 188 240
#     4  10  18  30  44  61  85 110 134 164 204 239
#     4   9  15  21  30  46  66  89 120 154 194 249
#     4   9  17  28  40  55  74  96 130 174 220 256
#
# _framework density 15.46241
#
# number of rings (size 3 to 8) (size 9 to 14) (size 15 to 20)
#    0.000    2.533    0.000    5.200    0.000    4.800 
#    0.000    0.000    0.000    0.000    0.000    2.800 
#    0.000    0.000    0.000    0.000    0.000    0.000 
#
# Total GULP energy -371681.785411 kJ/mol
# GULP energy per Si atom -12389.392847 kJ/mol
# Density = 1.542722 g / cm^3
# Si number density = 15.462410 Si / 1000 Ang^3
#
#
#
# Elastic Constant Matrix: (Units=GPa)
#
#
# Indices 1 2 3 4 5 6 
#
# 1 74.6438 23.4467 29.9851 0.0000 0.0000 0.0000
# 2 23.4467 26.0392 18.6815 0.0000 0.0000 0.0000
# 3 29.9851 18.6815 151.1378 0.0000 0.0000 0.0000
# 4 0.0000 0.0000 0.0000 11.2332 0.0000 0.0000
# 5 0.0000 0.0000 0.0000 0.0000 23.4952 0.0000
# 6 0.0000 0.0000 0.0000 0.0000 0.0000 2.8954
#
#
#
# Elastic Compliance Matrix: (Units=1/GPa)
#
#
# Indices 1 2 3 4 5 6 
#
# 1 0.019130 -0.015914 -0.001828 0.000000 0.000000 0.000000
# 2 -0.015914 0.055379 -0.003688 0.000000 0.000000 0.000000
# 3 -0.001828 -0.003688 0.007435 0.000000 0.000000 0.000000
# 4 0.000000 0.000000 0.000000 0.089021 0.000000 0.000000
# 5 0.000000 0.000000 0.000000 0.000000 0.042562 0.000000
# 6 0.000000 0.000000 0.000000 0.000000 0.000000 0.345370
#
#
# Mechanical properties :
#
#
# Convention : Reuss Voigt Hill
#
# Bulk Modulus (GPa) = 25.58594 44.00528 34.79561
# Shear Modulus (GPa) = 8.13292 19.50527 13.81910
#
# Velocity S-wave (km/s) = 2.29591 3.55556 2.99276
# Velocity P-wave (km/s) = 4.85916 6.73627 5.87319
#
# Compressibility (1/GPa) = 0.03908397
#
# Stress axis : x y z
#
# Youngs Moduli (GPa) = 52.27338 18.05743 134.49805
#
# Poissons Ratio (x) = 0.28736 0.24590
# Poissons Ratio (y) = 0.83187 0.49602
# Poissons Ratio (z) = 0.09557 0.06659
#
# Static dielectric constant tensor:
#      x y z
#    x 2.895780 0.000000 0.000000 
#    y 0.000000 2.422910 0.000000 
#    z 0.000000 0.000000 3.648190 
# 
# 
# High freq. dielectric constant tensor:
#      x y z
#    x 1.567130 0.000000 0.000000 
#    y 0.000000 1.523190 0.000000 
#    z 0.000000 0.000000 1.632050 
# 
# From -- ./inp_files/1998.got.cif
#   From: 2010.03.12/outbox.cif.g09.slc.cpg/sg38_1_cif.got.tgz:1998.got - 2010.04.14 02:38:36.
