data_PCOD8177333
_publ_section_title
;
Structure prediction by ZEFSAII (Michael W. Deem and Ramdas Pophale) SiO2 
 PCOD8177333
Probable space group: A M M 2
;
_chemical_formula_sum "Si O2"
_cell_formula_units_Z 52
_cell_length_a 7.757456
_cell_length_b 12.712452
_cell_length_c 32.866810
_cell_angle_alpha 90.000000
_cell_angle_beta 90.000000
_cell_angle_gamma 90.000000
_cell_volume 3241.202769
_symmetry_space_group_name_H-M "A M M 2"
_symmetry_group_IT_number 38
_symmetry_cell_setting 'orthorhombic'
loop_
_space_group_symop_operation_xyz
x,y,z
-x,-y,z
-x,y,z
x,-y,z
x,1/2+y,1/2+z
-x,1/2-y,1/2+z
-x,1/2+y,1/2+z
x,1/2-y,1/2+z
loop_
_atom_site_type_symbol
_atom_site_label
_atom_site_fract_x
_atom_site_fract_y
_atom_site_fract_z
Si Si1 0.191125 0.756380 0.866360
Si Si2 0.500000 0.125088 0.560561
Si Si3 0.196938 0.122391 0.946995
Si Si4 0.500000 0.756325 0.476354
Si Si5 0.192688 0.125568 0.617501
Si Si6 0.696051 0.379447 0.291333
Si Si7 0.500000 0.875922 0.392918
Si Si8 0.202552 0.116921 0.705970
O O1 0.230657 0.844377 0.900428
O O2 0.193236 0.811734 0.822634
O O3 0.329955 0.663446 0.869364
O O4 0.000000 0.708187 0.872822
O O5 0.500000 0.176130 0.516810
O O6 0.330179 0.164817 0.584481
O O7 0.500000 0.000000 0.555878
O O8 0.327874 0.185199 0.976028
O O9 0.000000 0.147164 0.960244
O O10 0.238875 0.000000 0.950833
O O11 0.500000 0.837519 0.439234
O O12 0.244801 0.171705 0.662349
O O13 0.000000 0.164237 0.605128
O O14 0.192371 0.000000 0.620743
O O15 0.500000 0.374142 0.305935
O O16 0.764126 0.500000 0.291129
O O17 0.714954 0.328308 0.245945
O O18 0.500000 0.000000 0.392262
O O19 0.000000 0.113898 0.712228
O O20 0.281436 0.000000 0.704442
#
# Coordination Sequence:
#
# PCOD8177333 Si02
#       8
#     8   4   8   4   8   8   4   8
#     4  10  19  32  49  69  92 122 157 188 221 263
#     4  10  19  29  44  63  86 119 155 189 226 262
#     4   9  18  32  50  70  93 121 148 178 220 269
#     4  10  20  32  48  70  90 116 148 188 228 272
#     4   8  15  27  41  58  83 118 156 187 217 258
#     4  10  18  25  39  67 100 129 154 182 218 262
#     4  10  21  37  50  63  88 117 153 199 236 268
#     4   8  14  24  37  56  86 123 155 180 212 258
#
# _framework density 16.043427999999999
#
# number of rings (size 3 to 8) (size 9 to 14) (size 15 to 20)
#    0.000    2.769    0.769    2.308    1.077    2.462 
#    0.000    0.000    0.000    2.769    0.000    0.000 
#    0.000    4.923    0.000    8.615    0.000    0.615 
#
# Total GULP energy -322239.296940 kJ/mol
# GULP energy per Si atom -12393.819113 kJ/mol
# Density = 1.600691 g / cm^3
# Si number density = 16.043428 Si / 1000 Ang^3
#
#
#
# Elastic Constant Matrix: (Units=GPa)
#
#
# Indices 1 2 3 4 5 6 
#
# 1 104.7552 39.1098 49.8915 0.0000 0.0000 0.0000
# 2 39.1098 62.5241 29.4261 0.0000 0.0000 0.0000
# 3 49.8915 29.4261 103.6192 0.0000 0.0000 0.0000
# 4 0.0000 0.0000 0.0000 17.9534 0.0000 0.0000
# 5 0.0000 0.0000 0.0000 0.0000 25.5080 0.0000
# 6 0.0000 0.0000 0.0000 0.0000 0.0000 13.2291
#
#
#
# Elastic Compliance Matrix: (Units=1/GPa)
#
#
# Indices 1 2 3 4 5 6 
#
# 1 0.014441 -0.006649 -0.005065 0.000000 0.000000 0.000000
# 2 -0.006649 0.021523 -0.002911 0.000000 0.000000 0.000000
# 3 -0.005065 -0.002911 0.012916 0.000000 0.000000 0.000000
# 4 0.000000 0.000000 0.000000 0.055700 0.000000 0.000000
# 5 0.000000 0.000000 0.000000 0.000000 0.039203 0.000000
# 6 0.000000 0.000000 0.000000 0.000000 0.000000 0.075591
#
#
# Mechanical properties :
#
#
# Convention : Reuss Voigt Hill
#
# Bulk Modulus (GPa) = 50.94171 56.41705 53.67938
# Shear Modulus (GPa) = 19.59506 21.50283 20.54895
#
# Velocity S-wave (km/s) = 3.49861 3.66497 3.58275
# Velocity P-wave (km/s) = 6.93842 7.29046 7.11662
#
# Compressibility (1/GPa) = 0.01963028
#
# Stress axis : x y z
#
# Youngs Moduli (GPa) = 69.24863 46.46218 77.42385
#
# Poissons Ratio (x) = 0.30894 0.39213
# Poissons Ratio (y) = 0.46045 0.22535
# Poissons Ratio (z) = 0.35073 0.13523
#
# Static dielectric constant tensor:
#      x y z
#    x 3.267460 0.000000 0.000000 
#    y 0.000000 2.517230 0.000000 
#    z 0.000000 0.000000 3.072980 
# 
# 
# High freq. dielectric constant tensor:
#      x y z
#    x 1.634930 0.000000 0.000000 
#    y 0.000000 1.547270 0.000000 
#    z 0.000000 0.000000 1.616790 
# 
# From -- ./inp_files/23451.got.cif
#   From: 2010.03.12/outbox.cif.g09.slc.cpg/sg38_12_cif.got.tgz:23451.got - 2010.04.14 02:38:36.
