data_PCOD8177627
_publ_section_title
;
Structure prediction by ZEFSAII (Michael W. Deem and Ramdas Pophale) SiO2 
 PCOD8177627
Probable space group: A M M 2
;
_chemical_formula_sum "Si O2"
_cell_formula_units_Z 56
_cell_length_a 9.022383
_cell_length_b 18.911287
_cell_length_c 18.348974
_cell_angle_alpha 90.000000
_cell_angle_beta 90.000000
_cell_angle_gamma 90.000000
_cell_volume 3130.791383
_symmetry_space_group_name_H-M "A M M 2"
_symmetry_group_IT_number 38
_symmetry_cell_setting 'orthorhombic'
loop_
_space_group_symop_operation_xyz
x,y,z
-x,-y,z
-x,y,z
x,-y,z
x,1/2+y,1/2+z
-x,1/2-y,1/2+z
-x,1/2+y,1/2+z
x,1/2-y,1/2+z
loop_
_atom_site_type_symbol
_atom_site_label
_atom_site_fract_x
_atom_site_fract_y
_atom_site_fract_z
Si Si1 0.836377 0.292400 0.496400
Si Si2 0.173601 0.790445 0.237342
Si Si3 0.164894 0.337932 0.892297
Si Si4 0.327818 0.077478 0.992082
Si Si5 0.325576 0.419087 0.014593
Si Si6 0.832040 0.923559 0.142074
Si Si7 0.675592 0.709415 0.116485
O O1 0.847268 0.229945 0.441314
O O2 0.765567 0.359907 0.453802
O O3 0.734714 0.272393 0.565340
O O4 0.000000 0.311264 0.526295
O O5 0.237823 0.808113 0.317862
O O6 0.210304 0.863182 0.197748
O O7 0.254790 0.723962 0.196987
O O8 0.000000 0.771597 0.240642
O O9 0.000000 0.368912 0.876678
O O10 0.257656 0.396949 0.936165
O O11 0.500000 0.093938 0.983601
O O12 0.282316 0.079915 0.076149
O O13 0.290133 0.000000 0.958552
O O14 0.500000 0.413114 0.004775
O O15 0.277705 0.500000 0.033241
O O16 0.275088 0.366623 0.081002
O O17 0.000000 0.914257 0.112879
O O18 0.815363 0.000000 0.181374
O O19 0.500000 0.713509 0.122625
#
# Coordination Sequence:
#
# PCOD8177627 Si02
#       7
#     8   8   8   8   8   8   8
#     4  10  18  31  49  69  95 128 164 203 244 292
#     4  10  19  32  49  72 103 135 166 205 248 299
#     4   9  20  34  50  74 102 132 167 205 250 302
#     4  10  19  29  44  68  95 121 154 198 240 280
#     4   9  19  36  55  76 103 135 172 214 260 307
#     4   9  17  28  43  65  94 128 159 186 226 280
#     4  10  19  31  51  75  98 129 169 212 253 296
#
# _framework density 17.886851
#
# number of rings (size 3 to 8) (size 9 to 14) (size 15 to 20)
#    0.000    2.429    1.429    1.286    0.000    3.429 
#    0.000    1.429    0.000    2.571    0.000    4.000 
#    0.000    0.000    0.000    0.000    0.000    0.000 
#
# Total GULP energy -346866.632707 kJ/mol
# GULP energy per Si atom -12388.094025 kJ/mol
# Density = 1.784614 g / cm^3
# Si number density = 17.886851 Si / 1000 Ang^3
#
#
#
# Elastic Constant Matrix: (Units=GPa)
#
#
# Indices 1 2 3 4 5 6 
#
# 1 57.4840 39.9842 13.9799 0.0000 0.0000 0.0000
# 2 39.9842 107.2607 25.9033 0.0000 0.0000 0.0000
# 3 13.9799 25.9033 68.7716 0.0000 0.0000 0.0000
# 4 0.0000 0.0000 0.0000 13.9570 0.0000 0.0000
# 5 0.0000 0.0000 0.0000 0.0000 24.0869 0.0000
# 6 0.0000 0.0000 0.0000 0.0000 0.0000 24.0003
#
#
#
# Elastic Compliance Matrix: (Units=1/GPa)
#
#
# Indices 1 2 3 4 5 6 
#
# 1 0.023652 -0.008422 -0.001636 0.000000 0.000000 0.000000
# 2 -0.008422 0.013255 -0.003281 0.000000 0.000000 0.000000
# 3 -0.001636 -0.003281 0.016109 0.000000 0.000000 0.000000
# 4 0.000000 0.000000 0.000000 0.071649 0.000000 0.000000
# 5 0.000000 0.000000 0.000000 0.000000 0.041516 0.000000
# 6 0.000000 0.000000 0.000000 0.000000 0.000000 0.041666
#
#
# Mechanical properties :
#
#
# Convention : Reuss Voigt Hill
#
# Bulk Modulus (GPa) = 37.96587 43.69455 40.83021
# Shear Modulus (GPa) = 20.55050 22.65211 21.60130
#
# Velocity S-wave (km/s) = 3.39324 3.56253 3.47892
# Velocity P-wave (km/s) = 6.05176 6.43455 6.24609
#
# Compressibility (1/GPa) = 0.02633945
#
# Stress axis : x y z
#
# Youngs Moduli (GPa) = 42.27979 75.44454 62.07691
#
# Poissons Ratio (x) = 0.63538 0.10155
# Poissons Ratio (y) = 0.35607 0.20364
# Poissons Ratio (z) = 0.06916 0.24750
#
# Static dielectric constant tensor:
#      x y z
#    x 3.412080 0.000000 0.000000 
#    y 0.000000 3.752100 0.000000 
#    z 0.000000 0.000000 3.192040 
# 
# 
# High freq. dielectric constant tensor:
#      x y z
#    x 1.690150 0.000000 0.000000 
#    y 0.000000 1.702410 0.000000 
#    z 0.000000 0.000000 1.655660 
# 
# From -- ./inp_files/17105.got.cif
#   From: 2010.03.12/outbox.cif.g09.slc.cpg/sg38_9_cif.got.tgz:17105.got - 2010.04.14 02:38:36.
