data_PCOD8177149
_publ_section_title
;
Structure prediction by ZEFSAII (Michael W. Deem and Ramdas Pophale) SiO2 
 PCOD8177149
Probable space group: C C C 2
;
_chemical_formula_sum "Si O2"
_cell_formula_units_Z 60
_cell_length_a 26.463797
_cell_length_b 7.803983
_cell_length_c 12.415474
_cell_angle_alpha 90.000000
_cell_angle_beta 90.000000
_cell_angle_gamma 90.000000
_cell_volume 2564.081209
_symmetry_space_group_name_H-M "C C C 2"
_symmetry_group_IT_number 37
_symmetry_cell_setting 'orthorhombic'
loop_
_space_group_symop_operation_xyz
x,y,z
-x,-y,z
-x,y,1/2+z
x,-y,1/2+z
1/2+x,1/2+y,z
1/2-x,1/2-y,z
1/2-x,1/2+y,1/2+z
1/2+x,1/2-y,1/2+z
loop_
_atom_site_type_symbol
_atom_site_label
_atom_site_fract_x
_atom_site_fract_y
_atom_site_fract_z
Si Si1 0.831807 0.803964 0.051410
Si Si2 0.808052 0.814655 0.595349
Si Si3 0.929144 0.367701 0.509727
Si Si4 0.883854 0.693706 0.413800
Si Si5 0.197534 0.671586 0.761152
Si Si6 0.491619 0.697575 0.855190
Si Si7 0.000000 0.500000 0.183856
Si Si8 0.194674 0.297447 0.816723
O O1 0.891766 0.774956 0.059984
O O2 0.805186 0.662443 0.130462
O O3 0.809829 0.980324 0.095299
O O4 0.817983 0.794401 0.926976
O O5 0.750000 0.750000 0.574792
O O6 0.847631 0.740366 0.511608
O O7 0.834445 0.764628 0.709754
O O8 0.898562 0.490364 0.425532
O O9 0.951153 0.485823 0.606005
O O10 0.971903 0.260017 0.450015
O O11 0.853258 0.760103 0.307215
O O12 0.935902 0.796757 0.406425
O O13 0.250000 0.750000 0.801602
O O14 0.191452 0.498645 0.828223
O O15 0.500000 0.500000 0.819843
O O16 0.500857 0.826784 0.755108
O O17 0.250000 0.250000 0.780194
#
# Coordination Sequence:
#
# PCOD8177149 Si02
#       8
#     8   8   8   8   8   8   4   8
#     4  12  27  47  76 111 150 207 264 316 396 474
#     4  11  27  47  74 111 161 207 264 322 388 468
#     4  12  25  50  77 112 152 202 258 322 404 477
#     4  12  24  49  77 109 155 208 256 324 398 469
#     4  12  26  47  76 106 151 199 258 317 392 464
#     4  12  27  51  79 115 152 203 268 327 398 485
#     4  12  24  52  80 110 162 196 258 338 408 474
#     4  11  26  45  71 106 149 198 256 316 377 461
#
# _framework density 23.400196000000001
#
# number of rings (size 3 to 8) (size 9 to 14) (size 15 to 20)
#    0.000    0.267    4.000    4.800    5.600    1.600 
#    7.200    0.000    0.000    0.000    0.000    0.000 
#    0.000    0.000    0.000    0.000    0.000    0.000 
#
# Total GULP energy -371673.547076 kJ/mol
# GULP energy per Si atom -12389.118236 kJ/mol
# Density = 2.334694 g / cm^3
# Si number density = 23.400196 Si / 1000 Ang^3
#
#
#
# Elastic Constant Matrix: (Units=GPa)
#
#
# Indices 1 2 3 4 5 6 
#
# 1 159.0622 49.9989 51.8123 0.0000 0.0000 0.0000
# 2 49.9989 120.0199 47.7962 0.0000 0.0000 0.0000
# 3 51.8123 47.7962 141.3661 0.0000 0.0000 0.0000
# 4 0.0000 0.0000 0.0000 29.0484 0.0000 0.0000
# 5 0.0000 0.0000 0.0000 0.0000 20.3197 0.0000
# 6 0.0000 0.0000 0.0000 0.0000 0.0000 39.0010
#
#
#
# Elastic Compliance Matrix: (Units=1/GPa)
#
#
# Indices 1 2 3 4 5 6 
#
# 1 0.007697 -0.002407 -0.002007 0.000000 0.000000 0.000000
# 2 -0.002407 0.010381 -0.002628 0.000000 0.000000 0.000000
# 3 -0.002007 -0.002628 0.008698 0.000000 0.000000 0.000000
# 4 0.000000 0.000000 0.000000 0.034425 0.000000 0.000000
# 5 0.000000 0.000000 0.000000 0.000000 0.049213 0.000000
# 6 0.000000 0.000000 0.000000 0.000000 0.000000 0.025640
#
#
# Mechanical properties :
#
#
# Convention : Reuss Voigt Hill
#
# Bulk Modulus (GPa) = 78.78862 79.96253 79.37557
# Shear Modulus (GPa) = 32.38961 35.72988 34.05974
#
# Velocity S-wave (km/s) = 3.72447 3.91180 3.81928
# Velocity P-wave (km/s) = 7.22763 7.39249 7.31052
#
# Compressibility (1/GPa) = 0.01269219
#
# Stress axis : x y z
#
# Youngs Moduli (GPa) = 129.91426 96.32793 114.96999
#
# Poissons Ratio (x) = 0.23189 0.23078
# Poissons Ratio (y) = 0.31274 0.30210
# Poissons Ratio (z) = 0.26077 0.25311
#
# Static dielectric constant tensor:
#      x y z
#    x 4.548760 0.000000 0.000000 
#    y 0.000000 4.297000 0.000000 
#    z 0.000000 0.000000 4.307440 
# 
# 
# High freq. dielectric constant tensor:
#      x y z
#    x 1.940380 0.000000 0.000000 
#    y 0.000000 1.916780 0.000000 
#    z 0.000000 0.000000 1.942620 
# 
# From -- ./inp_files/9071.got.cif
#   From: 2010.03.12/outbox.cif.g09.slc.cpg/sg37_5_cif.got.tgz:9071.got - 2010.04.14 02:25:27.
