data_PCOD8177074
_publ_section_title
;
Structure prediction by ZEFSAII (Michael W. Deem and Ramdas Pophale) SiO2 
 PCOD8177074
Probable space group: C C C 2
;
_chemical_formula_sum "Si O2"
_cell_formula_units_Z 64
_cell_length_a 14.484563
_cell_length_b 18.759765
_cell_length_c 11.728805
_cell_angle_alpha 90.000000
_cell_angle_beta 90.000000
_cell_angle_gamma 90.000000
_cell_volume 3187.032973
_symmetry_space_group_name_H-M "C C C 2"
_symmetry_group_IT_number 37
_symmetry_cell_setting 'orthorhombic'
loop_
_space_group_symop_operation_xyz
x,y,z
-x,-y,z
-x,y,1/2+z
x,-y,1/2+z
1/2+x,1/2+y,z
1/2-x,1/2-y,z
1/2-x,1/2+y,1/2+z
1/2+x,1/2-y,1/2+z
loop_
_atom_site_type_symbol
_atom_site_label
_atom_site_fract_x
_atom_site_fract_y
_atom_site_fract_z
Si Si1 0.125047 0.358143 0.330800
Si Si2 0.719171 0.924092 0.920018
Si Si3 0.826970 0.307065 0.598745
Si Si4 0.829107 0.802550 0.822917
Si Si5 0.272550 0.068953 0.525470
Si Si6 0.009252 0.261916 0.952053
Si Si7 0.105563 0.510641 0.232111
Si Si8 0.667444 0.299399 0.065318
O O1 0.173334 0.307371 0.236863
O O2 0.178350 0.370923 0.448117
O O3 0.131391 0.430908 0.261414
O O4 0.025114 0.326434 0.368958
O O5 0.793995 0.883405 0.841491
O O6 0.627434 0.939156 0.842512
O O7 0.696541 0.881331 0.035180
O O8 0.762698 0.000236 0.955830
O O9 0.750000 0.250000 0.561242
O O10 0.931632 0.289498 0.559483
O O11 0.750000 0.750000 0.873017
O O12 0.925397 0.792496 0.885761
O O13 0.850251 0.778559 0.695174
O O14 0.341141 0.043199 0.624499
O O15 0.186164 0.115074 0.569242
O O16 0.921977 0.215862 0.990535
O O17 0.000000 0.500000 0.199410
O O18 0.750000 0.250000 0.016661
#
# Coordination Sequence:
#
# PCOD8177074 Si02
#       8
#     8   8   8   8   8   8   8   8
#     4  11  26  39  64  97 132 171 217 284 325 404
#     4  11  21  44  65  93 134 172 225 263 347 398
#     4  12  24  42  67  97 132 173 221 285 337 397
#     4  11  22  42  71  96 132 183 222 282 336 413
#     4  11  24  43  63  92 135 181 210 278 339 399
#     4  12  23  41  68 102 130 172 228 280 342 396
#     4  11  24  38  67  95 135 175 216 267 338 419
#     4  11  24  43  66  95 136 181 222 278 340 412
#
# _framework density 20.081374
#
# number of rings (size 3 to 8) (size 9 to 14) (size 15 to 20)
#    0.000    0.750    6.250    1.500    3.500    2.000 
#    0.000    0.625    0.000    1.500    0.000    0.000 
#    0.000    0.000    0.000    0.000    0.000    0.000 
#
# Total GULP energy -396457.753005 kJ/mol
# GULP energy per Si atom -12389.304781 kJ/mol
# Density = 2.003567 g / cm^3
# Si number density = 20.081374 Si / 1000 Ang^3
#
#
#
# Elastic Constant Matrix: (Units=GPa)
#
#
# Indices 1 2 3 4 5 6 
#
# 1 121.9940 56.8712 50.6802 0.0000 0.0000 0.0000
# 2 56.8712 116.0071 45.0025 0.0000 0.0000 0.0000
# 3 50.6802 45.0025 108.8287 0.0000 0.0000 0.0000
# 4 0.0000 0.0000 0.0000 49.2878 0.0000 0.0000
# 5 0.0000 0.0000 0.0000 0.0000 33.8328 0.0000
# 6 0.0000 0.0000 0.0000 0.0000 0.0000 27.1144
#
#
#
# Elastic Compliance Matrix: (Units=1/GPa)
#
#
# Indices 1 2 3 4 5 6 
#
# 1 0.011744 -0.004330 -0.003678 0.000000 0.000000 0.000000
# 2 -0.004330 0.011864 -0.002889 0.000000 0.000000 0.000000
# 3 -0.003678 -0.002889 0.012096 0.000000 0.000000 0.000000
# 4 0.000000 0.000000 0.000000 0.020289 0.000000 0.000000
# 5 0.000000 0.000000 0.000000 0.000000 0.029557 0.000000
# 6 0.000000 0.000000 0.000000 0.000000 0.000000 0.036881
#
#
# Mechanical properties :
#
#
# Convention : Reuss Voigt Hill
#
# Bulk Modulus (GPa) = 71.89962 72.43752 72.16857
# Shear Modulus (GPa) = 33.58780 34.99872 34.29326
#
# Velocity S-wave (km/s) = 4.09416 4.17927 4.13693
# Velocity P-wave (km/s) = 7.63095 7.70965 7.67040
#
# Compressibility (1/GPa) = 0.01390828
#
# Stress axis : x y z
#
# Youngs Moduli (GPa) = 85.15003 84.28898 82.66861
#
# Poissons Ratio (x) = 0.36501 0.30408
# Poissons Ratio (y) = 0.36874 0.23886
# Poissons Ratio (z) = 0.31321 0.24354
#
# Static dielectric constant tensor:
#      x y z
#    x 3.429590 0.000000 0.000000 
#    y 0.000000 3.648550 0.000000 
#    z 0.000000 0.000000 3.836840 
# 
# 
# High freq. dielectric constant tensor:
#      x y z
#    x 1.753560 0.000000 0.000000 
#    y 0.000000 1.788520 0.000000 
#    z 0.000000 0.000000 1.806260 
# 
# From -- ./inp_files/7976.got.cif
#   From: 2010.03.12/outbox.cif.g09.slc.cpg/sg37_4_cif.got.tgz:7976.got - 2010.04.14 02:25:27.
