data_PCOD8177536
_publ_section_title
;
Structure prediction by ZEFSAII (Michael W. Deem and Ramdas Pophale) SiO2 
 PCOD8177536
Probable space group: A M M 2
;
_chemical_formula_sum "Si O2"
_cell_formula_units_Z 56
_cell_length_a 9.007650
_cell_length_b 26.762231
_cell_length_c 12.483090
_cell_angle_alpha 90.000000
_cell_angle_beta 90.000000
_cell_angle_gamma 90.000000
_cell_volume 3009.233720
_symmetry_space_group_name_H-M "A M M 2"
_symmetry_group_IT_number 38
_symmetry_cell_setting 'orthorhombic'
loop_
_space_group_symop_operation_xyz
x,y,z
-x,-y,z
-x,y,z
x,-y,z
x,1/2+y,1/2+z
-x,1/2-y,1/2+z
-x,1/2+y,1/2+z
x,1/2-y,1/2+z
loop_
_atom_site_type_symbol
_atom_site_label
_atom_site_fract_x
_atom_site_fract_y
_atom_site_fract_z
Si Si1 0.674323 0.057201 0.921730
Si Si2 0.323334 0.167405 0.285576
Si Si3 0.670244 0.174036 0.529039
Si Si4 0.329476 0.366707 0.244601
Si Si5 0.176989 0.876982 0.096749
Si Si6 0.163720 0.269787 0.533003
Si Si7 0.165250 0.233245 0.789243
O O1 0.500000 0.063010 0.943289
O O2 0.722665 0.084449 0.810469
O O3 0.721415 0.000000 0.907364
O O4 0.760525 0.078463 0.024423
O O5 0.500000 0.168487 0.271037
O O6 0.276601 0.158180 0.410094
O O7 0.250499 0.122417 0.215959
O O8 0.254319 0.219575 0.237011
O O9 0.500000 0.190165 0.519707
O O10 0.694144 0.128600 0.614700
O O11 0.749585 0.222502 0.585927
O O12 0.500000 0.356026 0.270130
O O13 0.240975 0.319975 0.287683
O O14 0.000000 0.882383 0.104169
O O15 0.233733 0.824969 0.043311
O O16 0.158732 0.251770 0.412158
O O17 0.000000 0.272221 0.583845
O O18 0.000000 0.229980 0.740342
#
# Coordination Sequence:
#
# PCOD8177536 Si02
#       7
#     8   8   8   8   8   8   8
#     4  10  22  39  59  82 105 133 176 230 283 330
#     4  10  20  33  49  74 108 146 182 215 255 312
#     4   9  19  32  48  73 106 142 178 212 254 310
#     4  10  19  33  53  75 102 138 178 222 271 322
#     4  11  21  35  54  77 105 140 179 222 273 323
#     4   9  18  30  45  70 105 140 175 213 256 311
#     4  10  18  30  47  73 108 143 179 217 260 316
#
# _framework density 18.609389
#
# number of rings (size 3 to 8) (size 9 to 14) (size 15 to 20)
#    0.000    2.143    1.429    2.143    0.000    5.429 
#    0.000    0.000    0.000    0.857    0.000    4.000 
#    0.000    0.000    0.000    0.000    0.000    0.000 
#
# Total GULP energy -346938.648871 kJ/mol
# GULP energy per Si atom -12390.666031 kJ/mol
# Density = 1.856703 g / cm^3
# Si number density = 18.609389 Si / 1000 Ang^3
#
#
#
# Elastic Constant Matrix: (Units=GPa)
#
#
# Indices 1 2 3 4 5 6 
#
# 1 70.2733 46.6917 37.5281 0.0000 0.0000 0.0000
# 2 46.6917 109.9086 71.9256 0.0000 0.0000 0.0000
# 3 37.5281 71.9256 108.6401 0.0000 0.0000 0.0000
# 4 0.0000 0.0000 0.0000 24.0455 0.0000 0.0000
# 5 0.0000 0.0000 0.0000 0.0000 9.3491 0.0000
# 6 0.0000 0.0000 0.0000 0.0000 0.0000 15.0546
#
#
#
# Elastic Compliance Matrix: (Units=1/GPa)
#
#
# Indices 1 2 3 4 5 6 
#
# 1 0.020142 -0.007064 -0.002281 0.000000 0.000000 0.000000
# 2 -0.007064 0.018531 -0.009829 0.000000 0.000000 0.000000
# 3 -0.002281 -0.009829 0.016500 0.000000 0.000000 0.000000
# 4 0.000000 0.000000 0.000000 0.041588 0.000000 0.000000
# 5 0.000000 0.000000 0.000000 0.000000 0.106962 0.000000
# 6 0.000000 0.000000 0.000000 0.000000 0.000000 0.066425
#
#
# Mechanical properties :
#
#
# Convention : Reuss Voigt Hill
#
# Bulk Modulus (GPa) = 59.43272 66.79029 63.11151
# Shear Modulus (GPa) = 15.91835 18.53495 17.22665
#
# Velocity S-wave (km/s) = 2.92788 3.15937 3.04583
# Velocity P-wave (km/s) = 6.59062 7.01979 6.80859
#
# Compressibility (1/GPa) = 0.01682575
#
# Stress axis : x y z
#
# Youngs Moduli (GPa) = 49.64805 53.96246 60.60721
#
# Poissons Ratio (x) = 0.38119 0.13824
# Poissons Ratio (y) = 0.35072 0.59569
# Poissons Ratio (z) = 0.11324 0.53038
#
# Static dielectric constant tensor:
#      x y z
#    x 3.491550 0.000000 0.000000 
#    y 0.000000 3.094840 0.000000 
#    z 0.000000 0.000000 3.876010 
# 
# 
# High freq. dielectric constant tensor:
#      x y z
#    x 1.721690 0.000000 0.000000 
#    y 0.000000 1.671300 0.000000 
#    z 0.000000 0.000000 1.752880 
# 
# From -- ./inp_files/12402.got.cif
#   From: 2010.03.12/outbox.cif.g09.slc.cpg/sg38_7_cif.got.tgz:12402.got - 2010.04.14 02:38:36.
