data_PCOD8177911
_publ_section_title
;
Structure prediction by ZEFSAII (Michael W. Deem and Ramdas Pophale) SiO2 
 PCOD8177911
Probable space group: A M M 2
;
_chemical_formula_sum "Si O2"
_cell_formula_units_Z 56
_cell_length_a 9.462948
_cell_length_b 18.338986
_cell_length_c 20.602860
_cell_angle_alpha 90.000000
_cell_angle_beta 90.000000
_cell_angle_gamma 90.000000
_cell_volume 3575.438267
_symmetry_space_group_name_H-M "A M M 2"
_symmetry_group_IT_number 38
_symmetry_cell_setting 'orthorhombic'
loop_
_space_group_symop_operation_xyz
x,y,z
-x,-y,z
-x,y,z
x,-y,z
x,1/2+y,1/2+z
-x,1/2-y,1/2+z
-x,1/2+y,1/2+z
x,1/2-y,1/2+z
loop_
_atom_site_type_symbol
_atom_site_label
_atom_site_fract_x
_atom_site_fract_y
_atom_site_fract_z
Si Si1 0.656892 0.298626 0.262930
Si Si2 0.163022 0.082246 0.707969
Si Si3 0.336686 0.085731 0.456606
Si Si4 0.835347 0.342899 0.070789
Si Si5 0.341964 0.220811 0.124796
Si Si6 0.668353 0.919206 0.193846
Si Si7 0.332069 0.846090 0.323129
O O1 0.500000 0.324937 0.282318
O O2 0.756588 0.369241 0.261433
O O3 0.652812 0.260257 0.193575
O O4 0.714534 0.238686 0.314433
O O5 0.189509 0.111388 0.635866
O O6 0.000000 0.085698 0.726503
O O7 0.221234 0.000000 0.711600
O O8 0.500000 0.106565 0.470374
O O9 0.239474 0.111895 0.514827
O O10 0.277196 0.124038 0.391643
O O11 0.319944 0.000000 0.447401
O O12 0.764703 0.262804 0.076822
O O13 0.000000 0.332884 0.054893
O O14 0.500000 0.220638 0.094191
O O15 0.285909 0.138119 0.137498
O O16 0.500000 0.918903 0.197765
O O17 0.729892 0.894944 0.264102
O O18 0.726148 0.000000 0.176764
O O19 0.500000 0.851053 0.320378
#
# Coordination Sequence:
#
# PCOD8177911 Si02
#       7
#     8   8   8   8   8   8   8
#     4   8  14  25  41  60  81 105 133 166 203 242
#     4   9  17  28  41  58  81 108 136 168 207 246
#     4  10  19  29  43  63  85 111 142 171 198 233
#     4  10  19  30  42  56  81 116 147 173 203 240
#     4   8  14  25  41  61  83 106 136 172 206 243
#     4   8  12  20  39  66  90 109 131 164 206 248
#     4   8  14  25  40  60  87 113 135 162 198 241
#
# _framework density 15.662416
#
# number of rings (size 3 to 8) (size 9 to 14) (size 15 to 20)
#    0.000    3.286    0.000    3.000    0.000    3.429 
#    0.000    0.714    0.000    1.286    0.000    1.000 
#    0.000    3.429    0.000    0.000    0.000    0.000 
#
# Total GULP energy -347008.312404 kJ/mol
# GULP energy per Si atom -12393.154014 kJ/mol
# Density = 1.562677 g / cm^3
# Si number density = 15.662416 Si / 1000 Ang^3
#
#
#
# Elastic Constant Matrix: (Units=GPa)
#
#
# Indices 1 2 3 4 5 6 
#
# 1 58.1572 48.6454 31.2427 0.0000 0.0000 0.0000
# 2 48.6454 131.9258 38.8164 0.0000 0.0000 0.0000
# 3 31.2427 38.8164 46.8138 0.0000 0.0000 0.0000
# 4 0.0000 0.0000 0.0000 26.4613 0.0000 0.0000
# 5 0.0000 0.0000 0.0000 0.0000 13.4992 0.0000
# 6 0.0000 0.0000 0.0000 0.0000 0.0000 12.3152
#
#
#
# Elastic Compliance Matrix: (Units=1/GPa)
#
#
# Indices 1 2 3 4 5 6 
#
# 1 0.031131 -0.007098 -0.014891 0.000000 0.000000 0.000000
# 2 -0.007098 0.011644 -0.004918 0.000000 0.000000 0.000000
# 3 -0.014891 -0.004918 0.035377 0.000000 0.000000 0.000000
# 4 0.000000 0.000000 0.000000 0.037791 0.000000 0.000000
# 5 0.000000 0.000000 0.000000 0.000000 0.074079 0.000000
# 6 0.000000 0.000000 0.000000 0.000000 0.000000 0.081200
#
#
# Mechanical properties :
#
#
# Convention : Reuss Voigt Hill
#
# Bulk Modulus (GPa) = 41.08691 52.70064 46.89378
# Shear Modulus (GPa) = 15.00824 18.33463 16.67144
#
# Velocity S-wave (km/s) = 3.09889 3.42513 3.26609
# Velocity P-wave (km/s) = 6.25251 7.02588 6.65045
#
# Compressibility (1/GPa) = 0.02433865
#
# Stress axis : x y z
#
# Youngs Moduli (GPa) = 32.12187 85.87937 28.26670
#
# Poissons Ratio (x) = 0.60955 0.42093
# Poissons Ratio (y) = 0.22799 0.13902
# Poissons Ratio (z) = 0.47834 0.42236
#
# Static dielectric constant tensor:
#      x y z
#    x 2.826050 0.000000 0.000000 
#    y 0.000000 3.366790 0.000000 
#    z 0.000000 0.000000 2.821430 
# 
# 
# High freq. dielectric constant tensor:
#      x y z
#    x 1.573210 0.000000 0.000000 
#    y 0.000000 1.607850 0.000000 
#    z 0.000000 0.000000 1.562880 
# 
# From -- ./inp_files/17884.got.cif
#   From: 2010.03.12/outbox.cif.g09.slc.cpg/sg38_9_cif.got.tgz:17884.got - 2010.04.14 02:38:36.
