data_PCOD8177687
_publ_section_title
;
Structure prediction by ZEFSAII (Michael W. Deem and Ramdas Pophale) SiO2 
 PCOD8177687
Probable space group: A M M 2
;
_chemical_formula_sum "Si O2"
_cell_formula_units_Z 56
_cell_length_a 15.515855
_cell_length_b 9.202910
_cell_length_c 20.368759
_cell_angle_alpha 90.000000
_cell_angle_beta 90.000000
_cell_angle_gamma 90.000000
_cell_volume 2908.475815
_symmetry_space_group_name_H-M "A M M 2"
_symmetry_group_IT_number 38
_symmetry_cell_setting 'orthorhombic'
loop_
_space_group_symop_operation_xyz
x,y,z
-x,-y,z
-x,y,z
x,-y,z
x,1/2+y,1/2+z
-x,1/2-y,1/2+z
-x,1/2+y,1/2+z
x,1/2-y,1/2+z
loop_
_atom_site_type_symbol
_atom_site_label
_atom_site_fract_x
_atom_site_fract_y
_atom_site_fract_z
Si Si1 0.724698 0.169733 0.326620
Si Si2 0.090681 0.165095 0.358958
Si Si3 0.154328 0.336934 0.997855
Si Si4 0.735934 0.830353 0.180730
Si Si5 0.405465 0.670957 0.580402
Si Si6 0.315809 0.330682 0.450545
Si Si7 0.903529 0.830566 0.640719
O O1 0.821919 0.237732 0.331547
O O2 0.692431 0.195540 0.252489
O O3 0.665656 0.249712 0.381091
O O4 0.725613 0.000000 0.345609
O O5 0.088084 0.171557 0.437897
O O6 0.000000 0.239386 0.334845
O O7 0.090489 0.000000 0.333878
O O8 0.193948 0.500000 0.002817
O O9 0.104062 0.295470 0.063639
O O10 0.229395 0.221576 0.985910
O O11 0.669518 0.762078 0.127293
O O12 0.829374 0.755352 0.179422
O O13 0.751851 0.000000 0.168182
O O14 0.500000 0.734509 0.598931
O O15 0.404541 0.500000 0.593328
O O16 0.390653 0.703849 0.503297
O O17 0.308977 0.500000 0.435089
O O18 0.000000 0.781709 0.663120
O O19 0.890289 0.000000 0.655055
#
# Coordination Sequence:
#
# PCOD8177687 Si02
#       7
#     8   8   8   8   8   8   8
#     4   9  19  33  51  74 104 141 175 214 267 318
#     4   8  13  23  41  64  90 125 171 210 240 289
#     4   9  16  28  47  70 100 136 174 216 260 309
#     4  10  20  36  55  77 107 144 186 227 264 315
#     4   9  18  34  57  82 106 137 178 222 273 330
#     4  10  18  31  54  79 102 131 172 220 268 317
#     4  10  20  32  49  76 111 149 182 217 269 324
#
# _framework density 19.254069999999999
#
# number of rings (size 3 to 8) (size 9 to 14) (size 15 to 20)
#    0.000    2.714    1.429    1.714    0.000    3.143 
#    0.000    2.143    0.000   15.000    0.000    0.000 
#    0.000    0.000    0.000    0.000    0.000    0.000 
#
# Total GULP energy -346897.428104 kJ/mol
# GULP energy per Si atom -12389.193861 kJ/mol
# Density = 1.921025 g / cm^3
# Si number density = 19.254070 Si / 1000 Ang^3
#
#
#
# Elastic Constant Matrix: (Units=GPa)
#
#
# Indices 1 2 3 4 5 6 
#
# 1 97.5220 28.4401 36.8848 0.0000 0.0000 0.0000
# 2 28.4401 47.5395 36.3057 0.0000 0.0000 0.0000
# 3 36.8848 36.3057 106.9832 0.0000 0.0000 0.0000
# 4 0.0000 0.0000 0.0000 25.7474 0.0000 0.0000
# 5 0.0000 0.0000 0.0000 0.0000 10.6293 0.0000
# 6 0.0000 0.0000 0.0000 0.0000 0.0000 14.4950
#
#
#
# Elastic Compliance Matrix: (Units=1/GPa)
#
#
# Indices 1 2 3 4 5 6 
#
# 1 0.012886 -0.005826 -0.002466 0.000000 0.000000 0.000000
# 2 -0.005826 0.031028 -0.008521 0.000000 0.000000 0.000000
# 3 -0.002466 -0.008521 0.013089 0.000000 0.000000 0.000000
# 4 0.000000 0.000000 0.000000 0.038839 0.000000 0.000000
# 5 0.000000 0.000000 0.000000 0.000000 0.094080 0.000000
# 6 0.000000 0.000000 0.000000 0.000000 0.000000 0.068989
#
#
# Mechanical properties :
#
#
# Convention : Reuss Voigt Hill
#
# Bulk Modulus (GPa) = 42.77572 50.58953 46.68262
# Shear Modulus (GPa) = 16.64848 20.20194 18.42521
#
# Velocity S-wave (km/s) = 2.94372 3.24270 3.09682
# Velocity P-wave (km/s) = 5.81538 6.35231 6.08977
#
# Compressibility (1/GPa) = 0.02337775
#
# Stress axis : x y z
#
# Youngs Moduli (GPa) = 77.60614 32.22916 76.40012
#
# Poissons Ratio (x) = 0.18776 0.18837
# Poissons Ratio (y) = 0.45211 0.65100
# Poissons Ratio (z) = 0.19134 0.27462
#
# Static dielectric constant tensor:
#      x y z
#    x 3.517850 0.000000 0.000000 
#    y 0.000000 3.177520 0.000000 
#    z 0.000000 0.000000 3.622250 
# 
# 
# High freq. dielectric constant tensor:
#      x y z
#    x 1.729900 0.000000 0.000000 
#    y 0.000000 1.707740 0.000000 
#    z 0.000000 0.000000 1.754480 
# 
# From -- ./inp_files/21038.got.cif
#   From: 2010.03.12/outbox.cif.g09.slc.cpg/sg38_11_cif.got.tgz:21038.got - 2010.04.14 02:38:36.
