data_PCOD8177795
_publ_section_title
;
Structure prediction by ZEFSAII (Michael W. Deem and Ramdas Pophale) SiO2 
 PCOD8177795
Probable space group: A M M 2
;
_chemical_formula_sum "Si O2"
_cell_formula_units_Z 64
_cell_length_a 8.659578
_cell_length_b 30.950769
_cell_length_c 11.998215
_cell_angle_alpha 90.000000
_cell_angle_beta 90.000000
_cell_angle_gamma 90.000000
_cell_volume 3215.768763
_symmetry_space_group_name_H-M "A M M 2"
_symmetry_group_IT_number 38
_symmetry_cell_setting 'orthorhombic'
loop_
_space_group_symop_operation_xyz
x,y,z
-x,-y,z
-x,y,z
x,-y,z
x,1/2+y,1/2+z
-x,1/2-y,1/2+z
-x,1/2+y,1/2+z
x,1/2-y,1/2+z
loop_
_atom_site_type_symbol
_atom_site_label
_atom_site_fract_x
_atom_site_fract_y
_atom_site_fract_z
Si Si1 0.323385 0.922807 0.941090
Si Si2 0.682384 0.373113 0.057070
Si Si3 0.682227 0.047022 0.700623
Si Si4 0.180200 0.832819 0.935935
Si Si5 0.676497 0.048256 0.183124
Si Si6 0.181024 0.624840 0.815377
Si Si7 0.816112 0.200185 0.703142
Si Si8 0.183753 0.203384 0.163236
O O1 0.500000 0.906554 0.929707
O O2 0.272975 0.948308 0.830453
O O3 0.210535 0.882741 0.955373
O O4 0.301521 0.952377 0.049514
O O5 0.500000 0.370969 0.070062
O O6 0.751999 0.413854 0.126971
O O7 0.752630 0.328517 0.102240
O O8 0.726611 0.379239 0.929451
O O9 0.500000 0.047451 0.685669
O O10 0.746590 0.000000 0.660866
O O11 0.253805 0.817286 0.819469
O O12 0.000000 0.823716 0.930144
O O13 0.251334 0.806877 0.040486
O O14 0.500000 0.060152 0.213561
O O15 0.788458 0.082469 0.241297
O O16 0.716915 0.000000 0.225848
O O17 0.242644 0.667534 0.751231
O O18 0.000000 0.628165 0.840676
O O19 0.755669 0.249229 0.694434
O O20 0.000000 0.198293 0.698149
O O21 0.000000 0.201388 0.160985
#
# Coordination Sequence:
#
# PCOD8177795 Si02
#       8
#     8   8   8   8   8   8   8   8
#     4  10  18  33  58  86 116 146 184 231 283 340
#     4  11  23  39  58  84 117 150 189 240 292 344
#     4   9  18  34  57  82 109 146 187 225 274 338
#     4  10  19  34  58  86 115 145 185 235 286 337
#     4  10  21  37  59  87 118 152 191 236 289 348
#     4  11  23  40  61  83 113 154 199 244 287 341
#     4  10  21  37  61  86 112 149 193 236 282 342
#     4   9  20  37  59  85 112 149 193 235 282 341
#
# _framework density 19.901928999999999
#
# number of rings (size 3 to 8) (size 9 to 14) (size 15 to 20)
#    0.000    2.000    2.500    1.125    1.750    2.250 
#    0.000    3.125    0.000    3.750    0.000    0.000 
#    0.000    0.000    0.000    0.000    0.000    0.000 
#
# Total GULP energy -396766.871199 kJ/mol
# GULP energy per Si atom -12398.964725 kJ/mol
# Density = 1.985663 g / cm^3
# Si number density = 19.901929 Si / 1000 Ang^3
#
#
#
# Elastic Constant Matrix: (Units=GPa)
#
#
# Indices 1 2 3 4 5 6 
#
# 1 24.0599 18.9800 14.4317 0.0000 0.0000 0.0000
# 2 18.9800 150.7583 48.3089 0.0000 0.0000 0.0000
# 3 14.4317 48.3089 116.4659 0.0000 0.0000 0.0000
# 4 0.0000 0.0000 0.0000 20.4512 0.0000 0.0000
# 5 0.0000 0.0000 0.0000 0.0000 25.9610 0.0000
# 6 0.0000 0.0000 0.0000 0.0000 0.0000 20.0521
#
#
#
# Elastic Compliance Matrix: (Units=1/GPa)
#
#
# Indices 1 2 3 4 5 6 
#
# 1 0.047665 -0.004738 -0.003941 0.000000 0.000000 0.000000
# 2 -0.004738 0.008121 -0.002781 0.000000 0.000000 0.000000
# 3 -0.003941 -0.002781 0.010228 0.000000 0.000000 0.000000
# 4 0.000000 0.000000 0.000000 0.048897 0.000000 0.000000
# 5 0.000000 0.000000 0.000000 0.000000 0.038519 0.000000
# 6 0.000000 0.000000 0.000000 0.000000 0.000000 0.049870
#
#
# Mechanical properties :
#
#
# Convention : Reuss Voigt Hill
#
# Bulk Modulus (GPa) = 23.20566 50.52504 36.86535
# Shear Modulus (GPa) = 20.78266 27.26374 24.02320
#
# Velocity S-wave (km/s) = 3.23500 3.70524 3.47807
# Velocity P-wave (km/s) = 5.06349 6.61416 5.89008
#
# Compressibility (1/GPa) = 0.04309294
#
# Stress axis : x y z
#
# Youngs Moduli (GPa) = 20.97997 123.13927 97.76856
#
# Poissons Ratio (x) = 0.58343 0.38531
# Poissons Ratio (y) = 0.09940 0.27193
# Poissons Ratio (z) = 0.08268 0.34250
#
# Static dielectric constant tensor:
#      x y z
#    x 3.227550 0.000000 0.000000 
#    y 0.000000 3.812860 0.000000 
#    z 0.000000 0.000000 3.819130 
# 
# 
# High freq. dielectric constant tensor:
#      x y z
#    x 1.738440 0.000000 0.000000 
#    y 0.000000 1.786150 0.000000 
#    z 0.000000 0.000000 1.785590 
# 
# From -- ./inp_files/8597.got.cif
#   From: 2010.03.12/outbox.cif.g09.slc.cpg/sg38_5_cif.got.tgz:8597.got - 2010.04.14 02:38:36.
