data_PCOD8177137
_publ_section_title
;
Structure prediction by ZEFSAII (Michael W. Deem and Ramdas Pophale) SiO2 
 PCOD8177137
Probable space group: C C C 2
;
_chemical_formula_sum "Si O2"
_cell_formula_units_Z 48
_cell_length_a 9.270700
_cell_length_b 14.914322
_cell_length_c 15.562905
_cell_angle_alpha 90.000000
_cell_angle_beta 90.000000
_cell_angle_gamma 90.000000
_cell_volume 2151.823813
_symmetry_space_group_name_H-M "C C C 2"
_symmetry_group_IT_number 37
_symmetry_cell_setting 'orthorhombic'
loop_
_space_group_symop_operation_xyz
x,y,z
-x,-y,z
-x,y,1/2+z
x,-y,1/2+z
1/2+x,1/2+y,z
1/2-x,1/2-y,z
1/2-x,1/2+y,1/2+z
1/2+x,1/2-y,1/2+z
loop_
_atom_site_type_symbol
_atom_site_label
_atom_site_fract_x
_atom_site_fract_y
_atom_site_fract_z
Si Si1 0.872620 0.427412 0.466560
Si Si2 0.480459 0.247746 0.413997
Si Si3 0.750000 0.750000 0.267431
Si Si4 0.133664 0.103384 0.669195
Si Si5 0.192316 0.903827 0.636864
Si Si6 0.250000 0.250000 0.556850
Si Si7 0.613716 0.421272 0.359630
O O1 0.793685 0.396342 0.553667
O O2 0.753283 0.469582 0.401918
O O3 0.000000 0.500000 0.481901
O O4 0.918581 0.338939 0.414350
O O5 0.390985 0.249859 0.326139
O O6 0.388335 0.235852 0.499242
O O7 0.563977 0.342065 0.423943
O O8 0.743615 0.838162 0.208653
O O9 0.245349 0.163426 0.617270
O O10 0.133755 0.129853 0.769184
O O11 0.977992 0.116648 0.622933
O O12 0.199219 0.004578 0.669968
O O13 0.500000 0.500000 0.346796
#
# Coordination Sequence:
#
# PCOD8177137 Si02
#       7
#     8   8   4   8   8   4   8
#     4  12  30  46  73 111 150 188 241 308 367 430
#     4  11  26  48  71 108 145 191 235 298 368 429
#     4  11  24  46  77 102 150 188 243 300 358 435
#     4  11  24  46  73 103 138 196 245 294 355 436
#     4  11  25  48  71 105 143 192 246 297 363 427
#     4  11  26  42  75 104 144 186 241 294 360 431
#     4  12  26  48  75 103 145 194 246 291 363 439
#
# _framework density 22.306660000000001
#
# number of rings (size 3 to 8) (size 9 to 14) (size 15 to 20)
#    0.000    0.667    3.333    2.500   18.667    0.000 
#    3.000    0.000    0.000    0.000    0.000    0.000 
#    0.000    0.000    0.000    0.000    0.000    0.000 
#
# Total GULP energy -297584.843330 kJ/mol
# GULP energy per Si atom -12399.368472 kJ/mol
# Density = 2.225589 g / cm^3
# Si number density = 22.306660 Si / 1000 Ang^3
#
#
#
# Elastic Constant Matrix: (Units=GPa)
#
#
# Indices 1 2 3 4 5 6 
#
# 1 100.7254 37.2425 78.0120 0.0000 0.0000 0.0000
# 2 37.2425 117.0497 54.2521 0.0000 0.0000 0.0000
# 3 78.0120 54.2521 148.8413 0.0000 0.0000 0.0000
# 4 0.0000 0.0000 0.0000 37.6372 0.0000 0.0000
# 5 0.0000 0.0000 0.0000 0.0000 26.0937 0.0000
# 6 0.0000 0.0000 0.0000 0.0000 0.0000 33.0867
#
#
#
# Elastic Compliance Matrix: (Units=1/GPa)
#
#
# Indices 1 2 3 4 5 6 
#
# 1 0.016938 -0.001534 -0.008319 0.000000 0.000000 0.000000
# 2 -0.001534 0.010419 -0.002994 0.000000 0.000000 0.000000
# 3 -0.008319 -0.002994 0.012170 0.000000 0.000000 0.000000
# 4 0.000000 0.000000 0.000000 0.026569 0.000000 0.000000
# 5 0.000000 0.000000 0.000000 0.000000 0.038323 0.000000
# 6 0.000000 0.000000 0.000000 0.000000 0.000000 0.030224
#
#
# Mechanical properties :
#
#
# Convention : Reuss Voigt Hill
#
# Bulk Modulus (GPa) = 72.28313 78.40330 75.34322
# Shear Modulus (GPa) = 30.31282 32.50418 31.40850
#
# Velocity S-wave (km/s) = 3.69034 3.82141 3.75645
# Velocity P-wave (km/s) = 7.11567 7.39561 7.25699
#
# Compressibility (1/GPa) = 0.01383449
#
# Stress axis : x y z
#
# Youngs Moduli (GPa) = 59.03960 95.97868 82.17022
#
# Poissons Ratio (x) = 0.14719 0.68354
# Poissons Ratio (y) = 0.09054 0.24601
# Poissons Ratio (z) = 0.49113 0.28735
#
# Static dielectric constant tensor:
#      x y z
#    x 4.158040 0.000000 0.000000 
#    y 0.000000 3.693460 0.000000 
#    z 0.000000 0.000000 4.092010 
# 
# 
# High freq. dielectric constant tensor:
#      x y z
#    x 1.879330 0.000000 0.000000 
#    y 0.000000 1.885620 0.000000 
#    z 0.000000 0.000000 1.891840 
# 
# From -- ./inp_files/14558.got.cif
#   From: 2010.03.12/outbox.cif.g09.slc.cpg/sg37_8_cif.got.tgz:14558.got - 2010.04.14 02:25:27.
