data_PCOD8177123
_publ_section_title
;
Structure prediction by ZEFSAII (Michael W. Deem and Ramdas Pophale) SiO2 
 PCOD8177123
Probable space group: C C C 2
;
_chemical_formula_sum "Si O2"
_cell_formula_units_Z 64
_cell_length_a 11.372038
_cell_length_b 10.694534
_cell_length_c 23.864512
_cell_angle_alpha 90.000000
_cell_angle_beta 90.000000
_cell_angle_gamma 90.000000
_cell_volume 2902.369662
_symmetry_space_group_name_H-M "C C C 2"
_symmetry_group_IT_number 37
_symmetry_cell_setting 'orthorhombic'
loop_
_space_group_symop_operation_xyz
x,y,z
-x,-y,z
-x,y,1/2+z
x,-y,1/2+z
1/2+x,1/2+y,z
1/2-x,1/2-y,z
1/2-x,1/2+y,1/2+z
1/2+x,1/2-y,1/2+z
loop_
_atom_site_type_symbol
_atom_site_label
_atom_site_fract_x
_atom_site_fract_y
_atom_site_fract_z
Si Si1 0.710994 0.553317 0.947150
Si Si2 0.567563 0.199597 0.833543
Si Si3 0.210561 0.942447 0.833197
Si Si4 0.129680 0.816270 0.266911
Si Si5 0.940067 0.715008 0.945810
Si Si6 0.280189 0.452136 0.071011
Si Si7 0.369778 0.676554 0.143269
Si Si8 0.065163 0.705496 0.570324
O O1 0.699551 0.447462 0.900402
O O2 0.825686 0.633606 0.932414
O O3 0.594914 0.639428 0.943120
O O4 0.721196 0.489314 0.008376
O O5 0.651353 0.081693 0.816983
O O6 0.635277 0.324304 0.815450
O O7 0.448860 0.210372 0.797441
O O8 0.539388 0.186756 0.899629
O O9 0.151966 0.062537 0.804831
O O10 0.250000 0.750000 0.254655
O O11 0.080153 0.853945 0.205469
O O12 0.987826 0.681066 0.008052
O O13 0.347044 0.545037 0.112566
O O14 0.146116 0.414092 0.089186
O O15 0.352725 0.325624 0.067257
O O16 0.250000 0.750000 0.144566
O O17 0.460630 0.769847 0.113233
#
# Coordination Sequence:
#
# PCOD8177123 Si02
#       8
#     8   8   8   8   8   8   8   8
#     4   9  18  35  60  89 123 160 197 244 303 367
#     4  11  24  39  60  92 123 156 201 257 317 372
#     4  11  24  39  60  92 123 156 201 257 317 372
#     4  11  25  45  63  83 119 167 211 256 307 364
#     4   9  18  35  60  89 123 160 197 244 303 367
#     4   9  20  39  63  91 122 161 206 252 308 371
#     4  11  25  41  61  89 123 163 207 258 309 362
#     4   9  20  39  63  91 122 161 206 252 308 371
#
# _framework density 22.050947000000001
#
# number of rings (size 3 to 8) (size 9 to 14) (size 15 to 20)
#    0.000    2.000    1.250    3.000    1.750    6.500 
#    0.000    7.500    0.000    0.000    0.000    0.000 
#    0.000    0.000    0.000    0.000    0.000    0.000 
#
# Total GULP energy -396628.063242 kJ/mol
# GULP energy per Si atom -12394.626976 kJ/mol
# Density = 2.200076 g / cm^3
# Si number density = 22.050947 Si / 1000 Ang^3
#
#
#
# Elastic Constant Matrix: (Units=GPa)
#
#
# Indices 1 2 3 4 5 6 
#
# 1 82.9701 -4.1348 39.8295 0.0000 0.0000 0.0000
# 2 -4.1348 35.0290 20.0295 0.0000 0.0000 0.0000
# 3 39.8295 20.0295 141.3236 0.0000 0.0000 0.0000
# 4 0.0000 0.0000 0.0000 9.4918 0.0000 0.0000
# 5 0.0000 0.0000 0.0000 0.0000 4658.3614 0.0000
# 6 0.0000 0.0000 0.0000 0.0000 0.0000 25.5194
#
#
#
# Elastic Compliance Matrix: (Units=1/GPa)
#
#
# Indices 1 2 3 4 5 6 
#
# 1 0.014540 0.004418 -0.004724 0.000000 0.000000 0.000000
# 2 0.004418 0.032407 -0.005838 0.000000 0.000000 0.000000
# 3 -0.004724 -0.005838 0.009235 0.000000 0.000000 0.000000
# 4 0.000000 0.000000 0.000000 0.105354 0.000000 0.000000
# 5 0.000000 0.000000 0.000000 0.000000 0.000215 0.000000
# 6 0.000000 0.000000 0.000000 0.000000 0.000000 0.039186
#
#
# Mechanical properties :
#
#
# Convention : Reuss Voigt Hill
#
# Bulk Modulus (GPa) = 22.78240 41.19676 31.98958
# Shear Modulus (GPa) = 21.94353 952.24775 487.09564
#
# Velocity S-wave (km/s) = 3.15799 20.80330 14.87868
# Velocity P-wave (km/s) = 4.86326 24.40819 17.59845
#
# Compressibility (1/GPa) = 0.04389352
#
# Stress axis : x y z
#
# Youngs Moduli (GPa) = 68.77365 30.85719 108.28653
#
# Poissons Ratio (x) = -0.13631 0.51155
# Poissons Ratio (y) = -0.30381 0.63218
# Poissons Ratio (z) = 0.32489 0.18015
#
# Static dielectric constant tensor:
#      x y z
#    x -121.931550 0.000000 0.000000 
#    y 0.000000 3.566340 0.000000 
#    z 0.000000 0.000000 4.199160 
# 
# 
# High freq. dielectric constant tensor:
#      x y z
#    x 1.871080 0.000000 0.000000 
#    y 0.000000 1.852860 0.000000 
#    z 0.000000 0.000000 1.860410 
# 
# From -- ./inp_files/18771.got.cif
#   From: 2010.03.12/outbox.cif.g09.slc.cpg/sg37_10_cif.got.tgz:18771.got - 2010.04.14 02:25:27.
