data_PCOD8177036
_publ_section_title
;
Structure prediction by ZEFSAII (Michael W. Deem and Ramdas Pophale) SiO2 
 PCOD8177036
Probable space group: C C C 2
;
_chemical_formula_sum "Si O2"
_cell_formula_units_Z 40
_cell_length_a 16.806118
_cell_length_b 9.499373
_cell_length_c 9.940679
_cell_angle_alpha 90.000000
_cell_angle_beta 90.000000
_cell_angle_gamma 90.000000
_cell_volume 1587.005381
_symmetry_space_group_name_H-M "C C C 2"
_symmetry_group_IT_number 37
_symmetry_cell_setting 'orthorhombic'
loop_
_space_group_symop_operation_xyz
x,y,z
-x,-y,z
-x,y,1/2+z
x,-y,1/2+z
1/2+x,1/2+y,z
1/2-x,1/2-y,z
1/2-x,1/2+y,1/2+z
1/2+x,1/2-y,1/2+z
loop_
_atom_site_type_symbol
_atom_site_label
_atom_site_fract_x
_atom_site_fract_y
_atom_site_fract_z
Si Si1 0.279317 0.082265 0.741430
Si Si2 0.578704 0.911571 0.157255
Si Si3 0.816407 0.040424 0.976863
Si Si4 0.872340 0.752378 0.931967
Si Si5 0.035439 0.849625 0.829633
O O1 0.237451 0.107563 0.595694
O O2 0.311527 0.234408 0.804109
O O3 0.363964 0.003931 0.747289
O O4 0.226827 0.980600 0.834006
O O5 0.563208 0.753264 0.210846
O O6 0.500000 0.000000 0.128313
O O7 0.630393 0.889039 0.020786
O O8 0.894649 0.132889 0.941503
O O9 0.842796 0.884234 0.021603
O O10 0.964246 0.768085 0.898791
O O11 0.000000 0.000000 0.775022
#
# Coordination Sequence:
#
# PCOD8177036 Si02
#       5
#     8   8   8   8   8
#     4  12  25  47  76 114 152 207 255 334 398 465
#     4  12  26  46  78 113 160 203 266 328 402 475
#     4  11  26  49  78 112 160 205 263 331 402 470
#     4  11  25  48  75 112 161 208 265 329 390 490
#     4  10  25  48  78 115 155 210 266 325 402 487
#
# _framework density 25.204702999999999
#
# number of rings (size 3 to 8) (size 9 to 14) (size 15 to 20)
#    0.000    0.800    4.000    1.800    2.800    8.000 
#   10.800    0.000    0.000    0.000    0.000    0.000 
#    0.000    0.000    0.000    0.000    0.000    0.000 
#
# Total GULP energy -247815.617282 kJ/mol
# GULP energy per Si atom -12390.780864 kJ/mol
# Density = 2.514734 g / cm^3
# Si number density = 25.204703 Si / 1000 Ang^3
#
#
#
# Elastic Constant Matrix: (Units=GPa)
#
#
# Indices 1 2 3 4 5 6 
#
# 1 155.7311 45.7951 40.0466 0.0000 0.0000 0.0000
# 2 45.7951 109.5546 44.1428 0.0000 0.0000 0.0000
# 3 40.0466 44.1428 102.8963 0.0000 0.0000 0.0000
# 4 0.0000 0.0000 0.0000 30.7559 0.0000 0.0000
# 5 0.0000 0.0000 0.0000 0.0000 40.9283 0.0000
# 6 0.0000 0.0000 0.0000 0.0000 0.0000 31.7072
#
#
#
# Elastic Compliance Matrix: (Units=1/GPa)
#
#
# Indices 1 2 3 4 5 6 
#
# 1 0.007627 -0.002409 -0.001935 0.000000 0.000000 0.000000
# 2 -0.002409 0.011796 -0.004123 0.000000 0.000000 0.000000
# 3 -0.001935 -0.004123 0.012241 0.000000 0.000000 0.000000
# 4 0.000000 0.000000 0.000000 0.032514 0.000000 0.000000
# 5 0.000000 0.000000 0.000000 0.000000 0.024433 0.000000
# 6 0.000000 0.000000 0.000000 0.000000 0.000000 0.031539
#
#
# Mechanical properties :
#
#
# Convention : Reuss Voigt Hill
#
# Bulk Modulus (GPa) = 67.88854 69.79457 68.84155
# Shear Modulus (GPa) = 35.21295 36.55810 35.88552
#
# Velocity S-wave (km/s) = 3.74181 3.81261 3.77737
# Velocity P-wave (km/s) = 6.75733 6.86531 6.81153
#
# Compressibility (1/GPa) = 0.01473003
#
# Stress axis : x y z
#
# Youngs Moduli (GPa) = 131.10916 84.77460 81.69580
#
# Poissons Ratio (x) = 0.20418 0.15810
# Poissons Ratio (y) = 0.31578 0.33684
# Poissons Ratio (z) = 0.25372 0.34954
#
# Static dielectric constant tensor:
#      x y z
#    x 4.911630 0.000000 0.000000 
#    y 0.000000 4.670310 0.000000 
#    z 0.000000 0.000000 4.282550 
# 
# 
# High freq. dielectric constant tensor:
#      x y z
#    x 2.044390 0.000000 0.000000 
#    y 0.000000 2.014320 0.000000 
#    z 0.000000 0.000000 1.989290 
# 
# From -- ./inp_files/3885.got.cif
#   From: 2010.03.12/outbox.cif.g09.slc.cpg/sg37_2_cif.got.tgz:3885.got - 2010.04.14 02:25:27.
