data_PCOD8177970
_publ_section_title
;
Structure prediction by ZEFSAII (Michael W. Deem and Ramdas Pophale) SiO2 
 PCOD8177970
Probable space group: A M M 2
;
_chemical_formula_sum "Si O2"
_cell_formula_units_Z 56
_cell_length_a 8.890130
_cell_length_b 18.386041
_cell_length_c 20.898599
_cell_angle_alpha 90.000000
_cell_angle_beta 90.000000
_cell_angle_gamma 90.000000
_cell_volume 3415.965759
_symmetry_space_group_name_H-M "A M M 2"
_symmetry_group_IT_number 38
_symmetry_cell_setting 'orthorhombic'
loop_
_space_group_symop_operation_xyz
x,y,z
-x,-y,z
-x,y,z
x,-y,z
x,1/2+y,1/2+z
-x,1/2-y,1/2+z
-x,1/2+y,1/2+z
x,1/2-y,1/2+z
loop_
_atom_site_type_symbol
_atom_site_label
_atom_site_fract_x
_atom_site_fract_y
_atom_site_fract_z
Si Si1 0.179275 0.357083 0.684850
Si Si2 0.820502 0.418046 0.059200
Si Si3 0.327205 0.083861 0.309433
Si Si4 0.164443 0.214156 0.630413
Si Si5 0.166805 0.292519 0.495006
Si Si6 0.324007 0.840822 0.442113
Si Si7 0.673003 0.416835 0.561206
O O1 0.221229 0.387774 0.753371
O O2 0.243485 0.273194 0.677375
O O3 0.248253 0.407592 0.629937
O O4 0.000000 0.356690 0.675856
O O5 0.774395 0.500000 0.077178
O O6 0.756780 0.364176 0.116008
O O7 0.000000 0.408618 0.053258
O O8 0.749851 0.397107 0.991476
O O9 0.500000 0.094116 0.288687
O O10 0.288190 0.129966 0.371821
O O11 0.291009 0.000000 0.323686
O O12 0.153566 0.252726 0.562180
O O13 0.000000 0.197691 0.658832
O O14 0.256516 0.240376 0.446321
O O15 0.252988 0.368600 0.505098
O O16 0.000000 0.307935 0.467297
O O17 0.500000 0.837688 0.456607
O O18 0.500000 0.393859 0.568839
O O19 0.690222 0.500000 0.539562
#
# Coordination Sequence:
#
# PCOD8177970 Si02
#       7
#     8   8   8   8   8   8   8
#     4  10  19  30  45  64  89 122 158 193 227 266
#     4   9  16  27  45  67  90 116 145 180 225 275
#     4  10  21  34  45  61  89 123 156 190 228 271
#     4   7  13  26  41  60  85 110 139 178 222 264
#     4   9  17  30  47  66  89 116 149 188 226 267
#     4  10  19  31  46  63  88 121 153 186 227 273
#     4  10  19  30  46  69  96 123 150 183 226 274
#
# _framework density 16.393605999999998
#
# number of rings (size 3 to 8) (size 9 to 14) (size 15 to 20)
#    0.000    2.714    0.000    4.286    0.000    5.143 
#    0.000    0.714    0.000    0.000    0.000    1.000 
#    0.000    3.429    0.000    0.000    0.000    0.000 
#
# Total GULP energy -346963.803039 kJ/mol
# GULP energy per Si atom -12391.564394 kJ/mol
# Density = 1.635629 g / cm^3
# Si number density = 16.393606 Si / 1000 Ang^3
#
#
#
# Elastic Constant Matrix: (Units=GPa)
#
#
# Indices 1 2 3 4 5 6 
#
# 1 75.4492 48.3977 28.5141 0.0000 0.0000 0.0000
# 2 48.3977 129.9113 45.8346 0.0000 0.0000 0.0000
# 3 28.5141 45.8346 52.9704 0.0000 0.0000 0.0000
# 4 0.0000 0.0000 0.0000 26.7987 0.0000 0.0000
# 5 0.0000 0.0000 0.0000 0.0000 19.9214 0.0000
# 6 0.0000 0.0000 0.0000 0.0000 0.0000 24.2110
#
#
#
# Elastic Compliance Matrix: (Units=1/GPa)
#
#
# Indices 1 2 3 4 5 6 
#
# 1 0.018566 -0.004880 -0.005771 0.000000 0.000000 0.000000
# 2 -0.004880 0.012363 -0.008071 0.000000 0.000000 0.000000
# 3 -0.005771 -0.008071 0.028968 0.000000 0.000000 0.000000
# 4 0.000000 0.000000 0.000000 0.037315 0.000000 0.000000
# 5 0.000000 0.000000 0.000000 0.000000 0.050197 0.000000
# 6 0.000000 0.000000 0.000000 0.000000 0.000000 0.041304
#
#
# Mechanical properties :
#
#
# Convention : Reuss Voigt Hill
#
# Bulk Modulus (GPa) = 44.53701 55.98043 50.25872
# Shear Modulus (GPa) = 21.40034 23.22517 22.31275
#
# Velocity S-wave (km/s) = 3.61696 3.76802 3.69326
# Velocity P-wave (km/s) = 6.68352 7.29057 6.99364
#
# Compressibility (1/GPa) = 0.02245324
#
# Stress axis : x y z
#
# Youngs Moduli (GPa) = 53.86323 80.88564 34.52052
#
# Poissons Ratio (x) = 0.39476 0.19922
# Poissons Ratio (y) = 0.26288 0.27860
# Poissons Ratio (z) = 0.31084 0.65279
#
# Static dielectric constant tensor:
#      x y z
#    x 3.132540 0.000000 0.000000 
#    y 0.000000 3.509940 0.000000 
#    z 0.000000 0.000000 2.797720 
# 
# 
# High freq. dielectric constant tensor:
#      x y z
#    x 1.629440 0.000000 0.000000 
#    y 0.000000 1.641290 0.000000 
#    z 0.000000 0.000000 1.586180 
# 
# From -- ./inp_files/19982.got.cif
#   From: 2010.03.12/outbox.cif.g09.slc.cpg/sg38_10_cif.got.tgz:19982.got - 2010.04.14 02:38:36.
