data_PCOD8177692
_publ_section_title
;
Structure prediction by ZEFSAII (Michael W. Deem and Ramdas Pophale) SiO2 
 PCOD8177692
Probable space group: A M M 2
;
_chemical_formula_sum "Si O2"
_cell_formula_units_Z 64
_cell_length_a 9.172926
_cell_length_b 24.852644
_cell_length_c 15.243562
_cell_angle_alpha 90.000000
_cell_angle_beta 90.000000
_cell_angle_gamma 90.000000
_cell_volume 3475.097151
_symmetry_space_group_name_H-M "A M M 2"
_symmetry_group_IT_number 38
_symmetry_cell_setting 'orthorhombic'
loop_
_space_group_symop_operation_xyz
x,y,z
-x,-y,z
-x,y,z
x,-y,z
x,1/2+y,1/2+z
-x,1/2-y,1/2+z
-x,1/2+y,1/2+z
x,1/2-y,1/2+z
loop_
_atom_site_type_symbol
_atom_site_label
_atom_site_fract_x
_atom_site_fract_y
_atom_site_fract_z
Si Si1 0.834650 0.235007 0.154400
Si Si2 0.172707 0.386877 0.443707
Si Si3 0.173145 0.559612 0.266242
Si Si4 0.831387 0.860092 0.277466
Si Si5 0.330442 0.716084 0.482595
Si Si6 0.826819 0.939335 0.124294
Si Si7 0.169320 0.855843 0.625863
Si Si8 0.670498 0.837664 0.448839
O O1 0.808127 0.200698 0.242193
O O2 0.807584 0.297977 0.172482
O O3 0.000000 0.225042 0.120035
O O4 0.723316 0.213505 0.082438
O O5 0.224893 0.423752 0.363177
O O6 0.244289 0.328634 0.427787
O O7 0.231287 0.413947 0.533350
O O8 0.000000 0.379376 0.445284
O O9 0.233338 0.500000 0.246116
O O10 0.234078 0.600160 0.192709
O O11 0.000000 0.560873 0.263180
O O12 0.773866 0.903103 0.205881
O O13 0.738011 0.867743 0.365184
O O14 0.000000 0.870699 0.300028
O O15 0.500000 0.702759 0.480739
O O16 0.295883 0.774203 0.441283
O O17 0.000000 0.940038 0.120710
O O18 0.765646 0.000000 0.135018
O O19 0.257463 0.861486 0.536088
O O20 0.000000 0.865622 0.604342
O O21 0.500000 0.849638 0.452953
#
# Coordination Sequence:
#
# PCOD8177692 Si02
#       8
#     8   8   8   8   8   8   8   8
#     4   9  17  31  51  78 105 133 172 213 261 314
#     4  10  18  31  54  81 109 141 172 212 260 312
#     4   9  18  32  54  84 109 133 174 222 267 312
#     4  10  19  32  53  81 108 137 174 219 264 308
#     4  10  20  33  49  74 108 143 176 210 255 311
#     4   9  17  31  52  79 109 139 173 211 256 311
#     4   9  18  34  55  78 105 136 173 222 268 309
#     4  10  22  37  52  74 106 144 180 218 265 316
#
# _framework density 18.416751999999999
#
# number of rings (size 3 to 8) (size 9 to 14) (size 15 to 20)
#    0.000    2.500    1.250    1.125    1.750    3.500 
#    0.000    1.250    0.000    7.500    0.000    0.000 
#    0.000    0.000    0.000    0.000    0.000    0.000 
#
# Total GULP energy -396792.140452 kJ/mol
# GULP energy per Si atom -12399.754389 kJ/mol
# Density = 1.837483 g / cm^3
# Si number density = 18.416752 Si / 1000 Ang^3
#
#
#
# Elastic Constant Matrix: (Units=GPa)
#
#
# Indices 1 2 3 4 5 6 
#
# 1 45.4532 32.9821 42.6668 0.0000 0.0000 0.0000
# 2 32.9821 126.7307 76.3728 0.0000 0.0000 0.0000
# 3 42.6668 76.3728 141.3001 0.0000 0.0000 0.0000
# 4 0.0000 0.0000 0.0000 29.8708 0.0000 0.0000
# 5 0.0000 0.0000 0.0000 0.0000 6.6329 0.0000
# 6 0.0000 0.0000 0.0000 0.0000 0.0000 13.5576
#
#
#
# Elastic Compliance Matrix: (Units=1/GPa)
#
#
# Indices 1 2 3 4 5 6 
#
# 1 0.031829 -0.003695 -0.007614 0.000000 0.000000 0.000000
# 2 -0.003695 0.012132 -0.005441 0.000000 0.000000 0.000000
# 3 -0.007614 -0.005441 0.012317 0.000000 0.000000 0.000000
# 4 0.000000 0.000000 0.000000 0.033478 0.000000 0.000000
# 5 0.000000 0.000000 0.000000 0.000000 0.150763 0.000000
# 6 0.000000 0.000000 0.000000 0.000000 0.000000 0.073760
#
#
# Mechanical properties :
#
#
# Convention : Reuss Voigt Hill
#
# Bulk Modulus (GPa) = 43.90361 68.61413 56.25887
# Shear Modulus (GPa) = 14.06979 20.77641 17.42310
#
# Velocity S-wave (km/s) = 2.76699 3.36240 3.07912
# Velocity P-wave (km/s) = 5.83944 7.23958 6.57688
#
# Compressibility (1/GPa) = 0.02277717
#
# Stress axis : x y z
#
# Youngs Moduli (GPa) = 31.41783 82.42936 81.18713
#
# Poissons Ratio (x) = 0.30460 0.61814
# Poissons Ratio (y) = 0.11610 0.44177
# Poissons Ratio (z) = 0.23921 0.44852
#
# Static dielectric constant tensor:
#      x y z
#    x 3.074960 0.000000 0.000000 
#    y 0.000000 3.567520 0.000000 
#    z 0.000000 0.000000 3.298910 
# 
# 
# High freq. dielectric constant tensor:
#      x y z
#    x 1.679650 0.000000 0.000000 
#    y 0.000000 1.712630 0.000000 
#    z 0.000000 0.000000 1.710710 
# 
# From -- ./inp_files/12749.got.cif
#   From: 2010.03.12/outbox.cif.g09.slc.cpg/sg38_7_cif.got.tgz:12749.got - 2010.04.14 02:38:36.
