data_PCOD8177906
_publ_section_title
;
Structure prediction by ZEFSAII (Michael W. Deem and Ramdas Pophale) SiO2 
 PCOD8177906
Probable space group: A M M 2
;
_chemical_formula_sum "Si O2"
_cell_formula_units_Z 56
_cell_length_a 7.864012
_cell_length_b 13.802547
_cell_length_c 32.241244
_cell_angle_alpha 90.000000
_cell_angle_beta 90.000000
_cell_angle_gamma 90.000000
_cell_volume 3499.574090
_symmetry_space_group_name_H-M "A M M 2"
_symmetry_group_IT_number 38
_symmetry_cell_setting 'orthorhombic'
loop_
_space_group_symop_operation_xyz
x,y,z
-x,-y,z
-x,y,z
x,-y,z
x,1/2+y,1/2+z
-x,1/2-y,1/2+z
-x,1/2+y,1/2+z
x,1/2-y,1/2+z
loop_
_atom_site_type_symbol
_atom_site_label
_atom_site_fract_x
_atom_site_fract_y
_atom_site_fract_z
Si Si1 0.309305 0.111732 0.454400
Si Si2 0.303529 0.114001 0.661629
Si Si3 0.000000 0.614787 0.103239
Si Si4 0.692672 0.784563 0.744914
Si Si5 0.800515 0.207551 0.372621
Si Si6 0.802183 0.108464 0.824350
Si Si7 0.000000 0.385207 0.010822
Si Si8 0.196077 0.105392 0.290700
O O1 0.500000 0.122368 0.473062
O O2 0.300351 0.176031 0.413176
O O3 0.170807 0.150291 0.487385
O O4 0.270462 0.000000 0.442862
O O5 0.500000 0.140325 0.650085
O O6 0.173979 0.149110 0.625778
O O7 0.236850 0.166430 0.703232
O O8 0.287290 0.000000 0.669500
O O9 0.000000 0.500000 0.100721
O O10 0.000000 0.659946 0.056981
O O11 0.500000 0.757600 0.737432
O O12 0.706684 0.859283 0.782861
O O13 0.783247 0.681928 0.753486
O O14 0.762184 0.320875 0.363090
O O15 0.726432 0.147327 0.333470
O O16 0.000000 0.188623 0.379755
O O17 0.000000 0.114904 0.813268
O O18 0.745546 0.000000 0.836766
O O19 0.000000 0.500000 0.013801
O O20 0.000000 0.090673 0.298923
O O21 0.278834 0.000000 0.280223
#
# Coordination Sequence:
#
# PCOD8177906 Si02
#       8
#     8   8   4   8   8   8   4   8
#     4  10  19  29  45  67  90 119 150 181 219 263
#     4   9  18  30  44  66  93 118 149 185 217 260
#     4   9  18  30  48  67  85 119 149 173 222 270
#     4  10  19  29  42  62  89 120 151 186 225 260
#     4   9  16  28  44  61  87 120 152 189 224 256
#     4   9  18  30  44  62  86 120 157 189 221 256
#     4   9  18  32  46  65  91 115 145 181 218 266
#     4   9  18  30  44  62  86 119 155 190 223 254
#
# _framework density 16.001947999999999
#
# number of rings (size 3 to 8) (size 9 to 14) (size 15 to 20)
#    0.000    2.714    0.714    2.143    2.000    4.571 
#    0.000    2.857    0.000    0.000    0.000    0.000 
#    0.000    2.286    0.000    3.143    0.000    0.286 
#
# Total GULP energy -347035.317179 kJ/mol
# GULP energy per Si atom -12394.118471 kJ/mol
# Density = 1.596553 g / cm^3
# Si number density = 16.001948 Si / 1000 Ang^3
#
#
#
# Elastic Constant Matrix: (Units=GPa)
#
#
# Indices 1 2 3 4 5 6 
#
# 1 74.1807 23.3624 46.9512 0.0000 0.0000 0.0000
# 2 23.3624 90.5179 37.7049 0.0000 0.0000 0.0000
# 3 46.9512 37.7049 112.3680 0.0000 0.0000 0.0000
# 4 0.0000 0.0000 0.0000 16.3839 0.0000 0.0000
# 5 0.0000 0.0000 0.0000 0.0000 14.9287 0.0000
# 6 0.0000 0.0000 0.0000 0.0000 0.0000 13.3944
#
#
#
# Elastic Compliance Matrix: (Units=1/GPa)
#
#
# Indices 1 2 3 4 5 6 
#
# 1 0.018581 -0.001815 -0.007154 0.000000 0.000000 0.000000
# 2 -0.001815 0.013020 -0.003610 0.000000 0.000000 0.000000
# 3 -0.007154 -0.003610 0.013100 0.000000 0.000000 0.000000
# 4 0.000000 0.000000 0.000000 0.061036 0.000000 0.000000
# 5 0.000000 0.000000 0.000000 0.000000 0.066985 0.000000
# 6 0.000000 0.000000 0.000000 0.000000 0.000000 0.074658
#
#
# Mechanical properties :
#
#
# Convention : Reuss Voigt Hill
#
# Bulk Modulus (GPa) = 51.17612 54.78930 52.98271
# Shear Modulus (GPa) = 17.91771 20.21126 19.06448
#
# Velocity S-wave (km/s) = 3.34985 3.55780 3.45539
# Velocity P-wave (km/s) = 6.85658 7.15477 7.00726
#
# Compressibility (1/GPa) = 0.01954036
#
# Stress axis : x y z
#
# Youngs Moduli (GPa) = 53.81960 76.80521 76.33519
#
# Poissons Ratio (x) = 0.13943 0.54614
# Poissons Ratio (y) = 0.09771 0.27559
# Poissons Ratio (z) = 0.38505 0.27729
#
# Static dielectric constant tensor:
#      x y z
#    x 3.087150 0.000000 0.000000 
#    y 0.000000 3.093690 0.000000 
#    z 0.000000 0.000000 2.994700 
# 
# 
# High freq. dielectric constant tensor:
#      x y z
#    x 1.622420 0.000000 0.000000 
#    y 0.000000 1.586930 0.000000 
#    z 0.000000 0.000000 1.588200 
# 
# From -- ./inp_files/24673.got.cif
#   From: 2010.03.12/outbox.cif.g09.slc.cpg/sg38_13_cif.got.tgz:24673.got - 2010.04.14 02:38:36.
