data_PCOD8177558
_publ_section_title
;
Structure prediction by ZEFSAII (Michael W. Deem and Ramdas Pophale) SiO2 
 PCOD8177558
Probable space group: A M M 2
;
_chemical_formula_sum "Si O2"
_cell_formula_units_Z 40
_cell_length_a 12.871967
_cell_length_b 8.782388
_cell_length_c 19.941243
_cell_angle_alpha 90.000000
_cell_angle_beta 90.000000
_cell_angle_gamma 90.000000
_cell_volume 2254.289891
_symmetry_space_group_name_H-M "A M M 2"
_symmetry_group_IT_number 38
_symmetry_cell_setting 'orthorhombic'
loop_
_space_group_symop_operation_xyz
x,y,z
-x,-y,z
-x,y,z
x,-y,z
x,1/2+y,1/2+z
-x,1/2-y,1/2+z
-x,1/2+y,1/2+z
x,1/2-y,1/2+z
loop_
_atom_site_type_symbol
_atom_site_label
_atom_site_fract_x
_atom_site_fract_y
_atom_site_fract_z
Si Si1 0.000000 0.177114 0.765530
Si Si2 0.620549 0.823658 0.857531
Si Si3 0.776228 0.675931 0.613054
Si Si4 0.000000 0.173932 0.126085
Si Si5 0.384898 0.681491 0.508223
Si Si6 0.211744 0.179556 0.264624
O O1 0.106010 0.249109 0.795839
O O2 0.000000 0.207690 0.686484
O O3 0.000000 0.000000 0.782061
O O4 0.500000 0.798076 0.839552
O O5 0.689067 0.723709 0.807973
O O6 0.650775 0.000000 0.849271
O O7 0.643263 0.765491 0.933063
O O8 0.745909 0.500000 0.615761
O O9 0.695970 0.755315 0.561507
O O10 0.769258 0.741920 0.688606
O O11 0.894019 0.699345 0.583964
O O12 0.000000 0.000000 0.155306
O O13 0.500000 0.739073 0.527977
O O14 0.382117 0.500000 0.508834
O O15 0.197400 0.000000 0.263835
#
# Coordination Sequence:
#
# PCOD8177558 Si02
#       6
#     4   8   8   4   8   8
#     4  10  18  30  49  70  95 127 159 191 233 286
#     4   9  18  32  48  67  95 130 164 198 237 281
#     4   8  14  25  43  66  90 117 151 192 234 272
#     4   8  14  26  43  66  95 121 147 187 237 280
#     4   8  14  26  44  65  90 120 155 195 233 269
#     4  10  19  31  49  73  99 124 155 198 241 282
#
# _framework density 17.743945
#
# number of rings (size 3 to 8) (size 9 to 14) (size 15 to 20)
#    0.000    3.200    0.000    3.900    0.000    1.200 
#    0.000    3.000    0.000    9.600    0.000    0.000 
#    0.000    0.000    0.000    0.000    0.000    0.000 
#
# Total GULP energy -247802.952156 kJ/mol
# GULP energy per Si atom -12390.147608 kJ/mol
# Density = 1.770356 g / cm^3
# Si number density = 17.743945 Si / 1000 Ang^3
#
#
#
# Elastic Constant Matrix: (Units=GPa)
#
#
# Indices 1 2 3 4 5 6 
#
# 1 144.8338 28.6933 78.8902 0.0000 0.0000 0.0000
# 2 28.6933 46.8639 18.2886 0.0000 0.0000 0.0000
# 3 78.8902 18.2886 86.4233 0.0000 0.0000 0.0000
# 4 0.0000 0.0000 0.0000 15.8687 0.0000 0.0000
# 5 0.0000 0.0000 0.0000 0.0000 14.6236 0.0000
# 6 0.0000 0.0000 0.0000 0.0000 0.0000 24.7712
#
#
#
# Elastic Compliance Matrix: (Units=1/GPa)
#
#
# Indices 1 2 3 4 5 6 
#
# 1 0.014394 -0.004017 -0.012290 0.000000 0.000000 0.000000
# 2 -0.004017 0.024380 -0.001492 0.000000 0.000000 0.000000
# 3 -0.012290 -0.001492 0.023105 0.000000 0.000000 0.000000
# 4 0.000000 0.000000 0.000000 0.063017 0.000000 0.000000
# 5 0.000000 0.000000 0.000000 0.000000 0.068383 0.000000
# 6 0.000000 0.000000 0.000000 0.000000 0.000000 0.040369
#
#
# Mechanical properties :
#
#
# Convention : Reuss Voigt Hill
#
# Bulk Modulus (GPa) = 38.04921 58.87392 48.46157
# Shear Modulus (GPa) = 17.98511 21.20263 19.59387
#
# Velocity S-wave (km/s) = 3.18715 3.46051 3.32664
# Velocity P-wave (km/s) = 5.91895 7.01560 6.49048
#
# Compressibility (1/GPa) = 0.02628175
#
# Stress axis : x y z
#
# Youngs Moduli (GPa) = 69.47142 41.01665 43.28052
#
# Poissons Ratio (x) = 0.16477 0.53190
# Poissons Ratio (y) = 0.27908 0.06458
# Poissons Ratio (z) = 0.85378 0.06120
#
# Static dielectric constant tensor:
#      x y z
#    x 3.716460 0.000000 0.000000 
#    y 0.000000 2.857010 0.000000 
#    z 0.000000 0.000000 3.230000 
# 
# 
# High freq. dielectric constant tensor:
#      x y z
#    x 1.704990 0.000000 0.000000 
#    y 0.000000 1.646000 0.000000 
#    z 0.000000 0.000000 1.657570 
# 
# From -- ./inp_files/20482.got.cif
#   From: 2010.03.12/outbox.cif.g09.slc.cpg/sg38_11_cif.got.tgz:20482.got - 2010.04.14 02:38:36.
