data_PCOD8177517
_publ_section_title
;
Structure prediction by ZEFSAII (Michael W. Deem and Ramdas Pophale) SiO2 
 PCOD8177517
Probable space group: A M M 2
;
_chemical_formula_sum "Si O2"
_cell_formula_units_Z 64
_cell_length_a 18.574565
_cell_length_b 8.892566
_cell_length_c 20.703852
_cell_angle_alpha 90.000000
_cell_angle_beta 90.000000
_cell_angle_gamma 90.000000
_cell_volume 3419.770042
_symmetry_space_group_name_H-M "A M M 2"
_symmetry_group_IT_number 38
_symmetry_cell_setting 'orthorhombic'
loop_
_space_group_symop_operation_xyz
x,y,z
-x,-y,z
-x,y,z
x,-y,z
x,1/2+y,1/2+z
-x,1/2-y,1/2+z
-x,1/2+y,1/2+z
x,1/2-y,1/2+z
loop_
_atom_site_type_symbol
_atom_site_label
_atom_site_fract_x
_atom_site_fract_y
_atom_site_fract_z
Si Si1 0.330517 0.178304 0.724020
Si Si2 0.415475 0.827047 0.339232
Si Si3 0.168644 0.165462 0.587967
Si Si4 0.080167 0.677916 0.833043
Si Si5 0.334951 0.322857 0.453756
Si Si6 0.176925 0.323991 0.714372
Si Si7 0.819613 0.678432 0.947413
Si Si8 0.660680 0.334349 0.081993
O O1 0.379410 0.257922 0.776241
O O2 0.248973 0.234432 0.731012
O O3 0.363661 0.220436 0.653367
O O4 0.330662 0.000000 0.734568
O O5 0.500000 0.809064 0.330933
O O6 0.391996 0.738474 0.402801
O O7 0.391909 0.000000 0.345968
O O8 0.145117 0.280987 0.643817
O O9 0.143868 0.220108 0.516657
O O10 0.253973 0.154736 0.584306
O O11 0.136695 0.000000 0.603787
O O12 0.075555 0.500000 0.838907
O O13 0.117108 0.724497 0.766028
O O14 0.126916 0.740748 0.892673
O O15 0.000000 0.748066 0.835367
O O16 0.330647 0.500000 0.448722
O O17 0.257059 0.256219 0.437530
O O18 0.363260 0.278724 0.525463
O O19 0.194086 0.500000 0.716546
O O20 0.806781 0.500000 0.942443
O O21 0.628619 0.500000 0.066802
#
# Coordination Sequence:
#
# PCOD8177517 Si02
#       8
#     8   8   8   8   8   8   8   8
#     4  10  20  35  57  82 107 135 169 213 260 307
#     4  11  24  40  56  75 104 141 177 213 254 303
#     4   8  15  28  47  73 102 129 161 206 257 304
#     4   9  18  32  49  70  96 130 174 216 252 297
#     4  11  21  33  55  83 108 135 170 214 258 305
#     4  10  18  29  51  78 102 132 168 208 254 305
#     4   9  17  32  54  75  98 131 170 213 257 302
#     4   8  16  32  53  78 107 136 167 207 256 306
#
# _framework density 18.714707000000001
#
# number of rings (size 3 to 8) (size 9 to 14) (size 15 to 20)
#    0.000    2.500    0.000    4.500    0.000    7.000 
#    0.000    1.875    0.000    4.875    0.000    0.000 
#    0.000    0.000    0.000    0.000    0.000    0.000 
#
# Total GULP energy -396689.765653 kJ/mol
# GULP energy per Si atom -12396.555177 kJ/mol
# Density = 1.867211 g / cm^3
# Si number density = 18.714707 Si / 1000 Ang^3
#
#
#
# Elastic Constant Matrix: (Units=GPa)
#
#
# Indices 1 2 3 4 5 6 
#
# 1 52.3987 26.4113 28.7896 0.0000 0.0000 0.0000
# 2 26.4113 72.8323 33.1548 0.0000 0.0000 0.0000
# 3 28.7896 33.1548 119.8809 0.0000 0.0000 0.0000
# 4 0.0000 0.0000 0.0000 32.1838 0.0000 0.0000
# 5 0.0000 0.0000 0.0000 0.0000 1.7101 0.0000
# 6 0.0000 0.0000 0.0000 0.0000 0.0000 12.8440
#
#
#
# Elastic Compliance Matrix: (Units=1/GPa)
#
#
# Indices 1 2 3 4 5 6 
#
# 1 0.024914 -0.007220 -0.003986 0.000000 0.000000 0.000000
# 2 -0.007220 0.017800 -0.003189 0.000000 0.000000 0.000000
# 3 -0.003986 -0.003189 0.010181 0.000000 0.000000 0.000000
# 4 0.000000 0.000000 0.000000 0.031072 0.000000 0.000000
# 5 0.000000 0.000000 0.000000 0.000000 0.584768 0.000000
# 6 0.000000 0.000000 0.000000 0.000000 0.000000 0.077857
#
#
# Mechanical properties :
#
#
# Convention : Reuss Voigt Hill
#
# Bulk Modulus (GPa) = 41.48630 46.86924 44.17777
# Shear Modulus (GPa) = 6.38230 19.79801 13.09016
#
# Velocity S-wave (km/s) = 1.84871 3.25604 2.64760
# Velocity P-wave (km/s) = 5.17425 6.26372 5.74487
#
# Compressibility (1/GPa) = 0.02410434
#
# Stress axis : x y z
#
# Youngs Moduli (GPa) = 40.13846 56.17970 98.22322
#
# Poissons Ratio (x) = 0.40561 0.39155
# Poissons Ratio (y) = 0.28979 0.31323
# Poissons Ratio (z) = 0.16000 0.17916
#
# Static dielectric constant tensor:
#      x y z
#    x 3.176670 0.000000 0.000000 
#    y 0.000000 3.370410 0.000000 
#    z 0.000000 0.000000 4.069000 
# 
# 
# High freq. dielectric constant tensor:
#      x y z
#    x 1.688230 0.000000 0.000000 
#    y 0.000000 1.715440 0.000000 
#    z 0.000000 0.000000 1.750470 
# 
# From -- ./inp_files/21366.got.cif
#   From: 2010.03.12/outbox.cif.g09.slc.cpg/sg38_11_cif.got.tgz:21366.got - 2010.04.14 02:38:36.
