data_PCOD8177825
_publ_section_title
;
Structure prediction by ZEFSAII (Michael W. Deem and Ramdas Pophale) SiO2 
 PCOD8177825
Probable space group: A M M 2
;
_chemical_formula_sum "Si O2"
_cell_formula_units_Z 64
_cell_length_a 23.889914
_cell_length_b 8.973918
_cell_length_c 15.451759
_cell_angle_alpha 90.000000
_cell_angle_beta 90.000000
_cell_angle_gamma 90.000000
_cell_volume 3312.642802
_symmetry_space_group_name_H-M "A M M 2"
_symmetry_group_IT_number 38
_symmetry_cell_setting 'orthorhombic'
loop_
_space_group_symop_operation_xyz
x,y,z
-x,-y,z
-x,y,z
x,-y,z
x,1/2+y,1/2+z
-x,1/2-y,1/2+z
-x,1/2+y,1/2+z
x,1/2-y,1/2+z
loop_
_atom_site_type_symbol
_atom_site_label
_atom_site_fract_x
_atom_site_fract_y
_atom_site_fract_z
Si Si1 0.625821 0.829063 0.917950
Si Si2 0.867264 0.823511 0.101781
Si Si3 0.861634 0.823686 0.908519
Si Si4 0.637484 0.676393 0.089451
Si Si5 0.437051 0.322703 0.248216
Si Si6 0.743697 0.175432 0.158152
Si Si7 0.935645 0.324192 0.250599
Si Si8 0.256447 0.329062 0.337129
O O1 0.591260 0.765380 0.836529
O O2 0.691949 0.813879 0.901847
O O3 0.609501 0.000000 0.936272
O O4 0.609245 0.729998 0.000345
O O5 0.805384 0.773161 0.129882
O O6 0.912614 0.748650 0.163469
O O7 0.874003 0.000000 0.108740
O O8 0.878460 0.765157 0.003858
O O9 0.903354 0.760291 0.835056
O O10 0.798595 0.772744 0.887073
O O11 0.864926 0.000000 0.910009
O O12 0.642461 0.500000 0.091126
O O13 0.598749 0.736898 0.167318
O O14 0.699135 0.746039 0.095952
O O15 0.500000 0.259548 0.241894
O O16 0.436786 0.500000 0.247060
O O17 0.732494 0.224378 0.255853
O O18 0.736080 0.000000 0.148445
O O19 0.927144 0.500000 0.242887
O O20 0.000000 0.279417 0.261321
O O21 0.249986 0.500000 0.304890
#
# Coordination Sequence:
#
# PCOD8177825 Si02
#       8
#     8   8   8   8   8   8   8   8
#     4  10  20  36  58  84 113 146 186 234 284 334
#     4  10  21  37  58  84 111 145 184 227 278 333
#     4   9  18  34  57  80 108 144 183 222 268 332
#     4  11  22  37  58  85 115 152 191 228 281 341
#     4   9  19  37  59  81 110 151 195 235 278 332
#     4  11  21  34  56  86 118 146 183 234 284 336
#     4  10  21  37  57  81 109 144 188 234 274 321
#     4  10  18  34  59  83 110 148 186 225 283 345
#
# _framework density 19.319921999999998
#
# number of rings (size 3 to 8) (size 9 to 14) (size 15 to 20)
#    0.000    2.000    2.500    1.500    0.000    4.250 
#    0.000    2.500    0.000    2.625    0.000    0.000 
#    0.000    0.000    0.000    0.000    0.000    0.000 
#
# Total GULP energy -396865.486888 kJ/mol
# GULP energy per Si atom -12402.046465 kJ/mol
# Density = 1.927595 g / cm^3
# Si number density = 19.319922 Si / 1000 Ang^3
#
#
#
# Elastic Constant Matrix: (Units=GPa)
#
#
# Indices 1 2 3 4 5 6 
#
# 1 120.4017 26.4560 51.0435 0.0000 0.0000 0.0000
# 2 26.4560 38.8399 30.4958 0.0000 0.0000 0.0000
# 3 51.0435 30.4958 150.0536 0.0000 0.0000 0.0000
# 4 0.0000 0.0000 0.0000 33.8505 0.0000 0.0000
# 5 0.0000 0.0000 0.0000 0.0000 17.5796 0.0000
# 6 0.0000 0.0000 0.0000 0.0000 0.0000 14.6247
#
#
#
# Elastic Compliance Matrix: (Units=1/GPa)
#
#
# Indices 1 2 3 4 5 6 
#
# 1 0.010514 -0.005180 -0.002524 0.000000 0.000000 0.000000
# 2 -0.005180 0.033187 -0.004983 0.000000 0.000000 0.000000
# 3 -0.002524 -0.004983 0.008535 0.000000 0.000000 0.000000
# 4 0.000000 0.000000 0.000000 0.029542 0.000000 0.000000
# 5 0.000000 0.000000 0.000000 0.000000 0.056884 0.000000
# 6 0.000000 0.000000 0.000000 0.000000 0.000000 0.068378
#
#
# Mechanical properties :
#
#
# Convention : Reuss Voigt Hill
#
# Bulk Modulus (GPa) = 37.22484 58.36508 47.79496
# Shear Modulus (GPa) = 20.71535 26.63095 23.67315
#
# Velocity S-wave (km/s) = 3.27804 3.71673 3.50426
# Velocity P-wave (km/s) = 5.79973 6.97812 6.41604
#
# Compressibility (1/GPa) = 0.02686378
#
# Stress axis : x y z
#
# Youngs Moduli (GPa) = 95.11483 30.13198 117.15901
#
# Poissons Ratio (x) = 0.15608 0.29567
# Poissons Ratio (y) = 0.49268 0.58377
# Poissons Ratio (z) = 0.24004 0.15014
#
# Static dielectric constant tensor:
#      x y z
#    x 3.652990 0.000000 0.000000 
#    y 0.000000 3.197520 0.000000 
#    z 0.000000 0.000000 3.730790 
# 
# 
# High freq. dielectric constant tensor:
#      x y z
#    x 1.752710 0.000000 0.000000 
#    y 0.000000 1.717720 0.000000 
#    z 0.000000 0.000000 1.766090 
# 
# From -- ./inp_files/15749.got.cif
#   From: 2010.03.12/outbox.cif.g09.slc.cpg/sg38_8_cif.got.tgz:15749.got - 2010.04.14 02:38:36.
