data_PCOD8177302
_publ_section_title
;
Structure prediction by ZEFSAII (Michael W. Deem and Ramdas Pophale) SiO2 
 PCOD8177302
Probable space group: A M M 2
;
_chemical_formula_sum "Si O2"
_cell_formula_units_Z 64
_cell_length_a 14.671260
_cell_length_b 17.382063
_cell_length_c 14.102031
_cell_angle_alpha 90.000000
_cell_angle_beta 90.000000
_cell_angle_gamma 90.000000
_cell_volume 3596.254334
_symmetry_space_group_name_H-M "A M M 2"
_symmetry_group_IT_number 38
_symmetry_cell_setting 'orthorhombic'
loop_
_space_group_symop_operation_xyz
x,y,z
-x,-y,z
-x,y,z
x,-y,z
x,1/2+y,1/2+z
-x,1/2-y,1/2+z
-x,1/2+y,1/2+z
x,1/2-y,1/2+z
loop_
_atom_site_type_symbol
_atom_site_label
_atom_site_fract_x
_atom_site_fract_y
_atom_site_fract_z
Si Si1 0.666170 0.585197 0.687560
Si Si2 0.245100 0.703073 0.081325
Si Si3 0.278867 0.731238 0.387454
Si Si4 0.901055 0.833297 0.114225
Si Si5 0.830679 0.637960 0.806146
Si Si6 0.601754 0.750636 0.719453
Si Si7 0.773915 0.915053 0.994835
Si Si8 0.896623 0.411573 0.008372
O O1 0.619564 0.500000 0.699634
O O2 0.744432 0.589965 0.767592
O O3 0.600131 0.658457 0.700308
O O4 0.702837 0.592483 0.580904
O O5 0.179368 0.772667 0.106311
O O6 0.325592 0.699327 0.158418
O O7 0.295065 0.718686 0.981862
O O8 0.179554 0.628749 0.074843
O O9 0.198851 0.773584 0.327829
O O10 0.372797 0.732430 0.328745
O O11 0.249636 0.644086 0.410643
O O12 0.905706 0.862353 0.222681
O O13 0.874542 0.900046 0.039250
O O14 0.000000 0.800377 0.085883
O O15 0.873762 0.598582 0.897757
O O16 0.500000 0.781651 0.699876
O O17 0.771761 0.000000 0.949758
O O18 0.891844 0.500000 0.036070
O O19 0.000000 0.380304 0.027042
#
# Coordination Sequence:
#
# PCOD8177302 Si02
#       8
#     8   8   8   8   8   8   8   8
#     4   9  16  31  52  79 111 138 167 214 278 329
#     4  10  19  37  54  76 108 141 179 220 267 313
#     4   9  17  34  53  74 104 139 179 216 264 322
#     4  10  17  29  52  79 106 142 178 214 263 324
#     4   9  16  29  50  77 108 143 174 218 260 312
#     4  11  21  35  57  81 103 138 185 227 270 324
#     4   9  17  31  51  74 106 144 174 216 268 315
#     4  10  20  32  51  80 110 144 183 218 259 311
#
# _framework density 17.796294
#
# number of rings (size 3 to 8) (size 9 to 14) (size 15 to 20)
#    0.000    2.375    5.000    1.125    0.000    1.500 
#    0.000    1.250    0.000    1.500    0.000    0.000 
#    0.000    0.000    0.000    0.000    0.000    0.000 
#
# Total GULP energy -396463.668539 kJ/mol
# GULP energy per Si atom -12389.489642 kJ/mol
# Density = 1.775579 g / cm^3
# Si number density = 17.796294 Si / 1000 Ang^3
#
#
#
# Elastic Constant Matrix: (Units=GPa)
#
#
# Indices 1 2 3 4 5 6 
#
# 1 117.3711 28.1654 38.3105 0.0000 0.0000 0.0000
# 2 28.1654 96.7046 30.7118 0.0000 0.0000 0.0000
# 3 38.3105 30.7118 64.4665 0.0000 0.0000 0.0000
# 4 0.0000 0.0000 0.0000 23.4925 0.0000 0.0000
# 5 0.0000 0.0000 0.0000 0.0000 13.4253 0.0000
# 6 0.0000 0.0000 0.0000 0.0000 0.0000 14.3860
#
#
#
# Elastic Compliance Matrix: (Units=1/GPa)
#
#
# Indices 1 2 3 4 5 6 
#
# 1 0.010706 -0.001293 -0.005746 0.000000 0.000000 0.000000
# 2 -0.001293 0.012340 -0.005110 0.000000 0.000000 0.000000
# 3 -0.005746 -0.005110 0.021361 0.000000 0.000000 0.000000
# 4 0.000000 0.000000 0.000000 0.042567 0.000000 0.000000
# 5 0.000000 0.000000 0.000000 0.000000 0.074486 0.000000
# 6 0.000000 0.000000 0.000000 0.000000 0.000000 0.069512
#
#
# Mechanical properties :
#
#
# Convention : Reuss Voigt Hill
#
# Bulk Modulus (GPa) = 49.73136 52.54642 51.13889
# Shear Modulus (GPa) = 19.08584 22.35108 20.71846
#
# Velocity S-wave (km/s) = 3.27840 3.54777 3.41574
# Velocity P-wave (km/s) = 6.50661 6.80977 6.65991
#
# Compressibility (1/GPa) = 0.02010804
#
# Stress axis : x y z
#
# Youngs Moduli (GPa) = 93.40664 81.03451 46.81374
#
# Poissons Ratio (x) = 0.10480 0.26900
# Poissons Ratio (y) = 0.12080 0.23924
# Poissons Ratio (z) = 0.53672 0.41412
#
# Static dielectric constant tensor:
#      x y z
#    x 3.106580 0.000000 0.000000 
#    y 0.000000 3.361190 0.000000 
#    z 0.000000 0.000000 3.452240 
# 
# 
# High freq. dielectric constant tensor:
#      x y z
#    x 1.665420 0.000000 0.000000 
#    y 0.000000 1.677230 0.000000 
#    z 0.000000 0.000000 1.680880 
# 
# From -- ./inp_files/14780.got.cif
#   From: 2010.03.12/outbox.cif.g09.slc.cpg/sg38_8_cif.got.tgz:14780.got - 2010.04.14 02:38:36.
