data_PCOD8177220
_publ_section_title
;
Structure prediction by ZEFSAII (Michael W. Deem and Ramdas Pophale) SiO2 
 PCOD8177220
Probable space group: A M M 2
;
_chemical_formula_sum "Si O2"
_cell_formula_units_Z 56
_cell_length_a 9.572917
_cell_length_b 22.175322
_cell_length_c 17.302465
_cell_angle_alpha 90.000000
_cell_angle_beta 90.000000
_cell_angle_gamma 90.000000
_cell_volume 3673.010820
_symmetry_space_group_name_H-M "A M M 2"
_symmetry_group_IT_number 38
_symmetry_cell_setting 'orthorhombic'
loop_
_space_group_symop_operation_xyz
x,y,z
-x,-y,z
-x,y,z
x,-y,z
x,1/2+y,1/2+z
-x,1/2-y,1/2+z
-x,1/2+y,1/2+z
x,1/2-y,1/2+z
loop_
_atom_site_type_symbol
_atom_site_label
_atom_site_fract_x
_atom_site_fract_y
_atom_site_fract_z
Si Si1 0.844813 0.179944 0.688010
Si Si2 0.340511 0.347063 0.768929
Si Si3 0.338268 0.710942 0.322991
Si Si4 0.163772 0.222724 0.970584
Si Si5 0.845831 0.682697 0.635377
Si Si6 0.662269 0.570016 0.907217
Si Si7 0.162719 0.143557 0.521470
O O1 0.731470 0.170313 0.755589
O O2 0.848031 0.248718 0.662087
O O3 0.803376 0.140562 0.613038
O O4 0.000000 0.161711 0.717600
O O5 0.500000 0.359979 0.748288
O O6 0.319074 0.281006 0.803930
O O7 0.257630 0.355964 0.688788
O O8 0.283876 0.394860 0.831285
O O9 0.500000 0.692768 0.330775
O O10 0.257928 0.696459 0.402048
O O11 0.000000 0.218353 0.949399
O O12 0.199263 0.181765 0.045480
O O13 0.205865 0.291894 0.986329
O O14 0.000000 0.654583 0.644572
O O15 0.500000 0.584468 0.922089
O O16 0.690034 0.500000 0.893408
O O17 0.747571 0.591446 0.981732
O O18 0.000000 0.131312 0.506597
#
# Coordination Sequence:
#
# PCOD8177220 Si02
#       7
#     8   8   8   8   8   8   8
#     4   8  15  27  40  56  79 107 136 168 208 249
#     4   9  17  28  39  55  79 107 139 172 206 241
#     4  10  17  24  38  61  84 109 140 169 199 243
#     4   9  16  26  40  59  83 110 137 166 205 250
#     4   8  15  26  40  57  76 104 138 166 201 248
#     4  10  20  32  44  59  83 114 145 178 215 249
#     4   9  17  29  44  59  78 107 143 179 211 245
#
# _framework density 15.246347999999999
#
# number of rings (size 3 to 8) (size 9 to 14) (size 15 to 20)
#    0.000    3.000    1.429    2.143    0.000    2.571 
#    0.000    2.857    0.000    0.000    0.000    0.000 
#    0.000    1.143    0.000    8.571    0.000    4.429 
#
# Total GULP energy -347104.044805 kJ/mol
# GULP energy per Si atom -12396.573029 kJ/mol
# Density = 1.521165 g / cm^3
# Si number density = 15.246348 Si / 1000 Ang^3
#
#
#
# Elastic Constant Matrix: (Units=GPa)
#
#
# Indices 1 2 3 4 5 6 
#
# 1 83.4091 22.3742 73.0707 0.0000 0.0000 0.0000
# 2 22.3742 34.0233 27.0562 0.0000 0.0000 0.0000
# 3 73.0707 27.0562 126.2477 0.0000 0.0000 0.0000
# 4 0.0000 0.0000 0.0000 14.2655 0.0000 0.0000
# 5 0.0000 0.0000 0.0000 0.0000 28.2345 0.0000
# 6 0.0000 0.0000 0.0000 0.0000 0.0000 14.3403
#
#
#
# Elastic Compliance Matrix: (Units=1/GPa)
#
#
# Indices 1 2 3 4 5 6 
#
# 1 0.025304 -0.006020 -0.013356 0.000000 0.000000 0.000000
# 2 -0.006020 0.036862 -0.004416 0.000000 0.000000 0.000000
# 3 -0.013356 -0.004416 0.016597 0.000000 0.000000 0.000000
# 4 0.000000 0.000000 0.000000 0.070099 0.000000 0.000000
# 5 0.000000 0.000000 0.000000 0.000000 0.035418 0.000000
# 6 0.000000 0.000000 0.000000 0.000000 0.000000 0.069733
#
#
# Mechanical properties :
#
#
# Convention : Reuss Voigt Hill
#
# Bulk Modulus (GPa) = 32.07067 54.29804 43.18435
# Shear Modulus (GPa) = 16.02620 19.44667 17.73643
#
# Velocity S-wave (km/s) = 3.24566 3.57528 3.41445
# Velocity P-wave (km/s) = 5.92675 7.26186 6.62801
#
# Compressibility (1/GPa) = 0.03118114
#
# Stress axis : x y z
#
# Youngs Moduli (GPa) = 39.51938 27.12846 60.25044
#
# Poissons Ratio (x) = 0.16330 0.80468
# Poissons Ratio (y) = 0.23789 0.26605
# Poissons Ratio (z) = 0.52781 0.11979
#
# Static dielectric constant tensor:
#      x y z
#    x 3.028750 0.000000 0.000000 
#    y 0.000000 2.436120 0.000000 
#    z 0.000000 0.000000 3.109900 
# 
# 
# High freq. dielectric constant tensor:
#      x y z
#    x 1.588980 0.000000 0.000000 
#    y 0.000000 1.516280 0.000000 
#    z 0.000000 0.000000 1.592860 
# 
# From -- ./inp_files/17067.got.cif
#   From: 2010.03.12/outbox.cif.g09.slc.cpg/sg38_9_cif.got.tgz:17067.got - 2010.04.14 02:38:36.
