data_PCOD8177178
_publ_section_title
;
Structure prediction by ZEFSAII (Michael W. Deem and Ramdas Pophale) SiO2 
 PCOD8177178
Probable space group: C C C 2
;
_chemical_formula_sum "Si O2"
_cell_formula_units_Z 32
_cell_length_a 5.183122
_cell_length_b 8.321366
_cell_length_c 29.266504
_cell_angle_alpha 90.000000
_cell_angle_beta 90.000000
_cell_angle_gamma 90.000000
_cell_volume 1262.283492
_symmetry_space_group_name_H-M "C C C 2"
_symmetry_group_IT_number 37
_symmetry_cell_setting 'orthorhombic'
loop_
_space_group_symop_operation_xyz
x,y,z
-x,-y,z
-x,y,1/2+z
x,-y,1/2+z
1/2+x,1/2+y,z
1/2-x,1/2-y,z
1/2-x,1/2+y,1/2+z
1/2+x,1/2-y,1/2+z
loop_
_atom_site_type_symbol
_atom_site_label
_atom_site_fract_x
_atom_site_fract_y
_atom_site_fract_z
Si Si1 0.250000 0.750000 0.510280
Si Si2 0.250000 0.750000 0.324673
Si Si3 0.250000 0.250000 0.637465
Si Si4 0.000000 0.000000 0.761913
Si Si5 0.750000 0.750000 0.197909
Si Si6 0.500000 0.000000 0.945121
Si Si7 0.000000 0.000000 0.076496
Si Si8 0.250000 0.250000 0.386972
O O1 0.094100 0.861158 0.543879
O O2 0.078580 0.646214 0.476807
O O3 0.295723 0.597211 0.292524
O O4 0.497445 0.762211 0.356483
O O5 0.502127 0.212158 0.667103
O O6 0.286635 0.413408 0.608087
O O7 0.189624 0.898521 0.730369
O O8 0.733398 0.082094 0.915827
#
# Coordination Sequence:
#
# PCOD8177178 Si02
#       8
#     4   4   4   4   4   4   4   4
#     4  12  26  48  76 112 152 200 252 312 380 452
#     4  12  28  50  78 113 153 202 255 315 382 454
#     4  12  29  51  80 115 155 204 257 317 382 455
#     4  12  29  52  79 114 156 202 256 318 383 456
#     4  12  30  52  80 115 155 204 257 317 384 456
#     4  12  26  48  78 112 154 200 254 314 380 454
#     4  12  27  48  77 112 154 200 254 314 379 454
#     4  12  27  49  78 113 153 202 255 315 380 453
#
# _framework density 25.350883
#
# number of rings (size 3 to 8) (size 9 to 14) (size 15 to 20)
#    0.000    0.000    0.000    8.250    0.000   19.000 
#    0.000    0.000    0.000    0.000    0.000    0.000 
#    0.000    0.000    0.000    0.000    0.000    0.000 
#
# Total GULP energy -198344.532601 kJ/mol
# GULP energy per Si atom -12396.533288 kJ/mol
# Density = 2.529318 g / cm^3
# Si number density = 25.350883 Si / 1000 Ang^3
#
#
#
# Elastic Constant Matrix: (Units=GPa)
#
#
# Indices 1 2 3 4 5 6 
#
# 1 197.5933 91.7043 112.2850 0.0000 0.0000 0.0000
# 2 91.7043 204.5777 113.2670 0.0000 0.0000 0.0000
# 3 112.2850 113.2670 199.5851 0.0000 0.0000 0.0000
# 4 0.0000 0.0000 0.0000 135.0894 0.0000 0.0000
# 5 0.0000 0.0000 0.0000 0.0000 1975.5191 0.0000
# 6 0.0000 0.0000 0.0000 0.0000 0.0000 61.4201
#
#
#
# Elastic Compliance Matrix: (Units=1/GPa)
#
#
# Indices 1 2 3 4 5 6 
#
# 1 0.007761 -0.001548 -0.003488 0.000000 0.000000 0.000000
# 2 -0.001548 0.007436 -0.003349 0.000000 0.000000 0.000000
# 3 -0.003488 -0.003349 0.008874 0.000000 0.000000 0.000000
# 4 0.000000 0.000000 0.000000 0.007403 0.000000 0.000000
# 5 0.000000 0.000000 0.000000 0.000000 0.000506 0.000000
# 6 0.000000 0.000000 0.000000 0.000000 0.000000 0.016281
#
#
# Mechanical properties :
#
#
# Convention : Reuss Voigt Hill
#
# Bulk Modulus (GPa) = 136.97417 137.36320 137.16868
# Shear Modulus (GPa) = 74.11158 453.37239 263.74199
#
# Velocity S-wave (km/s) = 5.41274 13.38757 10.21090
# Velocity P-wave (km/s) = 9.65465 17.12518 13.90116
#
# Compressibility (1/GPa) = 0.00730065
#
# Stress axis : x y z
#
# Youngs Moduli (GPa) = 128.84194 134.47283 112.69422
#
# Poissons Ratio (x) = 0.20816 0.39308
# Poissons Ratio (y) = 0.19944 0.37746
# Poissons Ratio (z) = 0.44941 0.45040
#
# Static dielectric constant tensor:
#      x y z
#    x -11.184540 0.000000 0.000000 
#    y 0.000000 4.681760 0.000000 
#    z 0.000000 0.000000 5.536730 
# 
# 
# High freq. dielectric constant tensor:
#      x y z
#    x 2.010410 0.000000 0.000000 
#    y 0.000000 2.036390 0.000000 
#    z 0.000000 0.000000 2.048500 
# 
# From -- ./inp_files/19150.got.cif
#   From: 2010.03.12/outbox.cif.g09.slc.cpg/sg37_10_cif.got.tgz:19150.got - 2010.04.14 02:25:27.
