data_PCOD8177018
_publ_section_title
;
Structure prediction by ZEFSAII (Michael W. Deem and Ramdas Pophale) SiO2 
 PCOD8177018
Probable space group: C C C 2
;
_chemical_formula_sum "Si O2"
_cell_formula_units_Z 40
_cell_length_a 7.129099
_cell_length_b 20.988554
_cell_length_c 12.311650
_cell_angle_alpha 90.000000
_cell_angle_beta 90.000000
_cell_angle_gamma 90.000000
_cell_volume 1842.185779
_symmetry_space_group_name_H-M "C C C 2"
_symmetry_group_IT_number 37
_symmetry_cell_setting 'orthorhombic'
loop_
_space_group_symop_operation_xyz
x,y,z
-x,-y,z
-x,y,1/2+z
x,-y,1/2+z
1/2+x,1/2+y,z
1/2-x,1/2-y,z
1/2-x,1/2+y,1/2+z
1/2+x,1/2-y,1/2+z
loop_
_atom_site_type_symbol
_atom_site_label
_atom_site_fract_x
_atom_site_fract_y
_atom_site_fract_z
Si Si1 0.452463 0.658262 0.081020
Si Si2 0.966149 0.737266 0.414591
Si Si3 0.837803 0.397292 0.932643
Si Si4 0.500000 0.000000 0.576871
Si Si5 0.835695 0.948971 0.213363
Si Si6 0.250000 0.750000 0.227957
O O1 0.593504 0.614922 0.151031
O O2 0.281992 0.687699 0.153142
O O3 0.547740 0.717867 0.013213
O O4 0.360191 0.612795 0.992041
O O5 0.750000 0.750000 0.392935
O O6 0.979043 0.662588 0.435429
O O7 0.066834 0.749427 0.301367
O O8 0.779352 0.424155 0.816253
O O9 0.973128 0.442230 0.997314
O O10 0.312607 0.989051 0.645049
O O11 0.000000 0.000000 0.242677
#
# Coordination Sequence:
#
# PCOD8177018 Si02
#       6
#     8   8   8   4   8   4
#     4  11  23  48  71 107 146 184 241 299 366 442
#     4  10  24  46  69 109 142 186 237 297 357 446
#     4  11  25  47  71 105 145 180 250 293 362 444
#     4  12  28  48  72 110 144 190 244 312 368 448
#     4  12  28  47  77 107 147 201 245 307 374 439
#     4  12  24  44  76 102 146 188 234 296 372 434
#
# _framework density 21.713336000000002
#
# number of rings (size 3 to 8) (size 9 to 14) (size 15 to 20)
#    0.000    0.800    5.000    3.000    8.400    1.600 
#    1.800    0.000    0.000    0.000    0.000    0.000 
#    0.000    0.000    0.000    0.000    0.000    0.000 
#
# Total GULP energy -247820.848093 kJ/mol
# GULP energy per Si atom -12391.042405 kJ/mol
# Density = 2.166392 g / cm^3
# Si number density = 21.713336 Si / 1000 Ang^3
#
#
#
# Elastic Constant Matrix: (Units=GPa)
#
#
# Indices 1 2 3 4 5 6 
#
# 1 50.1566 20.4866 10.6478 0.0000 0.0000 0.0000
# 2 20.4866 128.4590 34.5468 0.0000 0.0000 0.0000
# 3 10.6478 34.5468 102.9552 0.0000 0.0000 0.0000
# 4 0.0000 0.0000 0.0000 25.5540 0.0000 0.0000
# 5 0.0000 0.0000 0.0000 0.0000 28.7391 0.0000
# 6 0.0000 0.0000 0.0000 0.0000 0.0000 19.4577
#
#
#
# Elastic Compliance Matrix: (Units=1/GPa)
#
#
# Indices 1 2 3 4 5 6 
#
# 1 0.021456 -0.003105 -0.001177 0.000000 0.000000 0.000000
# 2 -0.003105 0.009006 -0.002701 0.000000 0.000000 0.000000
# 3 -0.001177 -0.002701 0.010741 0.000000 0.000000 0.000000
# 4 0.000000 0.000000 0.000000 0.039133 0.000000 0.000000
# 5 0.000000 0.000000 0.000000 0.000000 0.034796 0.000000
# 6 0.000000 0.000000 0.000000 0.000000 0.000000 0.051394
#
#
# Mechanical properties :
#
#
# Convention : Reuss Voigt Hill
#
# Bulk Modulus (GPa) = 36.71526 45.88148 41.29837
# Shear Modulus (GPa) = 26.37545 29.14280 27.75913
#
# Velocity S-wave (km/s) = 3.48905 3.66753 3.57940
# Velocity P-wave (km/s) = 5.75996 6.25386 6.01198
#
# Compressibility (1/GPa) = 0.02723663
#
# Stress axis : x y z
#
# Youngs Moduli (GPa) = 46.60750 111.03511 93.10138
#
# Poissons Ratio (x) = 0.34479 0.10958
# Poissons Ratio (y) = 0.14473 0.25146
# Poissons Ratio (z) = 0.05486 0.29989
#
# Static dielectric constant tensor:
#      x y z
#    x 3.723360 0.000000 0.000000 
#    y 0.000000 4.486770 0.000000 
#    z 0.000000 0.000000 4.121810 
# 
# 
# High freq. dielectric constant tensor:
#      x y z
#    x 1.841150 0.000000 0.000000 
#    y 0.000000 1.872310 0.000000 
#    z 0.000000 0.000000 1.868400 
# 
# From -- ./inp_files/6177.got.cif
#   From: 2010.03.12/outbox.cif.g09.slc.cpg/sg37_4_cif.got.tgz:6177.got - 2010.04.14 02:25:27.
