data_PCOD8177747
_publ_section_title
;
Structure prediction by ZEFSAII (Michael W. Deem and Ramdas Pophale) SiO2 
 PCOD8177747
Probable space group: A M M 2
;
_chemical_formula_sum "Si O2"
_cell_formula_units_Z 64
_cell_length_a 9.016994
_cell_length_b 19.629324
_cell_length_c 20.680694
_cell_angle_alpha 90.000000
_cell_angle_beta 90.000000
_cell_angle_gamma 90.000000
_cell_volume 3660.431069
_symmetry_space_group_name_H-M "A M M 2"
_symmetry_group_IT_number 38
_symmetry_cell_setting 'orthorhombic'
loop_
_space_group_symop_operation_xyz
x,y,z
-x,-y,z
-x,y,z
x,-y,z
x,1/2+y,1/2+z
-x,1/2-y,1/2+z
-x,1/2+y,1/2+z
x,1/2-y,1/2+z
loop_
_atom_site_type_symbol
_atom_site_label
_atom_site_fract_x
_atom_site_fract_y
_atom_site_fract_z
Si Si1 0.674703 0.215405 0.658310
Si Si2 0.824328 0.792449 0.275891
Si Si3 0.327885 0.922961 0.851516
Si Si4 0.673467 0.422856 0.739295
Si Si5 0.323884 0.425805 0.592369
Si Si6 0.675638 0.926748 0.705182
Si Si7 0.825185 0.705516 0.399405
Si Si8 0.325534 0.210191 0.028235
O O1 0.500000 0.222864 0.671981
O O2 0.757689 0.259578 0.711558
O O3 0.729120 0.136624 0.661918
O O4 0.716098 0.240011 0.586983
O O5 0.764304 0.869644 0.283328
O O6 0.770907 0.750158 0.338525
O O7 0.000000 0.792962 0.270461
O O8 0.500000 0.902751 0.857135
O O9 0.268998 0.915756 0.778316
O O10 0.233703 0.871666 0.894910
O O11 0.303111 0.000000 0.876668
O O12 0.500000 0.406097 0.744947
O O13 0.705713 0.500000 0.763120
O O14 0.730069 0.413733 0.665672
O O15 0.500000 0.424814 0.593711
O O16 0.267407 0.500000 0.567456
O O17 0.266241 0.365762 0.546048
O O18 0.500000 0.930508 0.706600
O O19 0.737081 0.000000 0.678821
O O20 0.758229 0.737511 0.464945
O O21 0.000000 0.705045 0.404634
O O22 0.500000 0.209993 0.014710
#
# Coordination Sequence:
#
# PCOD8177747 Si02
#       8
#     8   8   8   8   8   8   8   8
#     4  10  18  32  56  80 102 131 172 219 265 308
#     4  11  22  34  51  76 106 140 175 211 257 306
#     4   9  17  31  53  78 102 134 174 213 257 307
#     4   9  17  32  56  82 105 130 165 214 264 306
#     4   8  14  27  48  74 102 128 159 201 250 305
#     4   8  14  26  49  80 106 127 159 208 263 311
#     4  11  24  37  48  70 107 148 180 211 254 302
#     4  10  20  33  51  75 100 135 177 215 260 306
#
# _framework density 17.484279000000001
#
# number of rings (size 3 to 8) (size 9 to 14) (size 15 to 20)
#    0.000    2.500    2.500    2.250    0.000    3.000 
#    0.000    1.250    0.000    1.125    0.000    1.750 
#    0.000    0.000    0.000    0.000    0.000    0.000 
#
# Total GULP energy -396663.854887 kJ/mol
# GULP energy per Si atom -12395.745465 kJ/mol
# Density = 1.744448 g / cm^3
# Si number density = 17.484279 Si / 1000 Ang^3
#
#
#
# Elastic Constant Matrix: (Units=GPa)
#
#
# Indices 1 2 3 4 5 6 
#
# 1 44.0503 33.4970 36.7254 0.0000 0.0000 0.0000
# 2 33.4970 119.2825 55.4514 0.0000 0.0000 0.0000
# 3 36.7254 55.4514 95.1144 0.0000 0.0000 0.0000
# 4 0.0000 0.0000 0.0000 22.0227 0.0000 0.0000
# 5 0.0000 0.0000 0.0000 0.0000 20.7450 0.0000
# 6 0.0000 0.0000 0.0000 0.0000 0.0000 17.1201
#
#
#
# Elastic Compliance Matrix: (Units=1/GPa)
#
#
# Indices 1 2 3 4 5 6 
#
# 1 0.035474 -0.004931 -0.010822 0.000000 0.000000 0.000000
# 2 -0.004931 0.012186 -0.005200 0.000000 0.000000 0.000000
# 3 -0.010822 -0.005200 0.017724 0.000000 0.000000 0.000000
# 4 0.000000 0.000000 0.000000 0.045408 0.000000 0.000000
# 5 0.000000 0.000000 0.000000 0.000000 0.048204 0.000000
# 6 0.000000 0.000000 0.000000 0.000000 0.000000 0.058411
#
#
# Mechanical properties :
#
#
# Convention : Reuss Voigt Hill
#
# Bulk Modulus (GPa) = 42.59582 56.64388 49.61985
# Shear Modulus (GPa) = 18.71689 20.82913 19.77301
#
# Velocity S-wave (km/s) = 3.27540 3.45527 3.36654
# Velocity P-wave (km/s) = 6.22250 6.95600 6.59945
#
# Compressibility (1/GPa) = 0.02347648
#
# Stress axis : x y z
#
# Youngs Moduli (GPa) = 28.19003 82.06405 56.42015
#
# Poissons Ratio (x) = 0.40463 0.61060
# Poissons Ratio (y) = 0.13900 0.29341
# Poissons Ratio (z) = 0.30508 0.42676
#
# Static dielectric constant tensor:
#      x y z
#    x 2.915730 0.000000 0.000000 
#    y 0.000000 3.842740 0.000000 
#    z 0.000000 0.000000 3.141580 
# 
# 
# High freq. dielectric constant tensor:
#      x y z
#    x 1.643760 0.000000 0.000000 
#    y 0.000000 1.685370 0.000000 
#    z 0.000000 0.000000 1.652500 
# 
# From -- ./inp_files/17221.got.cif
#   From: 2010.03.12/outbox.cif.g09.slc.cpg/sg38_9_cif.got.tgz:17221.got - 2010.04.14 02:38:36.
