data_PCOD8177118
_publ_section_title
;
Structure prediction by ZEFSAII (Michael W. Deem and Ramdas Pophale) SiO2 
 PCOD8177118
Probable space group: C C C 2
;
_chemical_formula_sum "Si O2"
_cell_formula_units_Z 64
_cell_length_a 28.210509
_cell_length_b 8.850309
_cell_length_c 11.133530
_cell_angle_alpha 90.000000
_cell_angle_beta 90.000000
_cell_angle_gamma 90.000000
_cell_volume 2779.727604
_symmetry_space_group_name_H-M "C C C 2"
_symmetry_group_IT_number 37
_symmetry_cell_setting 'orthorhombic'
loop_
_space_group_symop_operation_xyz
x,y,z
-x,-y,z
-x,y,1/2+z
x,-y,1/2+z
1/2+x,1/2+y,z
1/2-x,1/2-y,z
1/2-x,1/2+y,1/2+z
1/2+x,1/2-y,1/2+z
loop_
_atom_site_type_symbol
_atom_site_label
_atom_site_fract_x
_atom_site_fract_y
_atom_site_fract_z
Si Si1 0.378555 0.628356 0.565470
Si Si2 0.201160 0.827239 0.390199
Si Si3 0.836106 0.821069 0.637480
Si Si4 0.961970 0.123175 0.396178
Si Si5 0.701448 0.315410 0.888126
Si Si6 0.421288 0.854896 0.201928
Si Si7 0.526962 0.858773 0.470655
Si Si8 0.106540 0.673564 0.785200
O O1 0.338796 0.717779 0.487687
O O2 0.352089 0.496580 0.638671
O O3 0.416914 0.558098 0.470819
O O4 0.403766 0.742715 0.658456
O O5 0.250000 0.750000 0.433199
O O6 0.187620 0.763407 0.260154
O O7 0.202575 0.006138 0.370398
O O8 0.800345 0.783746 0.530264
O O9 0.882703 0.723296 0.617463
O O10 0.944011 0.227225 0.286918
O O11 0.989432 0.226209 0.491859
O O12 0.000000 0.000000 0.347586
O O13 0.750000 0.250000 0.834122
O O14 0.658352 0.229633 0.824122
O O15 0.457816 0.916075 0.102413
O O16 0.396932 0.992299 0.273314
O O17 0.567162 0.786621 0.384236
O O18 0.500000 0.000000 0.405610
#
# Coordination Sequence:
#
# PCOD8177118 Si02
#       8
#     8   8   8   8   8   8   8   8
#     4  11  26  48  74 106 148 191 240 307 371 437
#     4  11  25  47  76 108 147 185 244 305 368 450
#     4  11  23  47  74 105 142 189 238 303 370 436
#     4  12  28  44  73 110 145 195 250 300 368 440
#     4  11  26  47  72 108 145 188 240 300 375 443
#     4  12  27  44  76 104 147 196 246 300 369 438
#     4  12  27  49  70 107 146 194 247 304 362 437
#     4  12  27  48  73 103 151 191 243 308 365 439
#
# _framework density 23.023838000000001
#
# number of rings (size 3 to 8) (size 9 to 14) (size 15 to 20)
#    0.000    0.500    5.000    1.875    8.750    2.000 
#    0.000    0.000    0.000    0.000    0.000    0.000 
#    0.000    0.000    0.000    0.000    0.000    0.000 
#
# Total GULP energy -396684.072820 kJ/mol
# GULP energy per Si atom -12396.377276 kJ/mol
# Density = 2.297143 g / cm^3
# Si number density = 23.023838 Si / 1000 Ang^3
#
#
#
# Elastic Constant Matrix: (Units=GPa)
#
#
# Indices 1 2 3 4 5 6 
#
# 1 140.1531 38.2833 33.9387 0.0000 0.0000 0.0000
# 2 38.2833 83.5416 14.6134 0.0000 0.0000 0.0000
# 3 33.9387 14.6134 88.4650 0.0000 0.0000 0.0000
# 4 0.0000 0.0000 0.0000 28.3461 0.0000 0.0000
# 5 0.0000 0.0000 0.0000 0.0000 21.2437 0.0000
# 6 0.0000 0.0000 0.0000 0.0000 0.0000 46.7562
#
#
#
# Elastic Compliance Matrix: (Units=1/GPa)
#
#
# Indices 1 2 3 4 5 6 
#
# 1 0.008774 -0.003534 -0.002782 0.000000 0.000000 0.000000
# 2 -0.003534 0.013750 -0.000915 0.000000 0.000000 0.000000
# 3 -0.002782 -0.000915 0.012523 0.000000 0.000000 0.000000
# 4 0.000000 0.000000 0.000000 0.035278 0.000000 0.000000
# 5 0.000000 0.000000 0.000000 0.000000 0.047073 0.000000
# 6 0.000000 0.000000 0.000000 0.000000 0.000000 0.021388
#
#
# Mechanical properties :
#
#
# Convention : Reuss Voigt Hill
#
# Bulk Modulus (GPa) = 48.58463 53.98115 51.28289
# Shear Modulus (GPa) = 31.22859 34.29082 32.75971
#
# Velocity S-wave (km/s) = 3.68687 3.86341 3.77617
# Velocity P-wave (km/s) = 6.26672 6.58771 6.42922
#
# Compressibility (1/GPa) = 0.02058264
#
# Stress axis : x y z
#
# Youngs Moduli (GPa) = 113.97112 72.72868 79.85600
#
# Poissons Ratio (x) = 0.25703 0.22218
# Poissons Ratio (y) = 0.40279 0.07311
# Poissons Ratio (z) = 0.31710 0.06658
#
# Static dielectric constant tensor:
#      x y z
#    x 4.268520 0.000000 0.000000 
#    y 0.000000 4.005020 0.000000 
#    z 0.000000 0.000000 4.066260 
# 
# 
# High freq. dielectric constant tensor:
#      x y z
#    x 1.919030 0.000000 0.000000 
#    y 0.000000 1.903660 0.000000 
#    z 0.000000 0.000000 1.913160 
# 
# From -- ./inp_files/9237.got.cif
#   From: 2010.03.12/outbox.cif.g09.slc.cpg/sg37_5_cif.got.tgz:9237.got - 2010.04.14 02:25:27.
