data_PCOD8177516
_publ_section_title
;
Structure prediction by ZEFSAII (Michael W. Deem and Ramdas Pophale) SiO2 
 PCOD8177516
Probable space group: A M M 2
;
_chemical_formula_sum "Si O2"
_cell_formula_units_Z 64
_cell_length_a 9.202121
_cell_length_b 28.420185
_cell_length_c 12.106068
_cell_angle_alpha 90.000000
_cell_angle_beta 90.000000
_cell_angle_gamma 90.000000
_cell_volume 3166.051312
_symmetry_space_group_name_H-M "A M M 2"
_symmetry_group_IT_number 38
_symmetry_cell_setting 'orthorhombic'
loop_
_space_group_symop_operation_xyz
x,y,z
-x,-y,z
-x,y,z
x,-y,z
x,1/2+y,1/2+z
-x,1/2-y,1/2+z
-x,1/2+y,1/2+z
x,1/2-y,1/2+z
loop_
_atom_site_type_symbol
_atom_site_label
_atom_site_fract_x
_atom_site_fract_y
_atom_site_fract_z
Si Si1 0.330448 0.052331 0.527730
Si Si2 0.340032 0.842794 0.223059
Si Si3 0.661683 0.726509 0.906541
Si Si4 0.666130 0.868336 0.986482
Si Si5 0.670623 0.655620 0.103426
Si Si6 0.840978 0.448895 0.572571
Si Si7 0.827992 0.312420 0.319531
Si Si8 0.164264 0.574986 0.814372
O O1 0.500000 0.058506 0.507135
O O2 0.278803 0.100135 0.593008
O O3 0.255434 0.050202 0.409357
O O4 0.299473 0.000000 0.584209
O O5 0.500000 0.866959 0.233284
O O6 0.341388 0.792588 0.281461
O O7 0.305311 0.834915 0.093239
O O8 0.220769 0.873130 0.285872
O O9 0.500000 0.745489 0.937961
O O10 0.773310 0.769450 0.897299
O O11 0.706774 0.684891 0.991484
O O12 0.500000 0.866194 0.944969
O O13 0.705939 0.920784 0.023662
O O14 0.775565 0.857741 0.887130
O O15 0.500000 0.657667 0.130821
O O16 0.758123 0.682907 0.198640
O O17 0.835521 0.500000 0.517159
O O18 0.822677 0.455641 0.703926
O O19 0.000000 0.425284 0.548875
O O20 0.000000 0.309779 0.307246
O O21 0.000000 0.579419 0.857217
#
# Coordination Sequence:
#
# PCOD8177516 Si02
#       8
#     8   8   8   8   8   8   8   8
#     4  10  20  36  60  89 121 160 207 257 306 359
#     4   9  18  35  59  87 117 152 196 241 291 349
#     4  10  21  40  66  91 118 156 200 246 303 362
#     4  10  21  38  61  87 117 155 204 250 294 352
#     4  10  22  43  67  90 122 162 206 255 307 367
#     4   9  18  33  53  81 120 163 202 246 305 361
#     4  12  27  43  61  88 123 160 203 253 310 369
#     4  10  18  29  50  83 125 163 194 235 294 360
#
# _framework density 20.214455999999998
#
# number of rings (size 3 to 8) (size 9 to 14) (size 15 to 20)
#    0.000    2.000    1.250    2.250    1.750    3.500 
#    0.000    0.625    0.000    2.250    0.000    0.000 
#    0.000    0.000    0.000    0.000    0.000    0.000 
#
# Total GULP energy -396475.377889 kJ/mol
# GULP energy per Si atom -12389.855559 kJ/mol
# Density = 2.016845 g / cm^3
# Si number density = 20.214456 Si / 1000 Ang^3
#
#
#
# Elastic Constant Matrix: (Units=GPa)
#
#
# Indices 1 2 3 4 5 6 
#
# 1 83.1538 43.5339 40.4336 0.0000 0.0000 0.0000
# 2 43.5339 91.8036 31.9739 0.0000 0.0000 0.0000
# 3 40.4336 31.9739 79.1556 0.0000 0.0000 0.0000
# 4 0.0000 0.0000 0.0000 6.3145 0.0000 0.0000
# 5 0.0000 0.0000 0.0000 0.0000 28.5465 0.0000
# 6 0.0000 0.0000 0.0000 0.0000 0.0000 22.1761
#
#
#
# Elastic Compliance Matrix: (Units=1/GPa)
#
#
# Indices 1 2 3 4 5 6 
#
# 1 0.018825 -0.006491 -0.006994 0.000000 0.000000 0.000000
# 2 -0.006491 0.014914 -0.002709 0.000000 0.000000 0.000000
# 3 -0.006994 -0.002709 0.017300 0.000000 0.000000 0.000000
# 4 0.000000 0.000000 0.000000 0.158365 0.000000 0.000000
# 5 0.000000 0.000000 0.000000 0.000000 0.035031 0.000000
# 6 0.000000 0.000000 0.000000 0.000000 0.000000 0.045094
#
#
# Mechanical properties :
#
#
# Convention : Reuss Voigt Hill
#
# Bulk Modulus (GPa) = 53.61411 53.99954 53.80682
# Shear Modulus (GPa) = 15.23771 20.61887 17.92829
#
# Velocity S-wave (km/s) = 2.74853 3.19722 2.98132
# Velocity P-wave (km/s) = 6.05415 6.35617 6.20700
#
# Compressibility (1/GPa) = 0.01865181
#
# Stress axis : x y z
#
# Youngs Moduli (GPa) = 53.12067 67.04961 57.80287
#
# Poissons Ratio (x) = 0.43522 0.40428
# Poissons Ratio (y) = 0.34481 0.15657
# Poissons Ratio (z) = 0.37153 0.18162
#
# Static dielectric constant tensor:
#      x y z
#    x 3.623670 0.000000 0.000000 
#    y 0.000000 3.691520 0.000000 
#    z 0.000000 0.000000 3.551650 
# 
# 
# High freq. dielectric constant tensor:
#      x y z
#    x 1.782780 0.000000 0.000000 
#    y 0.000000 1.786760 0.000000 
#    z 0.000000 0.000000 1.771240 
# 
# From -- ./inp_files/8523.got.cif
#   From: 2010.03.12/outbox.cif.g09.slc.cpg/sg38_5_cif.got.tgz:8523.got - 2010.04.14 02:38:36.
