data_PCOD8177162
_publ_section_title
;
Structure prediction by ZEFSAII (Michael W. Deem and Ramdas Pophale) SiO2 
 PCOD8177162
Probable space group: C C C 2
;
_chemical_formula_sum "Si O2"
_cell_formula_units_Z 60
_cell_length_a 18.467023
_cell_length_b 10.566780
_cell_length_c 14.041799
_cell_angle_alpha 90.000000
_cell_angle_beta 90.000000
_cell_angle_gamma 90.000000
_cell_volume 2740.074100
_symmetry_space_group_name_H-M "C C C 2"
_symmetry_group_IT_number 37
_symmetry_cell_setting 'orthorhombic'
loop_
_space_group_symop_operation_xyz
x,y,z
-x,-y,z
-x,y,1/2+z
x,-y,1/2+z
1/2+x,1/2+y,z
1/2-x,1/2-y,z
1/2-x,1/2+y,1/2+z
1/2+x,1/2-y,1/2+z
loop_
_atom_site_type_symbol
_atom_site_label
_atom_site_fract_x
_atom_site_fract_y
_atom_site_fract_z
Si Si1 0.511096 0.649182 0.516170
Si Si2 0.750000 0.250000 0.638055
Si Si3 0.335882 0.097975 0.816394
Si Si4 0.444125 0.346034 0.310848
Si Si5 0.069410 0.418793 0.210115
Si Si6 0.195174 0.986327 0.746850
Si Si7 0.414509 0.327162 0.706733
Si Si8 0.617583 0.827275 0.021044
O O1 0.500000 0.500000 0.534100
O O2 0.556715 0.681843 0.422701
O O3 0.548612 0.715536 0.607534
O O4 0.434989 0.713625 0.494802
O O5 0.757058 0.123089 0.700062
O O6 0.682132 0.244444 0.571036
O O7 0.374905 0.211387 0.759704
O O8 0.363854 0.968919 0.770692
O O9 0.248253 0.082601 0.806183
O O10 0.356042 0.100080 0.927347
O O11 0.438390 0.225315 0.242199
O O12 0.371618 0.429435 0.306508
O O13 0.524320 0.396548 0.275304
O O14 0.083165 0.426847 0.096232
O O15 0.000000 0.500000 0.238324
O O16 0.149560 0.076154 0.675173
#
# Coordination Sequence:
#
# PCOD8177162 Si02
#       8
#     8   4   8   8   8   8   8   8
#     4  12  24  43  72 109 140 185 249 307 368 439
#     4  12  24  46  72  96 142 196 238 292 378 438
#     4  12  27  45  71 107 147 193 245 298 377 443
#     4  12  24  44  74 106 141 190 245 301 370 434
#     4  12  23  48  73 101 145 187 236 302 360 438
#     4  12  25  46  71 102 148 191 238 310 369 447
#     4  12  24  45  69 105 146 187 243 310 365 432
#     4  12  25  44  73 104 139 194 245 294 371 445
#
# _framework density 21.897217999999999
#
# number of rings (size 3 to 8) (size 9 to 14) (size 15 to 20)
#    0.000    0.000    6.667    3.200    1.867    3.733 
#    0.000    0.000    2.933    0.000    0.000    0.000 
#    0.000    0.000    0.000    0.000    0.000    0.000 
#
# Total GULP energy -371688.255960 kJ/mol
# GULP energy per Si atom -12389.608532 kJ/mol
# Density = 2.184738 g / cm^3
# Si number density = 21.897218 Si / 1000 Ang^3
#
#
#
# Elastic Constant Matrix: (Units=GPa)
#
#
# Indices 1 2 3 4 5 6 
#
# 1 151.5599 49.1421 53.9756 0.0000 0.0000 0.0000
# 2 49.1421 69.8169 31.0042 0.0000 0.0000 0.0000
# 3 53.9756 31.0042 156.3522 0.0000 0.0000 0.0000
# 4 0.0000 0.0000 0.0000 22.2434 0.0000 0.0000
# 5 0.0000 0.0000 0.0000 0.0000 35.9598 0.0000
# 6 0.0000 0.0000 0.0000 0.0000 0.0000 53.6956
#
#
#
# Elastic Compliance Matrix: (Units=1/GPa)
#
#
# Indices 1 2 3 4 5 6 
#
# 1 0.009114 -0.005502 -0.002055 0.000000 0.000000 0.000000
# 2 -0.005502 0.019028 -0.001874 0.000000 0.000000 0.000000
# 3 -0.002055 -0.001874 0.007477 0.000000 0.000000 0.000000
# 4 0.000000 0.000000 0.000000 0.044957 0.000000 0.000000
# 5 0.000000 0.000000 0.000000 0.000000 0.027809 0.000000
# 6 0.000000 0.000000 0.000000 0.000000 0.000000 0.018623
#
#
# Mechanical properties :
#
#
# Convention : Reuss Voigt Hill
#
# Bulk Modulus (GPa) = 59.67850 71.77475 65.72662
# Shear Modulus (GPa) = 33.01268 38.62026 35.81647
#
# Velocity S-wave (km/s) = 3.88702 4.20421 4.04872
# Velocity P-wave (km/s) = 6.88900 7.51108 7.20676
#
# Compressibility (1/GPa) = 0.01675645
#
# Stress axis : x y z
#
# Youngs Moduli (GPa) = 109.71984 52.55334 133.74585
#
# Poissons Ratio (x) = 0.28917 0.27488
# Poissons Ratio (y) = 0.60373 0.25060
# Poissons Ratio (z) = 0.22550 0.09847
#
# Static dielectric constant tensor:
#      x y z
#    x 4.410590 0.000000 0.000000 
#    y 0.000000 4.052710 0.000000 
#    z 0.000000 0.000000 3.940060 
# 
# 
# High freq. dielectric constant tensor:
#      x y z
#    x 1.887380 0.000000 0.000000 
#    y 0.000000 1.864470 0.000000 
#    z 0.000000 0.000000 1.850890 
# 
# From -- ./inp_files/12663.got.cif
#   From: 2010.03.12/outbox.cif.g09.slc.cpg/sg37_7_cif.got.tgz:12663.got - 2010.04.14 02:25:27.
