data_PCOD8177607
_publ_section_title
;
Structure prediction by ZEFSAII (Michael W. Deem and Ramdas Pophale) SiO2 
 PCOD8177607
Probable space group: A M M 2
;
_chemical_formula_sum "Si O2"
_cell_formula_units_Z 40
_cell_length_a 8.669018
_cell_length_b 9.748379
_cell_length_c 25.872228
_cell_angle_alpha 90.000000
_cell_angle_beta 90.000000
_cell_angle_gamma 90.000000
_cell_volume 2186.432831
_symmetry_space_group_name_H-M "A M M 2"
_symmetry_group_IT_number 38
_symmetry_cell_setting 'orthorhombic'
loop_
_space_group_symop_operation_xyz
x,y,z
-x,-y,z
-x,y,z
x,-y,z
x,1/2+y,1/2+z
-x,1/2-y,1/2+z
-x,1/2+y,1/2+z
x,1/2-y,1/2+z
loop_
_atom_site_type_symbol
_atom_site_label
_atom_site_fract_x
_atom_site_fract_y
_atom_site_fract_z
Si Si1 0.816577 0.717140 0.819640
Si Si2 0.683869 0.000000 0.394463
Si Si3 0.681905 0.000000 0.511275
Si Si4 0.180834 0.500000 0.738018
Si Si5 0.682380 0.000000 0.847418
Si Si6 0.818808 0.000000 0.960870
Si Si7 0.678484 0.000000 0.126460
Si Si8 0.681805 0.294317 0.539234
O O1 0.750787 0.637517 0.869161
O O2 0.761353 0.636170 0.768058
O O3 0.000000 0.724309 0.824427
O O4 0.747078 0.868467 0.817185
O O5 0.500000 0.000000 0.390147
O O6 0.745204 0.000000 0.453098
O O7 0.736545 0.136043 0.541880
O O8 0.500000 0.000000 0.508241
O O9 0.231198 0.500000 0.679323
O O10 0.000000 0.500000 0.739623
O O11 0.733835 0.000000 0.906498
O O12 0.500000 0.000000 0.844445
O O13 0.770991 0.135172 0.992195
O O14 0.000000 0.000000 0.950712
O O15 0.724579 0.865296 0.093549
O O16 0.500000 0.000000 0.140353
O O17 0.500000 0.310657 0.528137
#
# Coordination Sequence:
#
# PCOD8177607 Si02
#       8
#     8   4   4   4   4   4   4   8
#     4  10  21  37  54  76 105 140 177 217 265 319
#     4  10  18  30  52  81 108 143 182 214 252 309
#     4   9  17  30  51  75 104 137 168 204 254 303
#     4   9  20  38  59  76  99 134 171 214 266 319
#     4  12  23  35  53  79 109 140 172 217 267 316
#     4  11  21  33  51  76 107 146 180 209 249 310
#     4   9  18  32  54  77 101 134 175 220 262 307
#     4   9  18  34  53  77 106 138 176 219 260 303
#
# _framework density 18.294639
#
# number of rings (size 3 to 8) (size 9 to 14) (size 15 to 20)
#    0.000    2.200    0.000    5.100    0.000    5.600 
#    0.000    2.500    0.000    1.200    0.000    0.000 
#    0.000    0.000    0.000    0.000    0.000    0.000 
#
# Total GULP energy -247987.270006 kJ/mol
# GULP energy per Si atom -12399.363500 kJ/mol
# Density = 1.825300 g / cm^3
# Si number density = 18.294639 Si / 1000 Ang^3
#
#
#
# Elastic Constant Matrix: (Units=GPa)
#
#
# Indices 1 2 3 4 5 6 
#
# 1 70.5586 36.9063 20.4093 0.0000 0.0000 0.0000
# 2 36.9063 184.0161 68.4599 0.0000 0.0000 0.0000
# 3 20.4093 68.4599 108.7545 0.0000 0.0000 0.0000
# 4 0.0000 0.0000 0.0000 10.8347 0.0000 0.0000
# 5 0.0000 0.0000 0.0000 0.0000 229.4040 0.0000
# 6 0.0000 0.0000 0.0000 0.0000 0.0000 26.9190
#
#
#
# Elastic Compliance Matrix: (Units=1/GPa)
#
#
# Indices 1 2 3 4 5 6 
#
# 1 0.015969 -0.002726 -0.001281 0.000000 0.000000 0.000000
# 2 -0.002726 0.007562 -0.004248 0.000000 0.000000 0.000000
# 3 -0.001281 -0.004248 0.012110 0.000000 0.000000 0.000000
# 4 0.000000 0.000000 0.000000 0.092296 0.000000 0.000000
# 5 0.000000 0.000000 0.000000 0.000000 0.004359 0.000000
# 6 0.000000 0.000000 0.000000 0.000000 0.000000 0.037149
#
#
# Mechanical properties :
#
#
# Convention : Reuss Voigt Hill
#
# Bulk Modulus (GPa) = 52.27455 68.31999 60.29727
# Shear Modulus (GPa) = 25.99684 69.26845 47.63265
#
# Velocity S-wave (km/s) = 3.77372 6.15994 5.10812
# Velocity P-wave (km/s) = 6.90099 9.38182 8.23536
#
# Compressibility (1/GPa) = 0.01912977
#
# Stress axis : x y z
#
# Youngs Moduli (GPa) = 62.62106 132.24687 82.57888
#
# Poissons Ratio (x) = 0.36055 0.10575
# Poissons Ratio (y) = 0.17073 0.35082
# Poissons Ratio (z) = 0.08019 0.56183
#
# Static dielectric constant tensor:
#      x y z
#    x 2.947370 0.000000 0.000000 
#    y 0.000000 3.955280 0.000000 
#    z 0.000000 0.000000 3.323090 
# 
# 
# High freq. dielectric constant tensor:
#      x y z
#    x 1.703960 0.000000 0.000000 
#    y 0.000000 1.720990 0.000000 
#    z 0.000000 0.000000 1.692070 
# 
# From -- ./inp_files/23317.got.cif
#   From: 2010.03.12/outbox.cif.g09.slc.cpg/sg38_12_cif.got.tgz:23317.got - 2010.04.14 02:38:36.
