data_PCOD8177005
_publ_section_title
;
Structure prediction by ZEFSAII (Michael W. Deem and Ramdas Pophale) SiO2 
 PCOD8177005
Probable space group: C C C 2
;
_chemical_formula_sum "Si O2"
_cell_formula_units_Z 52
_cell_length_a 5.031222
_cell_length_b 26.011571
_cell_length_c 17.945316
_cell_angle_alpha 90.000000
_cell_angle_beta 90.000000
_cell_angle_gamma 90.000000
_cell_volume 2348.503294
_symmetry_space_group_name_H-M "C C C 2"
_symmetry_group_IT_number 37
_symmetry_cell_setting 'orthorhombic'
loop_
_space_group_symop_operation_xyz
x,y,z
-x,-y,z
-x,y,1/2+z
x,-y,1/2+z
1/2+x,1/2+y,z
1/2-x,1/2-y,z
1/2-x,1/2+y,1/2+z
1/2+x,1/2-y,1/2+z
loop_
_atom_site_type_symbol
_atom_site_label
_atom_site_fract_x
_atom_site_fract_y
_atom_site_fract_z
Si Si1 0.787320 0.191307 0.454640
Si Si2 0.500000 0.000000 0.682854
Si Si3 0.503829 0.281601 0.611441
Si Si4 0.465653 0.377552 0.697860
Si Si5 0.564481 0.089773 0.776600
Si Si6 0.631790 0.553151 0.570119
Si Si7 0.276311 0.124820 0.432230
O O1 0.750000 0.250000 0.424046
O O2 0.499485 0.165787 0.453252
O O3 0.880760 0.190053 0.539491
O O4 0.007415 0.156759 0.410604
O O5 0.668150 0.035526 0.740761
O O6 0.361379 0.039826 0.628190
O O7 0.250000 0.250000 0.584189
O O8 0.381065 0.321368 0.670417
O O9 0.750000 0.250000 0.647316
O O10 0.736125 0.367882 0.743418
O O11 0.547828 0.411725 0.624567
O O12 0.240226 0.399949 0.753265
O O13 0.608341 0.090092 0.865154
O O14 0.500000 0.500000 0.542065
O O15 0.731336 0.584795 0.499333
#
# Coordination Sequence:
#
# PCOD8177005 Si02
#       7
#     8   4   8   8   8   8   8
#     4  11  24  44  71 103 139 181 227 288 353 400
#     4  10  24  44  68  94 136 190 218 282 348 398
#     4  11  22  39  69 104 131 172 232 295 344 399
#     4  11  23  44  69  94 138 180 225 280 343 418
#     4  11  25  45  65  97 145 181 225 277 356 405
#     4  11  24  43  70 101 133 178 241 278 339 403
#     4  12  26  44  71 107 139 181 233 289 337 424
#
# _framework density 22.141760999999999
#
# number of rings (size 3 to 8) (size 9 to 14) (size 15 to 20)
#    0.000    0.923    3.077    4.154    6.462    0.615 
#    5.538    7.692    0.000    0.000    0.000    0.000 
#    0.000    0.000    0.000    0.000    0.000    0.000 
#
# Total GULP energy -322093.573347 kJ/mol
# GULP energy per Si atom -12388.214359 kJ/mol
# Density = 2.209137 g / cm^3
# Si number density = 22.141761 Si / 1000 Ang^3
#
#
#
# Elastic Constant Matrix: (Units=GPa)
#
#
# Indices 1 2 3 4 5 6 
#
# 1 105.3113 39.6079 25.2929 0.0000 0.0000 0.0000
# 2 39.6079 111.6049 59.7826 0.0000 0.0000 0.0000
# 3 25.2929 59.7826 120.0177 0.0000 0.0000 0.0000
# 4 0.0000 0.0000 0.0000 8.5859 0.0000 0.0000
# 5 0.0000 0.0000 0.0000 0.0000 26.0053 0.0000
# 6 0.0000 0.0000 0.0000 0.0000 0.0000 39.7980
#
#
#
# Elastic Compliance Matrix: (Units=1/GPa)
#
#
# Indices 1 2 3 4 5 6 
#
# 1 0.010981 -0.003625 -0.000509 0.000000 0.000000 0.000000
# 2 -0.003625 0.013417 -0.005920 0.000000 0.000000 0.000000
# 3 -0.000509 -0.005920 0.011388 0.000000 0.000000 0.000000
# 4 0.000000 0.000000 0.000000 0.116470 0.000000 0.000000
# 5 0.000000 0.000000 0.000000 0.000000 0.038454 0.000000
# 6 0.000000 0.000000 0.000000 0.000000 0.000000 0.025127
#
#
# Mechanical properties :
#
#
# Convention : Reuss Voigt Hill
#
# Bulk Modulus (GPa) = 63.77288 65.14455 64.45872
# Shear Modulus (GPa) = 20.73226 29.02785 24.88006
#
# Velocity S-wave (km/s) = 3.06329 3.62470 3.35576
# Velocity P-wave (km/s) = 6.43244 6.85590 6.64754
#
# Compressibility (1/GPa) = 0.01568065
#
# Stress axis : x y z
#
# Youngs Moduli (GPa) = 91.06587 74.52994 87.81227
#
# Poissons Ratio (x) = 0.27014 0.04467
# Poissons Ratio (y) = 0.33008 0.51981
# Poissons Ratio (z) = 0.04633 0.44118
#
# Static dielectric constant tensor:
#      x y z
#    x 4.142430 0.000000 0.000000 
#    y 0.000000 4.605970 0.000000 
#    z 0.000000 0.000000 3.814090 
# 
# 
# High freq. dielectric constant tensor:
#      x y z
#    x 1.875120 0.000000 0.000000 
#    y 0.000000 1.879110 0.000000 
#    z 0.000000 0.000000 1.857120 
# 
# From -- ./inp_files/13981.got.cif
#   From: 2010.03.12/outbox.cif.g09.slc.cpg/sg37_7_cif.got.tgz:13981.got - 2010.04.14 02:25:27.
