data_PCOD8177491
_publ_section_title
;
Structure prediction by ZEFSAII (Michael W. Deem and Ramdas Pophale) SiO2 
 PCOD8177491
Probable space group: A M M 2
;
_chemical_formula_sum "Si O2"
_cell_formula_units_Z 64
_cell_length_a 19.674672
_cell_length_b 8.680425
_cell_length_c 20.074754
_cell_angle_alpha 90.000000
_cell_angle_beta 90.000000
_cell_angle_gamma 90.000000
_cell_volume 3428.457120
_symmetry_space_group_name_H-M "A M M 2"
_symmetry_group_IT_number 38
_symmetry_cell_setting 'orthorhombic'
loop_
_space_group_symop_operation_xyz
x,y,z
-x,-y,z
-x,y,z
x,-y,z
x,1/2+y,1/2+z
-x,1/2-y,1/2+z
-x,1/2+y,1/2+z
x,1/2-y,1/2+z
loop_
_atom_site_type_symbol
_atom_site_label
_atom_site_fract_x
_atom_site_fract_y
_atom_site_fract_z
Si Si1 0.078193 0.819606 0.757300
Si Si2 0.156174 0.178066 0.136268
Si Si3 0.280626 0.318083 0.424618
Si Si4 0.571916 0.318835 0.428045
Si Si5 0.852206 0.179115 0.381571
Si Si6 0.281724 0.680877 0.070859
Si Si7 0.428577 0.819673 0.572812
Si Si8 0.921519 0.322320 0.503798
O O1 0.124105 0.727992 0.705599
O O2 0.102518 0.777020 0.830998
O O3 0.000000 0.769281 0.749268
O O4 0.087110 0.000000 0.745353
O O5 0.225238 0.271828 0.124074
O O6 0.101765 0.212751 0.078699
O O7 0.175504 0.000000 0.139873
O O8 0.268004 0.500000 0.419115
O O9 0.355720 0.268414 0.395743
O O10 0.226478 0.230755 0.378238
O O11 0.271286 0.271693 0.501846
O O12 0.500000 0.269844 0.391009
O O13 0.574103 0.500000 0.434884
O O14 0.570026 0.252733 0.500910
O O15 0.879434 0.212198 0.455486
O O16 0.858363 0.000000 0.364440
O O17 0.276569 0.500000 0.055177
O O18 0.355468 0.724550 0.104981
O O19 0.500000 0.768988 0.610533
O O20 0.430121 0.000000 0.562922
O O21 0.907962 0.500000 0.484609
O O22 0.000000 0.279149 0.498222
#
# Coordination Sequence:
#
# PCOD8177491 Si02
#       8
#     8   8   8   8   8   8   8   8
#     4  11  25  44  63  81 106 139 177 223 273 327
#     4  11  22  37  58  82 110 144 179 219 270 323
#     4  10  18  30  49  74 107 144 180 221 269 316
#     4   8  14  24  40  65  98 136 176 216 259 309
#     4  12  24  37  56  81 109 142 181 223 268 321
#     4  10  18  29  48  76 108 142 182 224 266 314
#     4   8  14  24  39  63  99 140 177 215 260 308
#     4  10  21  37  57  80 107 139 174 215 267 322
#
# _framework density 18.667289
#
# number of rings (size 3 to 8) (size 9 to 14) (size 15 to 20)
#    0.000    2.000    1.250    3.375    0.000    4.750 
#    0.000    0.000    0.000    0.000    0.000    0.875 
#    0.000    7.000    0.000    0.000    0.000    0.000 
#
# Total GULP energy -396467.557543 kJ/mol
# GULP energy per Si atom -12389.611173 kJ/mol
# Density = 1.862480 g / cm^3
# Si number density = 18.667289 Si / 1000 Ang^3
#
#
#
# Elastic Constant Matrix: (Units=GPa)
#
#
# Indices 1 2 3 4 5 6 
#
# 1 157.6529 32.9834 13.7182 0.0000 0.0000 0.0000
# 2 32.9834 37.1623 9.4484 0.0000 0.0000 0.0000
# 3 13.7182 9.4484 38.2678 0.0000 0.0000 0.0000
# 4 0.0000 0.0000 0.0000 23.4974 0.0000 0.0000
# 5 0.0000 0.0000 0.0000 0.0000 21.2719 0.0000
# 6 0.0000 0.0000 0.0000 0.0000 0.0000 23.3795
#
#
#
# Elastic Compliance Matrix: (Units=1/GPa)
#
#
# Indices 1 2 3 4 5 6 
#
# 1 0.007838 -0.006660 -0.001165 0.000000 0.000000 0.000000
# 2 -0.006660 0.034371 -0.006099 0.000000 0.000000 0.000000
# 3 -0.001165 -0.006099 0.028055 0.000000 0.000000 0.000000
# 4 0.000000 0.000000 0.000000 0.042558 0.000000 0.000000
# 5 0.000000 0.000000 0.000000 0.000000 0.047010 0.000000
# 6 0.000000 0.000000 0.000000 0.000000 0.000000 0.042773
#
#
# Mechanical properties :
#
#
# Convention : Reuss Voigt Hill
#
# Bulk Modulus (GPa) = 23.57631 38.37589 30.97610
# Shear Modulus (GPa) = 20.44224 25.42529 22.93377
#
# Velocity S-wave (km/s) = 3.31279 3.69456 3.50888
# Velocity P-wave (km/s) = 5.22398 6.22914 5.74857
#
# Compressibility (1/GPa) = 0.04241546
#
# Stress axis : x y z
#
# Youngs Moduli (GPa) = 127.58571 29.09441 35.64415
#
# Poissons Ratio (x) = 0.19378 0.04154
# Poissons Ratio (y) = 0.84975 0.21738
# Poissons Ratio (z) = 0.14867 0.17744
#
# Static dielectric constant tensor:
#      x y z
#    x 4.430700 0.000000 0.000000 
#    y 0.000000 3.324660 0.000000 
#    z 0.000000 0.000000 2.893910 
# 
# 
# High freq. dielectric constant tensor:
#      x y z
#    x 1.761700 0.000000 0.000000 
#    y 0.000000 1.729270 0.000000 
#    z 0.000000 0.000000 1.661770 
# 
# From -- ./inp_files/18847.got.cif
#   From: 2010.03.12/outbox.cif.g09.slc.cpg/sg38_10_cif.got.tgz:18847.got - 2010.04.14 02:38:36.
