data_PCOD8177603
_publ_section_title
;
Structure prediction by ZEFSAII (Michael W. Deem and Ramdas Pophale) SiO2 
 PCOD8177603
Probable space group: A M M 2
;
_chemical_formula_sum "Si O2"
_cell_formula_units_Z 64
_cell_length_a 9.246791
_cell_length_b 16.151067
_cell_length_c 22.946886
_cell_angle_alpha 90.000000
_cell_angle_beta 90.000000
_cell_angle_gamma 90.000000
_cell_volume 3427.015103
_symmetry_space_group_name_H-M "A M M 2"
_symmetry_group_IT_number 38
_symmetry_cell_setting 'orthorhombic'
loop_
_space_group_symop_operation_xyz
x,y,z
-x,-y,z
-x,y,z
x,-y,z
x,1/2+y,1/2+z
-x,1/2-y,1/2+z
-x,1/2+y,1/2+z
x,1/2-y,1/2+z
loop_
_atom_site_type_symbol
_atom_site_label
_atom_site_fract_x
_atom_site_fract_y
_atom_site_fract_z
Si Si1 0.827884 0.735327 0.843650
Si Si2 0.664591 0.909926 0.667810
Si Si3 0.334129 0.748441 0.729777
Si Si4 0.171921 0.645551 0.060032
Si Si5 0.828638 0.092912 0.431622
Si Si6 0.156557 0.904827 0.025251
Si Si7 0.171806 0.592855 0.396121
Si Si8 0.333623 0.303189 0.602255
O O1 0.765768 0.711833 0.780379
O O2 0.769153 0.664948 0.888448
O O3 0.771395 0.829123 0.857876
O O4 0.000000 0.733336 0.841753
O O5 0.500000 0.887007 0.648882
O O6 0.716357 0.842370 0.714715
O O7 0.762953 0.912591 0.610341
O O8 0.672854 0.000000 0.697751
O O9 0.500000 0.745651 0.750560
O O10 0.309880 0.694305 0.671637
O O11 0.236315 0.736194 0.069029
O O12 0.000000 0.646423 0.065804
O O13 0.222589 0.611971 0.997308
O O14 0.000000 0.094487 0.429104
O O15 0.773389 0.000000 0.414023
O O16 0.274942 0.887747 0.075127
O O17 0.000000 0.859530 0.035413
O O18 0.123633 0.000000 0.027089
O O19 0.219974 0.882808 0.961531
O O20 0.231637 0.500000 0.377887
O O21 0.000000 0.588845 0.393082
O O22 0.500000 0.288100 0.586935
#
# Coordination Sequence:
#
# PCOD8177603 Si02
#       8
#     8   8   8   8   8   8   8   8
#     4  10  19  32  52  73  94 128 171 210 246 288
#     4   9  18  33  51  72 102 135 161 193 246 307
#     4   9  20  36  49  65  94 132 169 204 246 293
#     4  10  18  30  52  78 102 128 161 202 248 301
#     4   9  18  32  50  74 102 129 160 204 259 309
#     4   9  17  31  53  79 104 129 160 201 249 303
#     4   8  15  29  49  75 106 133 156 191 246 306
#     4  10  20  34  51  71 100 136 167 201 252 305
#
# _framework density 18.675142999999998
#
# number of rings (size 3 to 8) (size 9 to 14) (size 15 to 20)
#    0.000    2.750    0.000    3.375    0.000    6.000 
#    0.000    3.750    0.000    4.875    0.000    0.000 
#    0.000    0.000    0.000    0.000    0.000    0.000 
#
# Total GULP energy -396493.701382 kJ/mol
# GULP energy per Si atom -12390.428168 kJ/mol
# Density = 1.863264 g / cm^3
# Si number density = 18.675143 Si / 1000 Ang^3
#
#
#
# Elastic Constant Matrix: (Units=GPa)
#
#
# Indices 1 2 3 4 5 6 
#
# 1 46.8428 20.0530 32.4896 0.0000 0.0000 0.0000
# 2 20.0530 55.8314 47.8697 0.0000 0.0000 0.0000
# 3 32.4896 47.8697 97.0738 0.0000 0.0000 0.0000
# 4 0.0000 0.0000 0.0000 18.3786 0.0000 0.0000
# 5 0.0000 0.0000 0.0000 0.0000 14.6852 0.0000
# 6 0.0000 0.0000 0.0000 0.0000 0.0000 17.3034
#
#
#
# Elastic Compliance Matrix: (Units=1/GPa)
#
#
# Indices 1 2 3 4 5 6 
#
# 1 0.028197 -0.003528 -0.007698 0.000000 0.000000 0.000000
# 2 -0.003528 0.031473 -0.014339 0.000000 0.000000 0.000000
# 3 -0.007698 -0.014339 0.019949 0.000000 0.000000 0.000000
# 4 0.000000 0.000000 0.000000 0.054411 0.000000 0.000000
# 5 0.000000 0.000000 0.000000 0.000000 0.068096 0.000000
# 6 0.000000 0.000000 0.000000 0.000000 0.000000 0.057792
#
#
# Mechanical properties :
#
#
# Convention : Reuss Voigt Hill
#
# Bulk Modulus (GPa) = 35.10084 44.50806 39.80445
# Shear Modulus (GPa) = 15.59850 16.69581 16.14716
#
# Velocity S-wave (km/s) = 2.89321 2.99325 2.94366
# Velocity P-wave (km/s) = 5.47697 5.98586 5.73706
#
# Compressibility (1/GPa) = 0.02848935
#
# Stress axis : x y z
#
# Youngs Moduli (GPa) = 35.46452 31.77374 50.12808
#
# Poissons Ratio (x) = 0.11208 0.38587
# Poissons Ratio (y) = 0.12510 0.71880
# Poissons Ratio (z) = 0.27300 0.45561
#
# Static dielectric constant tensor:
#      x y z
#    x 3.206770 0.000000 0.000000 
#    y 0.000000 3.639790 0.000000 
#    z 0.000000 0.000000 3.403800 
# 
# 
# High freq. dielectric constant tensor:
#      x y z
#    x 1.696540 0.000000 0.000000 
#    y 0.000000 1.726650 0.000000 
#    z 0.000000 0.000000 1.714230 
# 
# From -- ./inp_files/20097.got.cif
#   From: 2010.03.12/outbox.cif.g09.slc.cpg/sg38_11_cif.got.tgz:20097.got - 2010.04.14 02:38:36.
