data_PCOD8177720
_publ_section_title
;
Structure prediction by ZEFSAII (Michael W. Deem and Ramdas Pophale) SiO2 
 PCOD8177720
Probable space group: A M M 2
;
_chemical_formula_sum "Si O2"
_cell_formula_units_Z 56
_cell_length_a 8.898027
_cell_length_b 18.634567
_cell_length_c 17.393842
_cell_angle_alpha 90.000000
_cell_angle_beta 90.000000
_cell_angle_gamma 90.000000
_cell_volume 2884.088254
_symmetry_space_group_name_H-M "A M M 2"
_symmetry_group_IT_number 38
_symmetry_cell_setting 'orthorhombic'
loop_
_space_group_symop_operation_xyz
x,y,z
-x,-y,z
-x,y,z
x,-y,z
x,1/2+y,1/2+z
-x,1/2-y,1/2+z
-x,1/2+y,1/2+z
x,1/2-y,1/2+z
loop_
_atom_site_type_symbol
_atom_site_label
_atom_site_fract_x
_atom_site_fract_y
_atom_site_fract_z
Si Si1 0.671001 0.082854 0.320620
Si Si2 0.823399 0.803881 0.727308
Si Si3 0.176810 0.079564 0.608997
Si Si4 0.322646 0.164877 0.168309
Si Si5 0.177959 0.417530 0.526701
Si Si6 0.821764 0.806848 0.900828
Si Si7 0.177717 0.844115 0.458714
O O1 0.500000 0.102748 0.342058
O O2 0.725741 0.124912 0.245848
O O3 0.777871 0.102759 0.390604
O O4 0.688971 0.000000 0.301125
O O5 0.787848 0.880505 0.688734
O O6 0.742187 0.744774 0.674763
O O7 0.757474 0.808026 0.813860
O O8 0.000000 0.786390 0.726728
O O9 0.246059 0.124617 0.537792
O O10 0.000000 0.072886 0.596167
O O11 0.249158 0.000000 0.612041
O O12 0.500000 0.167369 0.156848
O O13 0.252595 0.122218 0.097787
O O14 0.232674 0.500000 0.521836
O O15 0.229091 0.377173 0.448290
O O16 0.000000 0.412996 0.537219
O O17 0.758093 0.735876 0.943493
O O18 0.000000 0.804085 0.895797
O O19 0.000000 0.840214 0.463515
#
# Coordination Sequence:
#
# PCOD8177720 Si02
#       7
#     8   8   8   8   8   8   8
#     4  10  21  35  51  74 106 140 173 217 271 322
#     4  10  19  35  59  82 110 145 184 227 273 330
#     4   9  18  31  51  81 112 141 174 218 270 321
#     4  11  22  37  56  79 111 147 186 230 279 335
#     4  10  21  37  58  84 113 146 187 233 281 334
#     4   9  18  33  55  83 110 139 177 226 275 319
#     4  10  18  32  53  77 106 138 175 215 260 318
#
# _framework density 19.416879999999999
#
# number of rings (size 3 to 8) (size 9 to 14) (size 15 to 20)
#    0.000    2.143    1.429    2.143    0.000    5.143 
#    0.000    6.429    0.000    1.286    0.000    0.000 
#    0.000    0.000    0.000    0.000    0.000    0.000 
#
# Total GULP energy -347198.456444 kJ/mol
# GULP energy per Si atom -12399.944873 kJ/mol
# Density = 1.937269 g / cm^3
# Si number density = 19.416880 Si / 1000 Ang^3
#
#
#
# Elastic Constant Matrix: (Units=GPa)
#
#
# Indices 1 2 3 4 5 6 
#
# 1 19.5083 21.3074 22.1416 0.0000 0.0000 0.0000
# 2 21.3074 154.3339 84.8959 0.0000 0.0000 0.0000
# 3 22.1416 84.8959 125.6429 0.0000 0.0000 0.0000
# 4 0.0000 0.0000 0.0000 30.3015 0.0000 0.0000
# 5 0.0000 0.0000 0.0000 0.0000 11.9161 0.0000
# 6 0.0000 0.0000 0.0000 0.0000 0.0000 13.2172
#
#
#
# Elastic Compliance Matrix: (Units=1/GPa)
#
#
# Indices 1 2 3 4 5 6 
#
# 1 0.065828 -0.004308 -0.008690 0.000000 0.000000 0.000000
# 2 -0.004308 0.010594 -0.006399 0.000000 0.000000 0.000000
# 3 -0.008690 -0.006399 0.013814 0.000000 0.000000 0.000000
# 4 0.000000 0.000000 0.000000 0.033002 0.000000 0.000000
# 5 0.000000 0.000000 0.000000 0.000000 0.083920 0.000000
# 6 0.000000 0.000000 0.000000 0.000000 0.000000 0.075659
#
#
# Mechanical properties :
#
#
# Convention : Reuss Voigt Hill
#
# Bulk Modulus (GPa) = 19.43910 61.79723 40.61817
# Shear Modulus (GPa) = 14.75971 22.49630 18.62800
#
# Velocity S-wave (km/s) = 2.76007 3.40751 3.10073
# Velocity P-wave (km/s) = 4.49338 6.88310 5.81238
#
# Compressibility (1/GPa) = 0.05144270
#
# Stress axis : x y z
#
# Youngs Moduli (GPa) = 15.19099 94.38962 72.38842
#
# Poissons Ratio (x) = 0.40666 0.62903
# Poissons Ratio (y) = 0.06545 0.46324
# Poissons Ratio (z) = 0.13200 0.60403
#
# Static dielectric constant tensor:
#      x y z
#    x 3.151950 0.000000 0.000000 
#    y 0.000000 3.832920 0.000000 
#    z 0.000000 0.000000 3.712980 
# 
# 
# High freq. dielectric constant tensor:
#      x y z
#    x 1.712070 0.000000 0.000000 
#    y 0.000000 1.768710 0.000000 
#    z 0.000000 0.000000 1.766760 
# 
# From -- ./inp_files/12410.got.cif
#   From: 2010.03.12/outbox.cif.g09.slc.cpg/sg38_7_cif.got.tgz:12410.got - 2010.04.14 02:38:36.
