data_PCOD8177779
_publ_section_title
;
Structure prediction by ZEFSAII (Michael W. Deem and Ramdas Pophale) SiO2 
 PCOD8177779
Probable space group: A M M 2
;
_chemical_formula_sum "Si O2"
_cell_formula_units_Z 48
_cell_length_a 14.132882
_cell_length_b 8.862528
_cell_length_c 20.357268
_cell_angle_alpha 90.000000
_cell_angle_beta 90.000000
_cell_angle_gamma 90.000000
_cell_volume 2549.810160
_symmetry_space_group_name_H-M "A M M 2"
_symmetry_group_IT_number 38
_symmetry_cell_setting 'orthorhombic'
loop_
_space_group_symop_operation_xyz
x,y,z
-x,-y,z
-x,y,z
x,-y,z
x,1/2+y,1/2+z
-x,1/2-y,1/2+z
-x,1/2+y,1/2+z
x,1/2-y,1/2+z
loop_
_atom_site_type_symbol
_atom_site_label
_atom_site_fract_x
_atom_site_fract_y
_atom_site_fract_z
Si Si1 0.308314 0.322255 0.538310
Si Si2 0.500000 0.819957 0.979894
Si Si3 0.694615 0.178404 0.293356
Si Si4 0.000000 0.830240 0.472828
Si Si5 0.500000 0.679427 0.329498
Si Si6 0.200275 0.179653 0.163583
Si Si7 0.000000 0.321090 0.612626
Si Si8 0.200546 0.827042 0.425199
O O1 0.316753 0.500000 0.543023
O O2 0.410140 0.253486 0.518947
O O3 0.270530 0.256827 0.607147
O O4 0.235184 0.281508 0.482108
O O5 0.500000 0.000000 0.978848
O O6 0.500000 0.761299 0.904803
O O7 0.592781 0.258367 0.292869
O O8 0.757511 0.237494 0.232343
O O9 0.754171 0.226342 0.357039
O O10 0.677914 0.000000 0.289188
O O11 0.000000 0.724040 0.536302
O O12 0.087990 0.803968 0.424013
O O13 0.000000 0.000000 0.501081
O O14 0.500000 0.500000 0.325885
O O15 0.093743 0.241300 0.150131
O O16 0.197727 0.000000 0.161876
O O17 0.000000 0.500000 0.614168
O O18 0.228668 0.000000 0.440081
#
# Coordination Sequence:
#
# PCOD8177779 Si02
#       8
#     8   4   8   4   4   8   4   8
#     4  10  18  33  55  79 105 137 179 223 265 311
#     4   9  18  30  51  79 105 134 172 219 265 309
#     4  10  21  37  55  80 112 145 178 220 270 324
#     4  10  20  33  51  79 111 145 178 216 268 322
#     4  11  21  36  57  81 107 142 182 223 273 323
#     4   9  19  33  55  83 109 138 178 225 269 315
#     4  10  18  33  57  83 105 137 182 226 268 314
#     4  10  20  33  52  78 108 142 179 217 264 319
#
# _framework density 18.824932
#
# number of rings (size 3 to 8) (size 9 to 14) (size 15 to 20)
#    0.000    2.167    3.333    0.250    0.000    1.333 
#    0.000    7.917    0.000    0.000    0.000    2.333 
#    0.000    0.000    0.000    0.000    0.000    0.000 
#
# Total GULP energy -297541.510905 kJ/mol
# GULP energy per Si atom -12397.562954 kJ/mol
# Density = 1.878209 g / cm^3
# Si number density = 18.824932 Si / 1000 Ang^3
#
#
#
# Elastic Constant Matrix: (Units=GPa)
#
#
# Indices 1 2 3 4 5 6 
#
# 1 149.5531 19.3329 54.7712 0.0000 0.0000 0.0000
# 2 19.3329 15.9945 14.2772 0.0000 0.0000 0.0000
# 3 54.7712 14.2772 123.4828 0.0000 0.0000 0.0000
# 4 0.0000 0.0000 0.0000 20.7238 0.0000 0.0000
# 5 0.0000 0.0000 0.0000 0.0000 37.6619 0.0000
# 6 0.0000 0.0000 0.0000 0.0000 0.0000 20.0697
#
#
#
# Elastic Compliance Matrix: (Units=1/GPa)
#
#
# Indices 1 2 3 4 5 6 
#
# 1 0.008812 -0.007987 -0.002985 0.000000 0.000000 0.000000
# 2 -0.007987 0.076956 -0.005355 0.000000 0.000000 0.000000
# 3 -0.002985 -0.005355 0.010042 0.000000 0.000000 0.000000
# 4 0.000000 0.000000 0.000000 0.048254 0.000000 0.000000
# 5 0.000000 0.000000 0.000000 0.000000 0.026552 0.000000
# 6 0.000000 0.000000 0.000000 0.000000 0.000000 0.049826
#
#
# Mechanical properties :
#
#
# Convention : Reuss Voigt Hill
#
# Bulk Modulus (GPa) = 15.83406 51.75479 33.79442
# Shear Modulus (GPa) = 18.23832 29.06769 23.65301
#
# Velocity S-wave (km/s) = 3.11599 3.93377 3.54852
# Velocity P-wave (km/s) = 4.62335 6.94155 5.89748
#
# Compressibility (1/GPa) = 0.06315501
#
# Stress axis : x y z
#
# Youngs Moduli (GPa) = 113.47668 12.99449 99.58580
#
# Poissons Ratio (x) = 0.10379 0.29729
# Poissons Ratio (y) = 0.90633 0.53329
# Poissons Ratio (z) = 0.33876 0.06959
#
# Static dielectric constant tensor:
#      x y z
#    x 3.866070 0.000000 0.000000 
#    y 0.000000 3.092290 0.000000 
#    z 0.000000 0.000000 3.567960 
# 
# 
# High freq. dielectric constant tensor:
#      x y z
#    x 1.751030 0.000000 0.000000 
#    y 0.000000 1.693670 0.000000 
#    z 0.000000 0.000000 1.726570 
# 
# From -- ./inp_files/18250.got.cif
#   From: 2010.03.12/outbox.cif.g09.slc.cpg/sg38_10_cif.got.tgz:18250.got - 2010.04.14 02:38:36.
