data_PCOD8177299
_publ_section_title
;
Structure prediction by ZEFSAII (Michael W. Deem and Ramdas Pophale) SiO2 
 PCOD8177299
Probable space group: A M M 2
;
_chemical_formula_sum "Si O2"
_cell_formula_units_Z 48
_cell_length_a 17.182790
_cell_length_b 9.054723
_cell_length_c 15.776103
_cell_angle_alpha 90.000000
_cell_angle_beta 90.000000
_cell_angle_gamma 90.000000
_cell_volume 2454.531356
_symmetry_space_group_name_H-M "A M M 2"
_symmetry_group_IT_number 38
_symmetry_cell_setting 'orthorhombic'
loop_
_space_group_symop_operation_xyz
x,y,z
-x,-y,z
-x,y,z
x,-y,z
x,1/2+y,1/2+z
-x,1/2-y,1/2+z
-x,1/2+y,1/2+z
x,1/2-y,1/2+z
loop_
_atom_site_type_symbol
_atom_site_label
_atom_site_fract_x
_atom_site_fract_y
_atom_site_fract_z
Si Si1 0.000000 0.161888 0.748340
Si Si2 0.164372 0.325411 0.266366
Si Si3 0.847153 0.827630 0.442124
Si Si4 0.328507 0.172933 0.693578
Si Si5 0.682244 0.172336 0.507715
Si Si6 0.000000 0.664726 0.450828
Si Si7 0.589923 0.173205 0.347573
O O1 0.083154 0.235543 0.722478
O O2 0.000000 0.159248 0.850021
O O3 0.000000 0.000000 0.707701
O O4 0.154333 0.500000 0.286670
O O5 0.178926 0.239078 0.352731
O O6 0.236950 0.294069 0.206225
O O7 0.774522 0.798127 0.503893
O O8 0.922942 0.750081 0.482482
O O9 0.865133 0.000000 0.430755
O O10 0.348603 0.231437 0.598726
O O11 0.381823 0.255868 0.760364
O O12 0.345324 0.000000 0.703209
O O13 0.635970 0.243634 0.428158
O O14 0.664769 0.000000 0.504171
O O15 0.000000 0.500000 0.489535
O O16 0.500000 0.210401 0.360965
O O17 0.605801 0.000000 0.340005
#
# Coordination Sequence:
#
# PCOD8177299 Si02
#       7
#     4   8   8   8   8   4   8
#     4   7  12  23  40  65  97 132 168 206 253 303
#     4   9  16  28  48  74 105 141 180 223 268 315
#     4  10  17  29  51  76 106 143 186 225 266 322
#     4  10  20  35  57  84 112 143 184 226 270 326
#     4   9  19  35  55  82 113 146 181 222 273 332
#     4   9  17  29  46  73 109 144 184 228 275 315
#     4  10  21  39  60  80 107 144 181 222 279 338
#
# _framework density 19.555667
#
# number of rings (size 3 to 8) (size 9 to 14) (size 15 to 20)
#    0.000    2.667    1.667    1.750    0.000    1.000 
#    0.000    5.000    0.000    4.000    0.000    0.000 
#    0.000    0.000    0.000    0.000    0.000    0.000 
#
# Total GULP energy -297383.818112 kJ/mol
# GULP energy per Si atom -12390.992421 kJ/mol
# Density = 1.951116 g / cm^3
# Si number density = 19.555667 Si / 1000 Ang^3
#
#
#
# Elastic Constant Matrix: (Units=GPa)
#
#
# Indices 1 2 3 4 5 6 
#
# 1 65.1612 42.8360 51.8044 0.0000 0.0000 0.0000
# 2 42.8360 59.1684 33.0766 0.0000 0.0000 0.0000
# 3 51.8044 33.0766 121.9517 0.0000 0.0000 0.0000
# 4 0.0000 0.0000 0.0000 20.2229 0.0000 0.0000
# 5 0.0000 0.0000 0.0000 0.0000 12.0311 0.0000
# 6 0.0000 0.0000 0.0000 0.0000 0.0000 27.0633
#
#
#
# Elastic Compliance Matrix: (Units=1/GPa)
#
#
# Indices 1 2 3 4 5 6 
#
# 1 0.037526 -0.021519 -0.010104 0.000000 0.000000 0.000000
# 2 -0.021519 0.032261 0.000391 0.000000 0.000000 0.000000
# 3 -0.010104 0.000391 0.012386 0.000000 0.000000 0.000000
# 4 0.000000 0.000000 0.000000 0.049449 0.000000 0.000000
# 5 0.000000 0.000000 0.000000 0.000000 0.083118 0.000000
# 6 0.000000 0.000000 0.000000 0.000000 0.000000 0.036950
#
#
# Mechanical properties :
#
#
# Convention : Reuss Voigt Hill
#
# Bulk Modulus (GPa) = 50.73848 55.74615 53.24231
# Shear Modulus (GPa) = 15.58968 19.76775 17.67872
#
# Velocity S-wave (km/s) = 2.82653 3.18283 3.00995
# Velocity P-wave (km/s) = 6.05428 6.48656 6.27415
#
# Compressibility (1/GPa) = 0.01970891
#
# Stress axis : x y z
#
# Youngs Moduli (GPa) = 26.64817 30.99677 80.73524
#
# Poissons Ratio (x) = 0.66702 0.81577
# Poissons Ratio (y) = 0.57344 -0.03157
# Poissons Ratio (z) = 0.26926 -0.01212
#
# Static dielectric constant tensor:
#      x y z
#    x 3.885820 0.000000 0.000000 
#    y 0.000000 3.331840 0.000000 
#    z 0.000000 0.000000 3.509850 
# 
# 
# High freq. dielectric constant tensor:
#      x y z
#    x 1.776130 0.000000 0.000000 
#    y 0.000000 1.727590 0.000000 
#    z 0.000000 0.000000 1.743120 
# 
# From -- ./inp_files/15045.got.cif
#   From: 2010.03.12/outbox.cif.g09.slc.cpg/sg38_8_cif.got.tgz:15045.got - 2010.04.14 02:38:36.
