data_PCOD8177719
_publ_section_title
;
Structure prediction by ZEFSAII (Michael W. Deem and Ramdas Pophale) SiO2 
 PCOD8177719
Probable space group: A M M 2
;
_chemical_formula_sum "Si O2"
_cell_formula_units_Z 40
_cell_length_a 8.666261
_cell_length_b 9.746602
_cell_length_c 25.972416
_cell_angle_alpha 90.000000
_cell_angle_beta 90.000000
_cell_angle_gamma 90.000000
_cell_volume 2193.801590
_symmetry_space_group_name_H-M "A M M 2"
_symmetry_group_IT_number 38
_symmetry_cell_setting 'orthorhombic'
loop_
_space_group_symop_operation_xyz
x,y,z
-x,-y,z
-x,y,z
x,-y,z
x,1/2+y,1/2+z
-x,1/2-y,1/2+z
-x,1/2+y,1/2+z
x,1/2-y,1/2+z
loop_
_atom_site_type_symbol
_atom_site_label
_atom_site_fract_x
_atom_site_fract_y
_atom_site_fract_z
Si Si1 0.816792 0.716308 0.818360
Si Si2 0.683809 0.000000 0.393415
Si Si3 0.683027 0.000000 0.509917
Si Si4 0.181978 0.500000 0.735792
Si Si5 0.683709 0.000000 0.844142
Si Si6 0.681271 0.000000 0.959460
Si Si7 0.817520 0.000000 0.120905
Si Si8 0.682655 0.291072 0.544253
O O1 0.748157 0.637817 0.867576
O O2 0.764919 0.635583 0.766800
O O3 0.746648 0.867558 0.814390
O O4 0.000000 0.721950 0.823851
O O5 0.500000 0.000000 0.390088
O O6 0.745633 0.000000 0.451813
O O7 0.740617 0.865715 0.540680
O O8 0.500000 0.000000 0.507027
O O9 0.253426 0.500000 0.678571
O O10 0.000000 0.500000 0.731402
O O11 0.500000 0.000000 0.843134
O O12 0.753485 0.000000 0.902368
O O13 0.500000 0.000000 0.952170
O O14 0.733783 0.134126 0.991322
O O15 0.760974 0.862172 0.093024
O O16 0.000000 0.000000 0.121740
O O17 0.500000 0.303406 0.551424
#
# Coordination Sequence:
#
# PCOD8177719 Si02
#       8
#     8   4   4   4   4   4   4   8
#     4  10  20  35  52  74 102 135 169 206 252 304
#     4  10  18  32  53  76 101 137 177 209 237 286
#     4   9  17  30  51  74 103 138 165 190 241 305
#     4   8  18  37  57  69  89 128 169 202 250 312
#     4  11  20  32  51  78 107 136 167 204 243 291
#     4   8  15  28  47  68  99 137 167 189 227 288
#     4  10  19  35  55  73  91 122 167 212 250 294
#     4   9  17  32  51  73  98 130 166 199 237 292
#
# _framework density 18.233188999999999
#
# number of rings (size 3 to 8) (size 9 to 14) (size 15 to 20)
#    0.000    2.600    0.000    3.900    0.000    3.200 
#    0.000   17.500    0.000    3.600    0.000    0.000 
#    0.000    0.000    0.000    0.000    0.000    0.000 
#
# Total GULP energy -247963.329138 kJ/mol
# GULP energy per Si atom -12398.166457 kJ/mol
# Density = 1.819169 g / cm^3
# Si number density = 18.233189 Si / 1000 Ang^3
#
#
#
# Elastic Constant Matrix: (Units=GPa)
#
#
# Indices 1 2 3 4 5 6 
#
# 1 57.3591 37.0443 32.0869 0.0000 0.0000 0.0000
# 2 37.0443 185.7660 80.4801 0.0000 0.0000 0.0000
# 3 32.0869 80.4801 146.9397 0.0000 0.0000 0.0000
# 4 0.0000 0.0000 0.0000 153.4429 0.0000 0.0000
# 5 0.0000 0.0000 0.0000 0.0000 20.5907 0.0000
# 6 0.0000 0.0000 0.0000 0.0000 0.0000 27.6675
#
#
#
# Elastic Compliance Matrix: (Units=1/GPa)
#
#
# Indices 1 2 3 4 5 6 
#
# 1 0.020975 -0.002882 -0.003002 0.000000 0.000000 0.000000
# 2 -0.002882 0.007454 -0.003453 0.000000 0.000000 0.000000
# 3 -0.003002 -0.003453 0.009352 0.000000 0.000000 0.000000
# 4 0.000000 0.000000 0.000000 0.006517 0.000000 0.000000
# 5 0.000000 0.000000 0.000000 0.000000 0.048566 0.000000
# 6 0.000000 0.000000 0.000000 0.000000 0.000000 0.036143
#
#
# Mechanical properties :
#
#
# Convention : Reuss Voigt Hill
#
# Bulk Modulus (GPa) = 52.33736 76.58750 64.46243
# Shear Modulus (GPa) = 32.45705 56.37046 44.41375
#
# Velocity S-wave (km/s) = 4.22371 5.56628 4.94081
# Velocity P-wave (km/s) = 7.24935 9.13274 8.24500
#
# Compressibility (1/GPa) = 0.01910681
#
# Stress axis : x y z
#
# Youngs Moduli (GPa) = 47.67687 134.15787 106.92578
#
# Poissons Ratio (x) = 0.38668 0.32094
# Poissons Ratio (y) = 0.13742 0.36923
# Poissons Ratio (z) = 0.14310 0.46327
#
# Static dielectric constant tensor:
#      x y z
#    x 3.107470 0.000000 0.000000 
#    y 0.000000 3.504430 0.000000 
#    z 0.000000 0.000000 3.495390 
# 
# 
# High freq. dielectric constant tensor:
#      x y z
#    x 1.685700 0.000000 0.000000 
#    y 0.000000 1.715520 0.000000 
#    z 0.000000 0.000000 1.693230 
# 
# From -- ./inp_files/23318.got.cif
#   From: 2010.03.12/outbox.cif.g09.slc.cpg/sg38_12_cif.got.tgz:23318.got - 2010.04.14 02:38:36.
