data_PCOD8177195
_publ_section_title
;
Structure prediction by ZEFSAII (Michael W. Deem and Ramdas Pophale) SiO2 
 PCOD8177195
Probable space group: A M M 2
;
_chemical_formula_sum "Si O2"
_cell_formula_units_Z 60
_cell_length_a 25.607597
_cell_length_b 25.188811
_cell_length_c 5.251851
_cell_angle_alpha 90.000000
_cell_angle_beta 90.000000
_cell_angle_gamma 90.000000
_cell_volume 3387.574776
_symmetry_space_group_name_H-M "A M M 2"
_symmetry_group_IT_number 38
_symmetry_cell_setting 'orthorhombic'
loop_
_space_group_symop_operation_xyz
x,y,z
-x,-y,z
-x,y,z
x,-y,z
x,1/2+y,1/2+z
-x,1/2-y,1/2+z
-x,1/2+y,1/2+z
x,1/2-y,1/2+z
loop_
_atom_site_type_symbol
_atom_site_label
_atom_site_fract_x
_atom_site_fract_y
_atom_site_fract_z
Si Si1 0.704007 0.940658 0.199730
Si Si2 0.105873 0.811258 0.676141
Si Si3 0.500000 0.714266 0.200296
Si Si4 0.419696 0.559413 0.700172
Si Si5 0.221014 0.715854 0.166494
Si Si6 0.061369 0.306774 0.676205
Si Si7 0.579579 0.378113 0.199886
Si Si8 0.703439 0.621345 0.199458
O O1 0.642136 0.943917 0.201280
O O2 0.723237 0.910103 0.450869
O O3 0.727731 0.000000 0.200655
O O4 0.722904 0.910665 0.946725
O O5 0.167995 0.818180 0.693543
O O6 0.090612 0.749398 0.656693
O O7 0.082785 0.838960 0.421340
O O8 0.077996 0.838412 0.920615
O O9 0.500000 0.749960 0.450431
O O10 0.447759 0.678902 0.200223
O O11 0.443258 0.500000 0.699918
O O12 0.439240 0.589802 0.448782
O O13 0.439432 0.589841 0.951162
O O14 0.223122 0.760184 0.384139
O O15 0.270809 0.678809 0.203590
O O16 0.000000 0.297530 0.694078
O O17 0.641533 0.369531 0.199296
#
# Coordination Sequence:
#
# PCOD8177195 Si02
#       8
#     8   8   4   8   8   8   8   8
#     4   9  17  33  54  77 100 123 154 201 247 302
#     4  10  16  27  37  56  83 117 159 202 230 268
#     4  12  26  42  59  70  97 140 176 212 252 270
#     4   9  17  33  59  83 107 126 141 185 258 313
#     4  12  21  33  45  63  98 136 166 207 236 276
#     4  10  16  25  41  58  79 114 170 205 227 275
#     4  10  21  38  54  78 102 123 167 208 235 302
#     4  10  21  33  53  77  96 127 169 200 245 296
#
# _framework density 17.711787000000001
#
# number of rings (size 3 to 8) (size 9 to 14) (size 15 to 20)
#    0.000    1.867    2.667    4.400    0.000    4.267 
#    0.000    2.000    0.000    0.000    0.000    0.000 
#    0.000    0.000    0.000    0.000    0.000   77.333 
#
# Total GULP energy -371928.969588 kJ/mol
# GULP energy per Si atom -12397.632320 kJ/mol
# Density = 1.767147 g / cm^3
# Si number density = 17.711787 Si / 1000 Ang^3
#
#
#
# Elastic Constant Matrix: (Units=GPa)
#
#
# Indices 1 2 3 4 5 6 
#
# 1 68.6232 28.1428 24.6192 0.0000 0.0000 0.0000
# 2 28.1428 78.1678 48.6429 0.0000 0.0000 0.0000
# 3 24.6192 48.6429 175.9382 0.0000 0.0000 0.0000
# 4 0.0000 0.0000 0.0000 23.5049 0.0000 0.0000
# 5 0.0000 0.0000 0.0000 0.0000 9.1739 0.0000
# 6 0.0000 0.0000 0.0000 0.0000 0.0000 0.5348
#
#
#
# Elastic Compliance Matrix: (Units=1/GPa)
#
#
# Indices 1 2 3 4 5 6 
#
# 1 0.017199 -0.005670 -0.000839 0.000000 0.000000 0.000000
# 2 -0.005670 0.017321 -0.003995 0.000000 0.000000 0.000000
# 3 -0.000839 -0.003995 0.006906 0.000000 0.000000 0.000000
# 4 0.000000 0.000000 0.000000 0.042544 0.000000 0.000000
# 5 0.000000 0.000000 0.000000 0.000000 0.109005 0.000000
# 6 0.000000 0.000000 0.000000 0.000000 0.000000 1.869700
#
#
# Mechanical properties :
#
#
# Convention : Reuss Voigt Hill
#
# Bulk Modulus (GPa) = 48.98005 58.39322 53.68663
# Shear Modulus (GPa) = 2.39179 21.39768 11.89473
#
# Velocity S-wave (km/s) = 1.16332 3.47955 2.59428
# Velocity P-wave (km/s) = 5.43308 7.01307 6.27302
#
# Compressibility (1/GPa) = 0.02041648
#
# Stress axis : x y z
#
# Youngs Moduli (GPa) = 58.14423 57.73469 144.80497
#
# Poissons Ratio (x) = 0.32735 0.12149
# Poissons Ratio (y) = 0.32967 0.57855
# Poissons Ratio (z) = 0.04878 0.23067
#
# Static dielectric constant tensor:
#      x y z
#    x 3.090500 0.000000 0.000000 
#    y 0.000000 2.940520 0.000000 
#    z 0.000000 0.000000 5.299400 
# 
# 
# High freq. dielectric constant tensor:
#      x y z
#    x 1.669880 0.000000 0.000000 
#    y 0.000000 1.630720 0.000000 
#    z 0.000000 0.000000 1.722080 
# 
# From -- ./inp_files/2135.got.cif
#   From: 2010.03.12/outbox.cif.g09.slc.cpg/sg38_2_cif.got.tgz:2135.got - 2010.04.14 02:38:36.
