data_PCOD8177605
_publ_section_title
;
Structure prediction by ZEFSAII (Michael W. Deem and Ramdas Pophale) SiO2 
 PCOD8177605
Probable space group: A M M 2
;
_chemical_formula_sum "Si O2"
_cell_formula_units_Z 40
_cell_length_a 8.752915
_cell_length_b 9.779132
_cell_length_c 25.874465
_cell_angle_alpha 90.000000
_cell_angle_beta 90.000000
_cell_angle_gamma 90.000000
_cell_volume 2214.748408
_symmetry_space_group_name_H-M "A M M 2"
_symmetry_group_IT_number 38
_symmetry_cell_setting 'orthorhombic'
loop_
_space_group_symop_operation_xyz
x,y,z
-x,-y,z
-x,y,z
x,-y,z
x,1/2+y,1/2+z
-x,1/2-y,1/2+z
-x,1/2+y,1/2+z
x,1/2-y,1/2+z
loop_
_atom_site_type_symbol
_atom_site_label
_atom_site_fract_x
_atom_site_fract_y
_atom_site_fract_z
Si Si1 0.318046 0.788047 0.545320
Si Si2 0.681337 0.500000 0.694974
Si Si3 0.682094 0.000000 0.744930
Si Si4 0.680368 0.000000 0.463769
Si Si5 0.820174 0.717683 0.768274
Si Si6 0.680874 0.500000 0.128371
Si Si7 0.681843 0.000000 0.077005
Si Si8 0.824683 0.500000 0.853421
O O1 0.500000 0.787090 0.544958
O O2 0.257091 0.865192 0.493909
O O3 0.262545 0.866493 0.597087
O O4 0.253245 0.633702 0.547468
O O5 0.500000 0.500000 0.700545
O O6 0.746283 0.637580 0.720405
O O7 0.736781 0.500000 0.636033
O O8 0.745823 0.133301 0.774038
O O9 0.747543 0.000000 0.686275
O O10 0.500000 0.000000 0.747463
O O11 0.500000 0.000000 0.467075
O O12 0.726580 0.000000 0.404793
O O13 0.784217 0.635105 0.820728
O O14 0.000000 0.728821 0.758705
O O15 0.500000 0.500000 0.132563
O O16 0.500000 0.000000 0.075906
O O17 0.000000 0.500000 0.869844
#
# Coordination Sequence:
#
# PCOD8177605 Si02
#       8
#     8   4   4   4   8   4   4   4
#     4   8  14  25  42  68  98 126 154 190 240 294
#     4  10  18  30  52  79 102 134 178 214 236 276
#     4  11  20  31  52  81 106 131 166 209 244 284
#     4   9  17  30  51  72  90 117 158 207 250 285
#     4  10  21  36  51  71 102 139 169 201 254 312
#     4   8  14  25  42  67 100 130 156 186 230 285
#     4   9  15  24  43  71 102 129 156 195 243 289
#     4   9  20  38  56  68  88 129 172 203 247 309
#
# _framework density 18.060742000000001
#
# number of rings (size 3 to 8) (size 9 to 14) (size 15 to 20)
#    0.000    2.800    0.000    4.200    0.000    5.600 
#    0.000    1.000    0.000   13.200    0.000    0.000 
#    0.000    0.000    0.000    0.000    0.000    0.000 
#
# Total GULP energy -247916.077073 kJ/mol
# GULP energy per Si atom -12395.803854 kJ/mol
# Density = 1.801964 g / cm^3
# Si number density = 18.060742 Si / 1000 Ang^3
#
#
#
# Elastic Constant Matrix: (Units=GPa)
#
#
# Indices 1 2 3 4 5 6 
#
# 1 47.9038 35.1441 29.2574 0.0000 0.0000 0.0000
# 2 35.1441 183.5184 67.4586 0.0000 0.0000 0.0000
# 3 29.2574 67.4586 111.0138 0.0000 0.0000 0.0000
# 4 0.0000 0.0000 0.0000 16.1032 0.0000 0.0000
# 5 0.0000 0.0000 0.0000 0.0000 0.6356 0.0000
# 6 0.0000 0.0000 0.0000 0.0000 0.0000 22.4528
#
#
#
# Elastic Compliance Matrix: (Units=1/GPa)
#
#
# Indices 1 2 3 4 5 6 
#
# 1 0.026262 -0.003200 -0.004977 0.000000 0.000000 0.000000
# 2 -0.003200 0.007406 -0.003657 0.000000 0.000000 0.000000
# 3 -0.004977 -0.003657 0.012542 0.000000 0.000000 0.000000
# 4 0.000000 0.000000 0.000000 0.062099 0.000000 0.000000
# 5 0.000000 0.000000 0.000000 0.000000 1.573202 0.000000
# 6 0.000000 0.000000 0.000000 0.000000 0.000000 0.044538
#
#
# Mechanical properties :
#
#
# Convention : Reuss Voigt Hill
#
# Bulk Modulus (GPa) = 44.36060 67.35067 55.85563
# Shear Modulus (GPa) = 2.84539 21.87675 12.36107
#
# Velocity S-wave (km/s) = 1.25653 3.48413 2.61897
# Velocity P-wave (km/s) = 5.16918 7.31831 6.33554
#
# Compressibility (1/GPa) = 0.02254253
#
# Stress axis : x y z
#
# Youngs Moduli (GPa) = 38.07731 135.02376 79.73331
#
# Poissons Ratio (x) = 0.43205 0.39683
# Poissons Ratio (y) = 0.12184 0.29159
# Poissons Ratio (z) = 0.18951 0.49379
#
# Static dielectric constant tensor:
#      x y z
#    x 2.960760 0.000000 0.000000 
#    y 0.000000 3.653560 0.000000 
#    z 0.000000 0.000000 3.259700 
# 
# 
# High freq. dielectric constant tensor:
#      x y z
#    x 1.664310 0.000000 0.000000 
#    y 0.000000 1.712070 0.000000 
#    z 0.000000 0.000000 1.684370 
# 
# From -- ./inp_files/23323.got.cif
#   From: 2010.03.12/outbox.cif.g09.slc.cpg/sg38_12_cif.got.tgz:23323.got - 2010.04.14 02:38:36.
