data_PCOD8177624
_publ_section_title
;
Structure prediction by ZEFSAII (Michael W. Deem and Ramdas Pophale) SiO2 
 PCOD8177624
Probable space group: A M M 2
;
_chemical_formula_sum "Si O2"
_cell_formula_units_Z 56
_cell_length_a 8.860932
_cell_length_b 22.416804
_cell_length_c 17.808246
_cell_angle_alpha 90.000000
_cell_angle_beta 90.000000
_cell_angle_gamma 90.000000
_cell_volume 3537.319145
_symmetry_space_group_name_H-M "A M M 2"
_symmetry_group_IT_number 38
_symmetry_cell_setting 'orthorhombic'
loop_
_space_group_symop_operation_xyz
x,y,z
-x,-y,z
-x,y,z
x,-y,z
x,1/2+y,1/2+z
-x,1/2-y,1/2+z
-x,1/2+y,1/2+z
x,1/2-y,1/2+z
loop_
_atom_site_type_symbol
_atom_site_label
_atom_site_fract_x
_atom_site_fract_y
_atom_site_fract_z
Si Si1 0.677234 0.226069 0.611230
Si Si2 0.819220 0.149363 0.072127
Si Si3 0.822732 0.849281 0.311116
Si Si4 0.833623 0.187546 0.470296
Si Si5 0.834186 0.322331 0.415390
Si Si6 0.179677 0.717103 0.261684
Si Si7 0.675333 0.569379 0.692585
O O1 0.500000 0.235546 0.613434
O O2 0.758259 0.289845 0.607859
O O3 0.719770 0.183848 0.540612
O O4 0.735439 0.194182 0.687285
O O5 0.763908 0.093614 0.120058
O O6 0.000000 0.153002 0.072592
O O7 0.756443 0.142607 0.985456
O O8 0.778009 0.852308 0.399639
O O9 0.777884 0.786001 0.275222
O O10 0.730539 0.900435 0.269210
O O11 0.000000 0.860764 0.300622
O O12 0.846796 0.254197 0.440395
O O13 0.000000 0.166439 0.496921
O O14 0.756713 0.322587 0.332744
O O15 0.000000 0.349829 0.404823
O O16 0.000000 0.709315 0.254105
O O17 0.500000 0.582721 0.681004
O O18 0.710969 0.500000 0.699178
#
# Coordination Sequence:
#
# PCOD8177624 Si02
#       7
#     8   8   8   8   8   8   8
#     4  11  19  25  38  64  92 118 144 173 213 261
#     4  10  18  31  47  60  79 112 151 188 220 254
#     4   9  17  30  48  63  79 111 152 187 219 254
#     4   8  15  28  43  60  81 110 146 179 212 256
#     4   7  13  25  42  61  79 104 141 178 213 252
#     4   9  15  26  43  62  85 114 143 176 214 257
#     4  11  23  34  44  63  90 117 147 185 227 267
#
# _framework density 15.831197
#
# number of rings (size 3 to 8) (size 9 to 14) (size 15 to 20)
#    0.000    2.714    1.429    4.714    0.000    1.714 
#    0.000    6.429    0.000    0.000    0.000    0.000 
#    0.000    1.143    0.000   10.857    0.000    6.286 
#
# Total GULP energy -346885.305447 kJ/mol
# GULP energy per Si atom -12388.760909 kJ/mol
# Density = 1.579516 g / cm^3
# Si number density = 15.831197 Si / 1000 Ang^3
#
#
#
# Elastic Constant Matrix: (Units=GPa)
#
#
# Indices 1 2 3 4 5 6 
#
# 1 67.4006 24.3129 49.5953 0.0000 0.0000 0.0000
# 2 24.3129 41.2103 40.0152 0.0000 0.0000 0.0000
# 3 49.5953 40.0152 154.1567 0.0000 0.0000 0.0000
# 4 0.0000 0.0000 0.0000 16.5304 0.0000 0.0000
# 5 0.0000 0.0000 0.0000 0.0000 11.6545 0.0000
# 6 0.0000 0.0000 0.0000 0.0000 0.0000 15.0756
#
#
#
# Elastic Compliance Matrix: (Units=1/GPa)
#
#
# Indices 1 2 3 4 5 6 
#
# 1 0.021187 -0.007863 -0.004775 0.000000 0.000000 0.000000
# 2 -0.007863 0.035361 -0.006649 0.000000 0.000000 0.000000
# 3 -0.004775 -0.006649 0.009749 0.000000 0.000000 0.000000
# 4 0.000000 0.000000 0.000000 0.060495 0.000000 0.000000
# 5 0.000000 0.000000 0.000000 0.000000 0.085803 0.000000
# 6 0.000000 0.000000 0.000000 0.000000 0.000000 0.066332
#
#
# Mechanical properties :
#
#
# Convention : Reuss Voigt Hill
#
# Bulk Modulus (GPa) = 36.07191 54.51270 45.29231
# Shear Modulus (GPa) = 15.30256 18.57504 16.93880
#
# Velocity S-wave (km/s) = 3.11240 3.42909 3.27458
# Velocity P-wave (km/s) = 5.97920 7.08426 6.55506
#
# Compressibility (1/GPa) = 0.02772240
#
# Stress axis : x y z
#
# Youngs Moduli (GPa) = 47.19951 28.27971 102.57317
#
# Poissons Ratio (x) = 0.22236 0.48980
# Poissons Ratio (y) = 0.37112 0.68203
# Poissons Ratio (z) = 0.22539 0.18804
#
# Static dielectric constant tensor:
#      x y z
#    x 2.881830 0.000000 0.000000 
#    y 0.000000 2.511400 0.000000 
#    z 0.000000 0.000000 3.584580 
# 
# 
# High freq. dielectric constant tensor:
#      x y z
#    x 1.596260 0.000000 0.000000 
#    y 0.000000 1.532390 0.000000 
#    z 0.000000 0.000000 1.633000 
# 
# From -- ./inp_files/17110.got.cif
#   From: 2010.03.12/outbox.cif.g09.slc.cpg/sg38_9_cif.got.tgz:17110.got - 2010.04.14 02:38:36.
