data_PCOD8177135
_publ_section_title
;
Structure prediction by ZEFSAII (Michael W. Deem and Ramdas Pophale) SiO2 
 PCOD8177135
Probable space group: C C C 2
;
_chemical_formula_sum "Si O2"
_cell_formula_units_Z 64
_cell_length_a 11.380458
_cell_length_b 29.108834
_cell_length_c 9.017343
_cell_angle_alpha 90.000000
_cell_angle_beta 90.000000
_cell_angle_gamma 90.000000
_cell_volume 2987.192013
_symmetry_space_group_name_H-M "C C C 2"
_symmetry_group_IT_number 37
_symmetry_cell_setting 'orthorhombic'
loop_
_space_group_symop_operation_xyz
x,y,z
-x,-y,z
-x,y,1/2+z
x,-y,1/2+z
1/2+x,1/2+y,z
1/2-x,1/2-y,z
1/2-x,1/2+y,1/2+z
1/2+x,1/2-y,1/2+z
loop_
_atom_site_type_symbol
_atom_site_label
_atom_site_fract_x
_atom_site_fract_y
_atom_site_fract_z
Si Si1 0.252106 0.696194 0.790940
Si Si2 0.713218 0.198589 0.126392
Si Si3 0.348214 0.374316 0.815393
Si Si4 0.762483 0.445536 0.748746
Si Si5 0.020559 0.656087 0.636700
Si Si6 0.994722 0.589674 0.866984
Si Si7 0.416961 0.369754 0.151496
Si Si8 0.214703 0.464228 0.910257
O O1 0.250000 0.750000 0.765886
O O2 0.143120 0.673676 0.702832
O O3 0.372798 0.677862 0.721770
O O4 0.257897 0.683329 0.964377
O O5 0.750000 0.250000 0.168515
O O6 0.762082 0.165860 0.256844
O O7 0.570287 0.197646 0.106683
O O8 0.448307 0.378907 0.690672
O O9 0.284562 0.422830 0.834187
O O10 0.403662 0.363358 0.975513
O O11 0.868306 0.419714 0.834413
O O12 0.655418 0.410865 0.729005
O O13 0.728469 0.488619 0.852311
O O14 0.791535 0.465215 0.587457
O O15 0.945961 0.624988 0.747906
O O16 0.042332 0.619023 0.509742
O O17 0.922003 0.542034 0.861753
#
# Coordination Sequence:
#
# PCOD8177135 Si02
#       8
#     8   8   8   8   8   8   8   8
#     4  11  25  44  67  99 136 177 225 280 338 405
#     4  11  25  43  67 100 134 176 229 277 340 405
#     4  11  25  45  68  93 131 175 224 278 334 405
#     4  11  25  42  65  97 132 172 220 277 334 407
#     4  12  22  42  69  95 136 179 215 280 340 399
#     4  12  22  41  67  96 135 172 221 269 343 401
#     4  11  24  46  66  94 131 176 224 275 337 398
#     4  11  25  41  64  98 131 173 221 274 339 400
#
# _framework density 21.424802
#
# number of rings (size 3 to 8) (size 9 to 14) (size 15 to 20)
#    0.000    0.750    5.000    1.875    3.500    4.000 
#    0.000    2.500    0.000    0.000    0.000    0.000 
#    0.000    0.000    0.000    0.000    0.000    0.000 
#
# Total GULP energy -396487.235639 kJ/mol
# GULP energy per Si atom -12390.226114 kJ/mol
# Density = 2.137604 g / cm^3
# Si number density = 21.424802 Si / 1000 Ang^3
#
#
#
# Elastic Constant Matrix: (Units=GPa)
#
#
# Indices 1 2 3 4 5 6 
#
# 1 81.6313 20.8311 21.9045 0.0000 0.0000 0.0000
# 2 20.8311 104.1837 45.6159 0.0000 0.0000 0.0000
# 3 21.9045 45.6159 119.6132 0.0000 0.0000 0.0000
# 4 0.0000 0.0000 0.0000 38.1210 0.0000 0.0000
# 5 0.0000 0.0000 0.0000 0.0000 36.1249 0.0000
# 6 0.0000 0.0000 0.0000 0.0000 0.0000 25.5879
#
#
#
# Elastic Compliance Matrix: (Units=1/GPa)
#
#
# Indices 1 2 3 4 5 6 
#
# 1 0.013188 -0.001896 -0.001692 0.000000 0.000000 0.000000
# 2 -0.001896 0.011795 -0.004151 0.000000 0.000000 0.000000
# 3 -0.001692 -0.004151 0.010253 0.000000 0.000000 0.000000
# 4 0.000000 0.000000 0.000000 0.026232 0.000000 0.000000
# 5 0.000000 0.000000 0.000000 0.000000 0.027682 0.000000
# 6 0.000000 0.000000 0.000000 0.000000 0.000000 0.039081
#
#
# Mechanical properties :
#
#
# Convention : Reuss Voigt Hill
#
# Bulk Modulus (GPa) = 50.61198 53.57015 52.09106
# Shear Modulus (GPa) = 33.26786 34.43855 33.85321
#
# Velocity S-wave (km/s) = 3.94480 4.01361 3.97935
# Velocity P-wave (km/s) = 6.66505 6.82179 6.74388
#
# Compressibility (1/GPa) = 0.01975817
#
# Stress axis : x y z
#
# Youngs Moduli (GPa) = 75.82609 84.78169 97.53106
#
# Poissons Ratio (x) = 0.16075 0.16502
# Poissons Ratio (y) = 0.14377 0.40485
# Poissons Ratio (z) = 0.12830 0.35192
#
# Static dielectric constant tensor:
#      x y z
#    x 3.806240 0.000000 0.000000 
#    y 0.000000 3.976190 0.000000 
#    z 0.000000 0.000000 3.998780 
# 
# 
# High freq. dielectric constant tensor:
#      x y z
#    x 1.837720 0.000000 0.000000 
#    y 0.000000 1.844010 0.000000 
#    z 0.000000 0.000000 1.856340 
# 
# From -- ./inp_files/3135.got.cif
#   From: 2010.03.12/outbox.cif.g09.slc.cpg/sg37_2_cif.got.tgz:3135.got - 2010.04.14 02:25:27.
