data_PCOD8177947
_publ_section_title
;
Structure prediction by ZEFSAII (Michael W. Deem and Ramdas Pophale) SiO2 
 PCOD8177947
Probable space group: A M M 2
;
_chemical_formula_sum "Si O2"
_cell_formula_units_Z 56
_cell_length_a 17.843920
_cell_length_b 9.054372
_cell_length_c 19.034206
_cell_angle_alpha 90.000000
_cell_angle_beta 90.000000
_cell_angle_gamma 90.000000
_cell_volume 3075.270812
_symmetry_space_group_name_H-M "A M M 2"
_symmetry_group_IT_number 38
_symmetry_cell_setting 'orthorhombic'
loop_
_space_group_symop_operation_xyz
x,y,z
-x,-y,z
-x,y,z
x,-y,z
x,1/2+y,1/2+z
-x,1/2-y,1/2+z
-x,1/2+y,1/2+z
x,1/2-y,1/2+z
loop_
_atom_site_type_symbol
_atom_site_label
_atom_site_fract_x
_atom_site_fract_y
_atom_site_fract_z
Si Si1 0.200050 0.671925 0.435600
Si Si2 0.811461 0.668007 0.163483
Si Si3 0.584489 0.162368 0.985471
Si Si4 0.252395 0.173343 0.296783
Si Si5 0.298930 0.334766 0.042759
Si Si6 0.913759 0.827877 0.052979
Si Si7 0.415999 0.829006 0.340611
O O1 0.204178 0.500000 0.415966
O O2 0.210558 0.766661 0.365749
O O3 0.264929 0.715793 0.489189
O O4 0.122975 0.711200 0.477254
O O5 0.834101 0.500000 0.181811
O O6 0.794151 0.756460 0.233496
O O7 0.734906 0.673232 0.119653
O O8 0.877833 0.738367 0.117507
O O9 0.500000 0.145388 0.007758
O O10 0.616395 0.275259 0.044561
O O11 0.622553 0.000000 0.986434
O O12 0.593970 0.229128 0.908307
O O13 0.342599 0.209631 0.292562
O O14 0.239627 0.000000 0.293783
O O15 0.292133 0.500000 0.011820
O O16 0.000000 0.782222 0.047816
O O17 0.902405 0.000000 0.069693
O O18 0.500000 0.798595 0.306598
O O19 0.411129 0.000000 0.362927
#
# Coordination Sequence:
#
# PCOD8177947 Si02
#       7
#     8   8   8   8   8   8   8
#     4  10  19  32  55  82 108 137 173 220 269 319
#     4  10  22  37  55  79 109 145 184 222 268 323
#     4  10  19  29  46  74 103 134 176 227 278 323
#     4  11  21  34  54  80 111 147 187 228 273 324
#     4  10  19  33  51  73 101 137 179 222 267 320
#     4   9  19  38  62  86 111 140 175 217 269 328
#     4   9  18  32  50  73 103 141 183 228 278 326
#
# _framework density 18.209779000000001
#
# number of rings (size 3 to 8) (size 9 to 14) (size 15 to 20)
#    0.000    2.143    1.429    2.143    0.000    4.000 
#    0.000    1.429    0.000    5.143    0.000    0.000 
#    0.000    0.000    0.000    0.000    0.000    0.000 
#
# Total GULP energy -346934.121737 kJ/mol
# GULP energy per Si atom -12390.504348 kJ/mol
# Density = 1.816833 g / cm^3
# Si number density = 18.209779 Si / 1000 Ang^3
#
#
#
# Elastic Constant Matrix: (Units=GPa)
#
#
# Indices 1 2 3 4 5 6 
#
# 1 108.4079 55.9573 51.3698 0.0000 0.0000 0.0000
# 2 55.9573 99.2179 49.0372 0.0000 0.0000 0.0000
# 3 51.3698 49.0372 91.3333 0.0000 0.0000 0.0000
# 4 0.0000 0.0000 0.0000 28.7474 0.0000 0.0000
# 5 0.0000 0.0000 0.0000 0.0000 22.6937 0.0000
# 6 0.0000 0.0000 0.0000 0.0000 0.0000 24.4732
#
#
#
# Elastic Compliance Matrix: (Units=1/GPa)
#
#
# Indices 1 2 3 4 5 6 
#
# 1 0.014605 -0.005686 -0.005162 0.000000 0.000000 0.000000
# 2 -0.005686 0.015933 -0.005356 0.000000 0.000000 0.000000
# 3 -0.005162 -0.005356 0.016728 0.000000 0.000000 0.000000
# 4 0.000000 0.000000 0.000000 0.034786 0.000000 0.000000
# 5 0.000000 0.000000 0.000000 0.000000 0.044065 0.000000
# 6 0.000000 0.000000 0.000000 0.000000 0.000000 0.040861
#
#
# Mechanical properties :
#
#
# Convention : Reuss Voigt Hill
#
# Bulk Modulus (GPa) = 67.30460 67.96531 67.63495
# Shear Modulus (GPa) = 24.46908 24.68918 24.57913
#
# Velocity S-wave (km/s) = 3.66967 3.68614 3.67792
# Velocity P-wave (km/s) = 7.41595 7.45127 7.43363
#
# Compressibility (1/GPa) = 0.01485783
#
# Stress axis : x y z
#
# Youngs Moduli (GPa) = 68.46798 62.76280 59.77985
#
# Poissons Ratio (x) = 0.35687 0.30857
# Poissons Ratio (y) = 0.38931 0.32021
# Poissons Ratio (z) = 0.35342 0.33618
#
# Static dielectric constant tensor:
#      x y z
#    x 3.670890 0.000000 0.000000 
#    y 0.000000 3.571230 0.000000 
#    z 0.000000 0.000000 3.111040 
# 
# 
# High freq. dielectric constant tensor:
#      x y z
#    x 1.705720 0.000000 0.000000 
#    y 0.000000 1.722280 0.000000 
#    z 0.000000 0.000000 1.675220 
# 
# From -- ./inp_files/18801.got.cif
#   From: 2010.03.12/outbox.cif.g09.slc.cpg/sg38_10_cif.got.tgz:18801.got - 2010.04.14 02:38:36.
