data_PCOD8177858
_publ_section_title
;
Structure prediction by ZEFSAII (Michael W. Deem and Ramdas Pophale) SiO2 
 PCOD8177858
Probable space group: A M M 2
;
_chemical_formula_sum "Si O2"
_cell_formula_units_Z 64
_cell_length_a 9.726398
_cell_length_b 18.366313
_cell_length_c 21.169256
_cell_angle_alpha 90.000000
_cell_angle_beta 90.000000
_cell_angle_gamma 90.000000
_cell_volume 3781.635036
_symmetry_space_group_name_H-M "A M M 2"
_symmetry_group_IT_number 38
_symmetry_cell_setting 'orthorhombic'
loop_
_space_group_symop_operation_xyz
x,y,z
-x,-y,z
-x,y,z
x,-y,z
x,1/2+y,1/2+z
-x,1/2-y,1/2+z
-x,1/2+y,1/2+z
x,1/2-y,1/2+z
loop_
_atom_site_type_symbol
_atom_site_label
_atom_site_fract_x
_atom_site_fract_y
_atom_site_fract_z
Si Si1 0.658053 0.917412 0.088530
Si Si2 0.845242 0.336917 0.215969
Si Si3 0.660765 0.361215 0.449635
Si Si4 0.844574 0.763598 0.491976
Si Si5 0.154823 0.206841 0.129531
Si Si6 0.649750 0.918283 0.626490
Si Si7 0.154377 0.917777 0.841790
Si Si8 0.845787 0.921067 0.509640
O O1 0.500000 0.903184 0.105407
O O2 0.746598 0.863031 0.131502
O O3 0.701040 0.000000 0.104340
O O4 0.684631 0.903838 0.014663
O O5 0.822444 0.253050 0.194062
O O6 0.729967 0.382946 0.183002
O O7 0.824643 0.353674 0.290016
O O8 0.000000 0.360594 0.195761
O O9 0.500000 0.350087 0.434605
O O10 0.735369 0.282947 0.452655
O O11 0.731391 0.408502 0.395437
O O12 0.814666 0.757176 0.567663
O O13 0.827201 0.847779 0.468092
O O14 0.000000 0.736521 0.477529
O O15 0.000000 0.176965 0.126360
O O16 0.500000 0.880526 0.616888
O O17 0.733011 0.914225 0.562622
O O18 0.626597 0.000000 0.647881
O O19 0.000000 0.909865 0.870040
O O20 0.171824 0.000000 0.813614
O O21 0.000000 0.918623 0.539005
O O22 0.826355 0.000000 0.473879
#
# Coordination Sequence:
#
# PCOD8177858 Si02
#       8
#     8   8   8   8   8   8   8   8
#     4   9  18  32  49  70  96 126 156 190 239 292
#     4  10  19  33  49  66  92 127 164 198 236 283
#     4  10  20  33  50  70  95 128 163 202 245 287
#     4   9  16  29  47  69  95 124 161 201 241 286
#     4   9  17  29  46  70  95 121 155 195 239 284
#     4  10  19  27  38  61  92 125 160 195 229 268
#     4  10  21  35  51  71  95 128 168 205 239 279
#     4   9  16  27  44  65  92 126 159 192 234 283
#
# _framework density 16.923897
#
# number of rings (size 3 to 8) (size 9 to 14) (size 15 to 20)
#    0.000    2.500    1.250    1.500    0.000    4.250 
#    0.000    0.000    0.000    0.000    0.000    0.875 
#    0.000    3.000    0.000    0.000    0.000    0.000 
#
# Total GULP energy -396475.867610 kJ/mol
# GULP energy per Si atom -12389.870863 kJ/mol
# Density = 1.688538 g / cm^3
# Si number density = 16.923897 Si / 1000 Ang^3
#
#
#
# Elastic Constant Matrix: (Units=GPa)
#
#
# Indices 1 2 3 4 5 6 
#
# 1 109.3515 54.7056 32.9720 0.0000 0.0000 0.0000
# 2 54.7056 114.1905 33.4924 0.0000 0.0000 0.0000
# 3 32.9720 33.4924 42.9880 0.0000 0.0000 0.0000
# 4 0.0000 0.0000 0.0000 24.7363 0.0000 0.0000
# 5 0.0000 0.0000 0.0000 0.0000 -34.5300 0.0000
# 6 0.0000 0.0000 0.0000 0.0000 0.0000 25.4583
#
#
#
# Elastic Compliance Matrix: (Units=1/GPa)
#
#
# Indices 1 2 3 4 5 6 
#
# 1 0.013422 -0.004421 -0.006850 0.000000 0.000000 0.000000
# 2 -0.004421 0.012807 -0.006588 0.000000 0.000000 0.000000
# 3 -0.006850 -0.006588 0.033649 0.000000 0.000000 0.000000
# 4 0.000000 0.000000 0.000000 0.040426 0.000000 0.000000
# 5 0.000000 0.000000 0.000000 0.000000 -0.028960 0.000000
# 6 0.000000 0.000000 0.000000 0.000000 0.000000 0.039280
#
#
# Mechanical properties :
#
#
# Convention : Reuss Voigt Hill
#
# Bulk Modulus (GPa) = 41.38935 56.54111 48.96523
# Shear Modulus (GPa) = 32.38435 12.82360 22.60398
#
# Velocity S-wave (km/s) = 4.37913 2.75566 3.65858
# Velocity P-wave (km/s) = 7.07661 6.60352 6.84415
#
# Compressibility (1/GPa) = 0.02416080
#
# Stress axis : x y z
#
# Youngs Moduli (GPa) = 74.50446 78.08013 29.71854
#
# Poissons Ratio (x) = 0.34518 0.20358
# Poissons Ratio (y) = 0.32938 0.19577
# Poissons Ratio (z) = 0.51039 0.51435
#
# Static dielectric constant tensor:
#      x y z
#    x 3.628290 0.000000 0.000000 
#    y 0.000000 3.368080 0.000000 
#    z 0.000000 0.000000 2.721610 
# 
# 
# High freq. dielectric constant tensor:
#      x y z
#    x 1.666340 0.000000 0.000000 
#    y 0.000000 1.655310 0.000000 
#    z 0.000000 0.000000 1.592310 
# 
# From -- ./inp_files/20030.got.cif
#   From: 2010.03.12/outbox.cif.g09.slc.cpg/sg38_11_cif.got.tgz:20030.got - 2010.04.14 02:38:36.
