data_PCOD8177901
_publ_section_title
;
Structure prediction by ZEFSAII (Michael W. Deem and Ramdas Pophale) SiO2 
 PCOD8177901
Probable space group: A M M 2
;
_chemical_formula_sum "Si O2"
_cell_formula_units_Z 64
_cell_length_a 9.392631
_cell_length_b 13.614213
_cell_length_c 33.864051
_cell_angle_alpha 90.000000
_cell_angle_beta 90.000000
_cell_angle_gamma 90.000000
_cell_volume 4330.307244
_symmetry_space_group_name_H-M "A M M 2"
_symmetry_group_IT_number 38
_symmetry_cell_setting 'orthorhombic'
loop_
_space_group_symop_operation_xyz
x,y,z
-x,-y,z
-x,y,z
x,-y,z
x,1/2+y,1/2+z
-x,1/2-y,1/2+z
-x,1/2+y,1/2+z
x,1/2-y,1/2+z
loop_
_atom_site_type_symbol
_atom_site_label
_atom_site_fract_x
_atom_site_fract_y
_atom_site_fract_z
Si Si1 0.157514 0.883343 0.664260
Si Si2 0.334157 0.388032 0.928815
Si Si3 0.834159 0.386361 0.311577
Si Si4 0.835209 0.113341 0.969467
Si Si5 0.165909 0.386036 0.075480
Si Si6 0.340093 0.882955 0.736224
Si Si7 0.165137 0.776007 0.890191
Si Si8 0.667268 0.222131 0.508611
O O1 0.203391 0.852804 0.620121
O O2 0.267147 0.840414 0.696487
O O3 0.000000 0.841812 0.673720
O O4 0.152424 0.000000 0.666797
O O5 0.500000 0.376796 0.919841
O O6 0.282997 0.500000 0.925244
O O7 0.250822 0.324601 0.896402
O O8 0.297740 0.351507 0.972784
O O9 0.799983 0.500000 0.320083
O O10 0.746303 0.345850 0.274321
O O11 0.784590 0.325005 0.349519
O O12 0.000000 0.371651 0.302277
O O13 0.801652 0.146926 0.924913
O O14 0.000000 0.132147 0.979881
O O15 0.794063 0.000000 0.973283
O O16 0.737896 0.172495 0.000177
O O17 0.203132 0.500000 0.069057
O O18 0.265250 0.321459 0.047908
O O19 0.000000 0.366990 0.066174
O O20 0.500000 0.841500 0.738381
O O21 0.339213 0.000000 0.735039
O O22 0.000000 0.748675 0.888919
O O23 0.500000 0.236420 0.514895
#
# Coordination Sequence:
#
# PCOD8177901 Si02
#       8
#     8   8   8   8   8   8   8   8
#     4   8  14  25  39  54  75 105 137 166 199 238
#     4   9  18  31  43  56  79 110 138 165 203 247
#     4   9  16  26  40  57  80 109 136 164 200 240
#     4   9  17  30  46  61  80 107 138 173 210 245
#     4   9  17  28  42  60  82 109 141 174 205 240
#     4   9  16  24  35  54  79 106 136 166 195 232
#     4   9  17  28  43  63  81 101 136 175 206 238
#     4  10  19  29  42  61  84 109 138 171 206 246
#
# _framework density 14.779551
#
# number of rings (size 3 to 8) (size 9 to 14) (size 15 to 20)
#    0.000    3.000    0.000    2.250    0.000    5.750 
#    0.000    1.250    0.000    2.250    0.000    0.000 
#    0.000    1.000    0.000    5.500    0.000    4.375 
#
# Total GULP energy -396766.515030 kJ/mol
# GULP energy per Si atom -12398.953595 kJ/mol
# Density = 1.474591 g / cm^3
# Si number density = 14.779551 Si / 1000 Ang^3
#
#
#
# Elastic Constant Matrix: (Units=GPa)
#
#
# Indices 1 2 3 4 5 6 
#
# 1 82.6503 45.8971 67.6585 0.0000 0.0000 0.0000
# 2 45.8971 79.4580 48.1211 0.0000 0.0000 0.0000
# 3 67.6585 48.1211 119.1850 0.0000 0.0000 0.0000
# 4 0.0000 0.0000 0.0000 18.6389 0.0000 0.0000
# 5 0.0000 0.0000 0.0000 0.0000 23.1644 0.0000
# 6 0.0000 0.0000 0.0000 0.0000 0.0000 19.6731
#
#
#
# Elastic Compliance Matrix: (Units=1/GPa)
#
#
# Indices 1 2 3 4 5 6 
#
# 1 0.025980 -0.008041 -0.011501 0.000000 0.000000 0.000000
# 2 -0.008041 0.019147 -0.003166 0.000000 0.000000 0.000000
# 3 -0.011501 -0.003166 0.016198 0.000000 0.000000 0.000000
# 4 0.000000 0.000000 0.000000 0.053651 0.000000 0.000000
# 5 0.000000 0.000000 0.000000 0.000000 0.043170 0.000000
# 6 0.000000 0.000000 0.000000 0.000000 0.000000 0.050831
#
#
# Mechanical properties :
#
#
# Convention : Reuss Voigt Hill
#
# Bulk Modulus (GPa) = 62.86290 67.18296 65.02293
# Shear Modulus (GPa) = 19.25321 20.26970 19.76145
#
# Velocity S-wave (km/s) = 3.61320 3.70735 3.66058
# Velocity P-wave (km/s) = 7.74810 7.99258 7.87129
#
# Compressibility (1/GPa) = 0.01590763
#
# Stress axis : x y z
#
# Youngs Moduli (GPa) = 38.49140 52.22616 61.73701
#
# Poissons Ratio (x) = 0.41996 0.71007
# Poissons Ratio (y) = 0.30952 0.19546
# Poissons Ratio (z) = 0.44271 0.16535
#
# Static dielectric constant tensor:
#      x y z
#    x 2.944010 0.000000 0.000000 
#    y 0.000000 2.586500 0.000000 
#    z 0.000000 0.000000 2.915060 
# 
# 
# High freq. dielectric constant tensor:
#      x y z
#    x 1.571020 0.000000 0.000000 
#    y 0.000000 1.521430 0.000000 
#    z 0.000000 0.000000 1.563930 
# 
# From -- ./inp_files/24771.got.cif
#   From: 2010.03.12/outbox.cif.g09.slc.cpg/sg38_13_cif.got.tgz:24771.got - 2010.04.14 02:38:36.
