data_PCOD8177892
_publ_section_title
;
Structure prediction by ZEFSAII (Michael W. Deem and Ramdas Pophale) SiO2 
 PCOD8177892
Probable space group: A M M 2
;
_chemical_formula_sum "Si O2"
_cell_formula_units_Z 64
_cell_length_a 14.299707
_cell_length_b 9.159344
_cell_length_c 31.251913
_cell_angle_alpha 90.000000
_cell_angle_beta 90.000000
_cell_angle_gamma 90.000000
_cell_volume 4093.248542
_symmetry_space_group_name_H-M "A M M 2"
_symmetry_group_IT_number 38
_symmetry_cell_setting 'orthorhombic'
loop_
_space_group_symop_operation_xyz
x,y,z
-x,-y,z
-x,y,z
x,-y,z
x,1/2+y,1/2+z
-x,1/2-y,1/2+z
-x,1/2+y,1/2+z
x,1/2-y,1/2+z
loop_
_atom_site_type_symbol
_atom_site_label
_atom_site_fract_x
_atom_site_fract_y
_atom_site_fract_z
Si Si1 0.789855 0.172811 0.156870
Si Si2 0.895435 0.674118 0.738401
Si Si3 0.109084 0.670636 0.414844
Si Si4 0.396072 0.332841 0.031019
Si Si5 0.889822 0.169053 0.070899
Si Si6 0.602854 0.827867 0.118092
Si Si7 0.204374 0.829675 0.492464
Si Si8 0.888963 0.837685 0.331733
O O1 0.830447 0.240796 0.200786
O O2 0.849292 0.225977 0.116017
O O3 0.681706 0.223469 0.151832
O O4 0.797600 0.000000 0.159814
O O5 0.898405 0.500000 0.736442
O O6 0.854468 0.720048 0.785088
O O7 0.000000 0.736346 0.731535
O O8 0.128590 0.500000 0.417446
O O9 0.169739 0.750100 0.450282
O O10 0.143836 0.727458 0.368651
O O11 0.000000 0.706714 0.422335
O O12 0.500000 0.295797 0.012547
O O13 0.391638 0.500000 0.046172
O O14 0.372927 0.236222 0.072026
O O15 0.316405 0.302500 0.995657
O O16 0.847352 0.266358 0.033595
O O17 0.000000 0.191250 0.071689
O O18 0.863245 0.000000 0.062728
O O19 0.500000 0.776521 0.134055
O O20 0.606619 0.000000 0.112278
O O21 0.180210 0.000000 0.488974
O O22 0.000000 0.846169 0.329479
O O23 0.848996 0.000000 0.341492
#
# Coordination Sequence:
#
# PCOD8177892 Si02
#       8
#     8   8   8   8   8   8   8   8
#     4   9  15  24  39  61  88 116 145 178 214 252
#     4   8  13  22  39  63  87 111 142 179 216 254
#     4  10  20  32  46  64  88 117 146 177 216 262
#     4   9  18  32  47  62  82 110 144 182 222 261
#     4  10  19  29  41  59  87 122 154 179 206 247
#     4   9  16  26  42  63  85 111 145 185 222 253
#     4  11  21  31  45  64  86 114 146 180 218 258
#     4   8  14  26  44  64  84 107 141 184 221 253
#
# _framework density 15.635503999999999
#
# number of rings (size 3 to 8) (size 9 to 14) (size 15 to 20)
#    0.000    2.750    1.250    2.250    0.000    4.500 
#    0.000    0.000    0.000    1.500    0.000    2.625 
#    0.000    5.000    0.000    0.000    0.000    0.000 
#
# Total GULP energy -396607.470974 kJ/mol
# GULP energy per Si atom -12393.983468 kJ/mol
# Density = 1.559992 g / cm^3
# Si number density = 15.635504 Si / 1000 Ang^3
#
#
#
# Elastic Constant Matrix: (Units=GPa)
#
#
# Indices 1 2 3 4 5 6 
#
# 1 94.8305 34.4080 67.2234 0.0000 0.0000 0.0000
# 2 34.4080 46.5127 42.8718 0.0000 0.0000 0.0000
# 3 67.2234 42.8718 139.3118 0.0000 0.0000 0.0000
# 4 0.0000 0.0000 0.0000 18.2551 0.0000 0.0000
# 5 0.0000 0.0000 0.0000 0.0000 9.8218 0.0000
# 6 0.0000 0.0000 0.0000 0.0000 0.0000 15.4020
#
#
#
# Elastic Compliance Matrix: (Units=1/GPa)
#
#
# Indices 1 2 3 4 5 6 
#
# 1 0.017623 -0.007257 -0.006271 0.000000 0.000000 0.000000
# 2 -0.007257 0.033001 -0.006654 0.000000 0.000000 0.000000
# 3 -0.006271 -0.006654 0.012252 0.000000 0.000000 0.000000
# 4 0.000000 0.000000 0.000000 0.054779 0.000000 0.000000
# 5 0.000000 0.000000 0.000000 0.000000 0.101814 0.000000
# 6 0.000000 0.000000 0.000000 0.000000 0.000000 0.064926
#
#
# Mechanical properties :
#
#
# Convention : Reuss Voigt Hill
#
# Bulk Modulus (GPa) = 44.41941 63.29571 53.85756
# Shear Modulus (GPa) = 15.04828 17.77258 16.41043
#
# Velocity S-wave (km/s) = 3.10569 3.37513 3.24321
# Velocity P-wave (km/s) = 6.42895 7.46717 6.96742
#
# Compressibility (1/GPa) = 0.02251268
#
# Stress axis : x y z
#
# Youngs Moduli (GPa) = 56.74258 30.30207 81.62173
#
# Poissons Ratio (x) = 0.21991 0.51182
# Poissons Ratio (y) = 0.41179 0.54310
# Poissons Ratio (z) = 0.35581 0.20163
#
# Static dielectric constant tensor:
#      x y z
#    x 3.165440 0.000000 0.000000 
#    y 0.000000 2.839770 0.000000 
#    z 0.000000 0.000000 3.183440 
# 
# 
# High freq. dielectric constant tensor:
#      x y z
#    x 1.586400 0.000000 0.000000 
#    y 0.000000 1.580730 0.000000 
#    z 0.000000 0.000000 1.590710 
# 
# From -- ./inp_files/25056.got.cif
#   From: 2010.03.12/outbox.cif.g09.slc.cpg/sg38_13_cif.got.tgz:25056.got - 2010.04.14 02:38:36.
