data_PCOD8177913
_publ_section_title
;
Structure prediction by ZEFSAII (Michael W. Deem and Ramdas Pophale) SiO2 
 PCOD8177913
Probable space group: A M M 2
;
_chemical_formula_sum "Si O2"
_cell_formula_units_Z 56
_cell_length_a 9.225436
_cell_length_b 18.373006
_cell_length_c 20.688105
_cell_angle_alpha 90.000000
_cell_angle_beta 90.000000
_cell_angle_gamma 90.000000
_cell_volume 3506.612923
_symmetry_space_group_name_H-M "A M M 2"
_symmetry_group_IT_number 38
_symmetry_cell_setting 'orthorhombic'
loop_
_space_group_symop_operation_xyz
x,y,z
-x,-y,z
-x,y,z
x,-y,z
x,1/2+y,1/2+z
-x,1/2-y,1/2+z
-x,1/2+y,1/2+z
x,1/2-y,1/2+z
loop_
_atom_site_type_symbol
_atom_site_label
_atom_site_fract_x
_atom_site_fract_y
_atom_site_fract_z
Si Si1 0.835609 0.349102 0.962150
Si Si2 0.830603 0.916842 0.599319
Si Si3 0.670021 0.083889 0.079127
Si Si4 0.668938 0.709730 0.147514
Si Si5 0.833001 0.709910 0.534116
Si Si6 0.327955 0.083152 0.345016
Si Si7 0.668291 0.851158 0.213542
O O1 0.730852 0.372005 0.905168
O O2 0.000000 0.371203 0.944782
O O3 0.787776 0.390907 0.027437
O O4 0.823201 0.261301 0.970788
O O5 0.746448 0.868885 0.653590
O O6 0.000000 0.905343 0.611063
O O7 0.783047 0.000000 0.608552
O O8 0.500000 0.101406 0.072224
O O9 0.759556 0.130344 0.025211
O O10 0.728988 0.106617 0.150391
O O11 0.704020 0.000000 0.066294
O O12 0.500000 0.697204 0.134593
O O13 0.739067 0.750720 0.087909
O O14 0.693882 0.763422 0.208995
O O15 0.000000 0.701996 0.555958
O O16 0.500000 0.089140 0.346441
O O17 0.261269 0.118045 0.279309
O O18 0.275719 0.000000 0.349422
O O19 0.500000 0.869984 0.216220
#
# Coordination Sequence:
#
# PCOD8177913 Si02
#       7
#     8   8   8   8   8   8   8
#     4   9  18  31  43  57  83 117 146 172 206 247
#     4   9  17  29  44  62  87 116 140 169 215 262
#     4   9  16  27  45  67  89 112 138 172 214 256
#     4   9  16  27  44  63  83 109 142 178 213 251
#     4   9  17  29  43  59  83 114 144 174 212 256
#     4  10  19  29  43  63  85 112 146 177 203 239
#     4   8  15  28  43  60  86 117 142 167 206 251
#
# _framework density 15.969827
#
# number of rings (size 3 to 8) (size 9 to 14) (size 15 to 20)
#    0.000    3.000    0.000    3.429    0.000    6.000 
#    0.000    3.571    0.000    3.429    0.000    1.000 
#    0.000    1.143    0.000    0.000    0.000    0.000 
#
# Total GULP energy -346956.202930 kJ/mol
# GULP energy per Si atom -12391.292962 kJ/mol
# Density = 1.593348 g / cm^3
# Si number density = 15.969827 Si / 1000 Ang^3
#
#
#
# Elastic Constant Matrix: (Units=GPa)
#
#
# Indices 1 2 3 4 5 6 
#
# 1 47.6999 50.9485 25.5214 0.0000 0.0000 0.0000
# 2 50.9485 138.4122 44.9447 0.0000 0.0000 0.0000
# 3 25.5214 44.9447 52.6782 0.0000 0.0000 0.0000
# 4 0.0000 0.0000 0.0000 23.6711 0.0000 0.0000
# 5 0.0000 0.0000 0.0000 0.0000 8.1574 0.0000
# 6 0.0000 0.0000 0.0000 0.0000 0.0000 28.8101
#
#
#
# Elastic Compliance Matrix: (Units=1/GPa)
#
#
# Indices 1 2 3 4 5 6 
#
# 1 0.037272 -0.010867 -0.008786 0.000000 0.000000 0.000000
# 2 -0.010867 0.013162 -0.005965 0.000000 0.000000 0.000000
# 3 -0.008786 -0.005965 0.028329 0.000000 0.000000 0.000000
# 4 0.000000 0.000000 0.000000 0.042246 0.000000 0.000000
# 5 0.000000 0.000000 0.000000 0.000000 0.122587 0.000000
# 6 0.000000 0.000000 0.000000 0.000000 0.000000 0.034710
#
#
# Mechanical properties :
#
#
# Convention : Reuss Voigt Hill
#
# Bulk Modulus (GPa) = 36.32716 53.51327 44.92021
# Shear Modulus (GPa) = 14.76161 19.95276 17.35719
#
# Velocity S-wave (km/s) = 3.04360 3.53853 3.30035
# Velocity P-wave (km/s) = 5.92858 7.09060 6.53547
#
# Compressibility (1/GPa) = 0.02752761
#
# Stress axis : x y z
#
# Youngs Moduli (GPa) = 26.82982 75.97890 35.29952
#
# Poissons Ratio (x) = 0.82563 0.31015
# Poissons Ratio (y) = 0.29155 0.21055
# Poissons Ratio (z) = 0.23573 0.45320
#
# Static dielectric constant tensor:
#      x y z
#    x 3.019570 0.000000 0.000000 
#    y 0.000000 3.597090 0.000000 
#    z 0.000000 0.000000 2.854700 
# 
# 
# High freq. dielectric constant tensor:
#      x y z
#    x 1.606820 0.000000 0.000000 
#    y 0.000000 1.623860 0.000000 
#    z 0.000000 0.000000 1.565730 
# 
# From -- ./inp_files/19983.got.cif
#   From: 2010.03.12/outbox.cif.g09.slc.cpg/sg38_10_cif.got.tgz:19983.got - 2010.04.14 02:38:36.
