data_PCOD8177428
_publ_section_title
;
Structure prediction by ZEFSAII (Michael W. Deem and Ramdas Pophale) SiO2 
 PCOD8177428
Probable space group: A M M 2
;
_chemical_formula_sum "Si O2"
_cell_formula_units_Z 48
_cell_length_a 9.242758
_cell_length_b 13.777320
_cell_length_c 23.700482
_cell_angle_alpha 90.000000
_cell_angle_beta 90.000000
_cell_angle_gamma 90.000000
_cell_volume 3018.029679
_symmetry_space_group_name_H-M "A M M 2"
_symmetry_group_IT_number 38
_symmetry_cell_setting 'orthorhombic'
loop_
_space_group_symop_operation_xyz
x,y,z
-x,-y,z
-x,y,z
x,-y,z
x,1/2+y,1/2+z
-x,1/2-y,1/2+z
-x,1/2+y,1/2+z
x,1/2-y,1/2+z
loop_
_atom_site_type_symbol
_atom_site_label
_atom_site_fract_x
_atom_site_fract_y
_atom_site_fract_z
Si Si1 0.333427 0.610295 0.088400
Si Si2 0.827936 0.718263 0.184665
Si Si3 0.668887 0.889026 0.132025
Si Si4 0.828562 0.107358 0.793568
Si Si5 0.829632 0.889363 0.919092
Si Si6 0.665586 0.710037 0.516499
O O1 0.500000 0.623545 0.107810
O O2 0.299121 0.500000 0.070811
O O3 0.231150 0.640868 0.139726
O O4 0.303500 0.678550 0.034311
O O5 0.760816 0.824517 0.175375
O O6 0.776229 0.683617 0.246586
O O7 0.000000 0.723539 0.179028
O O8 0.500000 0.869594 0.142957
O O9 0.709202 0.860171 0.068181
O O10 0.711858 0.000000 0.142406
O O11 0.777498 0.139998 0.856014
O O12 0.000000 0.100524 0.793166
O O13 0.765897 0.000000 0.779768
O O14 0.000000 0.879145 0.924897
O O15 0.781700 0.000000 0.932263
O O16 0.759664 0.814587 0.962332
O O17 0.500000 0.693766 0.499727
#
# Coordination Sequence:
#
# PCOD8177428 Si02
#       6
#     8   8   8   8   8   8
#     4   9  18  32  47  63  88 121 150 177 216 265
#     4  10  18  28  46  70  92 114 144 183 222 260
#     4   9  18  32  47  63  89 123 150 175 215 264
#     4   8  15  28  44  63  89 118 143 171 215 265
#     4   9  17  29  45  64  87 116 146 175 212 260
#     4   9  17  29  45  65  87 112 143 179 218 256
#
# _framework density 15.904417
#
# number of rings (size 3 to 8) (size 9 to 14) (size 15 to 20)
#    0.000    3.000    0.000    3.500    0.000    5.000 
#    0.000    1.667    0.000    3.000    0.000    4.667 
#    0.000    0.000    0.000    0.000    0.000    0.000 
#
# Total GULP energy -297521.517740 kJ/mol
# GULP energy per Si atom -12396.729906 kJ/mol
# Density = 1.586822 g / cm^3
# Si number density = 15.904417 Si / 1000 Ang^3
#
#
#
# Elastic Constant Matrix: (Units=GPa)
#
#
# Indices 1 2 3 4 5 6 
#
# 1 46.5740 42.5539 44.7407 0.0000 0.0000 0.0000
# 2 42.5539 133.0553 73.7929 0.0000 0.0000 0.0000
# 3 44.7407 73.7929 122.1108 0.0000 0.0000 0.0000
# 4 0.0000 0.0000 0.0000 25.4373 0.0000 0.0000
# 5 0.0000 0.0000 0.0000 0.0000 3.0141 0.0000
# 6 0.0000 0.0000 0.0000 0.0000 0.0000 24.8088
#
#
#
# Elastic Compliance Matrix: (Units=1/GPa)
#
#
# Indices 1 2 3 4 5 6 
#
# 1 0.036417 -0.006388 -0.009483 0.000000 0.000000 0.000000
# 2 -0.006388 0.012425 -0.005168 0.000000 0.000000 0.000000
# 3 -0.009483 -0.005168 0.014787 0.000000 0.000000 0.000000
# 4 0.000000 0.000000 0.000000 0.039312 0.000000 0.000000
# 5 0.000000 0.000000 0.000000 0.000000 0.331776 0.000000
# 6 0.000000 0.000000 0.000000 0.000000 0.000000 0.040308
#
#
# Mechanical properties :
#
#
# Convention : Reuss Voigt Hill
#
# Bulk Modulus (GPa) = 46.40032 69.32390 57.86211
# Shear Modulus (GPa) = 9.53677 20.02889 14.78283
#
# Velocity S-wave (km/s) = 2.45139 3.55255 3.05204
# Velocity P-wave (km/s) = 6.10330 7.77881 6.99143
#
# Compressibility (1/GPa) = 0.02155158
#
# Stress axis : x y z
#
# Youngs Moduli (GPa) = 27.45956 80.48413 67.62776
#
# Poissons Ratio (x) = 0.51411 0.64130
# Poissons Ratio (y) = 0.17541 0.34950
# Poissons Ratio (z) = 0.26040 0.41594
#
# Static dielectric constant tensor:
#      x y z
#    x 2.861200 0.000000 0.000000 
#    y 0.000000 3.108400 0.000000 
#    z 0.000000 0.000000 3.040890 
# 
# 
# High freq. dielectric constant tensor:
#      x y z
#    x 1.599190 0.000000 0.000000 
#    y 0.000000 1.606520 0.000000 
#    z 0.000000 0.000000 1.599540 
# 
# From -- ./inp_files/19618.got.cif
#   From: 2010.03.12/outbox.cif.g09.slc.cpg/sg38_10_cif.got.tgz:19618.got - 2010.04.14 02:38:36.
