data_PCOD8177794
_publ_section_title
;
Structure prediction by ZEFSAII (Michael W. Deem and Ramdas Pophale) SiO2 
 PCOD8177794
Probable space group: A M M 2
;
_chemical_formula_sum "Si O2"
_cell_formula_units_Z 64
_cell_length_a 23.903726
_cell_length_b 9.156483
_cell_length_c 15.376347
_cell_angle_alpha 90.000000
_cell_angle_beta 90.000000
_cell_angle_gamma 90.000000
_cell_volume 3365.483507
_symmetry_space_group_name_H-M "A M M 2"
_symmetry_group_IT_number 38
_symmetry_cell_setting 'orthorhombic'
loop_
_space_group_symop_operation_xyz
x,y,z
-x,-y,z
-x,y,z
x,-y,z
x,1/2+y,1/2+z
-x,1/2-y,1/2+z
-x,1/2+y,1/2+z
x,1/2-y,1/2+z
loop_
_atom_site_type_symbol
_atom_site_label
_atom_site_fract_x
_atom_site_fract_y
_atom_site_fract_z
Si Si1 0.436863 0.173270 0.255240
Si Si2 0.628798 0.833318 0.608177
Si Si3 0.254129 0.829957 0.864859
Si Si4 0.751687 0.168130 0.662740
Si Si5 0.637472 0.168576 0.414015
Si Si6 0.137329 0.827854 0.116722
Si Si7 0.135030 0.171594 0.921614
Si Si8 0.064144 0.173096 0.760841
O O1 0.500000 0.233463 0.259913
O O2 0.408011 0.230134 0.168139
O O3 0.404350 0.231232 0.340639
O O4 0.436361 0.000000 0.252199
O O5 0.694392 0.793911 0.613565
O O6 0.609243 0.810252 0.508622
O O7 0.619642 0.000000 0.638741
O O8 0.258023 0.797219 0.763236
O O9 0.304207 0.751820 0.913873
O O10 0.196102 0.762084 0.900640
O O11 0.259017 0.000000 0.885917
O O12 0.799393 0.272742 0.625631
O O13 0.769945 0.000000 0.649078
O O14 0.650553 0.000000 0.395885
O O15 0.096001 0.747462 0.181682
O O16 0.135940 0.000000 0.134534
O O17 0.116124 0.789512 0.019293
O O18 0.089799 0.230578 0.852111
O O19 0.140052 0.000000 0.908692
O O20 0.000000 0.222330 0.758314
O O21 0.070798 0.000000 0.751069
#
# Coordination Sequence:
#
# PCOD8177794 Si02
#       8
#     8   8   8   8   8   8   8   8
#     4  10  22  39  56  77 109 148 187 229 275 325
#     4  10  21  37  58  85 112 145 184 227 277 328
#     4  10  18  33  58  82 111 146 183 224 267 326
#     4  10  19  34  57  83 115 148 182 222 271 332
#     4  10  21  36  56  83 114 143 178 224 280 336
#     4  11  22  35  57  87 115 142 180 230 279 323
#     4   9  19  36  56  81 110 146 184 218 268 333
#     4  10  21  40  62  79 105 150 193 226 272 332
#
# _framework density 19.016583000000001
#
# number of rings (size 3 to 8) (size 9 to 14) (size 15 to 20)
#    0.000    2.000    2.500    1.125    0.000    3.000 
#    0.000    4.375    0.000    0.000    0.000    0.000 
#    0.000    0.000    0.000    0.000    0.000    0.000 
#
# Total GULP energy -396847.894275 kJ/mol
# GULP energy per Si atom -12401.496696 kJ/mol
# Density = 1.897330 g / cm^3
# Si number density = 19.016583 Si / 1000 Ang^3
#
#
#
# Elastic Constant Matrix: (Units=GPa)
#
#
# Indices 1 2 3 4 5 6 
#
# 1 122.2639 28.0148 59.9124 0.0000 0.0000 0.0000
# 2 28.0148 30.5734 28.8172 0.0000 0.0000 0.0000
# 3 59.9124 28.8172 122.6025 0.0000 0.0000 0.0000
# 4 0.0000 0.0000 0.0000 25.0367 0.0000 0.0000
# 5 0.0000 0.0000 0.0000 0.0000 12.5265 0.0000
# 6 0.0000 0.0000 0.0000 0.0000 0.0000 28.0847
#
#
#
# Elastic Compliance Matrix: (Units=1/GPa)
#
#
# Indices 1 2 3 4 5 6 
#
# 1 0.011788 -0.006901 -0.004139 0.000000 0.000000 0.000000
# 2 -0.006901 0.046057 -0.007453 0.000000 0.000000 0.000000
# 3 -0.004139 -0.007453 0.011931 0.000000 0.000000 0.000000
# 4 0.000000 0.000000 0.000000 0.039941 0.000000 0.000000
# 5 0.000000 0.000000 0.000000 0.000000 0.079831 0.000000
# 6 0.000000 0.000000 0.000000 0.000000 0.000000 0.035607
#
#
# Mechanical properties :
#
#
# Convention : Reuss Voigt Hill
#
# Bulk Modulus (GPa) = 30.49680 56.54762 43.52221
# Shear Modulus (GPa) = 18.31033 23.70926 21.00980
#
# Velocity S-wave (km/s) = 3.10637 3.53479 3.32748
# Velocity P-wave (km/s) = 5.37939 6.81617 6.13995
#
# Compressibility (1/GPa) = 0.03279032
#
# Stress axis : x y z
#
# Youngs Moduli (GPa) = 84.83012 21.71240 83.81757
#
# Poissons Ratio (x) = 0.14984 0.34688
# Poissons Ratio (y) = 0.58541 0.62471
# Poissons Ratio (z) = 0.35107 0.16183
#
# Static dielectric constant tensor:
#      x y z
#    x 3.557370 0.000000 0.000000 
#    y 0.000000 3.258270 0.000000 
#    z 0.000000 0.000000 3.641490 
# 
# 
# High freq. dielectric constant tensor:
#      x y z
#    x 1.737420 0.000000 0.000000 
#    y 0.000000 1.717230 0.000000 
#    z 0.000000 0.000000 1.754630 
# 
# From -- ./inp_files/15732.got.cif
#   From: 2010.03.12/outbox.cif.g09.slc.cpg/sg38_8_cif.got.tgz:15732.got - 2010.04.14 02:38:36.
