data_PCOD8177196
_publ_section_title
;
Structure prediction by ZEFSAII (Michael W. Deem and Ramdas Pophale) SiO2 
 PCOD8177196
Probable space group: A M M 2
;
_chemical_formula_sum "Si O2"
_cell_formula_units_Z 52
_cell_length_a 31.087108
_cell_length_b 14.980271
_cell_length_c 5.250359
_cell_angle_alpha 90.000000
_cell_angle_beta 90.000000
_cell_angle_gamma 90.000000
_cell_volume 2445.057022
_symmetry_space_group_name_H-M "A M M 2"
_symmetry_group_IT_number 38
_symmetry_cell_setting 'orthorhombic'
loop_
_space_group_symop_operation_xyz
x,y,z
-x,-y,z
-x,y,z
x,-y,z
x,1/2+y,1/2+z
-x,1/2-y,1/2+z
-x,1/2+y,1/2+z
x,1/2-y,1/2+z
loop_
_atom_site_type_symbol
_atom_site_label
_atom_site_fract_x
_atom_site_fract_y
_atom_site_fract_z
Si Si1 0.408789 0.807084 0.514410
Si Si2 0.500000 0.194894 0.414363
Si Si3 0.175481 0.846715 0.969199
Si Si4 0.046709 0.192772 0.509033
Si Si5 0.320214 0.895930 0.470463
Si Si6 0.271775 0.892998 0.970249
Si Si7 0.139065 0.854429 0.469175
O O1 0.405532 0.729382 0.302193
O O2 0.455185 0.857326 0.474028
O O3 0.370740 0.876433 0.470882
O O4 0.500000 0.222329 0.116747
O O5 0.226734 0.841294 0.975208
O O6 0.158536 0.900337 0.217040
O O7 0.153065 0.749688 0.967156
O O8 0.160105 0.900096 0.717614
O O9 0.050050 0.267825 0.292167
O O10 0.087618 0.128533 0.472778
O O11 0.000000 0.143564 0.481586
O O12 0.298388 0.857982 0.214430
O O13 0.313668 0.000000 0.471712
O O14 0.297113 0.857489 0.722030
O O15 0.265048 0.000000 0.970397
#
# Coordination Sequence:
#
# PCOD8177196 Si02
#       7
#     8   4   8   8   8   8   8
#     4  10  19  35  54  82 105 134 170 211 249 305
#     4   8  16  30  53  74 107 136 160 198 258 302
#     4  10  18  30  45  63  90 123 151 193 235 280
#     4  10  16  25  41  61  92 125 150 174 223 305
#     4  10  21  38  54  72 103 137 169 214 256 296
#     4  10  21  37  52  67  93 134 172 201 243 294
#     4  10  17  30  43  68  98 117 145 193 250 274
#
# _framework density 21.267399999999999
#
# number of rings (size 3 to 8) (size 9 to 14) (size 15 to 20)
#    0.000    2.154    3.077    1.846    0.000    0.000 
#   16.615    0.385    0.000    0.000    0.000    9.692 
#    0.000    6.769    0.000    0.000    0.000    0.000 
#
# Total GULP energy -322100.252371 kJ/mol
# GULP energy per Si atom -12388.471245 kJ/mol
# Density = 2.121899 g / cm^3
# Si number density = 21.267400 Si / 1000 Ang^3
#
#
#
# Elastic Constant Matrix: (Units=GPa)
#
#
# Indices 1 2 3 4 5 6 
#
# 1 222.2802 5.6706 65.1337 0.0000 0.0000 0.0000
# 2 5.6706 10.3534 1.9272 0.0000 0.0000 0.0000
# 3 65.1337 1.9272 189.7695 0.0000 0.0000 0.0000
# 4 0.0000 0.0000 0.0000 -0.1367 0.0000 0.0000
# 5 0.0000 0.0000 0.0000 0.0000 38.9394 0.0000
# 6 0.0000 0.0000 0.0000 0.0000 0.0000 -0.4812
#
#
#
# Elastic Compliance Matrix: (Units=1/GPa)
#
#
# Indices 1 2 3 4 5 6 
#
# 1 0.005063 -0.002454 -0.001713 0.000000 0.000000 0.000000
# 2 -0.002454 0.097959 -0.000152 0.000000 0.000000 0.000000
# 3 -0.001713 -0.000152 0.005859 0.000000 0.000000 0.000000
# 4 0.000000 0.000000 0.000000 -7.314790 0.000000 0.000000
# 5 0.000000 0.000000 0.000000 0.000000 0.025681 0.000000
# 6 0.000000 0.000000 0.000000 0.000000 0.000000 -2.078202
#
#
# Mechanical properties :
#
#
# Convention : Reuss Voigt Hill
#
# Bulk Modulus (GPa) = 9.97585 63.09625 36.53605
# Shear Modulus (GPa) = -0.54251 30.97574 15.21662
#
# Velocity S-wave (km/s) = -0.50561 3.82054 2.67777
# Velocity P-wave (km/s) = 2.08806 7.01388 5.17467
#
# Compressibility (1/GPa) = 0.10024213
#
# Stress axis : x y z
#
# Youngs Moduli (GPa) = 197.49657 10.20833 170.67679
#
# Poissons Ratio (x) = 0.02506 0.29236
# Poissons Ratio (y) = 0.48474 0.02601
# Poissons Ratio (z) = 0.33830 0.00156
#
# Static dielectric constant tensor:
#      x y z
#    x 4.321970 0.000000 0.000000 
#    y 0.000000 2.919410 0.000000 
#    z 0.000000 0.000000 5.850300 
# 
# 
# High freq. dielectric constant tensor:
#      x y z
#    x 1.861080 0.000000 0.000000 
#    y 0.000000 1.742920 0.000000 
#    z 0.000000 0.000000 1.873800 
# 
# From -- ./inp_files/2286.got.cif
#   From: 2010.03.12/outbox.cif.g09.slc.cpg/sg38_2_cif.got.tgz:2286.got - 2010.04.14 02:38:36.
