data_PCOD8177518
_publ_section_title
;
Structure prediction by ZEFSAII (Michael W. Deem and Ramdas Pophale) SiO2 
 PCOD8177518
Probable space group: A M M 2
;
_chemical_formula_sum "Si O2"
_cell_formula_units_Z 48
_cell_length_a 14.205688
_cell_length_b 9.376349
_cell_length_c 20.116475
_cell_angle_alpha 90.000000
_cell_angle_beta 90.000000
_cell_angle_gamma 90.000000
_cell_volume 2679.463947
_symmetry_space_group_name_H-M "A M M 2"
_symmetry_group_IT_number 38
_symmetry_cell_setting 'orthorhombic'
loop_
_space_group_symop_operation_xyz
x,y,z
-x,-y,z
-x,y,z
x,-y,z
x,1/2+y,1/2+z
-x,1/2-y,1/2+z
-x,1/2+y,1/2+z
x,1/2-y,1/2+z
loop_
_atom_site_type_symbol
_atom_site_label
_atom_site_fract_x
_atom_site_fract_y
_atom_site_fract_z
Si Si1 0.500000 0.830331 0.142890
Si Si2 0.186517 0.660815 0.564715
Si Si3 0.299709 0.329511 0.442126
Si Si4 0.694587 0.661115 0.695016
Si Si5 0.000000 0.671765 0.629743
Si Si6 0.000000 0.163960 0.766501
Si Si7 0.500000 0.830141 0.992395
Si Si8 0.204956 0.334041 0.307656
O O1 0.410771 0.778516 0.185903
O O2 0.500000 0.000000 0.136425
O O3 0.500000 0.767957 0.067694
O O4 0.160177 0.500000 0.545412
O O5 0.232146 0.735051 0.499917
O O6 0.263136 0.665159 0.621960
O O7 0.089991 0.733166 0.589812
O O8 0.297978 0.500000 0.445708
O O9 0.406950 0.275178 0.453135
O O10 0.257549 0.272630 0.372706
O O11 0.695579 0.500000 0.723228
O O12 0.753629 0.759567 0.743195
O O13 0.000000 0.733186 0.703577
O O14 0.000000 0.500000 0.637226
O O15 0.907421 0.194740 0.811319
O O16 0.000000 0.000000 0.741841
O O17 0.500000 0.000000 0.995027
O O18 0.226688 0.500000 0.300552
#
# Coordination Sequence:
#
# PCOD8177518 Si02
#       8
#     4   8   8   8   4   4   4   8
#     4   9  16  27  49  79 103 126 161 206 252 290
#     4   9  16  27  47  74  97 120 159 208 245 276
#     4   9  17  29  46  71 101 128 159 203 250 293
#     4  10  18  31  52  76 100 127 165 207 244 288
#     4  10  18  29  51  79  97 119 164 214 248 282
#     4  10  20  33  47  67 101 139 164 192 248 310
#     4   9  14  25  46  71  97 124 159 204 250 292
#     4  10  21  34  49  72 103 136 165 199 249 302
#
# _framework density 17.914031000000001
#
# number of rings (size 3 to 8) (size 9 to 14) (size 15 to 20)
#    0.000    2.500    3.333    0.000    0.000    1.333 
#    0.000    4.583    0.000    2.000    0.000    1.167 
#    0.000    0.000    0.000    0.000    0.000    0.000 
#
# Total GULP energy -297464.985915 kJ/mol
# GULP energy per Si atom -12394.374413 kJ/mol
# Density = 1.787326 g / cm^3
# Si number density = 17.914031 Si / 1000 Ang^3
#
#
#
# Elastic Constant Matrix: (Units=GPa)
#
#
# Indices 1 2 3 4 5 6 
#
# 1 144.4285 20.1491 39.5053 0.0000 0.0000 0.0000
# 2 20.1491 20.5234 21.0479 0.0000 0.0000 0.0000
# 3 39.5053 21.0479 86.5082 0.0000 0.0000 0.0000
# 4 0.0000 0.0000 0.0000 12.8926 0.0000 0.0000
# 5 0.0000 0.0000 0.0000 0.0000 33.2960 0.0000
# 6 0.0000 0.0000 0.0000 0.0000 0.0000 14.1895
#
#
#
# Elastic Compliance Matrix: (Units=1/GPa)
#
#
# Indices 1 2 3 4 5 6 
#
# 1 0.008391 -0.005740 -0.002435 0.000000 0.000000 0.000000
# 2 -0.005740 0.068852 -0.014131 0.000000 0.000000 0.000000
# 3 -0.002435 -0.014131 0.016110 0.000000 0.000000 0.000000
# 4 0.000000 0.000000 0.000000 0.077564 0.000000 0.000000
# 5 0.000000 0.000000 0.000000 0.000000 0.030034 0.000000
# 6 0.000000 0.000000 0.000000 0.000000 0.000000 0.070475
#
#
# Mechanical properties :
#
#
# Convention : Reuss Voigt Hill
#
# Bulk Modulus (GPa) = 20.51687 45.87386 33.19536
# Shear Modulus (GPa) = 15.04738 23.45948 19.25343
#
# Velocity S-wave (km/s) = 2.90138 3.62271 3.28192
# Velocity P-wave (km/s) = 4.76464 6.56978 5.73864
#
# Compressibility (1/GPa) = 0.04874038
#
# Stress axis : x y z
#
# Youngs Moduli (GPa) = 119.17893 14.52384 62.07442
#
# Poissons Ratio (x) = 0.08337 0.15116
# Poissons Ratio (y) = 0.68413 0.87715
# Poissons Ratio (z) = 0.29021 0.20523
#
# Static dielectric constant tensor:
#      x y z
#    x 3.766590 0.000000 0.000000 
#    y 0.000000 2.787970 0.000000 
#    z 0.000000 0.000000 3.298950 
# 
# 
# High freq. dielectric constant tensor:
#      x y z
#    x 1.718520 0.000000 0.000000 
#    y 0.000000 1.626710 0.000000 
#    z 0.000000 0.000000 1.688480 
# 
# From -- ./inp_files/14533.got.cif
#   From: 2010.03.12/outbox.cif.g09.slc.cpg/sg38_8_cif.got.tgz:14533.got - 2010.04.14 02:38:36.
