data_PCOD8177671
_publ_section_title
;
Structure prediction by ZEFSAII (Michael W. Deem and Ramdas Pophale) SiO2 
 PCOD8177671
Probable space group: A M M 2
;
_chemical_formula_sum "Si O2"
_cell_formula_units_Z 56
_cell_length_a 16.681971
_cell_length_b 17.522946
_cell_length_c 10.310656
_cell_angle_alpha 90.000000
_cell_angle_beta 90.000000
_cell_angle_gamma 90.000000
_cell_volume 3013.982886
_symmetry_space_group_name_H-M "A M M 2"
_symmetry_group_IT_number 38
_symmetry_cell_setting 'orthorhombic'
loop_
_space_group_symop_operation_xyz
x,y,z
-x,-y,z
-x,y,z
x,-y,z
x,1/2+y,1/2+z
-x,1/2-y,1/2+z
-x,1/2+y,1/2+z
x,1/2-y,1/2+z
loop_
_atom_site_type_symbol
_atom_site_label
_atom_site_fract_x
_atom_site_fract_y
_atom_site_fract_z
Si Si1 0.000000 0.681164 0.946880
Si Si2 0.159564 0.911412 0.445605
Si Si3 0.589340 0.839286 0.297014
Si Si4 0.314436 0.659352 0.548185
Si Si5 0.159564 0.088588 0.148422
Si Si6 0.685564 0.659352 0.045842
Si Si7 0.590486 0.842112 0.797014
Si Si8 0.000000 0.318836 0.647147
O O1 0.923081 0.630086 0.976604
O O2 0.000000 0.710036 0.797014
O O3 0.000000 0.750000 0.047014
O O4 0.185787 0.896767 0.297014
O O5 0.226994 0.878244 0.541187
O O6 0.146922 0.000000 0.474372
O O7 0.500000 0.873488 0.297014
O O8 0.634595 0.869407 0.170506
O O9 0.634595 0.869407 0.423521
O O10 0.585624 0.748509 0.297014
O O11 0.226994 0.621756 0.552841
O O12 0.303769 0.750000 0.547014
O O13 0.361217 0.629097 0.422307
O O14 0.076919 0.130086 0.117423
O O15 0.146922 0.000000 0.119656
O O16 0.638783 0.629097 0.171721
O O17 0.500000 0.875781 0.797014
#
# Coordination Sequence:
#
# PCOD8177671 Si02
#       8
#     4   8   8   8   8   8   8   4
#     4  10  21  39  63  89 113 140 176 222 270 320
#     4  10  20  36  58  82 110 145 185 222 264 319
#     4   9  16  28  49  76 105 138 181 233 276 315
#     4  10  18  31  52  79 109 141 184 229 272 323
#     4  10  20  36  58  82 110 145 185 222 264 319
#     4  10  18  31  52  79 109 141 184 229 272 323
#     4   9  18  30  49  78 109 142 181 231 284 323
#     4  10  21  39  63  89 113 140 176 222 270 320
#
# _framework density 18.580065000000001
#
# number of rings (size 3 to 8) (size 9 to 14) (size 15 to 20)
#    0.000    2.286    1.429    2.143    0.000    5.143 
#    2.571    0.714    0.000    6.000    0.000    0.000 
#    0.000    0.000    0.000    0.000    0.000    0.000 
#
# Total GULP energy -347236.309847 kJ/mol
# GULP energy per Si atom -12401.296780 kJ/mol
# Density = 1.853778 g / cm^3
# Si number density = 18.580065 Si / 1000 Ang^3
#
#
#
# Elastic Constant Matrix: (Units=GPa)
#
#
# Indices 1 2 3 4 5 6 
#
# 1 187.7160 53.6195 89.9837 0.0000 0.0000 0.0000
# 2 53.6195 68.1706 44.6903 0.0000 0.0000 0.0000
# 3 89.9837 44.6903 145.6766 0.0000 0.0000 0.0000
# 4 0.0000 0.0000 0.0000 17.2928 0.0000 0.0000
# 5 0.0000 0.0000 0.0000 0.0000 35.4904 0.0000
# 6 0.0000 0.0000 0.0000 0.0000 0.0000 -2.7402
#
#
#
# Elastic Compliance Matrix: (Units=1/GPa)
#
#
# Indices 1 2 3 4 5 6 
#
# 1 0.008354 -0.003990 -0.003936 0.000000 0.000000 0.000000
# 2 -0.003990 0.020268 -0.003753 0.000000 0.000000 0.000000
# 3 -0.003936 -0.003753 0.010447 0.000000 0.000000 0.000000
# 4 0.000000 0.000000 0.000000 0.057827 0.000000 0.000000
# 5 0.000000 0.000000 0.000000 0.000000 0.028177 0.000000
# 6 0.000000 0.000000 0.000000 0.000000 0.000000 -0.364940
#
#
# Mechanical properties :
#
#
# Convention : Reuss Voigt Hill
#
# Bulk Modulus (GPa) = 63.65234 86.46112 75.05673
# Shear Modulus (GPa) = -23.66622 24.22659 0.28019
#
# Velocity S-wave (km/s) = -3.57283 3.61488 0.38875
# Velocity P-wave (km/s) = 4.16085 8.00365 6.37852
#
# Compressibility (1/GPa) = 0.01571034
#
# Stress axis : x y z
#
# Youngs Moduli (GPa) = 119.70700 49.33888 95.72107
#
# Poissons Ratio (x) = 0.19688 0.37675
# Poissons Ratio (y) = 0.47768 0.35923
# Poissons Ratio (z) = 0.47116 0.18517
#
# Static dielectric constant tensor:
#      x y z
#    x 3.557310 0.000000 0.000000 
#    y 0.000000 3.008290 0.000000 
#    z 0.000000 0.000000 3.472150 
# 
# 
# High freq. dielectric constant tensor:
#      x y z
#    x 1.740810 0.000000 0.000000 
#    y 0.000000 1.686040 0.000000 
#    z 0.000000 0.000000 1.716510 
# 
# From -- ./inp_files/5757.got.cif
#   From: 2010.03.12/outbox.cif.g09.slc.cpg/sg38_3_cif.got.tgz:5757.got - 2010.04.14 02:38:36.
