data_PCOD8177935
_publ_section_title
;
Structure prediction by ZEFSAII (Michael W. Deem and Ramdas Pophale) SiO2 
 PCOD8177935
Probable space group: A M M 2
;
_chemical_formula_sum "Si O2"
_cell_formula_units_Z 64
_cell_length_a 9.185942
_cell_length_b 30.205256
_cell_length_c 14.330810
_cell_angle_alpha 90.000000
_cell_angle_beta 90.000000
_cell_angle_gamma 90.000000
_cell_volume 3976.279992
_symmetry_space_group_name_H-M "A M M 2"
_symmetry_group_IT_number 38
_symmetry_cell_setting 'orthorhombic'
loop_
_space_group_symop_operation_xyz
x,y,z
-x,-y,z
-x,y,z
x,-y,z
x,1/2+y,1/2+z
-x,1/2-y,1/2+z
-x,1/2+y,1/2+z
x,1/2-y,1/2+z
loop_
_atom_site_type_symbol
_atom_site_label
_atom_site_fract_x
_atom_site_fract_y
_atom_site_fract_z
Si Si1 0.668689 0.636076 0.386790
Si Si2 0.169035 0.138986 0.524447
Si Si3 0.334703 0.277549 0.699459
Si Si4 0.827567 0.784292 0.394212
Si Si5 0.830215 0.048876 0.593796
Si Si6 0.330386 0.049315 0.785134
Si Si7 0.171883 0.698820 0.518024
Si Si8 0.660885 0.324627 0.190881
O O1 0.500000 0.640144 0.417012
O O2 0.711438 0.585001 0.364548
O O3 0.771557 0.654404 0.467868
O O4 0.702732 0.666276 0.297348
O O5 0.232070 0.170382 0.443208
O O6 0.204986 0.086200 0.514348
O O7 0.223917 0.152036 0.625825
O O8 0.000000 0.148598 0.525332
O O9 0.500000 0.295827 0.706215
O O10 0.255573 0.283219 0.797482
O O11 0.246412 0.302599 0.619122
O O12 0.335565 0.226860 0.670384
O O13 0.784273 0.742543 0.459012
O O14 0.000000 0.784754 0.375250
O O15 0.749195 0.060869 0.689150
O O16 0.000000 0.049879 0.617821
O O17 0.783562 0.000000 0.556745
O O18 0.500000 0.053077 0.762374
O O19 0.288522 0.000000 0.820801
O O20 0.000000 0.696123 0.531722
O O21 0.500000 0.344094 0.170362
#
# Coordination Sequence:
#
# PCOD8177935 Si02
#       8
#     8   8   8   8   8   8   8   8
#     4  10  19  32  47  69  99 130 166 199 235 282
#     4  10  19  31  47  68  96 130 164 195 234 282
#     4  11  22  35  50  68  95 128 161 202 242 277
#     4  10  21  34  48  68  94 126 162 198 236 284
#     4   9  17  28  44  68  97 127 159 196 237 283
#     4   9  17  29  46  68  96 129 161 195 236 282
#     4  11  22  34  50  71  96 127 163 200 240 284
#     4  10  19  29  45  69  97 127 160 196 233 275
#
# _framework density 16.095445999999999
#
# number of rings (size 3 to 8) (size 9 to 14) (size 15 to 20)
#    0.000    2.000    3.750    0.750    0.000    2.500 
#    0.000    0.000    0.000    0.000    0.000    0.875 
#    0.000    3.000    0.000    0.000    0.000    0.000 
#
# Total GULP energy -396634.730718 kJ/mol
# GULP energy per Si atom -12394.835335 kJ/mol
# Density = 1.605881 g / cm^3
# Si number density = 16.095446 Si / 1000 Ang^3
#
#
#
# Elastic Constant Matrix: (Units=GPa)
#
#
# Indices 1 2 3 4 5 6 
#
# 1 44.6660 35.1298 37.3177 0.0000 0.0000 0.0000
# 2 35.1298 95.6119 37.7334 0.0000 0.0000 0.0000
# 3 37.3177 37.7334 71.7773 0.0000 0.0000 0.0000
# 4 0.0000 0.0000 0.0000 23.6643 0.0000 0.0000
# 5 0.0000 0.0000 0.0000 0.0000 18.3930 0.0000
# 6 0.0000 0.0000 0.0000 0.0000 0.0000 18.7975
#
#
#
# Elastic Compliance Matrix: (Units=1/GPa)
#
#
# Indices 1 2 3 4 5 6 
#
# 1 0.045272 -0.009268 -0.018665 0.000000 0.000000 0.000000
# 2 -0.009268 0.015094 -0.003117 0.000000 0.000000 0.000000
# 3 -0.018665 -0.003117 0.025275 0.000000 0.000000 0.000000
# 4 0.000000 0.000000 0.000000 0.042258 0.000000 0.000000
# 5 0.000000 0.000000 0.000000 0.000000 0.054369 0.000000
# 6 0.000000 0.000000 0.000000 0.000000 0.000000 0.053198
#
#
# Mechanical properties :
#
#
# Convention : Reuss Voigt Hill
#
# Bulk Modulus (GPa) = 42.47807 48.04633 45.26220
# Shear Modulus (GPa) = 16.37132 18.96258 17.66695
#
# Velocity S-wave (km/s) = 3.19272 3.43612 3.31665
# Velocity P-wave (km/s) = 6.32771 6.75709 6.54592
#
# Compressibility (1/GPa) = 0.02354156
#
# Stress axis : x y z
#
# Youngs Moduli (GPa) = 22.08869 66.25137 39.56515
#
# Poissons Ratio (x) = 0.61399 0.73850
# Poissons Ratio (y) = 0.20471 0.12331
# Poissons Ratio (z) = 0.41230 0.20648
#
# Static dielectric constant tensor:
#      x y z
#    x 3.091050 0.000000 0.000000 
#    y 0.000000 3.413890 0.000000 
#    z 0.000000 0.000000 2.824740 
# 
# 
# High freq. dielectric constant tensor:
#      x y z
#    x 1.622920 0.000000 0.000000 
#    y 0.000000 1.618840 0.000000 
#    z 0.000000 0.000000 1.587450 
# 
# From -- ./inp_files/13051.got.cif
#   From: 2010.03.12/outbox.cif.g09.slc.cpg/sg38_7_cif.got.tgz:13051.got - 2010.04.14 02:38:36.
