data_PCOD8177513
_publ_section_title
;
Structure prediction by ZEFSAII (Michael W. Deem and Ramdas Pophale) SiO2 
 PCOD8177513
Probable space group: A M M 2
;
_chemical_formula_sum "Si O2"
_cell_formula_units_Z 64
_cell_length_a 19.958366
_cell_length_b 9.016266
_cell_length_c 20.182236
_cell_angle_alpha 90.000000
_cell_angle_beta 90.000000
_cell_angle_gamma 90.000000
_cell_volume 3631.792092
_symmetry_space_group_name_H-M "A M M 2"
_symmetry_group_IT_number 38
_symmetry_cell_setting 'orthorhombic'
loop_
_space_group_symop_operation_xyz
x,y,z
-x,-y,z
-x,y,z
x,-y,z
x,1/2+y,1/2+z
-x,1/2-y,1/2+z
-x,1/2+y,1/2+z
x,1/2-y,1/2+z
loop_
_atom_site_type_symbol
_atom_site_label
_atom_site_fract_x
_atom_site_fract_y
_atom_site_fract_z
Si Si1 0.178073 0.673825 0.463930
Si Si2 0.923685 0.676588 0.059701
Si Si3 0.315956 0.173893 0.501362
Si Si4 0.794999 0.172281 0.816414
Si Si5 0.425922 0.325050 0.899530
Si Si6 0.312738 0.671888 0.149822
Si Si7 0.164295 0.173733 0.677344
Si Si8 0.339874 0.326228 0.777480
O O1 0.176759 0.500000 0.479507
O O2 0.115990 0.752927 0.498714
O O3 0.247925 0.738541 0.489121
O O4 0.168872 0.706271 0.385611
O O5 0.918239 0.500000 0.054299
O O6 0.893186 0.739181 0.129349
O O7 0.000000 0.730719 0.056166
O O8 0.374053 0.238402 0.453952
O O9 0.341175 0.201247 0.576511
O O10 0.301628 0.000000 0.488745
O O11 0.844847 0.215935 0.755209
O O12 0.727006 0.264148 0.811267
O O13 0.774966 0.000000 0.810489
O O14 0.500000 0.255543 0.909938
O O15 0.429356 0.500000 0.909322
O O16 0.401341 0.285195 0.825702
O O17 0.315334 0.500000 0.168791
O O18 0.236521 0.732136 0.152937
O O19 0.355794 0.757992 0.205224
O O20 0.161501 0.000000 0.667162
O O21 0.330823 0.500000 0.769693
#
# Coordination Sequence:
#
# PCOD8177513 Si02
#       8
#     8   8   8   8   8   8   8   8
#     4  11  21  32  51  79 110 137 167 218 270 312
#     4  10  20  35  55  76 101 137 180 218 255 312
#     4  10  18  33  55  75 100 138 180 219 255 308
#     4   9  18  32  50  73 103 134 166 210 260 304
#     4   9  18  32  51  76 104 137 177 218 262 312
#     4   9  17  30  50  73 102 131 162 213 261 300
#     4   8  14  29  50  71  96 126 165 207 247 294
#     4  10  18  29  50  76 101 130 168 214 256 306
#
# _framework density 17.622153999999998
#
# number of rings (size 3 to 8) (size 9 to 14) (size 15 to 20)
#    0.000    2.500    2.500    1.500    0.000    1.250 
#    0.000    1.250    0.000    6.375    0.000    0.000 
#    0.000    0.000    0.000    0.000    0.000    0.000 
#
# Total GULP energy -396641.218749 kJ/mol
# GULP energy per Si atom -12395.038086 kJ/mol
# Density = 1.758205 g / cm^3
# Si number density = 17.622154 Si / 1000 Ang^3
#
#
#
# Elastic Constant Matrix: (Units=GPa)
#
#
# Indices 1 2 3 4 5 6 
#
# 1 106.6390 30.2975 61.8911 0.0000 0.0000 0.0000
# 2 30.2975 43.8096 38.9490 0.0000 0.0000 0.0000
# 3 61.8911 38.9490 142.5095 0.0000 0.0000 0.0000
# 4 0.0000 0.0000 0.0000 27.4099 0.0000 0.0000
# 5 0.0000 0.0000 0.0000 0.0000 25.6266 0.0000
# 6 0.0000 0.0000 0.0000 0.0000 0.0000 13.1854
#
#
#
# Elastic Compliance Matrix: (Units=1/GPa)
#
#
# Indices 1 2 3 4 5 6 
#
# 1 0.013448 -0.005426 -0.004357 0.000000 0.000000 0.000000
# 2 -0.005426 0.032342 -0.006483 0.000000 0.000000 0.000000
# 3 -0.004357 -0.006483 0.010681 0.000000 0.000000 0.000000
# 4 0.000000 0.000000 0.000000 0.036483 0.000000 0.000000
# 5 0.000000 0.000000 0.000000 0.000000 0.039022 0.000000
# 6 0.000000 0.000000 0.000000 0.000000 0.000000 0.075841
#
#
# Mechanical properties :
#
#
# Convention : Reuss Voigt Hill
#
# Bulk Modulus (GPa) = 41.77351 61.69260 51.73305
# Shear Modulus (GPa) = 20.13444 24.03241 22.08342
#
# Velocity S-wave (km/s) = 3.38385 3.69692 3.54384
# Velocity P-wave (km/s) = 6.24691 7.30120 6.79453
#
# Compressibility (1/GPa) = 0.02393862
#
# Stress axis : x y z
#
# Youngs Moduli (GPa) = 74.36017 30.91920 93.62210
#
# Poissons Ratio (x) = 0.16778 0.40794
# Poissons Ratio (y) = 0.40351 0.60693
# Poissons Ratio (z) = 0.32401 0.20044
#
# Static dielectric constant tensor:
#      x y z
#    x 3.206810 0.000000 0.000000 
#    y 0.000000 3.056480 0.000000 
#    z 0.000000 0.000000 3.689850 
# 
# 
# High freq. dielectric constant tensor:
#      x y z
#    x 1.650950 0.000000 0.000000 
#    y 0.000000 1.656520 0.000000 
#    z 0.000000 0.000000 1.701890 
# 
# From -- ./inp_files/21442.got.cif
#   From: 2010.03.12/outbox.cif.g09.slc.cpg/sg38_11_cif.got.tgz:21442.got - 2010.04.14 02:38:36.
