data_PCOD8177902
_publ_section_title
;
Structure prediction by ZEFSAII (Michael W. Deem and Ramdas Pophale) SiO2 
 PCOD8177902
Probable space group: A M M 2
;
_chemical_formula_sum "Si O2"
_cell_formula_units_Z 64
_cell_length_a 9.158663
_cell_length_b 13.707506
_cell_length_c 34.290560
_cell_angle_alpha 90.000000
_cell_angle_beta 90.000000
_cell_angle_gamma 90.000000
_cell_volume 4304.920161
_symmetry_space_group_name_H-M "A M M 2"
_symmetry_group_IT_number 38
_symmetry_cell_setting 'orthorhombic'
loop_
_space_group_symop_operation_xyz
x,y,z
-x,-y,z
-x,y,z
x,-y,z
x,1/2+y,1/2+z
-x,1/2-y,1/2+z
-x,1/2+y,1/2+z
x,1/2-y,1/2+z
loop_
_atom_site_type_symbol
_atom_site_label
_atom_site_fract_x
_atom_site_fract_y
_atom_site_fract_z
Si Si1 0.335305 0.116181 0.196670
Si Si2 0.170333 0.295123 0.541610
Si Si3 0.669277 0.888022 0.347662
Si Si4 0.671991 0.785920 0.427674
Si Si5 0.827812 0.111190 0.962360
Si Si6 0.170045 0.114156 0.120056
Si Si7 0.164711 0.383785 0.771579
Si Si8 0.830418 0.110035 0.496232
O O1 0.500000 0.156418 0.197079
O O2 0.255457 0.153408 0.157736
O O3 0.251333 0.158425 0.234339
O O4 0.333163 0.000000 0.197754
O O5 0.227746 0.361427 0.505822
O O6 0.238663 0.328863 0.582728
O O7 0.207080 0.181761 0.532433
O O8 0.000000 0.314319 0.545811
O O9 0.500000 0.878631 0.336845
O O10 0.711338 0.824057 0.384901
O O11 0.759947 0.846473 0.311170
O O12 0.710183 0.000000 0.356786
O O13 0.500000 0.778875 0.434443
O O14 0.743950 0.679309 0.431647
O O15 0.736418 0.862094 0.458677
O O16 0.000000 0.130773 0.958611
O O17 0.787071 0.000000 0.953138
O O18 0.000000 0.136807 0.126832
O O19 0.196257 0.000000 0.112966
O O20 0.168075 0.500000 0.770477
O O21 0.000000 0.343907 0.770112
O O22 0.000000 0.122063 0.484742
O O23 0.793210 0.000000 0.509231
#
# Coordination Sequence:
#
# PCOD8177902 Si02
#       8
#     8   8   8   8   8   8   8   8
#     4   9  16  25  36  51  75 105 131 156 191 235
#     4   8  14  25  41  60  79 102 135 171 205 240
#     4   9  17  28  40  55  79 110 138 164 198 239
#     4  10  19  29  42  61  84 109 138 171 206 246
#     4   9  17  30  46  61  80 108 140 173 209 246
#     4   9  15  23  37  55  75 101 133 166 196 231
#     4   9  16  25  38  56  76 100 132 165 194 229
#     4   9  17  29  44  60  80 108 141 175 209 245
#
# _framework density 14.866709999999999
#
# number of rings (size 3 to 8) (size 9 to 14) (size 15 to 20)
#    0.000    3.000    0.000    2.625    0.000    6.500 
#    0.000    3.750    0.000    3.000    0.000    0.000 
#    0.000    1.000    0.000    5.250    0.000    2.625 
#
# Total GULP energy -396706.733597 kJ/mol
# GULP energy per Si atom -12397.085425 kJ/mol
# Density = 1.483287 g / cm^3
# Si number density = 14.866710 Si / 1000 Ang^3
#
#
#
# Elastic Constant Matrix: (Units=GPa)
#
#
# Indices 1 2 3 4 5 6 
#
# 1 74.9427 33.2634 63.6708 0.0000 0.0000 0.0000
# 2 33.2634 76.5202 49.6153 0.0000 0.0000 0.0000
# 3 63.6708 49.6153 139.4450 0.0000 0.0000 0.0000
# 4 0.0000 0.0000 0.0000 18.4224 0.0000 0.0000
# 5 0.0000 0.0000 0.0000 0.0000 20.4756 0.0000
# 6 0.0000 0.0000 0.0000 0.0000 0.0000 14.2743
#
#
#
# Elastic Compliance Matrix: (Units=1/GPa)
#
#
# Indices 1 2 3 4 5 6 
#
# 1 0.022749 -0.004100 -0.008928 0.000000 0.000000 0.000000
# 2 -0.004100 0.017726 -0.004435 0.000000 0.000000 0.000000
# 3 -0.008928 -0.004435 0.012826 0.000000 0.000000 0.000000
# 4 0.000000 0.000000 0.000000 0.054282 0.000000 0.000000
# 5 0.000000 0.000000 0.000000 0.000000 0.048839 0.000000
# 6 0.000000 0.000000 0.000000 0.000000 0.000000 0.070056
#
#
# Mechanical properties :
#
#
# Convention : Reuss Voigt Hill
#
# Bulk Modulus (GPa) = 54.42333 64.88966 59.65650
# Shear Modulus (GPa) = 18.68955 20.25834 19.47395
#
# Velocity S-wave (km/s) = 3.54947 3.69543 3.62318
# Velocity P-wave (km/s) = 7.31336 7.87088 7.59723
#
# Compressibility (1/GPa) = 0.01837447
#
# Stress axis : x y z
#
# Youngs Moduli (GPa) = 43.95859 56.41310 77.96642
#
# Poissons Ratio (x) = 0.23128 0.69611
# Poissons Ratio (y) = 0.18022 0.34579
# Poissons Ratio (z) = 0.39248 0.25020
#
# Static dielectric constant tensor:
#      x y z
#    x 2.858440 0.000000 0.000000 
#    y 0.000000 2.656540 0.000000 
#    z 0.000000 0.000000 2.974410 
# 
# 
# High freq. dielectric constant tensor:
#      x y z
#    x 1.565830 0.000000 0.000000 
#    y 0.000000 1.525100 0.000000 
#    z 0.000000 0.000000 1.568980 
# 
# From -- ./inp_files/24770.got.cif
#   From: 2010.03.12/outbox.cif.g09.slc.cpg/sg38_13_cif.got.tgz:24770.got - 2010.04.14 02:38:36.
