data_PCOD8177227
_publ_section_title
;
Structure prediction by ZEFSAII (Michael W. Deem and Ramdas Pophale) SiO2 
 PCOD8177227
Probable space group: A M M 2
;
_chemical_formula_sum "Si O2"
_cell_formula_units_Z 40
_cell_length_a 8.651322
_cell_length_b 9.779458
_cell_length_c 25.974778
_cell_angle_alpha 90.000000
_cell_angle_beta 90.000000
_cell_angle_gamma 90.000000
_cell_volume 2197.602330
_symmetry_space_group_name_H-M "A M M 2"
_symmetry_group_IT_number 38
_symmetry_cell_setting 'orthorhombic'
loop_
_space_group_symop_operation_xyz
x,y,z
-x,-y,z
-x,y,z
x,-y,z
x,1/2+y,1/2+z
-x,1/2-y,1/2+z
-x,1/2+y,1/2+z
x,1/2-y,1/2+z
loop_
_atom_site_type_symbol
_atom_site_label
_atom_site_fract_x
_atom_site_fract_y
_atom_site_fract_z
Si Si1 0.318179 0.783103 0.550080
Si Si2 0.816739 0.500000 0.695503
Si Si3 0.817532 0.000000 0.746032
Si Si4 0.816264 0.000000 0.475724
Si Si5 0.815879 0.712294 0.777786
Si Si6 0.678760 0.500000 0.135257
Si Si7 0.816281 0.000000 0.080145
Si Si8 0.816079 0.500000 0.859575
O O1 0.500000 0.772400 0.541670
O O2 0.246724 0.863123 0.501953
O O3 0.244406 0.633458 0.550958
O O4 0.279072 0.865157 0.602345
O O5 0.758636 0.633330 0.726517
O O6 0.746999 0.500000 0.638143
O O7 0.000000 0.500000 0.691738
O O8 0.748328 0.133895 0.774511
O O9 0.781394 0.000000 0.685787
O O10 0.000000 0.000000 0.751404
O O11 0.752132 0.000000 0.417288
O O12 0.000000 0.000000 0.478029
O O13 0.755888 0.635154 0.829090
O O14 0.000000 0.713588 0.778140
O O15 0.500000 0.500000 0.150898
O O16 0.000000 0.000000 0.079503
O O17 0.000000 0.500000 0.859699
#
# Coordination Sequence:
#
# PCOD8177227 Si02
#       8
#     8   4   4   4   8   4   4   4
#     4  10  21  36  51  71 102 139 169 201 254 312
#     4   8  14  24  40  64  98 132 158 189 233 280
#     4  10  17  25  45  73  98 125 160 201 241 280
#     4  10  19  34  56  76  92 123 174 225 257 289
#     4   8  14  25  41  67  99 127 154 190 241 295
#     4   9  19  33  48  67  99 142 177 198 232 291
#     4  11  20  31  51  80 107 131 165 210 245 284
#     4   8  15  29  48  68  94 123 154 199 252 296
#
# _framework density 18.201656
#
# number of rings (size 3 to 8) (size 9 to 14) (size 15 to 20)
#    0.000    2.800    0.000    4.200    0.000    4.000 
#    0.000    1.000    0.000    6.000    0.000    5.600 
#    0.000    0.000    0.000    0.000    0.000    0.000 
#
# Total GULP energy -247921.828019 kJ/mol
# GULP energy per Si atom -12396.091401 kJ/mol
# Density = 1.816023 g / cm^3
# Si number density = 18.201656 Si / 1000 Ang^3
#
#
#
# Elastic Constant Matrix: (Units=GPa)
#
#
# Indices 1 2 3 4 5 6 
#
# 1 41.8822 32.1042 25.9275 0.0000 0.0000 0.0000
# 2 32.1042 191.6578 83.2586 0.0000 0.0000 0.0000
# 3 25.9275 83.2586 141.6181 0.0000 0.0000 0.0000
# 4 0.0000 0.0000 0.0000 13.3187 0.0000 0.0000
# 5 0.0000 0.0000 0.0000 0.0000 8.2082 0.0000
# 6 0.0000 0.0000 0.0000 0.0000 0.0000 18.1815
#
#
#
# Elastic Compliance Matrix: (Units=1/GPa)
#
#
# Indices 1 2 3 4 5 6 
#
# 1 0.028455 -0.003362 -0.003233 0.000000 0.000000 0.000000
# 2 -0.003362 0.007404 -0.003738 0.000000 0.000000 0.000000
# 3 -0.003233 -0.003738 0.009851 0.000000 0.000000 0.000000
# 4 0.000000 0.000000 0.000000 0.075082 0.000000 0.000000
# 5 0.000000 0.000000 0.000000 0.000000 0.121829 0.000000
# 6 0.000000 0.000000 0.000000 0.000000 0.000000 0.055001
#
#
# Mechanical properties :
#
#
# Convention : Reuss Voigt Hill
#
# Bulk Modulus (GPa) = 39.92854 73.08209 56.50532
# Shear Modulus (GPa) = 15.30758 23.53288 19.42023
#
# Velocity S-wave (km/s) = 2.90314 3.59959 3.26996
# Velocity P-wave (km/s) = 5.76386 7.58384 6.73560
#
# Compressibility (1/GPa) = 0.02504474
#
# Stress axis : x y z
#
# Youngs Moduli (GPa) = 35.14321 135.05347 101.51729
#
# Poissons Ratio (x) = 0.45405 0.32821
# Poissons Ratio (y) = 0.11815 0.37944
# Poissons Ratio (z) = 0.11362 0.50478
#
# Static dielectric constant tensor:
#      x y z
#    x 2.958950 0.000000 0.000000 
#    y 0.000000 3.741210 0.000000 
#    z 0.000000 0.000000 3.414980 
# 
# 
# High freq. dielectric constant tensor:
#      x y z
#    x 1.670900 0.000000 0.000000 
#    y 0.000000 1.716620 0.000000 
#    z 0.000000 0.000000 1.691250 
# 
# From -- ./inp_files/23326.got.cif
#   From: 2010.03.12/outbox.cif.g09.slc.cpg/sg38_12_cif.got.tgz:23326.got - 2010.04.14 02:38:36.
