data_PCOD8177275
_publ_section_title
;
Structure prediction by ZEFSAII (Michael W. Deem and Ramdas Pophale) SiO2 
 PCOD8177275
Probable space group: A M M 2
;
_chemical_formula_sum "Si O2"
_cell_formula_units_Z 56
_cell_length_a 15.485451
_cell_length_b 25.078406
_cell_length_c 8.573814
_cell_angle_alpha 90.000000
_cell_angle_beta 90.000000
_cell_angle_gamma 90.000000
_cell_volume 3329.644330
_symmetry_space_group_name_H-M "A M M 2"
_symmetry_group_IT_number 38
_symmetry_cell_setting 'orthorhombic'
loop_
_space_group_symop_operation_xyz
x,y,z
-x,-y,z
-x,y,z
x,-y,z
x,1/2+y,1/2+z
-x,1/2-y,1/2+z
-x,1/2+y,1/2+z
x,1/2-y,1/2+z
loop_
_atom_site_type_symbol
_atom_site_label
_atom_site_fract_x
_atom_site_fract_y
_atom_site_fract_z
Si Si1 0.657069 0.721189 0.730830
Si Si2 0.902507 0.562374 0.435363
Si Si3 0.904960 0.864938 0.223670
Si Si4 0.236879 0.137219 0.802875
Si Si5 0.175830 0.224091 0.029970
Si Si6 0.404462 0.677337 0.422621
Si Si7 0.778515 0.333049 0.958886
O O1 0.738078 0.738259 0.626154
O O2 0.594298 0.691818 0.607501
O O3 0.612158 0.771757 0.810638
O O4 0.690480 0.682232 0.868162
O O5 0.885310 0.500000 0.443009
O O6 0.893708 0.585770 0.607939
O O7 0.827115 0.587741 0.330479
O O8 0.000000 0.574565 0.370800
O O9 0.892358 0.808299 0.133043
O O10 0.833296 0.874755 0.355731
O O11 0.000000 0.864435 0.297760
O O12 0.331750 0.132053 0.884598
O O13 0.249566 0.140078 0.618661
O O14 0.195278 0.191079 0.872743
O O15 0.151446 0.283866 0.977137
O O16 0.500000 0.655017 0.383801
#
# Coordination Sequence:
#
# PCOD8177275 Si02
#       7
#     8   8   8   8   8   8   8
#     4  10  17  28  43  64  98 142 173 199 229 277
#     4   9  19  38  59  74  92 123 165 212 257 300
#     4   9  19  30  44  70  98 129 170 205 244 298
#     4  10  18  31  51  74  98 130 169 206 250 294
#     4   9  16  29  46  63  96 140 166 196 236 284
#     4  11  19  29  46  71 102 136 175 208 241 285
#     4  11  17  29  47  68 103 141 163 199 242 292
#
# _framework density 16.818612999999999
#
# number of rings (size 3 to 8) (size 9 to 14) (size 15 to 20)
#    0.000    2.143    4.286    2.143    0.000    1.143 
#    0.000    4.286    0.000    2.143    0.000    0.000 
#    0.000    2.286    0.000    0.000    0.000    0.000 
#
# Total GULP energy -346892.684876 kJ/mol
# GULP energy per Si atom -12389.024460 kJ/mol
# Density = 1.678033 g / cm^3
# Si number density = 16.818613 Si / 1000 Ang^3
#
#
#
# Elastic Constant Matrix: (Units=GPa)
#
#
# Indices 1 2 3 4 5 6 
#
# 1 101.0483 37.6629 30.6887 0.0000 0.0000 0.0000
# 2 37.6629 63.6545 20.7456 0.0000 0.0000 0.0000
# 3 30.6887 20.7456 93.2789 0.0000 0.0000 0.0000
# 4 0.0000 0.0000 0.0000 11.6576 0.0000 0.0000
# 5 0.0000 0.0000 0.0000 0.0000 18.5215 0.0000
# 6 0.0000 0.0000 0.0000 0.0000 0.0000 15.6532
#
#
#
# Elastic Compliance Matrix: (Units=1/GPa)
#
#
# Indices 1 2 3 4 5 6 
#
# 1 0.013361 -0.006979 -0.002844 0.000000 0.000000 0.000000
# 2 -0.006979 0.020582 -0.002282 0.000000 0.000000 0.000000
# 3 -0.002844 -0.002282 0.012164 0.000000 0.000000 0.000000
# 4 0.000000 0.000000 0.000000 0.085781 0.000000 0.000000
# 5 0.000000 0.000000 0.000000 0.000000 0.053991 0.000000
# 6 0.000000 0.000000 0.000000 0.000000 0.000000 0.063885
#
#
# Mechanical properties :
#
#
# Convention : Reuss Voigt Hill
#
# Bulk Modulus (GPa) = 45.66392 48.46400 47.06396
# Shear Modulus (GPa) = 17.77640 20.42543 19.10091
#
# Velocity S-wave (km/s) = 3.25460 3.48868 3.37367
# Velocity P-wave (km/s) = 6.42907 6.71611 6.57416
#
# Compressibility (1/GPa) = 0.02189913
#
# Stress axis : x y z
#
# Youngs Moduli (GPa) = 74.84487 48.58500 82.21278
#
# Poissons Ratio (x) = 0.33905 0.23379
# Poissons Ratio (y) = 0.52231 0.18758
# Poissons Ratio (z) = 0.21284 0.11085
#
# Static dielectric constant tensor:
#      x y z
#    x 3.217480 0.000000 0.000000 
#    y 0.000000 2.804010 0.000000 
#    z 0.000000 0.000000 3.333540 
# 
# 
# High freq. dielectric constant tensor:
#      x y z
#    x 1.637040 0.000000 0.000000 
#    y 0.000000 1.592540 0.000000 
#    z 0.000000 0.000000 1.661600 
# 
# From -- ./inp_files/6536.got.cif
#   From: 2010.03.12/outbox.cif.g09.slc.cpg/sg38_4_cif.got.tgz:6536.got - 2010.04.14 02:38:36.
