data_PCOD8177417
_publ_section_title
;
Structure prediction by ZEFSAII (Michael W. Deem and Ramdas Pophale) SiO2 
 PCOD8177417
Probable space group: A M M 2
;
_chemical_formula_sum "Si O2"
_cell_formula_units_Z 56
_cell_length_a 9.013803
_cell_length_b 29.095334
_cell_length_c 13.351511
_cell_angle_alpha 90.000000
_cell_angle_beta 90.000000
_cell_angle_gamma 90.000000
_cell_volume 3501.562053
_symmetry_space_group_name_H-M "A M M 2"
_symmetry_group_IT_number 38
_symmetry_cell_setting 'orthorhombic'
loop_
_space_group_symop_operation_xyz
x,y,z
-x,-y,z
-x,y,z
x,-y,z
x,1/2+y,1/2+z
-x,1/2-y,1/2+z
-x,1/2+y,1/2+z
x,1/2-y,1/2+z
loop_
_atom_site_type_symbol
_atom_site_label
_atom_site_fract_x
_atom_site_fract_y
_atom_site_fract_z
Si Si1 0.673452 0.180997 0.721420
Si Si2 0.824867 0.407806 0.299455
Si Si3 0.171158 0.686309 0.616691
Si Si4 0.328042 0.731324 0.017847
Si Si5 0.668793 0.000000 0.798426
Si Si6 0.172325 0.265291 0.819748
Si Si7 0.172056 0.910007 0.030580
Si Si8 0.334093 0.000000 0.036570
O O1 0.500000 0.176900 0.745834
O O2 0.753119 0.132609 0.735101
O O3 0.702506 0.195810 0.607178
O O4 0.743918 0.217933 0.796381
O O5 0.754517 0.455136 0.258676
O O6 0.783741 0.400094 0.415725
O O7 0.000000 0.408950 0.281721
O O8 0.271702 0.718157 0.547178
O O9 0.199130 0.697228 0.733146
O O10 0.217162 0.633804 0.597145
O O11 0.000000 0.694874 0.586804
O O12 0.500000 0.734673 0.990989
O O13 0.238736 0.713329 0.921238
O O14 0.500000 0.000000 0.758417
O O15 0.673139 0.000000 0.917544
O O16 0.000000 0.253766 0.833323
O O17 0.000000 0.921549 0.038092
O O18 0.255767 0.953934 0.076579
O O19 0.500000 0.000000 0.078181
#
# Coordination Sequence:
#
# PCOD8177417 Si02
#       8
#     8   8   8   8   4   8   8   4
#     4  10  20  32  46  66  91 120 153 185 223 270
#     4  10  18  28  45  68  92 119 151 186 223 265
#     4   9  18  31  47  67  89 117 153 186 221 264
#     4  10  20  32  46  65  91 121 151 185 224 266
#     4   9  17  29  43  61  90 123 150 181 221 266
#     4  10  19  31  47  66  90 119 151 188 225 263
#     4   9  17  29  44  63  89 118 146 178 217 260
#     4   9  17  27  41  63  88 115 146 177 213 258
#
# _framework density 15.992862000000001
#
# number of rings (size 3 to 8) (size 9 to 14) (size 15 to 20)
#    0.000    2.429    0.000    3.000    0.000    6.286 
#    0.000    0.000    0.000    0.000    0.000    1.000 
#    0.000    3.429    0.000    0.000    0.000    0.000 
#
# Total GULP energy -347264.066320 kJ/mol
# GULP energy per Si atom -12402.288083 kJ/mol
# Density = 1.595646 g / cm^3
# Si number density = 15.992862 Si / 1000 Ang^3
#
#
#
# Elastic Constant Matrix: (Units=GPa)
#
#
# Indices 1 2 3 4 5 6 
#
# 1 101.6498 63.8830 43.4496 0.0000 0.0000 0.0000
# 2 63.8830 139.3756 42.5150 0.0000 0.0000 0.0000
# 3 43.4496 42.5150 69.7479 0.0000 0.0000 0.0000
# 4 0.0000 0.0000 0.0000 19.7721 0.0000 0.0000
# 5 0.0000 0.0000 0.0000 0.0000 23.8380 0.0000
# 6 0.0000 0.0000 0.0000 0.0000 0.0000 28.7180
#
#
#
# Elastic Compliance Matrix: (Units=1/GPa)
#
#
# Indices 1 2 3 4 5 6 
#
# 1 0.016063 -0.005295 -0.006779 0.000000 0.000000 0.000000
# 2 -0.005295 0.010559 -0.003138 0.000000 0.000000 0.000000
# 3 -0.006779 -0.003138 0.020473 0.000000 0.000000 0.000000
# 4 0.000000 0.000000 0.000000 0.050576 0.000000 0.000000
# 5 0.000000 0.000000 0.000000 0.000000 0.041950 0.000000
# 6 0.000000 0.000000 0.000000 0.000000 0.000000 0.034821
#
#
# Mechanical properties :
#
#
# Convention : Reuss Voigt Hill
#
# Bulk Modulus (GPa) = 59.98187 67.82984 63.90585
# Shear Modulus (GPa) = 23.76172 25.19398 24.47785
#
# Velocity S-wave (km/s) = 3.85875 3.97334 3.91647
# Velocity P-wave (km/s) = 7.57892 7.97211 7.77800
#
# Compressibility (1/GPa) = 0.01667170
#
# Stress axis : x y z
#
# Youngs Moduli (GPa) = 62.25583 94.70791 48.84456
#
# Poissons Ratio (x) = 0.50143 0.33112
# Poissons Ratio (y) = 0.32961 0.15327
# Poissons Ratio (z) = 0.42204 0.29718
#
# Static dielectric constant tensor:
#      x y z
#    x 3.173170 0.000000 0.000000 
#    y 0.000000 3.031970 0.000000 
#    z 0.000000 0.000000 2.852260 
# 
# 
# High freq. dielectric constant tensor:
#      x y z
#    x 1.630630 0.000000 0.000000 
#    y 0.000000 1.609840 0.000000 
#    z 0.000000 0.000000 1.581790 
# 
# From -- ./inp_files/13011.got.cif
#   From: 2010.03.12/outbox.cif.g09.slc.cpg/sg38_7_cif.got.tgz:13011.got - 2010.04.14 02:38:36.
