data_PCOD8177257
_publ_section_title
;
Structure prediction by ZEFSAII (Michael W. Deem and Ramdas Pophale) SiO2 
 PCOD8177257
Probable space group: A M M 2
;
_chemical_formula_sum "Si O2"
_cell_formula_units_Z 56
_cell_length_a 9.215764
_cell_length_b 22.326281
_cell_length_c 17.504465
_cell_angle_alpha 90.000000
_cell_angle_beta 90.000000
_cell_angle_gamma 90.000000
_cell_volume 3601.609083
_symmetry_space_group_name_H-M "A M M 2"
_symmetry_group_IT_number 38
_symmetry_cell_setting 'orthorhombic'
loop_
_space_group_symop_operation_xyz
x,y,z
-x,-y,z
-x,y,z
x,-y,z
x,1/2+y,1/2+z
-x,1/2-y,1/2+z
-x,1/2+y,1/2+z
x,1/2-y,1/2+z
loop_
_atom_site_type_symbol
_atom_site_label
_atom_site_fract_x
_atom_site_fract_y
_atom_site_fract_z
Si Si1 0.660364 0.319191 0.065740
Si Si2 0.672758 0.348239 0.902430
Si Si3 0.169166 0.152292 0.151192
Si Si4 0.170437 0.274489 0.371272
Si Si5 0.664309 0.316713 0.509909
Si Si6 0.165552 0.716358 0.200333
Si Si7 0.832522 0.430141 0.790293
O O1 0.500000 0.338002 0.090262
O O2 0.667377 0.250925 0.038644
O O3 0.755448 0.328633 0.141540
O O4 0.710778 0.358218 0.992436
O O5 0.500000 0.339467 0.891647
O O6 0.754702 0.290203 0.870673
O O7 0.729983 0.405962 0.857564
O O8 0.259778 0.141457 0.073464
O O9 0.216084 0.214979 0.189720
O O10 0.210355 0.100035 0.210047
O O11 0.000000 0.151412 0.130055
O O12 0.244734 0.319801 0.431195
O O13 0.194109 0.303210 0.287473
O O14 0.000000 0.266635 0.389872
O O15 0.500000 0.338886 0.495601
O O16 0.000000 0.710740 0.177733
O O17 0.803393 0.500000 0.781633
O O18 0.000000 0.415764 0.810340
#
# Coordination Sequence:
#
# PCOD8177257 Si02
#       7
#     8   8   8   8   8   8   8
#     4   8  16  27  38  56  81 109 140 172 209 254
#     4  10  19  30  43  60  84 114 147 182 220 260
#     4   9  16  29  43  58  81 112 145 179 218 256
#     4  10  17  27  42  62  87 115 145 176 212 257
#     4   9  17  27  39  60  83 110 144 175 212 257
#     4   9  16  25  40  61  83 110 143 173 208 253
#     4  10  20  33  48  65  85 113 152 191 224 260
#
# _framework density 15.548607000000001
#
# number of rings (size 3 to 8) (size 9 to 14) (size 15 to 20)
#    0.000    2.714    1.429    2.143    0.000    6.000 
#    0.000    0.000    0.000    0.000    0.000    0.000 
#    0.000    1.143    0.000   10.286    0.000    6.000 
#
# Total GULP energy -347081.956357 kJ/mol
# GULP energy per Si atom -12395.784156 kJ/mol
# Density = 1.551322 g / cm^3
# Si number density = 15.548607 Si / 1000 Ang^3
#
#
#
# Elastic Constant Matrix: (Units=GPa)
#
#
# Indices 1 2 3 4 5 6 
#
# 1 90.4976 28.0471 72.4490 0.0000 0.0000 0.0000
# 2 28.0471 41.2158 41.9287 0.0000 0.0000 0.0000
# 3 72.4490 41.9287 138.2533 0.0000 0.0000 0.0000
# 4 0.0000 0.0000 0.0000 15.7503 0.0000 0.0000
# 5 0.0000 0.0000 0.0000 0.0000 27.9645 0.0000
# 6 0.0000 0.0000 0.0000 0.0000 0.0000 12.1509
#
#
#
# Elastic Compliance Matrix: (Units=1/GPa)
#
#
# Indices 1 2 3 4 5 6 
#
# 1 0.019517 -0.004160 -0.008966 0.000000 0.000000 0.000000
# 2 -0.004160 0.035975 -0.008730 0.000000 0.000000 0.000000
# 3 -0.008966 -0.008730 0.014579 0.000000 0.000000 0.000000
# 4 0.000000 0.000000 0.000000 0.063491 0.000000 0.000000
# 5 0.000000 0.000000 0.000000 0.000000 0.035760 0.000000
# 6 0.000000 0.000000 0.000000 0.000000 0.000000 0.082298
#
#
# Mechanical properties :
#
#
# Convention : Reuss Voigt Hill
#
# Bulk Modulus (GPa) = 37.93855 61.64623 49.79239
# Shear Modulus (GPa) = 16.44099 19.67595 18.05847
#
# Velocity S-wave (km/s) = 3.25529 3.56117 3.41166
# Velocity P-wave (km/s) = 6.21145 7.52614 6.90018
#
# Compressibility (1/GPa) = 0.02635841
#
# Stress axis : x y z
#
# Youngs Moduli (GPa) = 51.23708 27.79731 68.59142
#
# Poissons Ratio (x) = 0.11565 0.61498
# Poissons Ratio (y) = 0.21316 0.59881
# Poissons Ratio (z) = 0.45938 0.24267
#
# Static dielectric constant tensor:
#      x y z
#    x 3.095700 0.000000 0.000000 
#    y 0.000000 2.458230 0.000000 
#    z 0.000000 0.000000 3.224210 
# 
# 
# High freq. dielectric constant tensor:
#      x y z
#    x 1.606550 0.000000 0.000000 
#    y 0.000000 1.522810 0.000000 
#    z 0.000000 0.000000 1.609200 
# 
# From -- ./inp_files/17066.got.cif
#   From: 2010.03.12/outbox.cif.g09.slc.cpg/sg38_9_cif.got.tgz:17066.got - 2010.04.14 02:38:36.
