data_PCOD8177480
_publ_section_title
;
Structure prediction by ZEFSAII (Michael W. Deem and Ramdas Pophale) SiO2 
 PCOD8177480
Probable space group: A M M 2
;
_chemical_formula_sum "Si O2"
_cell_formula_units_Z 64
_cell_length_a 14.076068
_cell_length_b 8.949386
_cell_length_c 31.055025
_cell_angle_alpha 90.000000
_cell_angle_beta 90.000000
_cell_angle_gamma 90.000000
_cell_volume 3912.068761
_symmetry_space_group_name_H-M "A M M 2"
_symmetry_group_IT_number 38
_symmetry_cell_setting 'orthorhombic'
loop_
_space_group_symop_operation_xyz
x,y,z
-x,-y,z
-x,y,z
x,-y,z
x,1/2+y,1/2+z
-x,1/2-y,1/2+z
-x,1/2+y,1/2+z
x,1/2-y,1/2+z
loop_
_atom_site_type_symbol
_atom_site_label
_atom_site_fract_x
_atom_site_fract_y
_atom_site_fract_z
Si Si1 0.889812 0.327412 0.529580
Si Si2 0.785125 0.823864 0.607734
Si Si3 0.774479 0.825322 0.943947
Si Si4 0.112925 0.666099 0.269655
Si Si5 0.894228 0.177799 0.863918
Si Si6 0.608054 0.672609 0.985624
Si Si7 0.392400 0.175403 0.076003
Si Si8 0.112512 0.170273 0.185374
O O1 0.875518 0.500000 0.542566
O O2 0.841062 0.226896 0.565488
O O3 0.844178 0.291909 0.483596
O O4 0.000000 0.285315 0.526785
O O5 0.679472 0.753494 0.609096
O O6 0.840539 0.774185 0.649945
O O7 0.775831 0.000000 0.607538
O O8 0.824296 0.762318 0.900881
O O9 0.676397 0.734755 0.948467
O O10 0.750926 0.000000 0.940241
O O11 0.153917 0.500000 0.260598
O O12 0.146058 0.725365 0.316762
O O13 0.148559 0.777403 0.232416
O O14 0.000000 0.657912 0.270394
O O15 0.000000 0.244253 0.871502
O O16 0.900551 0.000000 0.866255
O O17 0.500000 0.695781 0.970129
O O18 0.629652 0.500000 0.995434
O O19 0.629683 0.765892 0.028407
O O20 0.500000 0.214723 0.089931
O O21 0.373744 0.000000 0.075916
O O22 0.000000 0.188228 0.181169
O O23 0.144331 0.000000 0.178339
#
# Coordination Sequence:
#
# PCOD8177480 Si02
#       8
#     8   8   8   8   8   8   8   8
#     4  10  20  32  45  64  95 133 168 198 229 271
#     4  12  23  33  48  70  97 128 161 197 239 285
#     4  10  18  29  48  71  95 127 164 198 234 281
#     4   8  14  27  47  69  94 123 157 198 241 283
#     4   8  14  26  46  72  99 127 159 194 234 283
#     4  10  20  33  48  67  93 124 158 200 247 287
#     4  10  20  35  54  72  91 119 157 200 243 287
#     4  10  20  33  49  69  96 129 165 202 239 283
#
# _framework density 16.359629000000002
#
# number of rings (size 3 to 8) (size 9 to 14) (size 15 to 20)
#    0.000    2.250    1.250    3.750    0.000    5.500 
#    0.000    0.625    0.000    1.875    0.000    0.875 
#    0.000    5.000    0.000    0.000    0.000    0.000 
#
# Total GULP energy -396788.821709 kJ/mol
# GULP energy per Si atom -12399.650678 kJ/mol
# Density = 1.632239 g / cm^3
# Si number density = 16.359629 Si / 1000 Ang^3
#
#
#
# Elastic Constant Matrix: (Units=GPa)
#
#
# Indices 1 2 3 4 5 6 
#
# 1 77.2312 43.0861 39.1857 0.0000 0.0000 0.0000
# 2 43.0861 82.2513 46.4029 0.0000 0.0000 0.0000
# 3 39.1857 46.4029 105.2997 0.0000 0.0000 0.0000
# 4 0.0000 0.0000 0.0000 21.7347 0.0000 0.0000
# 5 0.0000 0.0000 0.0000 0.0000 8.7749 0.0000
# 6 0.0000 0.0000 0.0000 0.0000 0.0000 22.1667
#
#
#
# Elastic Compliance Matrix: (Units=1/GPa)
#
#
# Indices 1 2 3 4 5 6 
#
# 1 0.019281 -0.008055 -0.003626 0.000000 0.000000 0.000000
# 2 -0.008055 0.019545 -0.005616 0.000000 0.000000 0.000000
# 3 -0.003626 -0.005616 0.013321 0.000000 0.000000 0.000000
# 4 0.000000 0.000000 0.000000 0.046009 0.000000 0.000000
# 5 0.000000 0.000000 0.000000 0.000000 0.113962 0.000000
# 6 0.000000 0.000000 0.000000 0.000000 0.000000 0.045113
#
#
# Mechanical properties :
#
#
# Convention : Reuss Voigt Hill
#
# Bulk Modulus (GPa) = 56.96377 58.01465 57.48921
# Shear Modulus (GPa) = 16.79681 19.60908 18.20294
#
# Velocity S-wave (km/s) = 3.20773 3.46587 3.33930
# Velocity P-wave (km/s) = 6.97242 7.18021 7.07708
#
# Compressibility (1/GPa) = 0.01755502
#
# Stress axis : x y z
#
# Youngs Moduli (GPa) = 51.86337 51.16298 75.07133
#
# Poissons Ratio (x) = 0.41211 0.27219
# Poissons Ratio (y) = 0.41775 0.42158
# Poissons Ratio (z) = 0.18804 0.28732
#
# Static dielectric constant tensor:
#      x y z
#    x 3.105400 0.000000 0.000000 
#    y 0.000000 3.049730 0.000000 
#    z 0.000000 0.000000 3.241060 
# 
# 
# High freq. dielectric constant tensor:
#      x y z
#    x 1.612350 0.000000 0.000000 
#    y 0.000000 1.625070 0.000000 
#    z 0.000000 0.000000 1.619030 
# 
# From -- ./inp_files/25083.got.cif
#   From: 2010.03.12/outbox.cif.g09.slc.cpg/sg38_13_cif.got.tgz:25083.got - 2010.04.14 02:38:36.
