data_PCOD8177170
_publ_section_title
;
Structure prediction by ZEFSAII (Michael W. Deem and Ramdas Pophale) SiO2 
 PCOD8177170
Probable space group: C C C 2
;
_chemical_formula_sum "Si O2"
_cell_formula_units_Z 36
_cell_length_a 16.760286
_cell_length_b 9.143838
_cell_length_c 10.166410
_cell_angle_alpha 90.000000
_cell_angle_beta 90.000000
_cell_angle_gamma 90.000000
_cell_volume 1558.036288
_symmetry_space_group_name_H-M "C C C 2"
_symmetry_group_IT_number 37
_symmetry_cell_setting 'orthorhombic'
loop_
_space_group_symop_operation_xyz
x,y,z
-x,-y,z
-x,y,1/2+z
x,-y,1/2+z
1/2+x,1/2+y,z
1/2-x,1/2-y,z
1/2-x,1/2+y,1/2+z
1/2+x,1/2-y,1/2+z
loop_
_atom_site_type_symbol
_atom_site_label
_atom_site_fract_x
_atom_site_fract_y
_atom_site_fract_z
Si Si1 0.069358 0.275060 0.759600
Si Si2 0.327781 0.046197 0.327370
Si Si3 0.332524 0.575113 0.421676
Si Si4 0.750000 0.250000 0.620784
Si Si5 0.572095 0.281334 0.962713
O O1 0.100726 0.440045 0.780980
O O2 0.138947 0.158162 0.790015
O O3 0.040673 0.252226 0.609779
O O4 0.998676 0.238292 0.859669
O O5 0.285922 0.117648 0.203056
O O6 0.358761 0.168741 0.427064
O O7 0.260042 0.963427 0.407279
O O8 0.327549 0.689580 0.542013
O O9 0.392321 0.443974 0.455182
#
# Coordination Sequence:
#
# PCOD8177170 Si02
#       5
#     8   8   8   4   8
#     4  12  29  48  74 109 153 197 250 307 379 446
#     4  12  25  48  78 108 149 197 251 310 371 449
#     4  12  25  48  78 108 149 197 251 310 371 449
#     4  12  24  44  84 112 148 192 262 308 380 440
#     4  12  29  48  74 109 153 197 250 307 379 446
#
# _framework density 23.106009
#
# number of rings (size 3 to 8) (size 9 to 14) (size 15 to 20)
#    0.000    0.000    4.444    4.000    3.111    5.333 
#    0.000    0.000    0.000    0.000    0.000    0.000 
#    0.000    0.000    0.000    0.000    0.000    0.000 
#
# Total GULP energy -223270.019444 kJ/mol
# GULP energy per Si atom -12403.889969 kJ/mol
# Density = 2.305342 g / cm^3
# Si number density = 23.106009 Si / 1000 Ang^3
#
#
#
# Elastic Constant Matrix: (Units=GPa)
#
#
# Indices 1 2 3 4 5 6 
#
# 1 94.8088 17.2134 35.6072 0.0000 0.0000 0.0000
# 2 17.2134 106.0201 27.9813 0.0000 0.0000 0.0000
# 3 35.6072 27.9813 151.6854 0.0000 0.0000 0.0000
# 4 0.0000 0.0000 0.0000 32.1309 0.0000 0.0000
# 5 0.0000 0.0000 0.0000 0.0000 42.2809 0.0000
# 6 0.0000 0.0000 0.0000 0.0000 0.0000 43.6520
#
#
#
# Elastic Compliance Matrix: (Units=1/GPa)
#
#
# Indices 1 2 3 4 5 6 
#
# 1 0.011720 -0.001237 -0.002523 0.000000 0.000000 0.000000
# 2 -0.001237 0.010045 -0.001563 0.000000 0.000000 0.000000
# 3 -0.002523 -0.001563 0.007473 0.000000 0.000000 0.000000
# 4 0.000000 0.000000 0.000000 0.031123 0.000000 0.000000
# 5 0.000000 0.000000 0.000000 0.000000 0.023651 0.000000
# 6 0.000000 0.000000 0.000000 0.000000 0.000000 0.022908
#
#
# Mechanical properties :
#
#
# Convention : Reuss Voigt Hill
#
# Bulk Modulus (GPa) = 53.78362 57.12425 55.45394
# Shear Modulus (GPa) = 40.39964 41.72694 41.06329
#
# Velocity S-wave (km/s) = 4.18598 4.25419 4.22022
# Velocity P-wave (km/s) = 6.83306 6.99337 6.91368
#
# Compressibility (1/GPa) = 0.01859302
#
# Stress axis : x y z
#
# Youngs Moduli (GPa) = 85.32677 99.54767 133.81317
#
# Poissons Ratio (x) = 0.12313 0.33760
# Poissons Ratio (y) = 0.10554 0.20911
# Poissons Ratio (z) = 0.21527 0.15556
#
# Static dielectric constant tensor:
#      x y z
#    x 4.307990 0.000000 0.000000 
#    y 0.000000 4.539270 0.000000 
#    z 0.000000 0.000000 4.281660 
# 
# 
# High freq. dielectric constant tensor:
#      x y z
#    x 1.917290 0.000000 0.000000 
#    y 0.000000 1.937390 0.000000 
#    z 0.000000 0.000000 1.919640 
# 
# From -- ./inp_files/4253.got.cif
#   From: 2010.03.12/outbox.cif.g09.slc.cpg/sg37_3_cif.got.tgz:4253.got - 2010.04.14 02:25:27.
