data_PCOD8177359
_publ_section_title
;
Structure prediction by ZEFSAII (Michael W. Deem and Ramdas Pophale) SiO2 
 PCOD8177359
Probable space group: A M M 2
;
_chemical_formula_sum "Si O2"
_cell_formula_units_Z 64
_cell_length_a 9.296755
_cell_length_b 26.414454
_cell_length_c 18.157981
_cell_angle_alpha 90.000000
_cell_angle_beta 90.000000
_cell_angle_gamma 90.000000
_cell_volume 4459.031921
_symmetry_space_group_name_H-M "A M M 2"
_symmetry_group_IT_number 38
_symmetry_cell_setting 'orthorhombic'
loop_
_space_group_symop_operation_xyz
x,y,z
-x,-y,z
-x,y,z
x,-y,z
x,1/2+y,1/2+z
-x,1/2-y,1/2+z
-x,1/2+y,1/2+z
x,1/2-y,1/2+z
loop_
_atom_site_type_symbol
_atom_site_label
_atom_site_fract_x
_atom_site_fract_y
_atom_site_fract_z
Si Si1 0.662929 0.199636 0.878530
Si Si2 0.333542 0.056664 0.244357
Si Si3 0.331839 0.151377 0.336601
Si Si4 0.166779 0.745476 0.593197
Si Si5 0.832884 0.442583 0.599178
Si Si6 0.341175 0.798532 0.478823
Si Si7 0.828583 0.241852 0.262263
Si Si8 0.831985 0.851325 0.998815
O O1 0.500000 0.183345 0.858109
O O2 0.663089 0.249169 0.928190
O O3 0.754461 0.211415 0.805095
O O4 0.740604 0.154892 0.924064
O O5 0.500000 0.058534 0.223211
O O6 0.298646 0.094098 0.311848
O O7 0.249319 0.074693 0.172245
O O8 0.286598 0.000000 0.268191
O O9 0.500000 0.166072 0.324228
O O10 0.294182 0.155724 0.423969
O O11 0.232238 0.188305 0.289169
O O12 0.238549 0.791979 0.548788
O O13 0.216113 0.747390 0.677337
O O14 0.210465 0.691429 0.558637
O O15 0.000000 0.755119 0.585721
O O16 0.792473 0.500000 0.576444
O O17 0.790081 0.405798 0.532275
O O18 0.000000 0.436905 0.617651
O O19 0.500000 0.808087 0.510476
O O20 0.000000 0.243133 0.274291
O O21 0.000000 0.847756 0.978844
#
# Coordination Sequence:
#
# PCOD8177359 Si02
#       8
#     8   8   8   8   8   8   8   8
#     4   9  17  28  40  56  77 101 130 162 195 230
#     4   9  17  28  41  57  79 107 137 169 202 233
#     4   9  17  28  40  56  78 104 135 165 193 229
#     4   9  17  26  37  55  77 100 128 159 189 227
#     4   9  17  28  41  58  81 107 136 170 202 232
#     4   8  15  26  38  52  72  98 126 157 191 227
#     4  10  18  27  40  58  79 103 130 159 194 234
#     4   9  16  27  41  56  77 106 136 163 194 230
#
# _framework density 14.352892000000001
#
# number of rings (size 3 to 8) (size 9 to 14) (size 15 to 20)
#    0.000    3.000    0.000    2.250    0.000    6.000 
#    0.000    2.500    0.000    0.000    0.000    0.000 
#    0.000    1.000    0.000    5.750    0.000    3.500 
#
# Total GULP energy -396670.907139 kJ/mol
# GULP energy per Si atom -12395.965848 kJ/mol
# Density = 1.432022 g / cm^3
# Si number density = 14.352892 Si / 1000 Ang^3
#
#
#
# Elastic Constant Matrix: (Units=GPa)
#
#
# Indices 1 2 3 4 5 6 
#
# 1 57.5793 30.7623 47.2908 0.0000 0.0000 0.0000
# 2 30.7623 68.0727 45.9819 0.0000 0.0000 0.0000
# 3 47.2908 45.9819 95.3405 0.0000 0.0000 0.0000
# 4 0.0000 0.0000 0.0000 25.3554 0.0000 0.0000
# 5 0.0000 0.0000 0.0000 0.0000 24.8393 0.0000
# 6 0.0000 0.0000 0.0000 0.0000 0.0000 16.2969
#
#
#
# Elastic Compliance Matrix: (Units=1/GPa)
#
#
# Indices 1 2 3 4 5 6 
#
# 1 0.030540 -0.005293 -0.012596 0.000000 0.000000 0.000000
# 2 -0.005293 0.022706 -0.008325 0.000000 0.000000 0.000000
# 3 -0.012596 -0.008325 0.020752 0.000000 0.000000 0.000000
# 4 0.000000 0.000000 0.000000 0.039439 0.000000 0.000000
# 5 0.000000 0.000000 0.000000 0.000000 0.040259 0.000000
# 6 0.000000 0.000000 0.000000 0.000000 0.000000 0.061361
#
#
# Mechanical properties :
#
#
# Convention : Reuss Voigt Hill
#
# Bulk Modulus (GPa) = 46.36191 52.11804 49.23998
# Shear Modulus (GPa) = 18.20330 19.76216 18.98273
#
# Velocity S-wave (km/s) = 3.56514 3.71465 3.64066
# Velocity P-wave (km/s) = 7.02271 7.40195 7.21483
#
# Compressibility (1/GPa) = 0.02156943
#
# Stress axis : x y z
#
# Youngs Moduli (GPa) = 32.74358 44.04184 48.18881
#
# Poissons Ratio (x) = 0.23311 0.60698
# Poissons Ratio (y) = 0.17331 0.40119
# Poissons Ratio (z) = 0.41243 0.36666
#
# Static dielectric constant tensor:
#      x y z
#    x 2.898320 0.000000 0.000000 
#    y 0.000000 2.750840 0.000000 
#    z 0.000000 0.000000 2.857960 
# 
# 
# High freq. dielectric constant tensor:
#      x y z
#    x 1.555980 0.000000 0.000000 
#    y 0.000000 1.516480 0.000000 
#    z 0.000000 0.000000 1.534390 
# 
# From -- ./inp_files/17327.got.cif
#   From: 2010.03.12/outbox.cif.g09.slc.cpg/sg38_9_cif.got.tgz:17327.got - 2010.04.14 02:38:36.
