data_PCOD8177862
_publ_section_title
;
Structure prediction by ZEFSAII (Michael W. Deem and Ramdas Pophale) SiO2 
 PCOD8177862
Probable space group: A M M 2
;
_chemical_formula_sum "Si O2"
_cell_formula_units_Z 56
_cell_length_a 13.514517
_cell_length_b 9.069922
_cell_length_c 31.250336
_cell_angle_alpha 90.000000
_cell_angle_beta 90.000000
_cell_angle_gamma 90.000000
_cell_volume 3830.529156
_symmetry_space_group_name_H-M "A M M 2"
_symmetry_group_IT_number 38
_symmetry_cell_setting 'orthorhombic'
loop_
_space_group_symop_operation_xyz
x,y,z
-x,-y,z
-x,y,z
x,-y,z
x,1/2+y,1/2+z
-x,1/2-y,1/2+z
-x,1/2+y,1/2+z
x,1/2-y,1/2+z
loop_
_atom_site_type_symbol
_atom_site_label
_atom_site_fract_x
_atom_site_fract_y
_atom_site_fract_z
Si Si1 0.206697 0.667477 0.597560
Si Si2 0.610947 0.167335 0.147750
Si Si3 0.882420 0.165813 0.841058
Si Si4 0.117402 0.665157 0.435136
Si Si5 0.784958 0.825412 0.680658
Si Si6 0.882446 0.833071 0.258787
Si Si7 0.884343 0.171335 0.518315
O O1 0.166519 0.500000 0.597472
O O2 0.326995 0.671294 0.602947
O O3 0.160950 0.753488 0.638861
O O4 0.177620 0.745254 0.554023
O O5 0.500000 0.228105 0.140454
O O6 0.670060 0.269702 0.181911
O O7 0.608377 0.000000 0.165417
O O8 0.844280 0.217164 0.888186
O O9 0.842088 0.276050 0.804701
O O10 0.000000 0.167112 0.840747
O O11 0.844559 0.000000 0.831554
O O12 0.155937 0.500000 0.444946
O O13 0.155237 0.774539 0.472121
O O14 0.000000 0.665515 0.434569
O O15 0.840235 0.773405 0.722800
O O16 0.789905 0.000000 0.677224
O O17 0.000000 0.824263 0.257038
O O18 0.845136 0.000000 0.251939
O O19 0.000000 0.207409 0.524434
O O20 0.862200 0.000000 0.522229
#
# Coordination Sequence:
#
# PCOD8177862 Si02
#       7
#     8   8   8   8   8   8   8
#     4   9  18  31  45  61  81 109 140 171 208 250
#     4   8  16  32  50  65  82 105 133 168 210 252
#     4   8  14  25  40  57  77 104 140 179 214 244
#     4   8  14  25  40  56  76 106 142 176 210 247
#     4  10  19  30  44  63  85 109 139 174 209 248
#     4  10  19  29  41  58  83 116 149 177 208 246
#     4  10  19  28  39  58  85 115 145 177 209 240
#
# _framework density 14.619389999999999
#
# number of rings (size 3 to 8) (size 9 to 14) (size 15 to 20)
#    0.857    2.143    0.000    3.000    0.000    3.143 
#    0.000    2.857    0.000    0.000    0.000    0.000 
#    0.000    1.143    0.000    9.429    0.000    5.000 
#
# Total GULP energy -346875.755877 kJ/mol
# GULP energy per Si atom -12388.419853 kJ/mol
# Density = 1.458612 g / cm^3
# Si number density = 14.619390 Si / 1000 Ang^3
#
#
#
# Elastic Constant Matrix: (Units=GPa)
#
#
# Indices 1 2 3 4 5 6 
#
# 1 27.3382 25.3690 24.8519 0.0000 0.0000 0.0000
# 2 25.3690 107.2604 59.3364 0.0000 0.0000 0.0000
# 3 24.8519 59.3364 114.2953 0.0000 0.0000 0.0000
# 4 0.0000 0.0000 0.0000 30.5449 0.0000 0.0000
# 5 0.0000 0.0000 0.0000 0.0000 -1.2856 0.0000
# 6 0.0000 0.0000 0.0000 0.0000 0.0000 14.3525
#
#
#
# Elastic Compliance Matrix: (Units=1/GPa)
#
#
# Indices 1 2 3 4 5 6 
#
# 1 0.050247 -0.008193 -0.006672 0.000000 0.000000 0.000000
# 2 -0.008193 0.014415 -0.005702 0.000000 0.000000 0.000000
# 3 -0.006672 -0.005702 0.013160 0.000000 0.000000 0.000000
# 4 0.000000 0.000000 0.000000 0.032739 0.000000 0.000000
# 5 0.000000 0.000000 0.000000 0.000000 -0.777829 0.000000
# 6 0.000000 0.000000 0.000000 0.000000 0.000000 0.069674
#
#
# Mechanical properties :
#
#
# Convention : Reuss Voigt Hill
#
# Bulk Modulus (GPa) = 27.25702 52.00093 39.62898
# Shear Modulus (GPa) = -9.18732 18.01146 4.41207
#
# Velocity S-wave (km/s) = -2.50958 3.51383 1.73911
# Velocity P-wave (km/s) = 3.20743 7.21871 5.58558
#
# Compressibility (1/GPa) = 0.03668779
#
# Stress axis : x y z
#
# Youngs Moduli (GPa) = 19.90157 69.36990 75.98606
#
# Poissons Ratio (x) = 0.56838 0.50698
# Poissons Ratio (y) = 0.16306 0.43329
# Poissons Ratio (z) = 0.13278 0.39556
#
# Static dielectric constant tensor:
#      x y z
#    x 2.439340 0.000000 0.000000 
#    y 0.000000 2.957840 0.000000 
#    z 0.000000 0.000000 2.993040 
# 
# 
# High freq. dielectric constant tensor:
#      x y z
#    x 1.498260 0.000000 0.000000 
#    y 0.000000 1.570930 0.000000 
#    z 0.000000 0.000000 1.559560 
# 
# From -- ./inp_files/24982.got.cif
#   From: 2010.03.12/outbox.cif.g09.slc.cpg/sg38_13_cif.got.tgz:24982.got - 2010.04.14 02:38:36.
