data_PCOD8177958
_publ_section_title
;
Structure prediction by ZEFSAII (Michael W. Deem and Ramdas Pophale) SiO2 
 PCOD8177958
Probable space group: A M M 2
;
_chemical_formula_sum "Si O2"
_cell_formula_units_Z 56
_cell_length_a 9.235233
_cell_length_b 22.404069
_cell_length_c 17.497383
_cell_angle_alpha 90.000000
_cell_angle_beta 90.000000
_cell_angle_gamma 90.000000
_cell_volume 3620.327479
_symmetry_space_group_name_H-M "A M M 2"
_symmetry_group_IT_number 38
_symmetry_cell_setting 'orthorhombic'
loop_
_space_group_symop_operation_xyz
x,y,z
-x,-y,z
-x,y,z
x,-y,z
x,1/2+y,1/2+z
-x,1/2-y,1/2+z
-x,1/2+y,1/2+z
x,1/2-y,1/2+z
loop_
_atom_site_type_symbol
_atom_site_label
_atom_site_fract_x
_atom_site_fract_y
_atom_site_fract_z
Si Si1 0.168148 0.308153 0.882920
Si Si2 0.668570 0.348333 0.750498
Si Si3 0.171214 0.353050 0.491697
Si Si4 0.668968 0.686305 0.354521
Si Si5 0.666532 0.569580 0.611053
Si Si6 0.835560 0.721803 0.046583
Si Si7 0.334342 0.280839 0.191853
O O1 0.235591 0.359193 0.827697
O O2 0.265333 0.250913 0.867927
O O3 0.000000 0.296037 0.862720
O O4 0.183035 0.322436 0.973489
O O5 0.500000 0.346492 0.773274
O O6 0.704620 0.401595 0.692663
O O7 0.718352 0.286153 0.711897
O O8 0.245498 0.360796 0.407857
O O9 0.229997 0.404834 0.545804
O O10 0.217230 0.288692 0.525312
O O11 0.000000 0.359182 0.481859
O O12 0.500000 0.686063 0.376534
O O13 0.689661 0.673932 0.263542
O O14 0.500000 0.583252 0.589291
O O15 0.697528 0.500000 0.618492
O O16 0.749083 0.694853 0.117882
O O17 0.000000 0.725225 0.073072
O O18 0.500000 0.278222 0.167868
#
# Coordination Sequence:
#
# PCOD8177958 Si02
#       7
#     8   8   8   8   8   8   8
#     4   9  17  27  39  59  83 111 144 175 212 258
#     4   9  17  29  42  59  81 110 146 180 217 257
#     4  10  19  30  43  61  84 113 146 181 221 260
#     4   9  17  28  41  59  82 111 144 176 210 256
#     4  10  20  33  48  64  84 114 152 190 224 259
#     4   9  17  26  38  59  85 112 141 170 207 255
#     4   9  16  25  40  61  83 110 143 174 207 251
#
# _framework density 15.468215000000001
#
# number of rings (size 3 to 8) (size 9 to 14) (size 15 to 20)
#    0.000    2.714    1.429    3.000    0.000    6.571 
#    0.000    0.000    0.000    0.000    0.000    0.000 
#    0.000    1.143    0.000    6.286    0.000    4.286 
#
# Total GULP energy -347000.044614 kJ/mol
# GULP energy per Si atom -12392.858736 kJ/mol
# Density = 1.543301 g / cm^3
# Si number density = 15.468215 Si / 1000 Ang^3
#
#
#
# Elastic Constant Matrix: (Units=GPa)
#
#
# Indices 1 2 3 4 5 6 
#
# 1 83.9665 26.7113 70.3394 0.0000 0.0000 0.0000
# 2 26.7113 42.0304 38.4150 0.0000 0.0000 0.0000
# 3 70.3394 38.4150 132.0165 0.0000 0.0000 0.0000
# 4 0.0000 0.0000 0.0000 16.1412 0.0000 0.0000
# 5 0.0000 0.0000 0.0000 0.0000 31.9697 0.0000
# 6 0.0000 0.0000 0.0000 0.0000 0.0000 13.1647
#
#
#
# Elastic Compliance Matrix: (Units=1/GPa)
#
#
# Indices 1 2 3 4 5 6 
#
# 1 0.022111 -0.004475 -0.010479 0.000000 0.000000 0.000000
# 2 -0.004475 0.033318 -0.007311 0.000000 0.000000 0.000000
# 3 -0.010479 -0.007311 0.015286 0.000000 0.000000 0.000000
# 4 0.000000 0.000000 0.000000 0.061953 0.000000 0.000000
# 5 0.000000 0.000000 0.000000 0.000000 0.031280 0.000000
# 6 0.000000 0.000000 0.000000 0.000000 0.000000 0.075961
#
#
# Mechanical properties :
#
#
# Convention : Reuss Voigt Hill
#
# Bulk Modulus (GPa) = 38.18878 58.77162 48.48020
# Shear Modulus (GPa) = 17.05515 20.42497 18.74006
#
# Velocity S-wave (km/s) = 3.32413 3.63774 3.48447
# Velocity P-wave (km/s) = 6.28294 7.46470 6.89917
#
# Compressibility (1/GPa) = 0.02618571
#
# Stress axis : x y z
#
# Youngs Moduli (GPa) = 45.22564 30.01363 65.42134
#
# Poissons Ratio (x) = 0.13430 0.68555
# Poissons Ratio (y) = 0.20237 0.47830
# Poissons Ratio (z) = 0.47392 0.21943
#
# Static dielectric constant tensor:
#      x y z
#    x 3.060950 0.000000 0.000000 
#    y 0.000000 2.486670 0.000000 
#    z 0.000000 0.000000 3.427350 
# 
# 
# High freq. dielectric constant tensor:
#      x y z
#    x 1.604890 0.000000 0.000000 
#    y 0.000000 1.517100 0.000000 
#    z 0.000000 0.000000 1.607300 
# 
# From -- ./inp_files/17080.got.cif
#   From: 2010.03.12/outbox.cif.g09.slc.cpg/sg38_9_cif.got.tgz:17080.got - 2010.04.14 02:38:36.
