data_PCOD8177324
_publ_section_title
;
Structure prediction by ZEFSAII (Michael W. Deem and Ramdas Pophale) SiO2 
 PCOD8177324
Probable space group: A M M 2
;
_chemical_formula_sum "Si O2"
_cell_formula_units_Z 56
_cell_length_a 21.312461
_cell_length_b 8.607147
_cell_length_c 15.530211
_cell_angle_alpha 90.000000
_cell_angle_beta 90.000000
_cell_angle_gamma 90.000000
_cell_volume 2848.853904
_symmetry_space_group_name_H-M "A M M 2"
_symmetry_group_IT_number 38
_symmetry_cell_setting 'orthorhombic'
loop_
_space_group_symop_operation_xyz
x,y,z
-x,-y,z
-x,y,z
x,-y,z
x,1/2+y,1/2+z
-x,1/2-y,1/2+z
-x,1/2+y,1/2+z
x,1/2-y,1/2+z
loop_
_atom_site_type_symbol
_atom_site_label
_atom_site_fract_x
_atom_site_fract_y
_atom_site_fract_z
Si Si1 0.787893 0.317179 0.681480
Si Si2 0.000000 0.180703 0.773525
Si Si3 0.866268 0.818547 0.022755
Si Si4 0.426154 0.321332 0.816637
Si Si5 0.347846 0.318095 0.167365
Si Si6 0.133070 0.685165 0.333681
Si Si7 0.000000 0.820750 0.091733
Si Si8 0.569484 0.684055 0.009465
O O1 0.797977 0.500000 0.686481
O O2 0.824402 0.243682 0.598939
O O3 0.715338 0.278285 0.674714
O O4 0.815161 0.244633 0.768034
O O5 0.936224 0.254148 0.812594
O O6 0.000000 0.207832 0.672280
O O7 0.000000 0.000000 0.794412
O O8 0.939580 0.782051 0.034724
O O9 0.853405 0.000000 0.025028
O O10 0.847011 0.754197 0.928731
O O11 0.500000 0.298916 0.803225
O O12 0.406898 0.500000 0.800264
O O13 0.390187 0.210339 0.751033
O O14 0.407185 0.269415 0.913731
O O15 0.332835 0.500000 0.160128
O O16 0.383154 0.253767 0.082173
O O17 0.131087 0.500000 0.329828
O O18 0.000000 0.000000 0.122951
O O19 0.500000 0.754453 0.026591
O O20 0.564636 0.500000 0.015212
#
# Coordination Sequence:
#
# PCOD8177324 Si02
#       8
#     8   4   8   8   8   8   4   8
#     4  11  23  39  55  77 108 146 188 230 272 319
#     4  10  19  31  55  86 114 138 169 223 277 324
#     4   9  19  35  58  81 105 141 182 224 271 329
#     4   9  18  35  59  86 115 145 178 221 271 322
#     4  11  22  36  56  81 111 148 186 225 270 321
#     4  10  20  37  58  82 110 142 180 222 276 331
#     4  10  17  33  59  82 108 142 179 217 271 332
#     4   8  16  33  57  83 111 143 178 217 267 324
#
# _framework density 19.657028
#
# number of rings (size 3 to 8) (size 9 to 14) (size 15 to 20)
#    0.000    2.286    1.429    2.571    0.000    3.714 
#    0.000    6.429    0.000    2.571    0.000    0.000 
#    0.000    0.000    0.000    0.000    0.000    0.000 
#
# Total GULP energy -347151.541169 kJ/mol
# GULP energy per Si atom -12398.269327 kJ/mol
# Density = 1.961229 g / cm^3
# Si number density = 19.657028 Si / 1000 Ang^3
#
#
#
# Elastic Constant Matrix: (Units=GPa)
#
#
# Indices 1 2 3 4 5 6 
#
# 1 92.3936 5.0964 61.2925 0.0000 0.0000 0.0000
# 2 5.0964 19.0397 13.6137 0.0000 0.0000 0.0000
# 3 61.2925 13.6137 168.8193 0.0000 0.0000 0.0000
# 4 0.0000 0.0000 0.0000 24.9480 0.0000 0.0000
# 5 0.0000 0.0000 0.0000 0.0000 17.7124 0.0000
# 6 0.0000 0.0000 0.0000 0.0000 0.0000 9.1197
#
#
#
# Elastic Compliance Matrix: (Units=1/GPa)
#
#
# Indices 1 2 3 4 5 6 
#
# 1 0.014257 -0.000122 -0.005167 0.000000 0.000000 0.000000
# 2 -0.000122 0.055736 -0.004450 0.000000 0.000000 0.000000
# 3 -0.005167 -0.004450 0.008158 0.000000 0.000000 0.000000
# 4 0.000000 0.000000 0.000000 0.040083 0.000000 0.000000
# 5 0.000000 0.000000 0.000000 0.000000 0.056458 0.000000
# 6 0.000000 0.000000 0.000000 0.000000 0.000000 0.109653
#
#
# Mechanical properties :
#
#
# Convention : Reuss Voigt Hill
#
# Bulk Modulus (GPa) = 17.04328 48.91752 32.98040
# Shear Modulus (GPa) = 15.46160 23.70602 19.58381
#
# Velocity S-wave (km/s) = 2.80763 3.47649 3.15981
# Velocity P-wave (km/s) = 4.38172 6.40736 5.48879
#
# Compressibility (1/GPa) = 0.05867414
#
# Stress axis : x y z
#
# Youngs Moduli (GPa) = 70.13907 17.94157 122.57678
#
# Poissons Ratio (x) = 0.00219 0.63330
# Poissons Ratio (y) = 0.00857 0.54550
# Poissons Ratio (z) = 0.36237 0.07985
#
# Static dielectric constant tensor:
#      x y z
#    x 3.688420 0.000000 0.000000 
#    y 0.000000 3.202370 0.000000 
#    z 0.000000 0.000000 3.924270 
# 
# 
# High freq. dielectric constant tensor:
#      x y z
#    x 1.765360 0.000000 0.000000 
#    y 0.000000 1.728690 0.000000 
#    z 0.000000 0.000000 1.782720 
# 
# From -- ./inp_files/15537.got.cif
#   From: 2010.03.12/outbox.cif.g09.slc.cpg/sg38_8_cif.got.tgz:15537.got - 2010.04.14 02:38:36.
