data_PCOD8177908
_publ_section_title
;
Structure prediction by ZEFSAII (Michael W. Deem and Ramdas Pophale) SiO2 
 PCOD8177908
Probable space group: A M M 2
;
_chemical_formula_sum "Si O2"
_cell_formula_units_Z 64
_cell_length_a 13.939234
_cell_length_b 27.400865
_cell_length_c 10.333154
_cell_angle_alpha 90.000000
_cell_angle_beta 90.000000
_cell_angle_gamma 90.000000
_cell_volume 3946.717884
_symmetry_space_group_name_H-M "A M M 2"
_symmetry_group_IT_number 38
_symmetry_cell_setting 'orthorhombic'
loop_
_space_group_symop_operation_xyz
x,y,z
-x,-y,z
-x,y,z
x,-y,z
x,1/2+y,1/2+z
-x,1/2-y,1/2+z
-x,1/2+y,1/2+z
x,1/2-y,1/2+z
loop_
_atom_site_type_symbol
_atom_site_label
_atom_site_fract_x
_atom_site_fract_y
_atom_site_fract_z
Si Si1 0.389926 0.557131 0.557580
Si Si2 0.104800 0.057072 0.906578
Si Si3 0.206374 0.102702 0.140320
Si Si4 0.110855 0.280005 0.893138
Si Si5 0.797026 0.942023 0.649432
Si Si6 0.603706 0.942187 0.761942
Si Si7 0.886785 0.705696 0.605122
Si Si8 0.885520 0.610441 0.906876
O O1 0.500000 0.567242 0.598419
O O2 0.365327 0.500000 0.578517
O O3 0.320912 0.591841 0.645015
O O4 0.372878 0.573210 0.408887
O O5 0.149871 0.079131 0.775914
O O6 0.000000 0.081009 0.925509
O O7 0.096483 0.000000 0.886783
O O8 0.168228 0.066450 0.031316
O O9 0.178677 0.157699 0.101227
O O10 0.158984 0.088102 0.276424
O O11 0.128720 0.266600 0.742544
O O12 0.151552 0.333951 0.922127
O O13 0.000000 0.280885 0.927713
O O14 0.154998 0.239771 0.990224
O O15 0.686105 0.924503 0.662818
O O16 0.846641 0.920362 0.524760
O O17 0.804157 0.000000 0.640167
O O18 0.500000 0.920593 0.718414
O O19 0.598412 0.000000 0.760893
O O20 0.000000 0.691842 0.589981
O O21 0.000000 0.607171 0.897794
#
# Coordination Sequence:
#
# PCOD8177908 Si02
#       8
#     8   8   8   8   8   8   8   8
#     4   9  17  31  51  73  97 125 160 206 252 285
#     4  10  19  29  42  63  93 125 161 198 225 267
#     4  11  19  31  49  72  95 123 160 200 244 288
#     4   8  16  31  47  65  91 123 158 196 235 278
#     4  10  19  31  45  66  94 129 167 199 235 283
#     4   8  14  28  49  68  88 118 157 204 248 275
#     4   9  17  30  48  69  94 122 157 198 239 288
#     4  10  21  34  46  65 102 140 161 187 238 301
#
# _framework density 16.216006
#
# number of rings (size 3 to 8) (size 9 to 14) (size 15 to 20)
#    0.000    2.625    1.250    3.375    0.000    2.750 
#    0.000    3.125    0.000    1.500    0.000    4.375 
#    0.000    0.000    0.000    0.000    0.000    0.000 
#
# Total GULP energy -396572.843004 kJ/mol
# GULP energy per Si atom -12392.901344 kJ/mol
# Density = 1.617910 g / cm^3
# Si number density = 16.216006 Si / 1000 Ang^3
#
#
#
# Elastic Constant Matrix: (Units=GPa)
#
#
# Indices 1 2 3 4 5 6 
#
# 1 100.0492 34.9423 45.7546 0.0000 0.0000 0.0000
# 2 34.9423 44.7713 33.5721 0.0000 0.0000 0.0000
# 3 45.7546 33.5721 100.0944 0.0000 0.0000 0.0000
# 4 0.0000 0.0000 0.0000 23.8958 0.0000 0.0000
# 5 0.0000 0.0000 0.0000 0.0000 24.0395 0.0000
# 6 0.0000 0.0000 0.0000 0.0000 0.0000 16.0918
#
#
#
# Elastic Compliance Matrix: (Units=1/GPa)
#
#
# Indices 1 2 3 4 5 6 
#
# 1 0.014776 -0.008641 -0.003856 0.000000 0.000000 0.000000
# 2 -0.008641 0.034894 -0.007754 0.000000 0.000000 0.000000
# 3 -0.003856 -0.007754 0.014354 0.000000 0.000000 0.000000
# 4 0.000000 0.000000 0.000000 0.041848 0.000000 0.000000
# 5 0.000000 0.000000 0.000000 0.000000 0.041598 0.000000
# 6 0.000000 0.000000 0.000000 0.000000 0.000000 0.062143
#
#
# Mechanical properties :
#
#
# Convention : Reuss Voigt Hill
#
# Bulk Modulus (GPa) = 42.51249 52.60586 47.55918
# Shear Modulus (GPa) = 19.38313 21.51517 20.44915
#
# Velocity S-wave (km/s) = 3.46107 3.64646 3.55498
# Velocity P-wave (km/s) = 6.49964 7.08802 6.80020
#
# Compressibility (1/GPa) = 0.02352250
#
# Stress axis : x y z
#
# Youngs Moduli (GPa) = 67.67511 28.65856 69.66700
#
# Poissons Ratio (x) = 0.24763 0.26866
# Poissons Ratio (y) = 0.58476 0.54017
# Poissons Ratio (z) = 0.26098 0.22221
#
# Static dielectric constant tensor:
#      x y z
#    x 3.367300 0.000000 0.000000 
#    y 0.000000 2.849870 0.000000 
#    z 0.000000 0.000000 3.122670 
# 
# 
# High freq. dielectric constant tensor:
#      x y z
#    x 1.612290 0.000000 0.000000 
#    y 0.000000 1.591140 0.000000 
#    z 0.000000 0.000000 1.623070 
# 
# From -- ./inp_files/5993.got.cif
#   From: 2010.03.12/outbox.cif.g09.slc.cpg/sg38_3_cif.got.tgz:5993.got - 2010.04.14 02:38:36.
