data_PCOD8177696
_publ_section_title
;
Structure prediction by ZEFSAII (Michael W. Deem and Ramdas Pophale) SiO2 
 PCOD8177696
Probable space group: A M M 2
;
_chemical_formula_sum "Si O2"
_cell_formula_units_Z 56
_cell_length_a 21.731040
_cell_length_b 8.417041
_cell_length_c 15.197926
_cell_angle_alpha 90.000000
_cell_angle_beta 90.000000
_cell_angle_gamma 90.000000
_cell_volume 2779.868673
_symmetry_space_group_name_H-M "A M M 2"
_symmetry_group_IT_number 38
_symmetry_cell_setting 'orthorhombic'
loop_
_space_group_symop_operation_xyz
x,y,z
-x,-y,z
-x,y,z
x,-y,z
x,1/2+y,1/2+z
-x,1/2-y,1/2+z
-x,1/2+y,1/2+z
x,1/2-y,1/2+z
loop_
_atom_site_type_symbol
_atom_site_label
_atom_site_fract_x
_atom_site_fract_y
_atom_site_fract_z
Si Si1 0.346381 0.684286 0.230450
Si Si2 0.787244 0.814810 0.237811
Si Si3 0.428272 0.316378 0.878304
Si Si4 0.432073 0.311796 0.076290
Si Si5 0.000000 0.815855 0.078828
Si Si6 0.125227 0.686118 0.094329
Si Si7 0.000000 0.181942 0.390960
Si Si8 0.868616 0.310667 0.895571
O O1 0.329831 0.500000 0.218240
O O2 0.284921 0.784701 0.240562
O O3 0.388524 0.704594 0.315928
O O4 0.382837 0.754267 0.145997
O O5 0.817262 0.725054 0.155929
O O6 0.815865 0.749153 0.329721
O O7 0.800716 0.000000 0.227368
O O8 0.500000 0.287001 0.859511
O O9 0.411124 0.500000 0.862003
O O10 0.411687 0.265097 0.977870
O O11 0.500000 0.240548 0.096851
O O12 0.436227 0.500000 0.084331
O O13 0.000000 0.697313 0.996325
O O14 0.063311 0.774529 0.130852
O O15 0.000000 0.000000 0.051914
O O16 0.112939 0.500000 0.094646
O O17 0.142478 0.748557 0.995671
O O18 0.934974 0.257159 0.358812
O O19 0.000000 0.000000 0.362396
O O20 0.870636 0.500000 0.896837
#
# Coordination Sequence:
#
# PCOD8177696 Si02
#       8
#     8   8   8   8   4   8   4   8
#     4  11  22  36  54  78 110 147 183 221 265 317
#     4  11  23  38  54  78 109 146 189 227 267 321
#     4   9  18  35  59  84 107 134 172 219 268 318
#     4   8  16  33  57  81 105 138 179 217 261 323
#     4  10  18  31  54  85 112 138 172 217 275 329
#     4  10  20  38  59  80 106 140 181 226 272 321
#     4   8  14  31  56  79 100 132 178 223 267 319
#     4   8  17  34  57  78 103 139 176 217 272 335
#
# _framework density 20.144836000000002
#
# number of rings (size 3 to 8) (size 9 to 14) (size 15 to 20)
#    0.000    2.571    0.000    4.071    0.000    2.571 
#    0.000   15.714    0.000    1.714    0.000    0.000 
#    0.000    0.000    0.000    0.000    0.000    0.000 
#
# Total GULP energy -347042.854629 kJ/mol
# GULP energy per Si atom -12394.387665 kJ/mol
# Density = 2.009899 g / cm^3
# Si number density = 20.144836 Si / 1000 Ang^3
#
#
#
# Elastic Constant Matrix: (Units=GPa)
#
#
# Indices 1 2 3 4 5 6 
#
# 1 124.0287 15.3395 69.9028 0.0000 0.0000 0.0000
# 2 15.3395 42.0309 17.7299 0.0000 0.0000 0.0000
# 3 69.9028 17.7299 120.3124 0.0000 0.0000 0.0000
# 4 0.0000 0.0000 0.0000 24.5156 0.0000 0.0000
# 5 0.0000 0.0000 0.0000 0.0000 16.5914 0.0000
# 6 0.0000 0.0000 0.0000 0.0000 0.0000 29.8650
#
#
#
# Elastic Compliance Matrix: (Units=1/GPa)
#
#
# Indices 1 2 3 4 5 6 
#
# 1 0.012082 -0.001544 -0.006792 0.000000 0.000000 0.000000
# 2 -0.001544 0.025566 -0.002870 0.000000 0.000000 0.000000
# 3 -0.006792 -0.002870 0.012681 0.000000 0.000000 0.000000
# 4 0.000000 0.000000 0.000000 0.040790 0.000000 0.000000
# 5 0.000000 0.000000 0.000000 0.000000 0.060272 0.000000
# 6 0.000000 0.000000 0.000000 0.000000 0.000000 0.033484
#
#
# Mechanical properties :
#
#
# Convention : Reuss Voigt Hill
#
# Bulk Modulus (GPa) = 35.82211 54.70182 45.26196
# Shear Modulus (GPa) = 23.08466 26.42105 24.75285
#
# Velocity S-wave (km/s) = 3.38884 3.62547 3.50915
# Velocity P-wave (km/s) = 5.75614 6.68869 6.23986
#
# Compressibility (1/GPa) = 0.02791572
#
# Stress axis : x y z
#
# Youngs Moduli (GPa) = 82.77047 39.11382 78.85871
#
# Poissons Ratio (x) = 0.06040 0.53561
# Poissons Ratio (y) = 0.12782 0.22636
# Poissons Ratio (z) = 0.56218 0.11227
#
# Static dielectric constant tensor:
#      x y z
#    x 3.902490 0.000000 0.000000 
#    y 0.000000 3.258000 0.000000 
#    z 0.000000 0.000000 3.750290 
# 
# 
# High freq. dielectric constant tensor:
#      x y z
#    x 1.791070 0.000000 0.000000 
#    y 0.000000 1.756170 0.000000 
#    z 0.000000 0.000000 1.782550 
# 
# From -- ./inp_files/15525.got.cif
#   From: 2010.03.12/outbox.cif.g09.slc.cpg/sg38_8_cif.got.tgz:15525.got - 2010.04.14 02:38:36.
