data_PCOD8177436
_publ_section_title
;
Structure prediction by ZEFSAII (Michael W. Deem and Ramdas Pophale) SiO2 
 PCOD8177436
Probable space group: A M M 2
;
_chemical_formula_sum "Si O2"
_cell_formula_units_Z 64
_cell_length_a 8.954778
_cell_length_b 14.612724
_cell_length_c 27.993465
_cell_angle_alpha 90.000000
_cell_angle_beta 90.000000
_cell_angle_gamma 90.000000
_cell_volume 3663.048454
_symmetry_space_group_name_H-M "A M M 2"
_symmetry_group_IT_number 38
_symmetry_cell_setting 'orthorhombic'
loop_
_space_group_symop_operation_xyz
x,y,z
-x,-y,z
-x,y,z
x,-y,z
x,1/2+y,1/2+z
-x,1/2-y,1/2+z
-x,1/2+y,1/2+z
x,1/2-y,1/2+z
loop_
_atom_site_type_symbol
_atom_site_label
_atom_site_fract_x
_atom_site_fract_y
_atom_site_fract_z
Si Si1 0.172647 0.105362 0.680110
Si Si2 0.670487 0.894182 0.854170
Si Si3 0.324526 0.605064 0.081239
Si Si4 0.822589 0.224755 0.500683
Si Si5 0.176424 0.712921 0.271324
Si Si6 0.675260 0.896084 0.963139
Si Si7 0.823059 0.601649 0.915464
Si Si8 0.822435 0.100257 0.309040
O O1 0.271842 0.129003 0.634469
O O2 0.239340 0.166065 0.723470
O O3 0.000000 0.128689 0.668947
O O4 0.190171 0.000000 0.695296
O O5 0.500000 0.863006 0.847735
O O6 0.772718 0.836528 0.819215
O O7 0.688396 0.000000 0.840880
O O8 0.723657 0.877244 0.908463
O O9 0.500000 0.621474 0.077336
O O10 0.282051 0.500000 0.068737
O O11 0.239835 0.673902 0.046741
O O12 0.764436 0.328830 0.498484
O O13 0.758562 0.173329 0.453652
O O14 0.000000 0.223902 0.503573
O O15 0.230382 0.819316 0.273270
O O16 0.000000 0.705480 0.270427
O O17 0.500000 0.879518 0.969299
O O18 0.716630 0.000000 0.977412
O O19 0.771574 0.500000 0.930991
O O20 0.761406 0.622913 0.862343
O O21 0.000000 0.607797 0.915558
O O22 0.000000 0.097075 0.311410
O O23 0.762850 0.000000 0.292100
#
# Coordination Sequence:
#
# PCOD8177436 Si02
#       8
#     8   8   8   8   8   8   8   8
#     4   9  18  32  48  68  95 123 153 197 252 299
#     4   9  18  31  46  67  98 134 166 196 236 286
#     4  10  21  36  53  73  97 126 160 196 238 296
#     4  11  20  30  50  76  99 125 160 203 248 293
#     4  10  18  28  47  73  97 124 162 205 247 290
#     4   9  19  35  50  66  96 136 171 203 240 284
#     4   8  14  24  39  64  98 130 156 184 225 278
#     4   8  14  25  41  64  96 129 158 189 226 271
#
# _framework density 17.471786999999999
#
# number of rings (size 3 to 8) (size 9 to 14) (size 15 to 20)
#    0.000    2.750    0.000    3.750    0.000    4.250 
#    0.000    2.500    0.000    1.125    0.000    5.250 
#    0.000    0.000    0.000    0.000    0.000    0.000 
#
# Total GULP energy -396683.035118 kJ/mol
# GULP energy per Si atom -12396.344847 kJ/mol
# Density = 1.743202 g / cm^3
# Si number density = 17.471787 Si / 1000 Ang^3
#
#
#
# Elastic Constant Matrix: (Units=GPa)
#
#
# Indices 1 2 3 4 5 6 
#
# 1 41.3918 38.2508 33.9933 0.0000 0.0000 0.0000
# 2 38.2508 127.2396 79.2381 0.0000 0.0000 0.0000
# 3 33.9933 79.2381 93.3429 0.0000 0.0000 0.0000
# 4 0.0000 0.0000 0.0000 32.3065 0.0000 0.0000
# 5 0.0000 0.0000 0.0000 0.0000 23.0445 0.0000
# 6 0.0000 0.0000 0.0000 0.0000 0.0000 19.4566
#
#
#
# Elastic Compliance Matrix: (Units=1/GPa)
#
#
# Indices 1 2 3 4 5 6 
#
# 1 0.036310 -0.005687 -0.008395 0.000000 0.000000 0.000000
# 2 -0.005687 0.017564 -0.012839 0.000000 0.000000 0.000000
# 3 -0.008395 -0.012839 0.024670 0.000000 0.000000 0.000000
# 4 0.000000 0.000000 0.000000 0.030953 0.000000 0.000000
# 5 0.000000 0.000000 0.000000 0.000000 0.043394 0.000000
# 6 0.000000 0.000000 0.000000 0.000000 0.000000 0.051396
#
#
# Mechanical properties :
#
#
# Convention : Reuss Voigt Hill
#
# Bulk Modulus (GPa) = 40.48521 62.77098 51.62810
# Shear Modulus (GPa) = 18.77124 22.32767 20.54946
#
# Velocity S-wave (km/s) = 3.28132 3.57869 3.43323
# Velocity P-wave (km/s) = 6.13010 7.28568 6.73273
#
# Compressibility (1/GPa) = 0.02470038
#
# Stress axis : x y z
#
# Youngs Moduli (GPa) = 27.54080 56.93314 40.53567
#
# Poissons Ratio (x) = 0.32380 0.34031
# Poissons Ratio (y) = 0.15663 0.52044
# Poissons Ratio (z) = 0.23121 0.73097
#
# Static dielectric constant tensor:
#      x y z
#    x 2.953430 0.000000 0.000000 
#    y 0.000000 3.514970 0.000000 
#    z 0.000000 0.000000 3.186360 
# 
# 
# High freq. dielectric constant tensor:
#      x y z
#    x 1.650140 0.000000 0.000000 
#    y 0.000000 1.679850 0.000000 
#    z 0.000000 0.000000 1.656810 
# 
# From -- ./inp_files/22174.got.cif
#   From: 2010.03.12/outbox.cif.g09.slc.cpg/sg38_12_cif.got.tgz:22174.got - 2010.04.14 02:38:36.
