data_PCOD8177107
_publ_section_title
;
Structure prediction by ZEFSAII (Michael W. Deem and Ramdas Pophale) SiO2 
 PCOD8177107
Probable space group: C C C 2
;
_chemical_formula_sum "Si O2"
_cell_formula_units_Z 48
_cell_length_a 28.801615
_cell_length_b 8.448720
_cell_length_c 8.924717
_cell_angle_alpha 90.000000
_cell_angle_beta 90.000000
_cell_angle_gamma 90.000000
_cell_volume 2171.711903
_symmetry_space_group_name_H-M "C C C 2"
_symmetry_group_IT_number 37
_symmetry_cell_setting 'orthorhombic'
loop_
_space_group_symop_operation_xyz
x,y,z
-x,-y,z
-x,y,1/2+z
x,-y,1/2+z
1/2+x,1/2+y,z
1/2-x,1/2-y,z
1/2-x,1/2+y,1/2+z
1/2+x,1/2-y,1/2+z
loop_
_atom_site_type_symbol
_atom_site_label
_atom_site_fract_x
_atom_site_fract_y
_atom_site_fract_z
Si Si1 0.706535 0.631807 0.898210
Si Si2 0.128095 0.718125 0.227528
Si Si3 0.975623 0.345602 0.895414
Si Si4 0.201628 0.176668 0.229824
Si Si5 0.471305 0.657613 0.176276
Si Si6 0.628344 0.901712 0.392672
O O1 0.750000 0.750000 0.882683
O O2 0.670018 0.667341 0.765590
O O3 0.718049 0.452889 0.851432
O O4 0.683355 0.623782 0.064281
O O5 0.082555 0.832771 0.228708
O O6 0.132858 0.588063 0.359902
O O7 0.134106 0.628518 0.069663
O O8 0.923397 0.364863 0.839176
O O9 0.000000 0.500000 0.970314
O O10 0.005554 0.309455 0.750581
O O11 0.976381 0.190963 0.000861
O O12 0.250000 0.250000 0.183067
O O13 0.164680 0.297053 0.300394
O O14 0.500000 0.500000 0.218709
#
# Coordination Sequence:
#
# PCOD8177107 Si02
#       6
#     8   8   8   8   8   8
#     4  11  25  45  70 102 139 179 224 281 348 416
#     4  11  24  43  66 101 136 180 230 286 349 415
#     4  11  23  43  67  95 133 183 230 286 344 415
#     4  11  25  45  71 101 138 181 224 283 344 414
#     4  11  25  42  65  97 136 180 229 289 349 409
#     4  11  24  41  67 100 132 180 231 281 345 411
#
# _framework density 22.102378999999999
#
# number of rings (size 3 to 8) (size 9 to 14) (size 15 to 20)
#    0.000    1.000    1.667    4.000    4.667    6.667 
#    0.000    0.000    0.000    0.000    0.000    0.000 
#    0.000    0.000    0.000    0.000    0.000    0.000 
#
# Total GULP energy -297371.961847 kJ/mol
# GULP energy per Si atom -12390.498410 kJ/mol
# Density = 2.205207 g / cm^3
# Si number density = 22.102379 Si / 1000 Ang^3
#
#
#
# Elastic Constant Matrix: (Units=GPa)
#
#
# Indices 1 2 3 4 5 6 
#
# 1 132.0093 31.8290 37.5275 0.0000 0.0000 0.0000
# 2 31.8290 96.7474 21.3107 0.0000 0.0000 0.0000
# 3 37.5275 21.3107 67.1734 0.0000 0.0000 0.0000
# 4 0.0000 0.0000 0.0000 99.5582 0.0000 0.0000
# 5 0.0000 0.0000 0.0000 0.0000 35.7489 0.0000
# 6 0.0000 0.0000 0.0000 0.0000 0.0000 38.1799
#
#
#
# Elastic Compliance Matrix: (Units=1/GPa)
#
#
# Indices 1 2 3 4 5 6 
#
# 1 0.009378 -0.002076 -0.004580 0.000000 0.000000 0.000000
# 2 -0.002076 0.011572 -0.002511 0.000000 0.000000 0.000000
# 3 -0.004580 -0.002511 0.018243 0.000000 0.000000 0.000000
# 4 0.000000 0.000000 0.000000 0.010044 0.000000 0.000000
# 5 0.000000 0.000000 0.000000 0.000000 0.027973 0.000000
# 6 0.000000 0.000000 0.000000 0.000000 0.000000 0.026192
#
#
# Mechanical properties :
#
#
# Convention : Reuss Voigt Hill
#
# Bulk Modulus (GPa) = 47.94634 53.02941 50.48788
# Shear Modulus (GPa) = 38.85291 48.38159 43.61725
#
# Velocity S-wave (km/s) = 4.19723 4.68373 4.44714
# Velocity P-wave (km/s) = 6.72525 7.30030 7.01867
#
# Compressibility (1/GPa) = 0.02085665
#
# Stress axis : x y z
#
# Youngs Moduli (GPa) = 106.63285 86.41194 54.81703
#
# Poissons Ratio (x) = 0.17942 0.25109
# Poissons Ratio (y) = 0.22140 0.13767
# Poissons Ratio (z) = 0.48843 0.21701
#
# Static dielectric constant tensor:
#      x y z
#    x 4.009410 0.000000 0.000000 
#    y 0.000000 3.330010 0.000000 
#    z 0.000000 0.000000 3.979130 
# 
# 
# High freq. dielectric constant tensor:
#      x y z
#    x 1.876050 0.000000 0.000000 
#    y 0.000000 1.871260 0.000000 
#    z 0.000000 0.000000 1.881330 
# 
# From -- ./inp_files/2385.got.cif
#   From: 2010.03.12/outbox.cif.g09.slc.cpg/sg37_2_cif.got.tgz:2385.got - 2010.04.14 02:25:27.
