data_PCOD8177916
_publ_section_title
;
Structure prediction by ZEFSAII (Michael W. Deem and Ramdas Pophale) SiO2 
 PCOD8177916
Probable space group: A M M 2
;
_chemical_formula_sum "Si O2"
_cell_formula_units_Z 56
_cell_length_a 15.390056
_cell_length_b 8.921299
_cell_length_c 25.179918
_cell_angle_alpha 90.000000
_cell_angle_beta 90.000000
_cell_angle_gamma 90.000000
_cell_volume 3457.184894
_symmetry_space_group_name_H-M "A M M 2"
_symmetry_group_IT_number 38
_symmetry_cell_setting 'orthorhombic'
loop_
_space_group_symop_operation_xyz
x,y,z
-x,-y,z
-x,y,z
x,-y,z
x,1/2+y,1/2+z
-x,1/2-y,1/2+z
-x,1/2+y,1/2+z
x,1/2-y,1/2+z
loop_
_atom_site_type_symbol
_atom_site_label
_atom_site_fract_x
_atom_site_fract_y
_atom_site_fract_z
Si Si1 0.094277 0.175688 0.882730
Si Si2 0.905792 0.675541 0.768264
Si Si3 0.598659 0.824316 0.469585
Si Si4 0.401367 0.824347 0.681007
Si Si5 0.396725 0.668698 0.575304
Si Si6 0.263130 0.822687 0.767731
Si Si7 0.263413 0.177277 0.382701
O O1 0.089094 0.247873 0.825137
O O2 0.175546 0.257911 0.911171
O O3 0.000000 0.201851 0.911314
O O4 0.114246 0.000000 0.877854
O O5 0.886188 0.500000 0.774697
O O6 0.824295 0.755708 0.739337
O O7 0.000000 0.700113 0.739408
O O8 0.500000 0.770905 0.458410
O O9 0.638363 0.748410 0.522272
O O10 0.655608 0.776029 0.419156
O O11 0.602658 0.000000 0.479525
O O12 0.500000 0.770793 0.692212
O O13 0.361625 0.748337 0.628347
O O14 0.344401 0.776359 0.731463
O O15 0.397530 0.000000 0.670972
O O16 0.500000 0.678513 0.575311
O O17 0.361989 0.500000 0.575285
O O18 0.278411 0.750798 0.825334
O O19 0.253921 0.000000 0.773361
O O20 0.255212 0.000000 0.376467
#
# Coordination Sequence:
#
# PCOD8177916 Si02
#       7
#     8   8   8   8   8   8   8
#     4   9  16  26  41  60  83 112 144 179 218 257
#     4   9  16  26  41  60  83 112 144 179 218 257
#     4   9  18  32  47  63  87 119 150 179 215 259
#     4   9  18  32  47  63  87 119 150 179 215 259
#     4   9  17  29  47  69  86 105 142 189 227 254
#     4  10  19  29  43  64  90 120 150 179 214 257
#     4  10  19  29  43  64  90 120 150 179 214 257
#
# _framework density 16.198149000000001
#
# number of rings (size 3 to 8) (size 9 to 14) (size 15 to 20)
#    0.000    2.714    0.000    3.857    0.000    6.286 
#    0.000    0.000    0.000    0.000    0.000    1.000 
#    0.000    8.000    0.000    0.000    0.000    0.000 
#
# Total GULP energy -346951.562254 kJ/mol
# GULP energy per Si atom -12391.127223 kJ/mol
# Density = 1.616128 g / cm^3
# Si number density = 16.198149 Si / 1000 Ang^3
#
#
#
# Elastic Constant Matrix: (Units=GPa)
#
#
# Indices 1 2 3 4 5 6 
#
# 1 113.8351 44.1995 58.9885 0.0000 0.0000 0.0000
# 2 44.1995 57.4436 42.3124 0.0000 0.0000 0.0000
# 3 58.9885 42.3124 84.8537 0.0000 0.0000 0.0000
# 4 0.0000 0.0000 0.0000 22.2040 0.0000 0.0000
# 5 0.0000 0.0000 0.0000 0.0000 2.1516 0.0000
# 6 0.0000 0.0000 0.0000 0.0000 0.0000 24.5828
#
#
#
# Elastic Compliance Matrix: (Units=1/GPa)
#
#
# Indices 1 2 3 4 5 6 
#
# 1 0.014967 -0.006089 -0.007369 0.000000 0.000000 0.000000
# 2 -0.006089 0.029991 -0.010723 0.000000 0.000000 0.000000
# 3 -0.007369 -0.010723 0.022254 0.000000 0.000000 0.000000
# 4 0.000000 0.000000 0.000000 0.045037 0.000000 0.000000
# 5 0.000000 0.000000 0.000000 0.000000 0.464769 0.000000
# 6 0.000000 0.000000 0.000000 0.000000 0.000000 0.040679
#
#
# Mechanical properties :
#
#
# Convention : Reuss Voigt Hill
#
# Bulk Modulus (GPa) = 53.04177 60.79259 56.91718
# Shear Modulus (GPa) = 7.43670 17.16315 12.29992
#
# Velocity S-wave (km/s) = 2.14500 3.25864 2.75860
# Velocity P-wave (km/s) = 6.24110 7.19516 6.73505
#
# Compressibility (1/GPa) = 0.01885307
#
# Stress axis : x y z
#
# Youngs Moduli (GPa) = 66.81321 33.34299 44.93492
#
# Poissons Ratio (x) = 0.20301 0.33111
# Poissons Ratio (y) = 0.40680 0.48182
# Poissons Ratio (z) = 0.49233 0.35752
#
# Static dielectric constant tensor:
#      x y z
#    x 3.773600 0.000000 0.000000 
#    y 0.000000 3.181710 0.000000 
#    z 0.000000 0.000000 2.860810 
# 
# 
# High freq. dielectric constant tensor:
#      x y z
#    x 1.622190 0.000000 0.000000 
#    y 0.000000 1.637420 0.000000 
#    z 0.000000 0.000000 1.578700 
# 
# From -- ./inp_files/23049.got.cif
#   From: 2010.03.12/outbox.cif.g09.slc.cpg/sg38_12_cif.got.tgz:23049.got - 2010.04.14 02:38:36.
