data_PCOD8177703
_publ_section_title
;
Structure prediction by ZEFSAII (Michael W. Deem and Ramdas Pophale) SiO2 
 PCOD8177703
Probable space group: A M M 2
;
_chemical_formula_sum "Si O2"
_cell_formula_units_Z 44
_cell_length_a 15.165596
_cell_length_b 10.420344
_cell_length_c 14.670227
_cell_angle_alpha 90.000000
_cell_angle_beta 90.000000
_cell_angle_gamma 90.000000
_cell_volume 2318.346642
_symmetry_space_group_name_H-M "A M M 2"
_symmetry_group_IT_number 38
_symmetry_cell_setting 'orthorhombic'
loop_
_space_group_symop_operation_xyz
x,y,z
-x,-y,z
-x,y,z
x,-y,z
x,1/2+y,1/2+z
-x,1/2-y,1/2+z
-x,1/2+y,1/2+z
x,1/2-y,1/2+z
loop_
_atom_site_type_symbol
_atom_site_label
_atom_site_fract_x
_atom_site_fract_y
_atom_site_fract_z
Si Si1 0.000000 0.642562 0.960721
Si Si2 0.188714 0.141369 0.440593
Si Si3 0.812206 0.235225 0.128521
Si Si4 0.693991 0.741527 0.298634
Si Si5 0.397923 0.500000 0.741029
Si Si6 0.299711 0.000000 0.062489
Si Si7 0.603183 0.000000 0.870927
Si Si8 0.000000 0.848941 0.114801
O O1 0.911078 0.651147 0.900063
O O2 0.000000 0.500000 0.009946
O O3 0.000000 0.768334 0.022657
O O4 0.181439 0.157204 0.550196
O O5 0.248732 0.246296 0.390853
O O6 0.227665 0.000000 0.420468
O O7 0.757688 0.289345 0.213790
O O8 0.908752 0.190248 0.165902
O O9 0.762091 0.120707 0.078628
O O10 0.642489 0.873334 0.285424
O O11 0.626168 0.624978 0.310867
O O12 0.500000 0.500000 0.762352
O O13 0.381042 0.500000 0.633006
O O14 0.340708 0.000000 0.962731
O O15 0.500000 0.000000 0.893601
O O16 0.000000 0.000000 0.093504
#
# Coordination Sequence:
#
# PCOD8177703 Si02
#       8
#     4   8   8   8   4   4   4   4
#     4   8  18  33  53  82 123 159 193 238 282 342
#     4  10  19  36  58  84 117 159 197 230 285 352
#     4  10  21  36  58  88 122 155 196 236 293 346
#     4  11  23  38  62  85 115 154 194 245 300 358
#     4  10  21  40  60  85 114 147 190 243 296 364
#     4  10  19  37  62  86 112 152 190 239 305 355
#     4  12  25  42  62  89 116 151 200 263 320 365
#     4  10  18  31  59  90 121 157 201 246 276 344
#
# _framework density 18.979043999999998
#
# number of rings (size 3 to 8) (size 9 to 14) (size 15 to 20)
#    0.000    1.818    3.636    0.818    1.273    0.727 
#    0.000    0.909    0.000    2.182    0.000    0.000 
#    0.000    0.000    0.000    0.000    0.000    0.000 
#
# Total GULP energy -272635.961252 kJ/mol
# GULP energy per Si atom -12392.543693 kJ/mol
# Density = 1.893585 g / cm^3
# Si number density = 18.979044 Si / 1000 Ang^3
#
#
#
# Elastic Constant Matrix: (Units=GPa)
#
#
# Indices 1 2 3 4 5 6 
#
# 1 126.7511 28.8297 38.1645 0.0000 0.0000 0.0000
# 2 28.8297 89.6255 18.8935 0.0000 0.0000 0.0000
# 3 38.1645 18.8935 76.3712 0.0000 0.0000 0.0000
# 4 0.0000 0.0000 0.0000 11.7523 0.0000 0.0000
# 5 0.0000 0.0000 0.0000 0.0000 15.8666 0.0000
# 6 0.0000 0.0000 0.0000 0.0000 0.0000 10.3350
#
#
#
# Elastic Compliance Matrix: (Units=1/GPa)
#
#
# Indices 1 2 3 4 5 6 
#
# 1 0.009685 -0.002210 -0.004293 0.000000 0.000000 0.000000
# 2 -0.002210 0.012276 -0.001932 0.000000 0.000000 0.000000
# 3 -0.004293 -0.001932 0.015717 0.000000 0.000000 0.000000
# 4 0.000000 0.000000 0.000000 0.085090 0.000000 0.000000
# 5 0.000000 0.000000 0.000000 0.000000 0.063025 0.000000
# 6 0.000000 0.000000 0.000000 0.000000 0.000000 0.096759
#
#
# Mechanical properties :
#
#
# Convention : Reuss Voigt Hill
#
# Bulk Modulus (GPa) = 48.06144 51.61369 49.83756
# Shear Modulus (GPa) = 16.32075 21.38146 18.85111
#
# Velocity S-wave (km/s) = 2.93565 3.36010 3.15502
# Velocity P-wave (km/s) = 6.07199 6.50445 6.29194
#
# Compressibility (1/GPa) = 0.02080670
#
# Stress axis : x y z
#
# Youngs Moduli (GPa) = 103.25452 81.46053 63.62435
#
# Poissons Ratio (x) = 0.18005 0.27313
# Poissons Ratio (y) = 0.22823 0.12295
# Poissons Ratio (z) = 0.44326 0.15741
#
# Static dielectric constant tensor:
#      x y z
#    x 3.692070 0.000000 0.000000 
#    y 0.000000 3.472380 0.000000 
#    z 0.000000 0.000000 3.186500 
# 
# 
# High freq. dielectric constant tensor:
#      x y z
#    x 1.748660 0.000000 0.000000 
#    y 0.000000 1.743430 0.000000 
#    z 0.000000 0.000000 1.714050 
# 
# From -- ./inp_files/14455.got.cif
#   From: 2010.03.12/outbox.cif.g09.slc.cpg/sg38_8_cif.got.tgz:14455.got - 2010.04.14 02:38:36.
