data_PCOD8177378
_publ_section_title
;
Structure prediction by ZEFSAII (Michael W. Deem and Ramdas Pophale) SiO2 
 PCOD8177378
Probable space group: A M M 2
;
_chemical_formula_sum "Si O2"
_cell_formula_units_Z 64
_cell_length_a 8.991175
_cell_length_b 18.597834
_cell_length_c 26.493869
_cell_angle_alpha 90.000000
_cell_angle_beta 90.000000
_cell_angle_gamma 90.000000
_cell_volume 4430.208869
_symmetry_space_group_name_H-M "A M M 2"
_symmetry_group_IT_number 38
_symmetry_cell_setting 'orthorhombic'
loop_
_space_group_symop_operation_xyz
x,y,z
-x,-y,z
-x,y,z
x,-y,z
x,1/2+y,1/2+z
-x,1/2-y,1/2+z
-x,1/2+y,1/2+z
x,1/2-y,1/2+z
loop_
_atom_site_type_symbol
_atom_site_label
_atom_site_fract_x
_atom_site_fract_y
_atom_site_fract_z
Si Si1 0.171787 0.416582 0.518730
Si Si2 0.673709 0.419265 0.715989
Si Si3 0.829327 0.781682 0.681109
Si Si4 0.672208 0.284497 0.773202
Si Si5 0.824304 0.163777 0.825362
Si Si6 0.827024 0.078309 0.726746
Si Si7 0.325253 0.582707 0.415798
Si Si8 0.171356 0.849695 0.120787
O O1 0.193392 0.500000 0.531951
O O2 0.268939 0.393795 0.470787
O O3 0.235487 0.370887 0.566088
O O4 0.000000 0.398697 0.507038
O O5 0.500000 0.414345 0.704057
O O6 0.723654 0.500000 0.729857
O O7 0.711578 0.369113 0.764859
O O8 0.754023 0.394434 0.665227
O O9 0.710245 0.750865 0.719739
O O10 0.797823 0.868057 0.678693
O O11 0.808671 0.737171 0.629061
O O12 0.000000 0.770684 0.701244
O O13 0.500000 0.272852 0.786198
O O14 0.768556 0.246109 0.817017
O O15 0.767882 0.115439 0.778146
O O16 0.753830 0.133187 0.875744
O O17 0.000000 0.163787 0.831040
O O18 0.000000 0.065150 0.733690
O O19 0.749605 0.000000 0.718179
O O20 0.500000 0.594636 0.412777
O O21 0.281187 0.500000 0.404999
O O22 0.000000 0.872262 0.121741
#
# Coordination Sequence:
#
# PCOD8177378 Si02
#       8
#     8   8   8   8   8   8   8   8
#     4   9  17  28  40  54  74 101 131 162 197 235
#     4   9  17  27  39  57  81 108 135 162 195 235
#     4   8  14  24  37  54  76 101 130 163 195 229
#     4   9  16  26  39  55  77 103 131 163 195 229
#     4  10  18  28  42  57  76 104 135 163 194 233
#     4   8  13  21  35  55  76  99 127 155 183 220
#     4  10  20  31  42  58  79 101 128 164 201 234
#     4   9  16  26  40  57  77 103 135 167 198 231
#
# _framework density 14.446270999999999
#
# number of rings (size 3 to 8) (size 9 to 14) (size 15 to 20)
#    0.000    3.000    0.000    2.625    0.000    3.000 
#    0.000    1.250    0.000    3.375    0.000    0.000 
#    0.000    1.000    0.000    4.000    0.000    2.125 
#
# Total GULP energy -396440.902385 kJ/mol
# GULP energy per Si atom -12388.778200 kJ/mol
# Density = 1.441339 g / cm^3
# Si number density = 14.446271 Si / 1000 Ang^3
#
#
#
# Elastic Constant Matrix: (Units=GPa)
#
#
# Indices 1 2 3 4 5 6 
#
# 1 43.3555 31.8207 32.7528 0.0000 0.0000 0.0000
# 2 31.8207 117.6919 61.5136 0.0000 0.0000 0.0000
# 3 32.7528 61.5136 88.4770 0.0000 0.0000 0.0000
# 4 0.0000 0.0000 0.0000 26.6774 0.0000 0.0000
# 5 0.0000 0.0000 0.0000 0.0000 17.7929 0.0000
# 6 0.0000 0.0000 0.0000 0.0000 0.0000 15.8376
#
#
#
# Elastic Compliance Matrix: (Units=1/GPa)
#
#
# Indices 1 2 3 4 5 6 
#
# 1 0.033181 -0.004008 -0.009497 0.000000 0.000000 0.000000
# 2 -0.004008 0.013831 -0.008132 0.000000 0.000000 0.000000
# 3 -0.009497 -0.008132 0.020472 0.000000 0.000000 0.000000
# 4 0.000000 0.000000 0.000000 0.037485 0.000000 0.000000
# 5 0.000000 0.000000 0.000000 0.000000 0.056202 0.000000
# 6 0.000000 0.000000 0.000000 0.000000 0.000000 0.063141
#
#
# Mechanical properties :
#
#
# Convention : Reuss Voigt Hill
#
# Bulk Modulus (GPa) = 41.30484 55.74428 48.52456
# Shear Modulus (GPa) = 18.13863 20.29074 19.21469
#
# Velocity S-wave (km/s) = 3.54728 3.75182 3.65098
# Velocity P-wave (km/s) = 6.74030 7.57887 7.17185
#
# Compressibility (1/GPa) = 0.02421024
#
# Stress axis : x y z
#
# Youngs Moduli (GPa) = 30.13791 72.30258 48.84747
#
# Poissons Ratio (x) = 0.28976 0.46389
# Poissons Ratio (y) = 0.12078 0.39724
# Poissons Ratio (z) = 0.28621 0.58799
#
# Static dielectric constant tensor:
#      x y z
#    x 2.788450 0.000000 0.000000 
#    y 0.000000 3.220020 0.000000 
#    z 0.000000 0.000000 2.663390 
# 
# 
# High freq. dielectric constant tensor:
#      x y z
#    x 1.550200 0.000000 0.000000 
#    y 0.000000 1.547960 0.000000 
#    z 0.000000 0.000000 1.515980 
# 
# From -- ./inp_files/22279.got.cif
#   From: 2010.03.12/outbox.cif.g09.slc.cpg/sg38_12_cif.got.tgz:22279.got - 2010.04.14 02:38:36.
