data_PCOD8177714
_publ_section_title
;
Structure prediction by ZEFSAII (Michael W. Deem and Ramdas Pophale) SiO2 
 PCOD8177714
Probable space group: A M M 2
;
_chemical_formula_sum "Si O2"
_cell_formula_units_Z 56
_cell_length_a 8.758716
_cell_length_b 22.872965
_cell_length_c 14.431512
_cell_angle_alpha 90.000000
_cell_angle_beta 90.000000
_cell_angle_gamma 90.000000
_cell_volume 2891.177430
_symmetry_space_group_name_H-M "A M M 2"
_symmetry_group_IT_number 38
_symmetry_cell_setting 'orthorhombic'
loop_
_space_group_symop_operation_xyz
x,y,z
-x,-y,z
-x,y,z
x,-y,z
x,1/2+y,1/2+z
-x,1/2-y,1/2+z
-x,1/2+y,1/2+z
x,1/2-y,1/2+z
loop_
_atom_site_type_symbol
_atom_site_label
_atom_site_fract_x
_atom_site_fract_y
_atom_site_fract_z
Si Si1 0.179798 0.112285 0.267250
Si Si2 0.818602 0.500000 0.449191
Si Si3 0.180174 0.651306 0.963465
Si Si4 0.320341 0.848819 0.655388
Si Si5 0.817268 0.500000 0.659894
Si Si6 0.175527 0.776246 0.161236
Si Si7 0.817719 0.112054 0.836559
Si Si8 0.174001 0.780601 0.951277
O O1 0.217209 0.108679 0.377138
O O2 0.244807 0.173142 0.226556
O O3 0.000000 0.113414 0.250159
O O4 0.249358 0.056570 0.214023
O O5 0.755711 0.500000 0.554657
O O6 0.757658 0.556788 0.395037
O O7 0.000000 0.500000 0.452991
O O8 0.246020 0.716051 0.938814
O O9 0.000000 0.655499 0.984349
O O10 0.261486 0.627985 0.055830
O O11 0.500000 0.854212 0.658332
O O12 0.271739 0.782275 0.675036
O O13 0.248477 0.891057 0.733036
O O14 0.000000 0.500000 0.662897
O O15 0.000000 0.761079 0.186076
O O16 0.188701 0.800943 0.057360
O O17 0.749408 0.170360 0.886226
O O18 0.000000 0.111809 0.833314
O O19 0.000000 0.776341 0.919497
#
# Coordination Sequence:
#
# PCOD8177714 Si02
#       8
#     8   4   8   8   4   8   8   8
#     4   9  16  27  49  77 106 135 163 197 247 299
#     4   9  18  30  50  79 108 132 159 197 246 295
#     4   9  17  31  49  72 100 134 169 203 245 299
#     4  11  22  34  48  71  99 132 171 215 257 291
#     4   9  16  28  49  85 116 126 149 205 254 291
#     4   9  16  30  51  76 104 135 164 197 244 304
#     4  10  18  32  52  75 102 134 167 202 243 296
#     4   8  14  25  47  73  97 126 163 199 238 288
#
# _framework density 19.36927
#
# number of rings (size 3 to 8) (size 9 to 14) (size 15 to 20)
#    0.000    2.714    0.000    3.857    0.000    5.714 
#    0.000    7.500    0.000    2.571    0.000    4.500 
#    0.000    0.000    0.000    0.000    0.000    0.000 
#
# Total GULP energy -347086.788287 kJ/mol
# GULP energy per Si atom -12395.956725 kJ/mol
# Density = 1.932518 g / cm^3
# Si number density = 19.369270 Si / 1000 Ang^3
#
#
#
# Elastic Constant Matrix: (Units=GPa)
#
#
# Indices 1 2 3 4 5 6 
#
# 1 36.1672 17.1576 26.0393 0.0000 0.0000 0.0000
# 2 17.1576 81.8725 74.1877 0.0000 0.0000 0.0000
# 3 26.0393 74.1877 160.9968 0.0000 0.0000 0.0000
# 4 0.0000 0.0000 0.0000 37.8723 0.0000 0.0000
# 5 0.0000 0.0000 0.0000 0.0000 4.2692 0.0000
# 6 0.0000 0.0000 0.0000 0.0000 0.0000 4.7408
#
#
#
# Elastic Compliance Matrix: (Units=1/GPa)
#
#
# Indices 1 2 3 4 5 6 
#
# 1 0.031850 -0.003445 -0.003564 0.000000 0.000000 0.000000
# 2 -0.003445 0.021343 -0.009278 0.000000 0.000000 0.000000
# 3 -0.003564 -0.009278 0.011063 0.000000 0.000000 0.000000
# 4 0.000000 0.000000 0.000000 0.026405 0.000000 0.000000
# 5 0.000000 0.000000 0.000000 0.000000 0.234236 0.000000
# 6 0.000000 0.000000 0.000000 0.000000 0.000000 0.210933
#
#
# Mechanical properties :
#
#
# Convention : Reuss Voigt Hill
#
# Bulk Modulus (GPa) = 31.56367 57.08951 44.32659
# Shear Modulus (GPa) = 8.63614 20.15326 14.39470
#
# Velocity S-wave (km/s) = 2.11385 3.22914 2.72908
# Velocity P-wave (km/s) = 4.72112 6.59101 5.73281
#
# Compressibility (1/GPa) = 0.03168200
#
# Stress axis : x y z
#
# Youngs Moduli (GPa) = 31.39765 46.85391 90.39281
#
# Poissons Ratio (x) = 0.16143 0.32213
# Poissons Ratio (y) = 0.10818 0.83863
# Poissons Ratio (z) = 0.11189 0.43469
#
# Static dielectric constant tensor:
#      x y z
#    x 2.884390 0.000000 0.000000 
#    y 0.000000 3.548440 0.000000 
#    z 0.000000 0.000000 3.762770 
# 
# 
# High freq. dielectric constant tensor:
#      x y z
#    x 1.685250 0.000000 0.000000 
#    y 0.000000 1.737970 0.000000 
#    z 0.000000 0.000000 1.773670 
# 
# From -- ./inp_files/12499.got.cif
#   From: 2010.03.12/outbox.cif.g09.slc.cpg/sg38_7_cif.got.tgz:12499.got - 2010.04.14 02:38:36.
