data_PCOD8177785
_publ_section_title
;
Structure prediction by ZEFSAII (Michael W. Deem and Ramdas Pophale) SiO2 
 PCOD8177785
Probable space group: A M M 2
;
_chemical_formula_sum "Si O2"
_cell_formula_units_Z 64
_cell_length_a 19.495201
_cell_length_b 8.823082
_cell_length_c 20.556662
_cell_angle_alpha 90.000000
_cell_angle_beta 90.000000
_cell_angle_gamma 90.000000
_cell_volume 3535.905323
_symmetry_space_group_name_H-M "A M M 2"
_symmetry_group_IT_number 38
_symmetry_cell_setting 'orthorhombic'
loop_
_space_group_symop_operation_xyz
x,y,z
-x,-y,z
-x,y,z
x,-y,z
x,1/2+y,1/2+z
-x,1/2-y,1/2+z
-x,1/2+y,1/2+z
x,1/2-y,1/2+z
loop_
_atom_site_type_symbol
_atom_site_label
_atom_site_fract_x
_atom_site_fract_y
_atom_site_fract_z
Si Si1 0.215416 0.322119 0.630090
Si Si2 0.925789 0.320423 0.682711
Si Si3 0.780981 0.179209 0.371124
Si Si4 0.293014 0.321873 0.248453
Si Si5 0.422216 0.175856 0.202813
Si Si6 0.574791 0.679994 0.555455
Si Si7 0.285882 0.322470 0.495786
Si Si8 0.074638 0.179825 0.329115
O O1 0.223728 0.500000 0.645554
O O2 0.136424 0.266081 0.636795
O O3 0.261746 0.231210 0.680292
O O4 0.238719 0.284205 0.557470
O O5 0.927042 0.500000 0.684611
O O6 0.913800 0.258784 0.755804
O O7 0.000000 0.260835 0.656466
O O8 0.745299 0.245329 0.307958
O O9 0.743115 0.232558 0.435307
O O10 0.860979 0.234846 0.372807
O O11 0.776759 0.000000 0.366430
O O12 0.286724 0.500000 0.256223
O O13 0.372771 0.272427 0.249543
O O14 0.500000 0.200005 0.226992
O O15 0.413884 0.237174 0.129028
O O16 0.401222 0.000000 0.206802
O O17 0.500000 0.736742 0.529498
O O18 0.575663 0.500000 0.558026
O O19 0.636454 0.736813 0.509351
O O20 0.285254 0.500000 0.479769
O O21 0.000000 0.238922 0.355498
O O22 0.073182 0.000000 0.327553
#
# Coordination Sequence:
#
# PCOD8177785 Si02
#       8
#     8   8   8   8   8   8   8   8
#     4  10  18  33  56  79 106 141 179 217 266 324
#     4   8  13  24  48  80 105 129 173 225 265 312
#     4  11  22  37  56  76 106 145 187 226 269 325
#     4  12  23  34  53  81 113 141 176 223 270 319
#     4   9  17  33  58  84 108 138 179 221 266 322
#     4   8  14  28  53  80 104 135 174 214 259 314
#     4  10  20  34  53  79 112 142 176 221 270 324
#     4   8  14  27  51  79 100 127 176 230 271 318
#
# _framework density 18.100033
#
# number of rings (size 3 to 8) (size 9 to 14) (size 15 to 20)
#    0.000    2.500    2.500    3.000    0.000    0.750 
#    0.000    1.250    0.000    6.000    0.000    0.000 
#    0.000    0.000    0.000    0.000    0.000    0.000 
#
# Total GULP energy -396572.034318 kJ/mol
# GULP energy per Si atom -12392.876072 kJ/mol
# Density = 1.805884 g / cm^3
# Si number density = 18.100033 Si / 1000 Ang^3
#
#
#
# Elastic Constant Matrix: (Units=GPa)
#
#
# Indices 1 2 3 4 5 6 
#
# 1 170.6188 32.6751 51.3703 0.0000 0.0000 0.0000
# 2 32.6751 46.1084 27.6103 0.0000 0.0000 0.0000
# 3 51.3703 27.6103 61.2158 0.0000 0.0000 0.0000
# 4 0.0000 0.0000 0.0000 23.9731 0.0000 0.0000
# 5 0.0000 0.0000 0.0000 0.0000 24.8001 0.0000
# 6 0.0000 0.0000 0.0000 0.0000 0.0000 13.3142
#
#
#
# Elastic Compliance Matrix: (Units=1/GPa)
#
#
# Indices 1 2 3 4 5 6 
#
# 1 0.008011 -0.002263 -0.005702 0.000000 0.000000 0.000000
# 2 -0.002263 0.030352 -0.011791 0.000000 0.000000 0.000000
# 3 -0.005702 -0.011791 0.026439 0.000000 0.000000 0.000000
# 4 0.000000 0.000000 0.000000 0.041713 0.000000 0.000000
# 5 0.000000 0.000000 0.000000 0.000000 0.040322 0.000000
# 6 0.000000 0.000000 0.000000 0.000000 0.000000 0.075108
#
#
# Mechanical properties :
#
#
# Convention : Reuss Voigt Hill
#
# Bulk Modulus (GPa) = 39.54065 55.69493 47.61779
# Shear Modulus (GPa) = 18.52624 23.50330 21.01477
#
# Velocity S-wave (km/s) = 3.20276 3.60741 3.41109
# Velocity P-wave (km/s) = 5.96406 6.94180 6.47142
#
# Compressibility (1/GPa) = 0.02529043
#
# Stress axis : x y z
#
# Youngs Moduli (GPa) = 124.82584 32.94664 37.82311
#
# Poissons Ratio (x) = 0.07455 0.21567
# Poissons Ratio (y) = 0.28244 0.44597
# Poissons Ratio (z) = 0.71178 0.38847
#
# Static dielectric constant tensor:
#      x y z
#    x 4.163450 0.000000 0.000000 
#    y 0.000000 2.949890 0.000000 
#    z 0.000000 0.000000 3.165860 
# 
# 
# High freq. dielectric constant tensor:
#      x y z
#    x 1.729280 0.000000 0.000000 
#    y 0.000000 1.659650 0.000000 
#    z 0.000000 0.000000 1.668670 
# 
# From -- ./inp_files/18897.got.cif
#   From: 2010.03.12/outbox.cif.g09.slc.cpg/sg38_10_cif.got.tgz:18897.got - 2010.04.14 02:38:36.
