data_PCOD8177559
_publ_section_title
;
Structure prediction by ZEFSAII (Michael W. Deem and Ramdas Pophale) SiO2 
 PCOD8177559
Probable space group: A M M 2
;
_chemical_formula_sum "Si O2"
_cell_formula_units_Z 64
_cell_length_a 8.955580
_cell_length_b 30.183985
_cell_length_c 14.349116
_cell_angle_alpha 90.000000
_cell_angle_beta 90.000000
_cell_angle_gamma 90.000000
_cell_volume 3878.782617
_symmetry_space_group_name_H-M "A M M 2"
_symmetry_group_IT_number 38
_symmetry_cell_setting 'orthorhombic'
loop_
_space_group_symop_operation_xyz
x,y,z
-x,-y,z
-x,y,z
x,-y,z
x,1/2+y,1/2+z
-x,1/2-y,1/2+z
-x,1/2+y,1/2+z
x,1/2-y,1/2+z
loop_
_atom_site_type_symbol
_atom_site_label
_atom_site_fract_x
_atom_site_fract_y
_atom_site_fract_z
Si Si1 0.329367 0.862488 0.451430
Si Si2 0.824551 0.786754 0.343391
Si Si3 0.173227 0.363772 0.321779
Si Si4 0.334870 0.325620 0.153499
Si Si5 0.324016 0.703636 0.447497
Si Si6 0.825473 0.450714 0.225439
Si Si7 0.675034 0.049171 0.531303
Si Si8 0.331632 0.776971 0.152722
O O1 0.500000 0.854200 0.419002
O O2 0.220389 0.833719 0.388059
O O3 0.306258 0.850833 0.558619
O O4 0.285906 0.915051 0.449799
O O5 0.748109 0.745410 0.394647
O O6 0.779167 0.789882 0.235425
O O7 0.000000 0.780201 0.351774
O O8 0.207357 0.337616 0.226770
O O9 0.269706 0.342848 0.404719
O O10 0.217318 0.415460 0.306327
O O11 0.000000 0.357891 0.346070
O O12 0.500000 0.337062 0.194088
O O13 0.324213 0.274420 0.130049
O O14 0.500000 0.709360 0.434397
O O15 0.279845 0.700352 0.556139
O O16 0.777093 0.500000 0.258639
O O17 0.747642 0.437382 0.129355
O O18 0.000000 0.448287 0.205215
O O19 0.500000 0.050135 0.550083
O O20 0.728271 0.000000 0.499306
O O21 0.500000 0.791489 0.180029
#
# Coordination Sequence:
#
# PCOD8177559 Si02
#       8
#     8   8   8   8   8   8   8   8
#     4  10  19  33  50  70 100 137 171 202 244 293
#     4  12  24  34  50  75 101 129 165 208 247 289
#     4  11  21  31  47  74 102 132 169 206 245 289
#     4  10  18  30  49  70  97 135 171 201 238 287
#     4  11  22  37  54  71  96 132 169 203 246 297
#     4   9  18  31  46  68 102 138 166 198 246 299
#     4   9  17  29  48  74 100 129 169 211 246 286
#     4  10  21  37  53  68  94 133 171 205 243 290
#
# _framework density 16.500022000000001
#
# number of rings (size 3 to 8) (size 9 to 14) (size 15 to 20)
#    0.000    1.750    3.750    1.875    0.000    2.500 
#    0.000    0.000    0.000    0.000    0.000    0.875 
#    0.000    1.000    0.000    0.000    0.000    0.000 
#
# Total GULP energy -396695.211996 kJ/mol
# GULP energy per Si atom -12396.725375 kJ/mol
# Density = 1.646247 g / cm^3
# Si number density = 16.500022 Si / 1000 Ang^3
#
#
#
# Elastic Constant Matrix: (Units=GPa)
#
#
# Indices 1 2 3 4 5 6 
#
# 1 74.2081 40.2116 41.3621 0.0000 0.0000 0.0000
# 2 40.2116 101.7472 46.8803 0.0000 0.0000 0.0000
# 3 41.3621 46.8803 64.5798 0.0000 0.0000 0.0000
# 4 0.0000 0.0000 0.0000 19.0815 0.0000 0.0000
# 5 0.0000 0.0000 0.0000 0.0000 14.5677 0.0000
# 6 0.0000 0.0000 0.0000 0.0000 0.0000 19.0360
#
#
#
# Elastic Compliance Matrix: (Units=1/GPa)
#
#
# Indices 1 2 3 4 5 6 
#
# 1 0.021652 -0.003257 -0.011504 0.000000 0.000000 0.000000
# 2 -0.003257 0.015258 -0.008990 0.000000 0.000000 0.000000
# 3 -0.011504 -0.008990 0.029379 0.000000 0.000000 0.000000
# 4 0.000000 0.000000 0.000000 0.052407 0.000000 0.000000
# 5 0.000000 0.000000 0.000000 0.000000 0.068645 0.000000
# 6 0.000000 0.000000 0.000000 0.000000 0.000000 0.052532
#
#
# Mechanical properties :
#
#
# Convention : Reuss Voigt Hill
#
# Bulk Modulus (GPa) = 53.22657 55.27148 54.24902
# Shear Modulus (GPa) = 17.02789 18.00911 17.51850
#
# Velocity S-wave (km/s) = 3.21595 3.30731 3.26195
# Velocity P-wave (km/s) = 6.79104 6.93938 6.86561
#
# Compressibility (1/GPa) = 0.01878761
#
# Stress axis : x y z
#
# Youngs Moduli (GPa) = 46.18433 65.54115 34.03839
#
# Poissons Ratio (x) = 0.21346 0.39156
# Poissons Ratio (y) = 0.15042 0.30600
# Poissons Ratio (z) = 0.53129 0.58921
#
# Static dielectric constant tensor:
#      x y z
#    x 3.134900 0.000000 0.000000 
#    y 0.000000 3.608670 0.000000 
#    z 0.000000 0.000000 2.957840 
# 
# 
# High freq. dielectric constant tensor:
#      x y z
#    x 1.636860 0.000000 0.000000 
#    y 0.000000 1.635610 0.000000 
#    z 0.000000 0.000000 1.604820 
# 
# From -- ./inp_files/13069.got.cif
#   From: 2010.03.12/outbox.cif.g09.slc.cpg/sg38_7_cif.got.tgz:13069.got - 2010.04.14 02:38:36.
