data_PCOD8177606
_publ_section_title
;
Structure prediction by ZEFSAII (Michael W. Deem and Ramdas Pophale) SiO2 
 PCOD8177606
Probable space group: A M M 2
;
_chemical_formula_sum "Si O2"
_cell_formula_units_Z 64
_cell_length_a 14.384792
_cell_length_b 10.006709
_cell_length_c 24.016195
_cell_angle_alpha 90.000000
_cell_angle_beta 90.000000
_cell_angle_gamma 90.000000
_cell_volume 3456.997442
_symmetry_space_group_name_H-M "A M M 2"
_symmetry_group_IT_number 38
_symmetry_cell_setting 'orthorhombic'
loop_
_space_group_symop_operation_xyz
x,y,z
-x,-y,z
-x,y,z
x,-y,z
x,1/2+y,1/2+z
-x,1/2-y,1/2+z
-x,1/2+y,1/2+z
x,1/2-y,1/2+z
loop_
_atom_site_type_symbol
_atom_site_label
_atom_site_fract_x
_atom_site_fract_y
_atom_site_fract_z
Si Si1 0.606667 0.648388 0.743190
Si Si2 0.772392 0.157014 0.932371
Si Si3 0.200427 0.149443 0.611141
Si Si4 0.103284 0.658598 0.219551
Si Si5 0.399784 0.347983 0.501682
Si Si6 0.257352 0.154715 0.803277
Si Si7 0.109084 0.655166 0.999691
Si Si8 0.603657 0.249475 0.621694
O O1 0.500000 0.664494 0.760258
O O2 0.642938 0.500000 0.758536
O O3 0.659656 0.759381 0.778220
O O4 0.618705 0.664328 0.676929
O O5 0.751690 0.181855 0.868154
O O6 0.860359 0.248482 0.948981
O O7 0.792640 0.000000 0.944595
O O8 0.684529 0.216646 0.967091
O O9 0.154013 0.220592 0.664918
O O10 0.163483 0.214096 0.553861
O O11 0.312515 0.143597 0.617032
O O12 0.162161 0.000000 0.609439
O O13 0.098689 0.500000 0.214672
O O14 0.161179 0.699201 0.274187
O O15 0.000000 0.719739 0.224818
O O16 0.500000 0.279769 0.486662
O O17 0.403789 0.500000 0.482410
O O18 0.384788 0.343981 0.568061
O O19 0.280129 0.000000 0.790435
O O20 0.134702 0.500000 0.986837
O O21 0.000000 0.671211 0.009659
O O22 0.500000 0.181686 0.622317
#
# Coordination Sequence:
#
# PCOD8177606 Si02
#       8
#     8   8   8   8   8   8   8   8
#     4  10  21  36  55  81 112 146 182 221 271 331
#     4  10  21  36  56  81 109 142 184 230 271 316
#     4  10  18  31  52  79 108 140 178 221 272 331
#     4   9  17  31  52  76 102 135 177 224 271 319
#     4   9  17  31  51  74 102 137 176 216 263 321
#     4  10  21  36  55  82 109 141 186 230 271 316
#     4  10  21  37  57  81 109 143 182 224 274 332
#     4  10  18  30  52  79 105 138 178 220 269 328
#
# _framework density 18.513173999999999
#
# number of rings (size 3 to 8) (size 9 to 14) (size 15 to 20)
#    0.000    2.250    2.500    0.750    0.000    5.250 
#    0.000    3.750    0.000    0.750    0.000    0.000 
#    0.000    0.000    0.000    0.000    0.000    0.000 
#
# Total GULP energy -396576.704842 kJ/mol
# GULP energy per Si atom -12393.022026 kJ/mol
# Density = 1.847104 g / cm^3
# Si number density = 18.513174 Si / 1000 Ang^3
#
#
#
# Elastic Constant Matrix: (Units=GPa)
#
#
# Indices 1 2 3 4 5 6 
#
# 1 128.7525 43.6419 60.6397 0.0000 0.0000 0.0000
# 2 43.6419 57.0754 43.2705 0.0000 0.0000 0.0000
# 3 60.6397 43.2705 121.5988 0.0000 0.0000 0.0000
# 4 0.0000 0.0000 0.0000 19.5546 0.0000 0.0000
# 5 0.0000 0.0000 0.0000 0.0000 23.0286 0.0000
# 6 0.0000 0.0000 0.0000 0.0000 0.0000 26.0127
#
#
#
# Elastic Compliance Matrix: (Units=1/GPa)
#
#
# Indices 1 2 3 4 5 6 
#
# 1 0.011516 -0.006097 -0.003574 0.000000 0.000000 0.000000
# 2 -0.006097 0.027221 -0.006646 0.000000 0.000000 0.000000
# 3 -0.003574 -0.006646 0.012371 0.000000 0.000000 0.000000
# 4 0.000000 0.000000 0.000000 0.051139 0.000000 0.000000
# 5 0.000000 0.000000 0.000000 0.000000 0.043424 0.000000
# 6 0.000000 0.000000 0.000000 0.000000 0.000000 0.038443
#
#
# Mechanical properties :
#
#
# Convention : Reuss Voigt Hill
#
# Bulk Modulus (GPa) = 54.12573 66.94786 60.53680
# Shear Modulus (GPa) = 22.43098 24.37747 23.40423
#
# Velocity S-wave (km/s) = 3.48461 3.63266 3.55941
# Velocity P-wave (km/s) = 6.74462 7.33728 7.04718
#
# Compressibility (1/GPa) = 0.01847550
#
# Stress axis : x y z
#
# Youngs Moduli (GPa) = 86.83229 36.73621 80.83465
#
# Poissons Ratio (x) = 0.22397 0.28887
# Poissons Ratio (y) = 0.52938 0.53725
# Poissons Ratio (z) = 0.31031 0.24416
#
# Static dielectric constant tensor:
#      x y z
#    x 3.634220 0.000000 0.000000 
#    y 0.000000 3.027220 0.000000 
#    z 0.000000 0.000000 3.426960 
# 
# 
# High freq. dielectric constant tensor:
#      x y z
#    x 1.728980 0.000000 0.000000 
#    y 0.000000 1.674480 0.000000 
#    z 0.000000 0.000000 1.721010 
# 
# From -- ./inp_files/22582.got.cif
#   From: 2010.03.12/outbox.cif.g09.slc.cpg/sg38_12_cif.got.tgz:22582.got - 2010.04.14 02:38:36.
