data_PCOD8177528
_publ_section_title
;
Structure prediction by ZEFSAII (Michael W. Deem and Ramdas Pophale) SiO2 
 PCOD8177528
Probable space group: A M M 2
;
_chemical_formula_sum "Si O2"
_cell_formula_units_Z 64
_cell_length_a 18.486256
_cell_length_b 9.068614
_cell_length_c 25.422626
_cell_angle_alpha 90.000000
_cell_angle_beta 90.000000
_cell_angle_gamma 90.000000
_cell_volume 4261.969017
_symmetry_space_group_name_H-M "A M M 2"
_symmetry_group_IT_number 38
_symmetry_cell_setting 'orthorhombic'
loop_
_space_group_symop_operation_xyz
x,y,z
-x,-y,z
-x,y,z
x,-y,z
x,1/2+y,1/2+z
-x,1/2-y,1/2+z
-x,1/2+y,1/2+z
x,1/2-y,1/2+z
loop_
_atom_site_type_symbol
_atom_site_label
_atom_site_fract_x
_atom_site_fract_y
_atom_site_fract_z
Si Si1 0.415527 0.668122 0.328700
Si Si2 0.414941 0.171116 0.644415
Si Si3 0.199362 0.164399 0.703893
Si Si4 0.808408 0.836428 0.587776
Si Si5 0.916979 0.173418 0.148442
Si Si6 0.663863 0.325889 0.039455
Si Si7 0.334560 0.674284 0.738999
Si Si8 0.581313 0.171649 0.949103
O O1 0.500000 0.692831 0.318455
O O2 0.394699 0.500000 0.313928
O O3 0.371236 0.782224 0.293753
O O4 0.396046 0.701448 0.389087
O O5 0.500000 0.198447 0.643719
O O6 0.384358 0.227685 0.588540
O O7 0.381875 0.266567 0.691078
O O8 0.396056 0.000000 0.654462
O O9 0.232286 0.153702 0.644674
O O10 0.121508 0.247882 0.698679
O O11 0.254143 0.256721 0.739636
O O12 0.188098 0.000000 0.727530
O O13 0.877695 0.727781 0.594052
O O14 0.747956 0.777375 0.547296
O O15 0.835894 0.000000 0.571560
O O16 0.000000 0.222496 0.146636
O O17 0.908000 0.000000 0.153911
O O18 0.658229 0.500000 0.033991
O O19 0.637482 0.254904 0.985762
O O20 0.327872 0.500000 0.734634
O O21 0.500000 0.230817 0.959197
O O22 0.584665 0.000000 0.962044
#
# Coordination Sequence:
#
# PCOD8177528 Si02
#       8
#     8   8   8   8   8   8   8   8
#     4   9  19  36  52  62  80 115 154 190 232 282
#     4  10  19  30  43  59  83 117 150 176 215 274
#     4   9  17  30  45  60  85 121 153 176 206 259
#     4   8  16  28  43  61  86 121 153 175 205 259
#     4   9  16  26  42  66  95 122 148 181 218 254
#     4  10  18  30  46  64  86 114 148 185 223 262
#     4  12  22  30  44  65  89 113 144 190 235 267
#     4   9  19  34  49  65  84 111 150 193 236 278
#
# _framework density 15.016533000000001
#
# number of rings (size 3 to 8) (size 9 to 14) (size 15 to 20)
#    0.750    1.750    1.250    3.000    0.000    5.250 
#    0.000    1.250    0.000    0.000    0.000    0.000 
#    0.000    1.000    0.000    7.000    0.000    5.500 
#
# Total GULP energy -396591.461260 kJ/mol
# GULP energy per Si atom -12393.483164 kJ/mol
# Density = 1.498235 g / cm^3
# Si number density = 15.016533 Si / 1000 Ang^3
#
#
#
# Elastic Constant Matrix: (Units=GPa)
#
#
# Indices 1 2 3 4 5 6 
#
# 1 106.2804 57.5360 43.6759 0.0000 0.0000 0.0000
# 2 57.5360 84.9184 34.0198 0.0000 0.0000 0.0000
# 3 43.6759 34.0198 62.8603 0.0000 0.0000 0.0000
# 4 0.0000 0.0000 0.0000 23.1528 0.0000 0.0000
# 5 0.0000 0.0000 0.0000 0.0000 17.0877 0.0000
# 6 0.0000 0.0000 0.0000 0.0000 0.0000 25.6764
#
#
#
# Elastic Compliance Matrix: (Units=1/GPa)
#
#
# Indices 1 2 3 4 5 6 
#
# 1 0.017049 -0.008690 -0.007143 0.000000 0.000000 0.000000
# 2 -0.008690 0.019465 -0.004497 0.000000 0.000000 0.000000
# 3 -0.007143 -0.004497 0.023305 0.000000 0.000000 0.000000
# 4 0.000000 0.000000 0.000000 0.043191 0.000000 0.000000
# 5 0.000000 0.000000 0.000000 0.000000 0.058522 0.000000
# 6 0.000000 0.000000 0.000000 0.000000 0.000000 0.038946
#
#
# Mechanical properties :
#
#
# Convention : Reuss Voigt Hill
#
# Bulk Modulus (GPa) = 52.19167 58.28027 55.23597
# Shear Modulus (GPa) = 20.20015 21.10521 20.65268
#
# Velocity S-wave (km/s) = 3.67167 3.75302 3.71257
# Velocity P-wave (km/s) = 7.26680 7.59442 7.43242
#
# Compressibility (1/GPa) = 0.01916014
#
# Stress axis : x y z
#
# Youngs Moduli (GPa) = 58.65574 51.37375 42.90976
#
# Poissons Ratio (x) = 0.44642 0.30649
# Poissons Ratio (y) = 0.50970 0.19296
# Poissons Ratio (z) = 0.41896 0.23102
#
# Static dielectric constant tensor:
#      x y z
#    x 2.798710 0.000000 0.000000 
#    y 0.000000 2.838050 0.000000 
#    z 0.000000 0.000000 2.672290 
# 
# 
# High freq. dielectric constant tensor:
#      x y z
#    x 1.562960 0.000000 0.000000 
#    y 0.000000 1.578450 0.000000 
#    z 0.000000 0.000000 1.542090 
# 
# From -- ./inp_files/24045.got.cif
#   From: 2010.03.12/outbox.cif.g09.slc.cpg/sg38_13_cif.got.tgz:24045.got - 2010.04.14 02:38:36.
