data_PCOD8177313
_publ_section_title
;
Structure prediction by ZEFSAII (Michael W. Deem and Ramdas Pophale) SiO2 
 PCOD8177313
Probable space group: A M M 2
;
_chemical_formula_sum "Si O2"
_cell_formula_units_Z 64
_cell_length_a 8.948289
_cell_length_b 15.532366
_cell_length_c 23.990299
_cell_angle_alpha 90.000000
_cell_angle_beta 90.000000
_cell_angle_gamma 90.000000
_cell_volume 3334.366072
_symmetry_space_group_name_H-M "A M M 2"
_symmetry_group_IT_number 38
_symmetry_cell_setting 'orthorhombic'
loop_
_space_group_symop_operation_xyz
x,y,z
-x,-y,z
-x,y,z
x,-y,z
x,1/2+y,1/2+z
-x,1/2-y,1/2+z
-x,1/2+y,1/2+z
x,1/2-y,1/2+z
loop_
_atom_site_type_symbol
_atom_site_label
_atom_site_fract_x
_atom_site_fract_y
_atom_site_fract_z
Si Si1 0.177529 0.405021 0.580700
Si Si2 0.821965 0.746753 0.660228
Si Si3 0.825960 0.597625 0.343944
Si Si4 0.677107 0.750342 0.279714
Si Si5 0.327997 0.595286 0.857731
Si Si6 0.823128 0.656273 0.463221
Si Si7 0.177354 0.850243 0.466182
Si Si8 0.177256 0.095367 0.586772
O O1 0.230138 0.500000 0.600142
O O2 0.236359 0.333969 0.623902
O O3 0.243796 0.387433 0.518856
O O4 0.000000 0.399468 0.578056
O O5 0.748080 0.738517 0.719710
O O6 0.763534 0.834181 0.630649
O O7 0.000000 0.746848 0.666521
O O8 0.798458 0.500000 0.323708
O O9 0.730107 0.660586 0.305768
O O10 0.772496 0.605011 0.408142
O O11 0.000000 0.622983 0.338389
O O12 0.500000 0.749854 0.274389
O O13 0.734880 0.831277 0.316391
O O14 0.500000 0.614719 0.870605
O O15 0.307281 0.500000 0.830690
O O16 0.240942 0.593937 0.915897
O O17 0.763561 0.753276 0.458794
O O18 0.000000 0.656175 0.468221
O O19 0.239421 0.886026 0.524862
O O20 0.000000 0.855867 0.464281
O O21 0.000000 0.101768 0.584464
O O22 0.229455 0.000000 0.605885
#
# Coordination Sequence:
#
# PCOD8177313 Si02
#       8
#     8   8   8   8   8   8   8   8
#     4   9  16  28  50  81 113 140 168 212 270 323
#     4  10  20  35  54  76 103 138 181 225 263 312
#     4  10  20  35  58  86 113 142 176 216 265 323
#     4  11  24  40  56  75 104 145 187 231 275 315
#     4  10  22  39  56  76 106 145 184 221 270 328
#     4   9  15  27  51  83 115 140 166 209 265 323
#     4  10  17  30  56  86 112 137 169 216 269 321
#     4   9  17  30  51  80 109 135 166 209 263 316
#
# _framework density 19.194053
#
# number of rings (size 3 to 8) (size 9 to 14) (size 15 to 20)
#    0.000    2.250    2.500    1.125    0.000    4.000 
#    0.000    1.875    0.000    1.500    0.000    0.000 
#    0.000    0.000    0.000    0.000    0.000    0.000 
#
# Total GULP energy -396739.456807 kJ/mol
# GULP energy per Si atom -12398.108025 kJ/mol
# Density = 1.915037 g / cm^3
# Si number density = 19.194053 Si / 1000 Ang^3
#
#
#
# Elastic Constant Matrix: (Units=GPa)
#
#
# Indices 1 2 3 4 5 6 
#
# 1 26.0670 21.4739 26.0024 0.0000 0.0000 0.0000
# 2 21.4739 144.6177 57.0590 0.0000 0.0000 0.0000
# 3 26.0024 57.0590 134.0424 0.0000 0.0000 0.0000
# 4 0.0000 0.0000 0.0000 16.3485 0.0000 0.0000
# 5 0.0000 0.0000 0.0000 0.0000 2.4095 0.0000
# 6 0.0000 0.0000 0.0000 0.0000 0.0000 17.5595
#
#
#
# Elastic Compliance Matrix: (Units=1/GPa)
#
#
# Indices 1 2 3 4 5 6 
#
# 1 0.049694 -0.004297 -0.007811 0.000000 0.000000 0.000000
# 2 -0.004297 0.008682 -0.002862 0.000000 0.000000 0.000000
# 3 -0.007811 -0.002862 0.010194 0.000000 0.000000 0.000000
# 4 0.000000 0.000000 0.000000 0.061168 0.000000 0.000000
# 5 0.000000 0.000000 0.000000 0.000000 0.415025 0.000000
# 6 0.000000 0.000000 0.000000 0.000000 0.000000 0.056949
#
#
# Mechanical properties :
#
#
# Convention : Reuss Voigt Hill
#
# Bulk Modulus (GPa) = 25.88679 57.08863 41.48771
# Shear Modulus (GPa) = 7.75760 20.60963 14.18362
#
# Velocity S-wave (km/s) = 2.01257 3.28037 2.72133
# Velocity P-wave (km/s) = 4.34934 6.64494 5.61569
#
# Compressibility (1/GPa) = 0.03862975
#
# Stress axis : x y z
#
# Youngs Moduli (GPa) = 20.12316 115.17892 98.09814
#
# Poissons Ratio (x) = 0.49495 0.76622
# Poissons Ratio (y) = 0.08647 0.28078
# Poissons Ratio (z) = 0.15718 0.32967
#
# Static dielectric constant tensor:
#      x y z
#    x 2.995460 0.000000 0.000000 
#    y 0.000000 3.826100 0.000000 
#    z 0.000000 0.000000 3.562180 
# 
# 
# High freq. dielectric constant tensor:
#      x y z
#    x 1.691890 0.000000 0.000000 
#    y 0.000000 1.765770 0.000000 
#    z 0.000000 0.000000 1.747260 
# 
# From -- ./inp_files/22196.got.cif
#   From: 2010.03.12/outbox.cif.g09.slc.cpg/sg38_12_cif.got.tgz:22196.got - 2010.04.14 02:38:36.
