data_PCOD8177453
_publ_section_title
;
Structure prediction by ZEFSAII (Michael W. Deem and Ramdas Pophale) SiO2 
 PCOD8177453
Probable space group: A M M 2
;
_chemical_formula_sum "Si O2"
_cell_formula_units_Z 64
_cell_length_a 9.162249
_cell_length_b 25.852952
_cell_length_c 18.217292
_cell_angle_alpha 90.000000
_cell_angle_beta 90.000000
_cell_angle_gamma 90.000000
_cell_volume 4315.151518
_symmetry_space_group_name_H-M "A M M 2"
_symmetry_group_IT_number 38
_symmetry_cell_setting 'orthorhombic'
loop_
_space_group_symop_operation_xyz
x,y,z
-x,-y,z
-x,y,z
x,-y,z
x,1/2+y,1/2+z
-x,1/2-y,1/2+z
-x,1/2+y,1/2+z
x,1/2-y,1/2+z
loop_
_atom_site_type_symbol
_atom_site_label
_atom_site_fract_x
_atom_site_fract_y
_atom_site_fract_z
Si Si1 0.334527 0.303521 0.950030
Si Si2 0.336006 0.300982 0.542141
Si Si3 0.168414 0.647992 0.420787
Si Si4 0.832077 0.559174 0.313550
Si Si5 0.172016 0.642979 0.073705
Si Si6 0.830081 0.249127 0.829666
Si Si7 0.170163 0.754428 0.661541
Si Si8 0.668960 0.939663 0.665782
O O1 0.500000 0.323075 0.939035
O O2 0.260513 0.293838 0.871019
O O3 0.329792 0.250666 0.994731
O O4 0.242304 0.346260 0.994124
O O5 0.500000 0.318230 0.559881
O O6 0.259661 0.346496 0.495708
O O7 0.253525 0.291065 0.618551
O O8 0.211994 0.593917 0.383109
O O9 0.205102 0.693162 0.363181
O O10 0.000000 0.649566 0.443461
O O11 0.807081 0.500000 0.336965
O O12 0.731976 0.574851 0.245314
O O13 0.000000 0.569724 0.290726
O O14 0.209996 0.689236 0.129834
O O15 0.242878 0.590671 0.103734
O O16 0.000000 0.635466 0.064084
O O17 0.779334 0.247729 0.745555
O O18 0.000000 0.262618 0.837436
O O19 0.000000 0.743551 0.652224
O O20 0.500000 0.923543 0.663781
O O21 0.691156 0.000000 0.649379
#
# Coordination Sequence:
#
# PCOD8177453 Si02
#       8
#     8   8   8   8   8   8   8   8
#     4   9  17  28  40  57  81 106 133 167 205 241
#     4   9  17  27  39  57  80 106 136 168 202 241
#     4   9  16  27  42  58  79 108 139 169 202 239
#     4   9  17  29  44  61  81 107 141 177 208 240
#     4  10  18  29  45  61  79 108 143 173 203 240
#     4   9  16  26  40  58  80 107 138 167 198 240
#     4   9  17  28  42  60  82 108 138 171 205 241
#     4  10  20  31  42  59  84 111 138 171 209 243
#
# _framework density 14.83146
#
# number of rings (size 3 to 8) (size 9 to 14) (size 15 to 20)
#    0.000    2.750    0.000    2.250    0.000    7.250 
#    0.000    2.500    0.000    0.000    0.000    0.000 
#    0.000    1.000    0.000    8.250    0.000    3.875 
#
# Total GULP energy -396823.377141 kJ/mol
# GULP energy per Si atom -12400.730536 kJ/mol
# Density = 1.479770 g / cm^3
# Si number density = 14.831460 Si / 1000 Ang^3
#
#
#
# Elastic Constant Matrix: (Units=GPa)
#
#
# Indices 1 2 3 4 5 6 
#
# 1 85.7884 38.1967 48.9817 0.0000 0.0000 0.0000
# 2 38.1967 56.1015 37.6582 0.0000 0.0000 0.0000
# 3 48.9817 37.6582 92.6699 0.0000 0.0000 0.0000
# 4 0.0000 0.0000 0.0000 27.1074 0.0000 0.0000
# 5 0.0000 0.0000 0.0000 0.0000 19.3805 0.0000
# 6 0.0000 0.0000 0.0000 0.0000 0.0000 19.2480
#
#
#
# Elastic Compliance Matrix: (Units=1/GPa)
#
#
# Indices 1 2 3 4 5 6 
#
# 1 0.019343 -0.008673 -0.006700 0.000000 0.000000 0.000000
# 2 -0.008673 0.028399 -0.006957 0.000000 0.000000 0.000000
# 3 -0.006700 -0.006957 0.017159 0.000000 0.000000 0.000000
# 4 0.000000 0.000000 0.000000 0.036890 0.000000 0.000000
# 5 0.000000 0.000000 0.000000 0.000000 0.051598 0.000000
# 6 0.000000 0.000000 0.000000 0.000000 0.000000 0.051953
#
#
# Mechanical properties :
#
#
# Convention : Reuss Voigt Hill
#
# Bulk Modulus (GPa) = 49.39813 53.80366 51.60089
# Shear Modulus (GPa) = 19.47424 20.46208 19.96816
#
# Velocity S-wave (km/s) = 3.62751 3.71838 3.67323
# Velocity P-wave (km/s) = 7.13609 7.40207 7.27029
#
# Compressibility (1/GPa) = 0.02024368
#
# Stress axis : x y z
#
# Youngs Moduli (GPa) = 51.69733 35.21235 58.27779
#
# Poissons Ratio (x) = 0.30538 0.39045
# Poissons Ratio (y) = 0.44835 0.40541
# Poissons Ratio (z) = 0.34637 0.24496
#
# Static dielectric constant tensor:
#      x y z
#    x 2.986550 0.000000 0.000000 
#    y 0.000000 2.668280 0.000000 
#    z 0.000000 0.000000 2.844800 
# 
# 
# High freq. dielectric constant tensor:
#      x y z
#    x 1.578100 0.000000 0.000000 
#    y 0.000000 1.531750 0.000000 
#    z 0.000000 0.000000 1.554940 
# 
# From -- ./inp_files/17276.got.cif
#   From: 2010.03.12/outbox.cif.g09.slc.cpg/sg38_9_cif.got.tgz:17276.got - 2010.04.14 02:38:36.
