data_PCOD8177835
_publ_section_title
;
Structure prediction by ZEFSAII (Michael W. Deem and Ramdas Pophale) SiO2 
 PCOD8177835
Probable space group: A M M 2
;
_chemical_formula_sum "Si O2"
_cell_formula_units_Z 64
_cell_length_a 8.863578
_cell_length_b 15.372995
_cell_length_c 23.718163
_cell_angle_alpha 90.000000
_cell_angle_beta 90.000000
_cell_angle_gamma 90.000000
_cell_volume 3231.830730
_symmetry_space_group_name_H-M "A M M 2"
_symmetry_group_IT_number 38
_symmetry_cell_setting 'orthorhombic'
loop_
_space_group_symop_operation_xyz
x,y,z
-x,-y,z
-x,y,z
x,-y,z
x,1/2+y,1/2+z
-x,1/2-y,1/2+z
-x,1/2+y,1/2+z
x,1/2-y,1/2+z
loop_
_atom_site_type_symbol
_atom_site_label
_atom_site_fract_x
_atom_site_fract_y
_atom_site_fract_z
Si Si1 0.172953 0.902114 0.633300
Si Si2 0.820985 0.404190 0.872189
Si Si3 0.178096 0.744669 0.446509
Si Si4 0.677356 0.751344 0.066648
Si Si5 0.827052 0.667944 0.753772
Si Si6 0.171849 0.402357 0.633955
Si Si7 0.677034 0.349764 0.245385
Si Si8 0.827779 0.902123 0.858691
O O1 0.254219 0.837428 0.590541
O O2 0.244520 0.901815 0.695125
O O3 0.000000 0.872234 0.638282
O O4 0.185941 0.000000 0.608928
O O5 0.757103 0.500000 0.887907
O O6 0.763639 0.333669 0.917375
O O7 0.765063 0.379210 0.809651
O O8 0.000000 0.405913 0.872220
O O9 0.264296 0.731636 0.504268
O O10 0.224272 0.663957 0.407078
O O11 0.000000 0.747095 0.457881
O O12 0.500000 0.740632 0.066303
O O13 0.719050 0.833835 0.104678
O O14 0.813148 0.602558 0.701518
O O15 0.722946 0.749828 0.741349
O O16 0.000000 0.698983 0.762553
O O17 0.217216 0.500000 0.615527
O O18 0.000000 0.381836 0.615668
O O19 0.500000 0.358867 0.237635
O O20 0.724031 0.391533 0.304374
O O21 0.000000 0.881672 0.841130
O O22 0.810993 0.000000 0.882302
#
# Coordination Sequence:
#
# PCOD8177835 Si02
#       8
#     8   8   8   8   8   8   8   8
#     4  11  24  43  67  91 117 156 207 257 302 358
#     4   9  17  32  59  92 119 146 190 244 292 341
#     4  10  21  39  61  86 116 156 207 254 292 345
#     4  12  26  42  61  88 124 163 200 250 313 369
#     4  10  18  34  61  90 122 157 194 239 294 355
#     4  10  21  38  64  94 122 158 204 249 295 355
#     4  12  23  35  58  92 129 162 192 237 306 373
#     4  10  21  39  63  89 117 155 204 252 294 345
#
# _framework density 19.803017000000001
#
# number of rings (size 3 to 8) (size 9 to 14) (size 15 to 20)
#    0.000    1.500    2.500    3.375    0.000    6.000 
#    0.000    2.500    0.000    1.875    0.000    0.000 
#    0.000    0.000    0.000    0.000    0.000    0.000 
#
# Total GULP energy -396896.379654 kJ/mol
# GULP energy per Si atom -12403.011864 kJ/mol
# Density = 1.975794 g / cm^3
# Si number density = 19.803017 Si / 1000 Ang^3
#
#
#
# Elastic Constant Matrix: (Units=GPa)
#
#
# Indices 1 2 3 4 5 6 
#
# 1 93.5481 31.3734 38.0354 0.0000 0.0000 0.0000
# 2 31.3734 124.5697 32.5791 0.0000 0.0000 0.0000
# 3 38.0354 32.5791 96.7667 0.0000 0.0000 0.0000
# 4 0.0000 0.0000 0.0000 10.8556 0.0000 0.0000
# 5 0.0000 0.0000 0.0000 0.0000 -18.2868 0.0000
# 6 0.0000 0.0000 0.0000 0.0000 0.0000 7.4969
#
#
#
# Elastic Compliance Matrix: (Units=1/GPa)
#
#
# Indices 1 2 3 4 5 6 
#
# 1 0.013234 -0.002163 -0.004474 0.000000 0.000000 0.000000
# 2 -0.002163 0.009156 -0.002232 0.000000 0.000000 0.000000
# 3 -0.004474 -0.002232 0.012844 0.000000 0.000000 0.000000
# 4 0.000000 0.000000 0.000000 0.092119 0.000000 0.000000
# 5 0.000000 0.000000 0.000000 0.000000 -0.054684 0.000000
# 6 0.000000 0.000000 0.000000 0.000000 0.000000 0.133389
#
#
# Mechanical properties :
#
#
# Convention : Reuss Voigt Hill
#
# Bulk Modulus (GPa) = 57.15512 57.65114 57.40313
# Shear Modulus (GPa) = 21.77432 14.20624 17.99028
#
# Velocity S-wave (km/s) = 3.31954 2.68130 3.01734
# Velocity P-wave (km/s) = 6.60431 6.22586 6.41787
#
# Compressibility (1/GPa) = 0.01749625
#
# Stress axis : x y z
#
# Youngs Moduli (GPa) = 75.56300 109.21472 77.85650
#
# Poissons Ratio (x) = 0.23624 0.34829
# Poissons Ratio (y) = 0.16345 0.17381
# Poissons Ratio (z) = 0.33803 0.24382
#
# Static dielectric constant tensor:
#      x y z
#    x 3.395540 0.000000 0.000000 
#    y 0.000000 3.825810 0.000000 
#    z 0.000000 0.000000 3.599840 
# 
# 
# High freq. dielectric constant tensor:
#      x y z
#    x 1.747840 0.000000 0.000000 
#    y 0.000000 1.787910 0.000000 
#    z 0.000000 0.000000 1.770530 
# 
# From -- ./inp_files/22179.got.cif
#   From: 2010.03.12/outbox.cif.g09.slc.cpg/sg38_12_cif.got.tgz:22179.got - 2010.04.14 02:38:36.
