data_PCOD8177364
_publ_section_title
;
Structure prediction by ZEFSAII (Michael W. Deem and Ramdas Pophale) SiO2 
 PCOD8177364
Probable space group: A M M 2
;
_chemical_formula_sum "Si O2"
_cell_formula_units_Z 64
_cell_length_a 9.048377
_cell_length_b 18.510218
_cell_length_c 25.917284
_cell_angle_alpha 90.000000
_cell_angle_beta 90.000000
_cell_angle_gamma 90.000000
_cell_volume 4340.819311
_symmetry_space_group_name_H-M "A M M 2"
_symmetry_group_IT_number 38
_symmetry_cell_setting 'orthorhombic'
loop_
_space_group_symop_operation_xyz
x,y,z
-x,-y,z
-x,y,z
x,-y,z
x,1/2+y,1/2+z
-x,1/2-y,1/2+z
-x,1/2+y,1/2+z
x,1/2-y,1/2+z
loop_
_atom_site_type_symbol
_atom_site_label
_atom_site_fract_x
_atom_site_fract_y
_atom_site_fract_z
Si Si1 0.163604 0.785825 0.034740
Si Si2 0.837152 0.713324 0.145987
Si Si3 0.172069 0.416089 0.896854
Si Si4 0.330507 0.917109 0.292524
Si Si5 0.327156 0.840697 0.187821
Si Si6 0.674893 0.341992 0.990461
Si Si7 0.174096 0.081538 0.094670
Si Si8 0.826658 0.918018 0.584785
O O1 0.156280 0.749768 0.090426
O O2 0.275428 0.741392 0.998654
O O3 0.218723 0.868160 0.045418
O O4 0.000000 0.784949 0.009325
O O5 0.726309 0.757456 0.182618
O O6 0.784026 0.630811 0.134901
O O7 0.000000 0.714111 0.171613
O O8 0.203969 0.500000 0.908576
O O9 0.224755 0.395776 0.839575
O O10 0.000000 0.397811 0.902435
O O11 0.265100 0.367780 0.935793
O O12 0.500000 0.903751 0.308989
O O13 0.284632 0.867228 0.244673
O O14 0.306526 0.000000 0.275971
O O15 0.500000 0.843783 0.177730
O O16 0.252226 0.893551 0.146889
O O17 0.500000 0.345804 0.990995
O O18 0.737124 0.394462 0.034456
O O19 0.000000 0.088496 0.104730
O O20 0.221975 0.000000 0.081410
O O21 0.000000 0.908495 0.571748
O O22 0.786159 0.000000 0.598750
#
# Coordination Sequence:
#
# PCOD8177364 Si02
#       8
#     8   8   8   8   8   8   8   8
#     4   8  15  28  42  56  78 107 137 168 199 233
#     4   8  15  27  41  57  78 105 136 169 201 234
#     4  10  20  32  45  60  78 103 136 171 204 238
#     4   9  18  31  43  57  80 107 135 168 202 234
#     4  10  18  27  41  60  83 111 138 165 201 241
#     4  11  20  28  41  60  82 108 136 166 202 242
#     4   9  17  28  42  60  82 109 140 171 201 234
#     4   9  17  29  43  58  79 108 140 171 202 237
#
# _framework density 14.74376
#
# number of rings (size 3 to 8) (size 9 to 14) (size 15 to 20)
#    0.000    2.750    0.000    4.125    0.000    8.750 
#    0.000    1.250    0.000    0.000    0.000    0.000 
#    0.000    1.000    0.000    9.750    0.000    2.750 
#
# Total GULP energy -396664.244425 kJ/mol
# GULP energy per Si atom -12395.757638 kJ/mol
# Density = 1.471020 g / cm^3
# Si number density = 14.743760 Si / 1000 Ang^3
#
#
#
# Elastic Constant Matrix: (Units=GPa)
#
#
# Indices 1 2 3 4 5 6 
#
# 1 75.0018 46.3676 42.4021 0.0000 0.0000 0.0000
# 2 46.3676 122.3045 52.2578 0.0000 0.0000 0.0000
# 3 42.4021 52.2578 67.3834 0.0000 0.0000 0.0000
# 4 0.0000 0.0000 0.0000 23.8340 0.0000 0.0000
# 5 0.0000 0.0000 0.0000 0.0000 23.2793 0.0000
# 6 0.0000 0.0000 0.0000 0.0000 0.0000 18.3795
#
#
#
# Elastic Compliance Matrix: (Units=1/GPa)
#
#
# Indices 1 2 3 4 5 6 
#
# 1 0.021694 -0.003577 -0.010877 0.000000 0.000000 0.000000
# 2 -0.003577 0.012818 -0.007690 0.000000 0.000000 0.000000
# 3 -0.010877 -0.007690 0.027649 0.000000 0.000000 0.000000
# 4 0.000000 0.000000 0.000000 0.041957 0.000000 0.000000
# 5 0.000000 0.000000 0.000000 0.000000 0.042957 0.000000
# 6 0.000000 0.000000 0.000000 0.000000 0.000000 0.054408
#
#
# Mechanical properties :
#
#
# Convention : Reuss Voigt Hill
#
# Bulk Modulus (GPa) = 55.95144 60.74943 58.35043
# Shear Modulus (GPa) = 19.86271 21.34273 20.60272
#
# Velocity S-wave (km/s) = 3.67440 3.80883 3.74222
# Velocity P-wave (km/s) = 7.48553 7.78690 7.63770
#
# Compressibility (1/GPa) = 0.01787264
#
# Stress axis : x y z
#
# Youngs Moduli (GPa) = 46.09637 78.01450 36.16783
#
# Poissons Ratio (x) = 0.27905 0.39340
# Poissons Ratio (y) = 0.16488 0.27813
# Poissons Ratio (z) = 0.50140 0.59993
#
# Static dielectric constant tensor:
#      x y z
#    x 2.904090 0.000000 0.000000 
#    y 0.000000 3.369950 0.000000 
#    z 0.000000 0.000000 2.611730 
# 
# 
# High freq. dielectric constant tensor:
#      x y z
#    x 1.568730 0.000000 0.000000 
#    y 0.000000 1.560320 0.000000 
#    z 0.000000 0.000000 1.525380 
# 
# From -- ./inp_files/22284.got.cif
#   From: 2010.03.12/outbox.cif.g09.slc.cpg/sg38_12_cif.got.tgz:22284.got - 2010.04.14 02:38:36.
