data_PCOD8177201
_publ_section_title
;
Structure prediction by ZEFSAII (Michael W. Deem and Ramdas Pophale) SiO2 
 PCOD8177201
Probable space group: A M M 2
;
_chemical_formula_sum "Si O2"
_cell_formula_units_Z 40
_cell_length_a 13.339175
_cell_length_b 19.813379
_cell_length_c 8.447084
_cell_angle_alpha 90.000000
_cell_angle_beta 90.000000
_cell_angle_gamma 90.000000
_cell_volume 2232.514715
_symmetry_space_group_name_H-M "A M M 2"
_symmetry_group_IT_number 38
_symmetry_cell_setting 'orthorhombic'
loop_
_space_group_symop_operation_xyz
x,y,z
-x,-y,z
-x,y,z
x,-y,z
x,1/2+y,1/2+z
-x,1/2-y,1/2+z
-x,1/2+y,1/2+z
x,1/2-y,1/2+z
loop_
_atom_site_type_symbol
_atom_site_label
_atom_site_fract_x
_atom_site_fract_y
_atom_site_fract_z
Si Si1 0.000000 0.277588 0.855940
Si Si2 0.791763 0.676174 0.826300
Si Si3 0.000000 0.850345 0.681463
Si Si4 0.678599 0.224046 0.037939
Si Si5 0.390556 0.154498 0.739039
Si Si6 0.205306 0.920406 0.602689
O O1 0.905120 0.312095 0.770554
O O2 0.000000 0.196056 0.838344
O O3 0.000000 0.295897 0.040714
O O4 0.722604 0.673902 0.671385
O O5 0.766902 0.740088 0.938975
O O6 0.780081 0.606902 0.924101
O O7 0.899690 0.895497 0.677460
O O8 0.613061 0.281815 0.121074
O O9 0.612229 0.179342 0.920599
O O10 0.500000 0.119895 0.713560
O O11 0.299426 0.103055 0.709032
O O12 0.203708 0.000000 0.595403
#
# Coordination Sequence:
#
# PCOD8177201 Si02
#       6
#     4   8   4   8   8   8
#     4  10  16  26  48  78 100 124 160 202 252 296
#     4   9  17  29  49  74 104 133 162 207 253 298
#     4  10  19  32  54  78 103 130 160 206 256 298
#     4   9  17  31  49  76 102 123 161 213 268 304
#     4  10  19  32  53  76 101 131 165 213 260 301
#     4  10  21  35  50  71 103 142 176 200 235 297
#
# _framework density 17.917014000000002
#
# number of rings (size 3 to 8) (size 9 to 14) (size 15 to 20)
#    0.000    2.400    0.000    5.700    0.000    0.400 
#    0.000    2.000    0.000    0.000    0.000    7.000 
#    0.000    0.000    0.000    0.000    0.000    0.000 
#
# Total GULP energy -247924.064122 kJ/mol
# GULP energy per Si atom -12396.203206 kJ/mol
# Density = 1.787623 g / cm^3
# Si number density = 17.917014 Si / 1000 Ang^3
#
#
#
# Elastic Constant Matrix: (Units=GPa)
#
#
# Indices 1 2 3 4 5 6 
#
# 1 147.0241 49.4142 37.9490 0.0000 0.0000 0.0000
# 2 49.4142 114.3362 39.0793 0.0000 0.0000 0.0000
# 3 37.9490 39.0793 79.4809 0.0000 0.0000 0.0000
# 4 0.0000 0.0000 0.0000 19.3627 0.0000 0.0000
# 5 0.0000 0.0000 0.0000 0.0000 15.4499 0.0000
# 6 0.0000 0.0000 0.0000 0.0000 0.0000 12.3359
#
#
#
# Elastic Compliance Matrix: (Units=1/GPa)
#
#
# Indices 1 2 3 4 5 6 
#
# 1 0.008406 -0.002718 -0.002677 0.000000 0.000000 0.000000
# 2 -0.002718 0.011392 -0.004303 0.000000 0.000000 0.000000
# 3 -0.002677 -0.004303 0.015976 0.000000 0.000000 0.000000
# 4 0.000000 0.000000 0.000000 0.051646 0.000000 0.000000
# 5 0.000000 0.000000 0.000000 0.000000 0.064725 0.000000
# 6 0.000000 0.000000 0.000000 0.000000 0.000000 0.081064
#
#
# Mechanical properties :
#
#
# Convention : Reuss Voigt Hill
#
# Bulk Modulus (GPa) = 61.06306 65.96959 63.51632
# Shear Modulus (GPa) = 19.37499 23.72294 21.54897
#
# Velocity S-wave (km/s) = 3.29199 3.64269 3.47177
# Velocity P-wave (km/s) = 6.97170 7.38862 7.18319
#
# Compressibility (1/GPa) = 0.01637651
#
# Stress axis : x y z
#
# Youngs Moduli (GPa) = 118.96086 87.78364 62.59465
#
# Poissons Ratio (x) = 0.23859 0.16758
# Poissons Ratio (y) = 0.32333 0.26937
# Poissons Ratio (z) = 0.31849 0.37776
#
# Static dielectric constant tensor:
#      x y z
#    x 3.449310 0.000000 0.000000 
#    y 0.000000 2.950130 0.000000 
#    z 0.000000 0.000000 3.356240 
# 
# 
# High freq. dielectric constant tensor:
#      x y z
#    x 1.709090 0.000000 0.000000 
#    y 0.000000 1.649960 0.000000 
#    z 0.000000 0.000000 1.688990 
# 
# From -- ./inp_files/4466.got.cif
#   From: 2010.03.12/outbox.cif.g09.slc.cpg/sg38_3_cif.got.tgz:4466.got - 2010.04.14 02:38:36.
