data_PCOD8177776
_publ_section_title
;
Structure prediction by ZEFSAII (Michael W. Deem and Ramdas Pophale) SiO2 
 PCOD8177776
Probable space group: A M M 2
;
_chemical_formula_sum "Si O2"
_cell_formula_units_Z 56
_cell_length_a 16.570134
_cell_length_b 9.325823
_cell_length_c 20.534430
_cell_angle_alpha 90.000000
_cell_angle_beta 90.000000
_cell_angle_gamma 90.000000
_cell_volume 3173.188276
_symmetry_space_group_name_H-M "A M M 2"
_symmetry_group_IT_number 38
_symmetry_cell_setting 'orthorhombic'
loop_
_space_group_symop_operation_xyz
x,y,z
-x,-y,z
-x,y,z
x,-y,z
x,1/2+y,1/2+z
-x,1/2-y,1/2+z
-x,1/2+y,1/2+z
x,1/2-y,1/2+z
loop_
_atom_site_type_symbol
_atom_site_label
_atom_site_fract_x
_atom_site_fract_y
_atom_site_fract_z
Si Si1 0.407556 0.164629 0.332260
Si Si2 0.832909 0.170006 0.896062
Si Si3 0.273252 0.832120 0.775696
Si Si4 0.590475 0.664632 0.463552
Si Si5 0.752782 0.167376 0.028416
Si Si6 0.000000 0.671378 0.343404
Si Si7 0.827685 0.331797 0.148396
Si Si8 0.000000 0.829750 0.696113
O O1 0.500000 0.179739 0.311119
O O2 0.356752 0.244017 0.275856
O O3 0.391737 0.237350 0.401773
O O4 0.381041 0.000000 0.337734
O O5 0.775245 0.223594 0.838558
O O6 0.800522 0.225627 0.965157
O O7 0.922528 0.230016 0.882552
O O8 0.833844 0.000000 0.895051
O O9 0.221806 0.792482 0.712700
O O10 0.292574 0.000000 0.778524
O O11 0.500000 0.692733 0.491379
O O12 0.600268 0.500000 0.440323
O O13 0.656850 0.698006 0.519144
O O14 0.769155 0.000000 0.039685
O O15 0.785591 0.252165 0.089457
O O16 0.000000 0.500000 0.340582
O O17 0.000000 0.732224 0.269635
O O18 0.825702 0.500000 0.134118
O O19 0.919992 0.277762 0.157790
O O20 0.000000 0.000000 0.701418
#
# Coordination Sequence:
#
# PCOD8177776 Si02
#       8
#     8   8   8   8   8   4   8   4
#     4  10  20  32  50  80 112 138 168 213 269 318
#     4   9  16  28  49  77 102 129 171 219 257 297
#     4  10  18  33  55  77 101 135 181 221 253 301
#     4   9  17  32  55  78 101 136 180 220 259 309
#     4  10  20  34  51  77 111 141 172 214 266 318
#     4   9  14  25  50  79 103 128 173 224 256 293
#     4  10  21  35  55  79 105 141 180 217 260 311
#     4   9  16  31  53  77 103 134 173 218 264 311
#
# _framework density 17.647866
#
# number of rings (size 3 to 8) (size 9 to 14) (size 15 to 20)
#    0.000    2.429    2.857    0.429    0.000    2.571 
#    0.000    1.786    0.000    2.571    0.000    0.500 
#    0.000    0.000    0.000    0.000    0.000    0.000 
#
# Total GULP energy -347136.941674 kJ/mol
# GULP energy per Si atom -12397.747917 kJ/mol
# Density = 1.760770 g / cm^3
# Si number density = 17.647866 Si / 1000 Ang^3
#
#
#
# Elastic Constant Matrix: (Units=GPa)
#
#
# Indices 1 2 3 4 5 6 
#
# 1 156.3676 53.4767 77.2887 0.0000 0.0000 0.0000
# 2 53.4767 52.3186 50.8908 0.0000 0.0000 0.0000
# 3 77.2887 50.8908 115.7959 0.0000 0.0000 0.0000
# 4 0.0000 0.0000 0.0000 27.9996 0.0000 0.0000
# 5 0.0000 0.0000 0.0000 0.0000 27.1098 0.0000
# 6 0.0000 0.0000 0.0000 0.0000 0.0000 19.5374
#
#
#
# Elastic Compliance Matrix: (Units=1/GPa)
#
#
# Indices 1 2 3 4 5 6 
#
# 1 0.010861 -0.007074 -0.004140 0.000000 0.000000 0.000000
# 2 -0.007074 0.037993 -0.011976 0.000000 0.000000 0.000000
# 3 -0.004140 -0.011976 0.016663 0.000000 0.000000 0.000000
# 4 0.000000 0.000000 0.000000 0.035715 0.000000 0.000000
# 5 0.000000 0.000000 0.000000 0.000000 0.036887 0.000000
# 6 0.000000 0.000000 0.000000 0.000000 0.000000 0.051184
#
#
# Mechanical properties :
#
#
# Convention : Reuss Voigt Hill
#
# Bulk Modulus (GPa) = 52.25648 76.42159 64.33904
# Shear Modulus (GPa) = 20.65588 24.45109 22.55348
#
# Velocity S-wave (km/s) = 3.42489 3.72627 3.57875
# Velocity P-wave (km/s) = 6.73162 7.86836 7.32208
#
# Compressibility (1/GPa) = 0.01913638
#
# Stress axis : x y z
#
# Youngs Moduli (GPa) = 92.07362 26.32032 60.01476
#
# Poissons Ratio (x) = 0.18619 0.24847
# Poissons Ratio (y) = 0.65134 0.71874
# Poissons Ratio (z) = 0.38120 0.31521
#
# Static dielectric constant tensor:
#      x y z
#    x 3.692990 0.000000 0.000000 
#    y 0.000000 2.983050 0.000000 
#    z 0.000000 0.000000 3.139700 
# 
# 
# High freq. dielectric constant tensor:
#      x y z
#    x 1.702800 0.000000 0.000000 
#    y 0.000000 1.648390 0.000000 
#    z 0.000000 0.000000 1.663740 
# 
# From -- ./inp_files/21160.got.cif
#   From: 2010.03.12/outbox.cif.g09.slc.cpg/sg38_11_cif.got.tgz:21160.got - 2010.04.14 02:38:36.
