data_PCOD8177165
_publ_section_title
;
Structure prediction by ZEFSAII (Michael W. Deem and Ramdas Pophale) SiO2 
 PCOD8177165
Probable space group: C C C 2
;
_chemical_formula_sum "Si O2"
_cell_formula_units_Z 32
_cell_length_a 4.688193
_cell_length_b 27.895252
_cell_length_c 9.310561
_cell_angle_alpha 90.000000
_cell_angle_beta 90.000000
_cell_angle_gamma 90.000000
_cell_volume 1217.619574
_symmetry_space_group_name_H-M "C C C 2"
_symmetry_group_IT_number 37
_symmetry_cell_setting 'orthorhombic'
loop_
_space_group_symop_operation_xyz
x,y,z
-x,-y,z
-x,y,1/2+z
x,-y,1/2+z
1/2+x,1/2+y,z
1/2-x,1/2-y,z
1/2-x,1/2+y,1/2+z
1/2+x,1/2-y,1/2+z
loop_
_atom_site_type_symbol
_atom_site_label
_atom_site_fract_x
_atom_site_fract_y
_atom_site_fract_z
Si Si1 0.015286 0.283576 0.304700
Si Si2 0.664962 0.588028 0.526567
Si Si3 0.342319 0.151626 0.050992
Si Si4 0.775427 0.032878 0.747971
O O1 0.250000 0.250000 0.380526
O O2 0.151314 0.304229 0.158988
O O3 0.750000 0.250000 0.268831
O O4 0.954959 0.329870 0.399552
O O5 0.481713 0.636609 0.520255
O O6 0.469731 0.550226 0.612165
O O7 0.780830 0.573162 0.368124
O O8 0.963843 0.604916 0.603770
O O9 0.500000 0.000000 0.699770
O O10 0.000000 0.000000 0.834047
#
# Coordination Sequence:
#
# PCOD8177165 Si02
#       4
#     8   8   8   8
#     4  12  24  42  66  98 135 178 227 284 345 412
#     4  12  25  45  70 100 137 182 231 288 352 423
#     4  12  24  43  67  98 135 180 229 284 345 417
#     4  12  26  46  70 102 138 180 232 292 355 426
#
# _framework density 26.280787
#
# number of rings (size 3 to 8) (size 9 to 14) (size 15 to 20)
#    0.000    0.000    0.000   11.250    0.000    2.000 
#    0.000    0.000    0.000    0.000    0.000    0.000 
#    0.000    0.000    0.000    0.000    0.000    0.000 
#
# Total GULP energy -198249.426766 kJ/mol
# GULP energy per Si atom -12390.589173 kJ/mol
# Density = 2.622097 g / cm^3
# Si number density = 26.280787 Si / 1000 Ang^3
#
#
#
# Elastic Constant Matrix: (Units=GPa)
#
#
# Indices 1 2 3 4 5 6 
#
# 1 104.0905 0.2903 -2.6680 0.0000 0.0000 0.0000
# 2 0.2903 70.4951 7.1123 0.0000 0.0000 0.0000
# 3 -2.6680 7.1123 91.0904 0.0000 0.0000 0.0000
# 4 0.0000 0.0000 0.0000 -13.2278 0.0000 0.0000
# 5 0.0000 0.0000 0.0000 0.0000 69.5126 0.0000
# 6 0.0000 0.0000 0.0000 0.0000 0.0000 66.6760
#
#
#
# Elastic Compliance Matrix: (Units=1/GPa)
#
#
# Indices 1 2 3 4 5 6 
#
# 1 0.009615 -0.000069 0.000287 0.000000 0.000000 0.000000
# 2 -0.000069 0.014298 -0.001118 0.000000 0.000000 0.000000
# 3 0.000287 -0.001118 0.011074 0.000000 0.000000 0.000000
# 4 0.000000 0.000000 0.000000 -0.075598 0.000000 0.000000
# 5 0.000000 0.000000 0.000000 0.000000 0.014386 0.000000
# 6 0.000000 0.000000 0.000000 0.000000 0.000000 0.014998
#
#
# Mechanical properties :
#
#
# Convention : Reuss Voigt Hill
#
# Bulk Modulus (GPa) = 30.13239 30.57169 30.35204
# Shear Modulus (GPa) = 3058.22622 41.98824 1550.10723
#
# Velocity S-wave (km/s) = 34.14967 4.00143 24.31267
# Velocity P-wave (km/s) = 39.57807 5.74514 28.27924
#
# Compressibility (1/GPa) = 0.03318688
#
# Stress axis : x y z
#
# Youngs Moduli (GPa) = 104.00875 69.93742 90.30296
#
# Poissons Ratio (x) = 0.00479 -0.02591
# Poissons Ratio (y) = 0.00713 0.10100
# Poissons Ratio (z) = -0.02985 0.07822
#
# Static dielectric constant tensor:
#      x y z
#    x 3.619670 0.000000 0.000000 
#    y 0.000000 4.749670 0.000000 
#    z 0.000000 0.000000 4.211190 
# 
# 
# High freq. dielectric constant tensor:
#      x y z
#    x 2.074930 0.000000 0.000000 
#    y 0.000000 2.078070 0.000000 
#    z 0.000000 0.000000 2.038500 
# 
# From -- ./inp_files/1714.got.cif
#   From: 2010.03.12/outbox.cif.g09.slc.cpg/sg37_1_cif.got.tgz:1714.got - 2010.04.14 02:25:27.
