data_PCOD8177689
_publ_section_title
;
Structure prediction by ZEFSAII (Michael W. Deem and Ramdas Pophale) SiO2 
 PCOD8177689
Probable space group: A M M 2
;
_chemical_formula_sum "Si O2"
_cell_formula_units_Z 64
_cell_length_a 9.398688
_cell_length_b 19.660093
_cell_length_c 20.449213
_cell_angle_alpha 90.000000
_cell_angle_beta 90.000000
_cell_angle_gamma 90.000000
_cell_volume 3778.586768
_symmetry_space_group_name_H-M "A M M 2"
_symmetry_group_IT_number 38
_symmetry_cell_setting 'orthorhombic'
loop_
_space_group_symop_operation_xyz
x,y,z
-x,-y,z
-x,y,z
x,-y,z
x,1/2+y,1/2+z
-x,1/2-y,1/2+z
-x,1/2+y,1/2+z
x,1/2-y,1/2+z
loop_
_atom_site_type_symbol
_atom_site_label
_atom_site_fract_x
_atom_site_fract_y
_atom_site_fract_z
Si Si1 0.663309 0.075500 0.625000
Si Si2 0.334931 0.577181 0.505631
Si Si3 0.166036 0.798179 0.964299
Si Si4 0.332511 0.786325 0.206822
Si Si5 0.331341 0.073532 0.154756
Si Si6 0.335285 0.715498 0.071196
Si Si7 0.162595 0.712029 0.316853
Si Si8 0.835479 0.074892 0.754340
O O1 0.500000 0.079083 0.647275
O O2 0.692254 0.133890 0.570938
O O3 0.753087 0.092804 0.688584
O O4 0.700413 0.000000 0.596785
O O5 0.500000 0.597529 0.497694
O O6 0.309701 0.500000 0.481603
O O7 0.237558 0.627553 0.463881
O O8 0.284057 0.585832 0.580301
O O9 0.188586 0.767548 0.891942
O O10 0.000000 0.805434 0.981265
O O11 0.238911 0.747487 0.015234
O O12 0.500000 0.783162 0.218341
O O13 0.276869 0.864192 0.198989
O O14 0.290517 0.744579 0.141970
O O15 0.259712 0.757886 0.271208
O O16 0.500000 0.071388 0.155675
O O17 0.271899 0.000000 0.179765
O O18 0.500000 0.733263 0.056622
O O19 0.200813 0.631984 0.308070
O O20 0.000000 0.725114 0.296410
O O21 0.000000 0.075742 0.735391
O O22 0.790889 0.000000 0.781216
#
# Coordination Sequence:
#
# PCOD8177689 Si02
#       8
#     8   8   8   8   8   8   8   8
#     4   9  17  30  50  76 103 127 156 204 259 302
#     4   9  17  32  53  75 103 138 171 207 252 300
#     4  11  23  35  49  72 104 142 177 211 252 300
#     4  10  18  31  54  79  98 126 168 210 254 300
#     4   8  14  27  49  75 101 126 156 199 249 299
#     4  10  19  33  53  77 102 129 167 213 258 306
#     4  10  22  36  48  69 103 139 171 206 251 298
#     4   9  17  30  48  69  96 132 168 198 235 291
#
# _framework density 16.937548
#
# number of rings (size 3 to 8) (size 9 to 14) (size 15 to 20)
#    0.000    2.500    2.500    1.125    0.000    2.750 
#    0.000    1.250    0.000    2.625    0.000    5.250 
#    0.000    0.000    0.000    0.000    0.000    0.000 
#
# Total GULP energy -396640.559574 kJ/mol
# GULP energy per Si atom -12395.017487 kJ/mol
# Density = 1.689900 g / cm^3
# Si number density = 16.937548 Si / 1000 Ang^3
#
#
#
# Elastic Constant Matrix: (Units=GPa)
#
#
# Indices 1 2 3 4 5 6 
#
# 1 58.7173 43.9186 43.9021 0.0000 0.0000 0.0000
# 2 43.9186 117.2330 52.3702 0.0000 0.0000 0.0000
# 3 43.9021 52.3702 81.2865 0.0000 0.0000 0.0000
# 4 0.0000 0.0000 0.0000 21.3107 0.0000 0.0000
# 5 0.0000 0.0000 0.0000 0.0000 21.5149 0.0000
# 6 0.0000 0.0000 0.0000 0.0000 0.0000 22.4987
#
#
#
# Elastic Compliance Matrix: (Units=1/GPa)
#
#
# Indices 1 2 3 4 5 6 
#
# 1 0.031173 -0.005837 -0.013076 0.000000 0.000000 0.000000
# 2 -0.005837 0.013070 -0.005268 0.000000 0.000000 0.000000
# 3 -0.013076 -0.005268 0.022758 0.000000 0.000000 0.000000
# 4 0.000000 0.000000 0.000000 0.046925 0.000000 0.000000
# 5 0.000000 0.000000 0.000000 0.000000 0.046479 0.000000
# 6 0.000000 0.000000 0.000000 0.000000 0.000000 0.044447
#
#
# Mechanical properties :
#
#
# Convention : Reuss Voigt Hill
#
# Bulk Modulus (GPa) = 53.64860 59.73539 56.69200
# Shear Modulus (GPa) = 19.27317 20.86792 20.07055
#
# Velocity S-wave (km/s) = 3.37693 3.51387 3.44608
# Velocity P-wave (km/s) = 6.85186 7.19775 7.02693
#
# Compressibility (1/GPa) = 0.01863981
#
# Stress axis : x y z
#
# Youngs Moduli (GPa) = 32.07874 76.51044 43.94011
#
# Poissons Ratio (x) = 0.44661 0.57455
# Poissons Ratio (y) = 0.18725 0.23148
# Poissons Ratio (z) = 0.41945 0.40306
#
# Static dielectric constant tensor:
#      x y z
#    x 3.046480 0.000000 0.000000 
#    y 0.000000 3.696930 0.000000 
#    z 0.000000 0.000000 2.877630 
# 
# 
# High freq. dielectric constant tensor:
#      x y z
#    x 1.640950 0.000000 0.000000 
#    y 0.000000 1.666570 0.000000 
#    z 0.000000 0.000000 1.619650 
# 
# From -- ./inp_files/20259.got.cif
#   From: 2010.03.12/outbox.cif.g09.slc.cpg/sg38_11_cif.got.tgz:20259.got - 2010.04.14 02:38:36.
