data_PCOD8177710
_publ_section_title
;
Structure prediction by ZEFSAII (Michael W. Deem and Ramdas Pophale) SiO2 
 PCOD8177710
Probable space group: A M M 2
;
_chemical_formula_sum "Si O2"
_cell_formula_units_Z 64
_cell_length_a 8.650182
_cell_length_b 23.046053
_cell_length_c 19.109372
_cell_angle_alpha 90.000000
_cell_angle_beta 90.000000
_cell_angle_gamma 90.000000
_cell_volume 3809.502091
_symmetry_space_group_name_H-M "A M M 2"
_symmetry_group_IT_number 38
_symmetry_cell_setting 'orthorhombic'
loop_
_space_group_symop_operation_xyz
x,y,z
-x,-y,z
-x,y,z
x,-y,z
x,1/2+y,1/2+z
-x,1/2-y,1/2+z
-x,1/2+y,1/2+z
x,1/2-y,1/2+z
loop_
_atom_site_type_symbol
_atom_site_label
_atom_site_fract_x
_atom_site_fract_y
_atom_site_fract_z
Si Si1 0.319342 0.778518 0.995020
Si Si2 0.680128 0.066320 0.489171
Si Si3 0.178919 0.383131 0.852998
Si Si4 0.320791 0.432522 0.714485
Si Si5 0.180926 0.252623 0.353883
Si Si6 0.817099 0.344028 0.617444
Si Si7 0.181198 0.267193 0.201146
Si Si8 0.819202 0.168848 0.567310
O O1 0.500000 0.786864 0.005595
O O2 0.274560 0.786094 0.913849
O O3 0.231057 0.828410 0.038332
O O4 0.270491 0.714152 0.018739
O O5 0.500000 0.076525 0.501091
O O6 0.720716 0.083193 0.410092
O O7 0.772772 0.104133 0.546044
O O8 0.727406 0.000000 0.502372
O O9 0.219297 0.406857 0.776931
O O10 0.216660 0.315471 0.857011
O O11 0.000000 0.395159 0.868684
O O12 0.500000 0.420511 0.729704
O O13 0.285708 0.500000 0.706008
O O14 0.267872 0.402353 0.642292
O O15 0.246243 0.276880 0.279366
O O16 0.000000 0.265255 0.363846
O O17 0.754870 0.291990 0.667014
O O18 0.000000 0.352412 0.621384
O O19 0.221799 0.320789 0.149398
O O20 0.000000 0.258456 0.208913
O O21 0.000000 0.179443 0.553884
#
# Coordination Sequence:
#
# PCOD8177710 Si02
#       8
#     8   8   8   8   8   8   8   8
#     4  11  21  32  49  75 104 133 164 206 259 308
#     4  11  23  36  49  68  99 137 173 213 257 298
#     4  11  21  33  51  72  99 138 179 213 244 293
#     4  11  23  36  50  72 105 140 173 213 258 303
#     4  10  18  32  51  74 101 134 168 205 250 301
#     4  10  19  35  54  73  97 132 175 215 251 297
#     4   8  16  31  51  72  96 123 159 205 252 293
#     4  10  19  33  52  73  96 129 169 211 252 299
#
# _framework density 16.800096
#
# number of rings (size 3 to 8) (size 9 to 14) (size 15 to 20)
#    0.000    1.750    2.500    4.125    0.000    4.000 
#    0.000    1.250    0.000    0.000    0.000    0.875 
#    0.000    5.000    0.000    0.000    0.000    0.000 
#
# Total GULP energy -396833.883059 kJ/mol
# GULP energy per Si atom -12401.058846 kJ/mol
# Density = 1.676186 g / cm^3
# Si number density = 16.800096 Si / 1000 Ang^3
#
#
#
# Elastic Constant Matrix: (Units=GPa)
#
#
# Indices 1 2 3 4 5 6 
#
# 1 39.8132 21.6394 24.6938 0.0000 0.0000 0.0000
# 2 21.6394 57.3390 36.7650 0.0000 0.0000 0.0000
# 3 24.6938 36.7650 116.1763 0.0000 0.0000 0.0000
# 4 0.0000 0.0000 0.0000 21.7935 0.0000 0.0000
# 5 0.0000 0.0000 0.0000 0.0000 19.6705 0.0000
# 6 0.0000 0.0000 0.0000 0.0000 0.0000 21.4788
#
#
#
# Elastic Compliance Matrix: (Units=1/GPa)
#
#
# Indices 1 2 3 4 5 6 
#
# 1 0.032914 -0.009956 -0.003845 0.000000 0.000000 0.000000
# 2 -0.009956 0.024891 -0.005761 0.000000 0.000000 0.000000
# 3 -0.003845 -0.005761 0.011248 0.000000 0.000000 0.000000
# 4 0.000000 0.000000 0.000000 0.045885 0.000000 0.000000
# 5 0.000000 0.000000 0.000000 0.000000 0.050838 0.000000
# 6 0.000000 0.000000 0.000000 0.000000 0.000000 0.046558
#
#
# Mechanical properties :
#
#
# Convention : Reuss Voigt Hill
#
# Bulk Modulus (GPa) = 33.41265 42.16940 37.79103
# Shear Modulus (GPa) = 19.12533 21.27057 20.19795
#
# Velocity S-wave (km/s) = 3.37769 3.56209 3.47111
# Velocity P-wave (km/s) = 5.92817 6.48638 6.21355
#
# Compressibility (1/GPa) = 0.02992878
#
# Stress axis : x y z
#
# Youngs Moduli (GPa) = 30.38262 40.17486 88.90451
#
# Poissons Ratio (x) = 0.39997 0.34187
# Poissons Ratio (y) = 0.30248 0.51217
# Poissons Ratio (z) = 0.11683 0.23144
#
# Static dielectric constant tensor:
#      x y z
#    x 3.109190 0.000000 0.000000 
#    y 0.000000 3.002630 0.000000 
#    z 0.000000 0.000000 3.384430 
# 
# 
# High freq. dielectric constant tensor:
#      x y z
#    x 1.650260 0.000000 0.000000 
#    y 0.000000 1.616130 0.000000 
#    z 0.000000 0.000000 1.648550 
# 
# From -- ./inp_files/17270.got.cif
#   From: 2010.03.12/outbox.cif.g09.slc.cpg/sg38_9_cif.got.tgz:17270.got - 2010.04.14 02:38:36.
