data_PCOD8177265
_publ_section_title
;
Structure prediction by ZEFSAII (Michael W. Deem and Ramdas Pophale) SiO2 
 PCOD8177265
Probable space group: A M M 2
;
_chemical_formula_sum "Si O2"
_cell_formula_units_Z 48
_cell_length_a 10.350959
_cell_length_b 30.092501
_cell_length_c 8.405613
_cell_angle_alpha 90.000000
_cell_angle_beta 90.000000
_cell_angle_gamma 90.000000
_cell_volume 2618.232822
_symmetry_space_group_name_H-M "A M M 2"
_symmetry_group_IT_number 38
_symmetry_cell_setting 'orthorhombic'
loop_
_space_group_symop_operation_xyz
x,y,z
-x,-y,z
-x,y,z
x,-y,z
x,1/2+y,1/2+z
-x,1/2-y,1/2+z
-x,1/2+y,1/2+z
x,1/2-y,1/2+z
loop_
_atom_site_type_symbol
_atom_site_label
_atom_site_fract_x
_atom_site_fract_y
_atom_site_fract_z
Si Si1 0.775677 0.687900 0.362570
Si Si2 0.143717 0.263242 0.051729
Si Si3 0.645319 0.551196 0.421076
Si Si4 0.856587 0.109258 0.067068
Si Si5 0.358268 0.377890 0.160082
Si Si6 0.853043 0.355149 0.911472
O O1 0.847065 0.716550 0.227544
O O2 0.754318 0.723515 0.507014
O O3 0.857924 0.646332 0.428416
O O4 0.650959 0.664727 0.281435
O O5 0.000000 0.242672 0.034685
O O6 0.165210 0.302299 0.923688
O O7 0.500000 0.557084 0.491795
O O8 0.678138 0.500000 0.390810
O O9 0.750574 0.570997 0.542045
O O10 0.655109 0.575962 0.252978
O O11 0.819591 0.132081 0.232617
O O12 0.000000 0.087959 0.072449
O O13 0.500000 0.374479 0.079960
O O14 0.246339 0.379274 0.029405
O O15 0.000000 0.368730 0.958506
#
# Coordination Sequence:
#
# PCOD8177265 Si02
#       6
#     8   8   8   8   8   8
#     4  10  19  30  47  73 102 134 170 210 249 291
#     4  10  17  27  45  70 100 134 172 206 240 287
#     4   9  19  36  56  76  98 128 168 209 249 303
#     4  10  19  32  51  77 108 135 163 205 256 302
#     4   9  19  36  55  74  99 132 170 211 257 303
#     4   9  19  33  51  77 106 136 170 208 248 295
#
# _framework density 18.332977
#
# number of rings (size 3 to 8) (size 9 to 14) (size 15 to 20)
#    0.000    2.500    0.000    2.500    0.000    7.000 
#    0.000    4.167    0.000    7.000    0.000    0.000 
#    0.000    0.000    0.000    0.000    0.000    0.000 
#
# Total GULP energy -297342.774856 kJ/mol
# GULP energy per Si atom -12389.282286 kJ/mol
# Density = 1.829125 g / cm^3
# Si number density = 18.332977 Si / 1000 Ang^3
#
#
#
# Elastic Constant Matrix: (Units=GPa)
#
#
# Indices 1 2 3 4 5 6 
#
# 1 105.3178 49.5994 45.4118 0.0000 0.0000 0.0000
# 2 49.5994 111.2638 41.8556 0.0000 0.0000 0.0000
# 3 45.4118 41.8556 81.3477 0.0000 0.0000 0.0000
# 4 0.0000 0.0000 0.0000 21.2191 0.0000 0.0000
# 5 0.0000 0.0000 0.0000 0.0000 25.1110 0.0000
# 6 0.0000 0.0000 0.0000 0.0000 0.0000 20.9793
#
#
#
# Elastic Compliance Matrix: (Units=1/GPa)
#
#
# Indices 1 2 3 4 5 6 
#
# 1 0.013832 -0.004044 -0.005641 0.000000 0.000000 0.000000
# 2 -0.004044 0.012327 -0.004085 0.000000 0.000000 0.000000
# 3 -0.005641 -0.004085 0.017544 0.000000 0.000000 0.000000
# 4 0.000000 0.000000 0.000000 0.047127 0.000000 0.000000
# 5 0.000000 0.000000 0.000000 0.000000 0.039823 0.000000
# 6 0.000000 0.000000 0.000000 0.000000 0.000000 0.047666
#
#
# Mechanical properties :
#
#
# Convention : Reuss Voigt Hill
#
# Bulk Modulus (GPa) = 61.87002 63.51812 62.69407
# Shear Modulus (GPa) = 23.66902 24.19939 23.93421
#
# Velocity S-wave (km/s) = 3.59703 3.63711 3.61713
# Velocity P-wave (km/s) = 7.14652 7.23604 7.19142
#
# Compressibility (1/GPa) = 0.01616292
#
# Stress axis : x y z
#
# Youngs Moduli (GPa) = 72.29705 81.12179 57.00045
#
# Poissons Ratio (x) = 0.32806 0.32153
# Poissons Ratio (y) = 0.29237 0.23285
# Poissons Ratio (z) = 0.40781 0.33139
#
# Static dielectric constant tensor:
#      x y z
#    x 3.352610 0.000000 0.000000 
#    y 0.000000 3.339830 0.000000 
#    z 0.000000 0.000000 3.354110 
# 
# 
# High freq. dielectric constant tensor:
#      x y z
#    x 1.695540 0.000000 0.000000 
#    y 0.000000 1.701110 0.000000 
#    z 0.000000 0.000000 1.707140 
# 
# From -- ./inp_files/3781.got.cif
#   From: 2010.03.12/outbox.cif.g09.slc.cpg/sg38_2_cif.got.tgz:3781.got - 2010.04.14 02:38:36.
