data_PCOD8177573
_publ_section_title
;
Structure prediction by ZEFSAII (Michael W. Deem and Ramdas Pophale) SiO2 
 PCOD8177573
Probable space group: A M M 2
;
_chemical_formula_sum "Si O2"
_cell_formula_units_Z 48
_cell_length_a 16.629151
_cell_length_b 8.669119
_cell_length_c 18.273662
_cell_angle_alpha 90.000000
_cell_angle_beta 90.000000
_cell_angle_gamma 90.000000
_cell_volume 2634.332738
_symmetry_space_group_name_H-M "A M M 2"
_symmetry_group_IT_number 38
_symmetry_cell_setting 'orthorhombic'
loop_
_space_group_symop_operation_xyz
x,y,z
-x,-y,z
-x,y,z
x,-y,z
x,1/2+y,1/2+z
-x,1/2-y,1/2+z
-x,1/2+y,1/2+z
x,1/2-y,1/2+z
loop_
_atom_site_type_symbol
_atom_site_label
_atom_site_fract_x
_atom_site_fract_y
_atom_site_fract_z
Si Si1 0.682005 0.319979 0.344350
Si Si2 0.830863 0.822696 0.422573
Si Si3 0.589898 0.821206 0.462690
Si Si4 0.261567 0.319981 0.061578
Si Si5 0.909254 0.678735 0.296320
Si Si6 0.759387 0.320214 0.716958
O O1 0.700664 0.500000 0.353372
O O2 0.748185 0.211957 0.381569
O O3 0.600075 0.275033 0.386552
O O4 0.687324 0.272567 0.258773
O O5 0.814714 0.785777 0.508015
O O6 0.899587 0.721137 0.382940
O O7 0.854460 0.000000 0.412042
O O8 0.500000 0.788915 0.492468
O O9 0.654297 0.768400 0.523887
O O10 0.602873 0.000000 0.444104
O O11 0.264553 0.500000 0.082471
O O12 0.247468 0.216993 0.131930
O O13 0.889564 0.500000 0.285742
O O14 0.847802 0.773538 0.246025
O O15 0.000000 0.717398 0.271821
O O16 0.746723 0.500000 0.729244
#
# Coordination Sequence:
#
# PCOD8177573 Si02
#       6
#     8   8   8   8   8   8
#     4  10  18  30  50  73  99 130 165 204 244 293
#     4   9  17  31  52  74  97 128 165 202 242 294
#     4   9  18  34  55  77 102 132 167 209 255 302
#     4   9  18  33  52  75 103 135 168 204 251 303
#     4  10  20  34  53  76 102 131 165 210 259 303
#     4  11  21  33  52  75 101 136 174 211 251 298
#
# _framework density 18.220934
#
# number of rings (size 3 to 8) (size 9 to 14) (size 15 to 20)
#    0.000    2.333    0.000    7.000    0.000    5.000 
#    0.000    1.667    0.000    4.000    0.000    0.000 
#    0.000    0.000    0.000    0.000    0.000    0.000 
#
# Total GULP energy -297421.421143 kJ/mol
# GULP energy per Si atom -12392.559214 kJ/mol
# Density = 1.817946 g / cm^3
# Si number density = 18.220934 Si / 1000 Ang^3
#
#
#
# Elastic Constant Matrix: (Units=GPa)
#
#
# Indices 1 2 3 4 5 6 
#
# 1 79.8734 32.5231 38.7318 0.0000 0.0000 0.0000
# 2 32.5231 64.7720 39.2956 0.0000 0.0000 0.0000
# 3 38.7318 39.2956 111.0363 0.0000 0.0000 0.0000
# 4 0.0000 0.0000 0.0000 32.9152 0.0000 0.0000
# 5 0.0000 0.0000 0.0000 0.0000 19.9944 0.0000
# 6 0.0000 0.0000 0.0000 0.0000 0.0000 22.1530
#
#
#
# Elastic Compliance Matrix: (Units=1/GPa)
#
#
# Indices 1 2 3 4 5 6 
#
# 1 0.016834 -0.006227 -0.003668 0.000000 0.000000 0.000000
# 2 -0.006227 0.021963 -0.005601 0.000000 0.000000 0.000000
# 3 -0.003668 -0.005601 0.012268 0.000000 0.000000 0.000000
# 4 0.000000 0.000000 0.000000 0.030381 0.000000 0.000000
# 5 0.000000 0.000000 0.000000 0.000000 0.050014 0.000000
# 6 0.000000 0.000000 0.000000 0.000000 0.000000 0.045141
#
#
# Mechanical properties :
#
#
# Convention : Reuss Voigt Hill
#
# Bulk Modulus (GPa) = 49.81838 52.97584 51.39711
# Shear Modulus (GPa) = 23.33348 24.68793 24.01071
#
# Velocity S-wave (km/s) = 3.58241 3.68492 3.63403
# Velocity P-wave (km/s) = 6.67175 6.87329 6.77327
#
# Compressibility (1/GPa) = 0.02007291
#
# Stress axis : x y z
#
# Youngs Moduli (GPa) = 59.40255 45.53044 81.51494
#
# Poissons Ratio (x) = 0.28353 0.29902
# Poissons Ratio (y) = 0.36992 0.45653
# Poissons Ratio (z) = 0.21791 0.25500
#
# Static dielectric constant tensor:
#      x y z
#    x 3.382440 0.000000 0.000000 
#    y 0.000000 3.320150 0.000000 
#    z 0.000000 0.000000 3.591490 
# 
# 
# High freq. dielectric constant tensor:
#      x y z
#    x 1.681530 0.000000 0.000000 
#    y 0.000000 1.712520 0.000000 
#    z 0.000000 0.000000 1.698150 
# 
# From -- ./inp_files/18167.got.cif
#   From: 2010.03.12/outbox.cif.g09.slc.cpg/sg38_10_cif.got.tgz:18167.got - 2010.04.14 02:38:36.
