data_PCOD8177980
_publ_section_title
;
Structure prediction by ZEFSAII (Michael W. Deem and Ramdas Pophale) SiO2 
 PCOD8177980
Probable space group: A M M 2
;
_chemical_formula_sum "Si O2"
_cell_formula_units_Z 64
_cell_length_a 9.204559
_cell_length_b 30.314588
_cell_length_c 14.266429
_cell_angle_alpha 90.000000
_cell_angle_beta 90.000000
_cell_angle_gamma 90.000000
_cell_volume 3980.796120
_symmetry_space_group_name_H-M "A M M 2"
_symmetry_group_IT_number 38
_symmetry_cell_setting 'orthorhombic'
loop_
_space_group_symop_operation_xyz
x,y,z
-x,-y,z
-x,y,z
x,-y,z
x,1/2+y,1/2+z
-x,1/2-y,1/2+z
-x,1/2+y,1/2+z
x,1/2-y,1/2+z
loop_
_atom_site_type_symbol
_atom_site_label
_atom_site_fract_x
_atom_site_fract_y
_atom_site_fract_z
Si Si1 0.829109 0.713415 0.271740
Si Si2 0.833794 0.233038 0.563897
Si Si3 0.827008 0.632313 0.394337
Si Si4 0.333828 0.179228 0.052252
Si Si5 0.166185 0.697554 0.867406
Si Si6 0.334628 0.633704 0.745992
Si Si7 0.672422 0.451712 0.646147
Si Si8 0.330499 0.950282 0.932698
O O1 0.785324 0.711517 0.162277
O O2 0.769104 0.668943 0.320358
O O3 0.766443 0.757582 0.321665
O O4 0.000000 0.713827 0.286662
O O5 0.728968 0.272519 0.536128
O O6 0.819295 0.197737 0.480236
O O7 0.000000 0.250535 0.570689
O O8 0.762541 0.644418 0.495665
O O9 0.761373 0.584117 0.369042
O O10 0.000000 0.629804 0.397793
O O11 0.500000 0.177196 0.017185
O O12 0.322661 0.168084 0.161281
O O13 0.247714 0.653815 0.832976
O O14 0.000000 0.693332 0.835410
O O15 0.500000 0.627300 0.778465
O O16 0.265674 0.586592 0.714051
O O17 0.500000 0.446974 0.642832
O O18 0.718783 0.500000 0.685128
O O19 0.726976 0.446382 0.539661
O O20 0.500000 0.938285 0.926044
O O21 0.302923 0.000000 0.895574
#
# Coordination Sequence:
#
# PCOD8177980 Si02
#       8
#     8   8   8   8   8   8   8   8
#     4   9  18  31  47  67  90 120 158 193 227 273
#     4  10  19  34  49  63  90 125 160 193 229 277
#     4  11  20  31  47  69  96 127 161 194 228 271
#     4  11  20  29  44  68  96 124 157 192 231 271
#     4  10  19  31  48  67  89 122 157 188 232 276
#     4  10  19  30  45  68  94 121 156 190 224 270
#     4   8  14  27  46  65  89 121 152 182 222 275
#     4   9  17  31  49  69  96 126 154 188 232 281
#
# _framework density 16.077185
#
# number of rings (size 3 to 8) (size 9 to 14) (size 15 to 20)
#    0.000    2.250    3.750    1.500    0.000    1.250 
#    0.000    1.250    0.000    0.375    0.000    0.875 
#    0.000    5.000    0.000    0.000    0.000    0.000 
#
# Total GULP energy -396662.811448 kJ/mol
# GULP energy per Si atom -12395.712858 kJ/mol
# Density = 1.604059 g / cm^3
# Si number density = 16.077185 Si / 1000 Ang^3
#
#
#
# Elastic Constant Matrix: (Units=GPa)
#
#
# Indices 1 2 3 4 5 6 
#
# 1 49.6126 32.0254 17.6921 0.0000 0.0000 0.0000
# 2 32.0254 107.2888 28.1118 0.0000 0.0000 0.0000
# 3 17.6921 28.1118 65.5150 0.0000 0.0000 0.0000
# 4 0.0000 0.0000 0.0000 25.6715 0.0000 0.0000
# 5 0.0000 0.0000 0.0000 0.0000 17.1594 0.0000
# 6 0.0000 0.0000 0.0000 0.0000 0.0000 25.3272
#
#
#
# Elastic Compliance Matrix: (Units=1/GPa)
#
#
# Indices 1 2 3 4 5 6 
#
# 1 0.025930 -0.006653 -0.004147 0.000000 0.000000 0.000000
# 2 -0.006653 0.012208 -0.003442 0.000000 0.000000 0.000000
# 3 -0.004147 -0.003442 0.017861 0.000000 0.000000 0.000000
# 4 0.000000 0.000000 0.000000 0.038954 0.000000 0.000000
# 5 0.000000 0.000000 0.000000 0.000000 0.058277 0.000000
# 6 0.000000 0.000000 0.000000 0.000000 0.000000 0.039483
#
#
# Mechanical properties :
#
#
# Convention : Reuss Voigt Hill
#
# Bulk Modulus (GPa) = 36.34536 42.00833 39.17685
# Shear Modulus (GPa) = 21.70426 23.27075 22.48751
#
# Velocity S-wave (km/s) = 3.67823 3.80865 3.74401
# Velocity P-wave (km/s) = 6.37926 6.74737 6.56590
#
# Compressibility (1/GPa) = 0.02751383
#
# Stress axis : x y z
#
# Youngs Moduli (GPa) = 38.56543 81.91040 55.98933
#
# Poissons Ratio (x) = 0.54497 0.23221
# Poissons Ratio (y) = 0.25659 0.19271
# Poissons Ratio (z) = 0.15995 0.28192
#
# Static dielectric constant tensor:
#      x y z
#    x 2.862340 0.000000 0.000000 
#    y 0.000000 3.211200 0.000000 
#    z 0.000000 0.000000 2.910270 
# 
# 
# High freq. dielectric constant tensor:
#      x y z
#    x 1.598550 0.000000 0.000000 
#    y 0.000000 1.614470 0.000000 
#    z 0.000000 0.000000 1.588010 
# 
# From -- ./inp_files/13077.got.cif
#   From: 2010.03.12/outbox.cif.g09.slc.cpg/sg38_7_cif.got.tgz:13077.got - 2010.04.14 02:38:36.
