data_PCOD8177524
_publ_section_title
;
Structure prediction by ZEFSAII (Michael W. Deem and Ramdas Pophale) SiO2 
 PCOD8177524
Probable space group: A M M 2
;
_chemical_formula_sum "Si O2"
_cell_formula_units_Z 36
_cell_length_a 20.161077
_cell_length_b 14.463035
_cell_length_c 5.298790
_cell_angle_alpha 90.000000
_cell_angle_beta 90.000000
_cell_angle_gamma 90.000000
_cell_volume 1545.076096
_symmetry_space_group_name_H-M "A M M 2"
_symmetry_group_IT_number 38
_symmetry_cell_setting 'orthorhombic'
loop_
_space_group_symop_operation_xyz
x,y,z
-x,-y,z
-x,y,z
x,-y,z
x,1/2+y,1/2+z
-x,1/2-y,1/2+z
-x,1/2+y,1/2+z
x,1/2-y,1/2+z
loop_
_atom_site_type_symbol
_atom_site_label
_atom_site_fract_x
_atom_site_fract_y
_atom_site_fract_z
Si Si1 0.355365 0.356935 0.886180
Si Si2 0.925622 0.390252 0.886797
Si Si3 0.849250 0.389973 0.386797
Si Si4 0.500000 0.190814 0.362198
Si Si5 0.700072 0.849845 0.886173
O O1 0.434477 0.371768 0.889284
O O2 0.335748 0.249112 0.883287
O O3 0.324065 0.404534 0.636648
O O4 0.323786 0.404488 0.135072
O O5 0.928524 0.500000 0.886786
O O6 0.888486 0.355835 0.138857
O O7 0.000000 0.349466 0.886773
O O8 0.888474 0.355835 0.634762
O O9 0.838532 0.500000 0.386770
O O10 0.778945 0.338799 0.386820
O O11 0.500000 0.266092 0.583636
#
# Coordination Sequence:
#
# PCOD8177524 Si02
#       5
#     8   8   8   4   8
#     4  10  19  30  48  72  91 120 152 192 236 264
#     4   9  17  30  47  68  92 117 153 197 234 265
#     4  10  19  30  47  71  96 123 150 184 232 281
#     4  12  16  30  48  74  96 110 152 204 240 264
#     4  10  18  30  44  69  98 120 150 184 230 282
#
# _framework density 23.299824999999998
#
# number of rings (size 3 to 8) (size 9 to 14) (size 15 to 20)
#    0.000    2.000    4.444    2.000    0.000    2.667 
#    0.000    0.000    0.000    0.000    0.000   70.778 
#    0.000    0.000    0.000    0.000    0.000    0.000 
#
# Total GULP energy -223123.173875 kJ/mol
# GULP energy per Si atom -12395.731882 kJ/mol
# Density = 2.324679 g / cm^3
# Si number density = 23.299825 Si / 1000 Ang^3
#
#
#
# Elastic Constant Matrix: (Units=GPa)
#
#
# Indices 1 2 3 4 5 6 
#
# 1 247.8273 1.1273 108.5963 0.0000 0.0000 0.0000
# 2 1.1273 24.5742 -7.7260 0.0000 0.0000 0.0000
# 3 108.5963 -7.7260 272.6811 0.0000 0.0000 0.0000
# 4 0.0000 0.0000 0.0000 -8.9642 0.0000 0.0000
# 5 0.0000 0.0000 0.0000 0.0000 52.0376 0.0000
# 6 0.0000 0.0000 0.0000 0.0000 0.0000 13.9877
#
#
#
# Elastic Compliance Matrix: (Units=1/GPa)
#
#
# Indices 1 2 3 4 5 6 
#
# 1 0.004906 -0.000847 -0.001978 0.000000 0.000000 0.000000
# 2 -0.000847 0.041205 0.001505 0.000000 0.000000 0.000000
# 3 -0.001978 0.001505 0.004498 0.000000 0.000000 0.000000
# 4 0.000000 0.000000 0.000000 -0.111554 0.000000 0.000000
# 5 0.000000 0.000000 0.000000 0.000000 0.019217 0.000000
# 6 0.000000 0.000000 0.000000 0.000000 0.000000 0.071492
#
#
# Mechanical properties :
#
#
# Convention : Reuss Voigt Hill
#
# Bulk Modulus (GPa) = 20.84694 83.23088 52.03891
# Shear Modulus (GPa) = 103.32494 40.95120 72.13807
#
# Velocity S-wave (km/s) = 6.66649 4.19689 5.57028
# Velocity P-wave (km/s) = 8.25971 7.69964 7.98459
#
# Compressibility (1/GPa) = 0.04796866
#
# Stress axis : x y z
#
# Youngs Moduli (GPa) = 203.85272 24.26888 222.34483
#
# Poissons Ratio (x) = 0.02055 0.43972
# Poissons Ratio (y) = 0.17262 -0.33457
# Poissons Ratio (z) = 0.40314 -0.03652
#
# Static dielectric constant tensor:
#      x y z
#    x 4.323820 0.000000 0.000000 
#    y 0.000000 3.313320 0.000000 
#    z 0.000000 0.000000 7.119080 
# 
# 
# High freq. dielectric constant tensor:
#      x y z
#    x 1.933480 0.000000 0.000000 
#    y 0.000000 1.857310 0.000000 
#    z 0.000000 0.000000 1.957930 
# 
# From -- ./inp_files/1215.got.cif
#   From: 2010.03.12/outbox.cif.g09.slc.cpg/sg38_1_cif.got.tgz:1215.got - 2010.04.14 02:38:36.
