data_PCOD8177897
_publ_section_title
;
Structure prediction by ZEFSAII (Michael W. Deem and Ramdas Pophale) SiO2 
 PCOD8177897
Probable space group: A M M 2
;
_chemical_formula_sum "Si O2"
_cell_formula_units_Z 64
_cell_length_a 9.134262
_cell_length_b 25.682285
_cell_length_c 18.565071
_cell_angle_alpha 90.000000
_cell_angle_beta 90.000000
_cell_angle_gamma 90.000000
_cell_volume 4355.156242
_symmetry_space_group_name_H-M "A M M 2"
_symmetry_group_IT_number 38
_symmetry_cell_setting 'orthorhombic'
loop_
_space_group_symop_operation_xyz
x,y,z
-x,-y,z
-x,y,z
x,-y,z
x,1/2+y,1/2+z
-x,1/2-y,1/2+z
-x,1/2+y,1/2+z
x,1/2-y,1/2+z
loop_
_atom_site_type_symbol
_atom_site_label
_atom_site_fract_x
_atom_site_fract_y
_atom_site_fract_z
Si Si1 0.829873 0.559986 0.118450
Si Si2 0.670034 0.060551 0.764646
Si Si3 0.330430 0.250160 0.107391
Si Si4 0.665124 0.291133 0.906319
Si Si5 0.828208 0.644980 0.347760
Si Si6 0.665748 0.140723 0.530385
Si Si7 0.331157 0.262106 0.267259
Si Si8 0.168283 0.204095 0.985027
O O1 0.799431 0.500000 0.098948
O O2 0.740820 0.577289 0.188902
O O3 0.775325 0.594697 0.051752
O O4 0.000000 0.570294 0.132889
O O5 0.500000 0.075421 0.762194
O O6 0.750329 0.090782 0.828920
O O7 0.695336 0.000000 0.779792
O O8 0.500000 0.237305 0.106818
O O9 0.295880 0.306810 0.074337
O O10 0.268573 0.247508 0.188788
O O11 0.255630 0.204196 0.060407
O O12 0.500000 0.271342 0.927126
O O13 0.682622 0.289044 0.819443
O O14 0.786968 0.253861 0.938605
O O15 0.686113 0.347659 0.944186
O O16 0.759850 0.690178 0.298864
O O17 0.800390 0.654459 0.433331
O O18 0.000000 0.642088 0.330791
O O19 0.500000 0.122862 0.547111
O O20 0.500000 0.280230 0.260843
O O21 0.000000 0.208357 0.005403
#
# Coordination Sequence:
#
# PCOD8177897 Si02
#       8
#     8   8   8   8   8   8   8   8
#     4  10  20  31  42  58  80 105 134 169 205 237
#     4  10  20  32  45  60  78 103 135 168 201 237
#     4   9  17  27  40  59  81 106 135 163 194 233
#     4   8  15  27  41  57  78 104 133 165 198 232
#     4  10  19  29  42  60  81 107 137 166 199 236
#     4   9  16  26  40  58  80 107 138 166 195 235
#     4   9  16  27  43  61  82 108 137 167 198 235
#     4   9  17  27  39  57  80 105 133 163 194 231
#
# _framework density 14.695224
#
# number of rings (size 3 to 8) (size 9 to 14) (size 15 to 20)
#    0.000    2.750    0.000    3.000    0.000    6.500 
#    0.000    0.000    0.000    0.000    0.000    0.000 
#    0.000    1.000    0.000    5.000    0.000    3.500 
#
# Total GULP energy -396571.998791 kJ/mol
# GULP energy per Si atom -12392.874962 kJ/mol
# Density = 1.466178 g / cm^3
# Si number density = 14.695224 Si / 1000 Ang^3
#
#
#
# Elastic Constant Matrix: (Units=GPa)
#
#
# Indices 1 2 3 4 5 6 
#
# 1 71.3907 36.9657 40.5529 0.0000 0.0000 0.0000
# 2 36.9657 54.6169 40.5990 0.0000 0.0000 0.0000
# 3 40.5529 40.5990 105.6705 0.0000 0.0000 0.0000
# 4 0.0000 0.0000 0.0000 24.4105 0.0000 0.0000
# 5 0.0000 0.0000 0.0000 0.0000 21.6841 0.0000
# 6 0.0000 0.0000 0.0000 0.0000 0.0000 21.2801
#
#
#
# Elastic Compliance Matrix: (Units=1/GPa)
#
#
# Indices 1 2 3 4 5 6 
#
# 1 0.022672 -0.012426 -0.003927 0.000000 0.000000 0.000000
# 2 -0.012426 0.032439 -0.007695 0.000000 0.000000 0.000000
# 3 -0.003927 -0.007695 0.013927 0.000000 0.000000 0.000000
# 4 0.000000 0.000000 0.000000 0.040966 0.000000 0.000000
# 5 0.000000 0.000000 0.000000 0.000000 0.046117 0.000000
# 6 0.000000 0.000000 0.000000 0.000000 0.000000 0.046992
#
#
# Mechanical properties :
#
#
# Convention : Reuss Voigt Hill
#
# Bulk Modulus (GPa) = 47.74785 51.99036 49.86910
# Shear Modulus (GPa) = 19.36570 21.04564 20.20567
#
# Velocity S-wave (km/s) = 3.63412 3.78847 3.71210
# Velocity P-wave (km/s) = 7.08320 7.38868 7.23755
#
# Compressibility (1/GPa) = 0.02094335
#
# Stress axis : x y z
#
# Youngs Moduli (GPa) = 44.10717 30.82692 71.80517
#
# Poissons Ratio (x) = 0.38306 0.28196
# Poissons Ratio (y) = 0.54808 0.55251
# Poissons Ratio (z) = 0.17319 0.23720
#
# Static dielectric constant tensor:
#      x y z
#    x 2.917850 0.000000 0.000000 
#    y 0.000000 2.639000 0.000000 
#    z 0.000000 0.000000 3.110400 
# 
# 
# High freq. dielectric constant tensor:
#      x y z
#    x 1.573020 0.000000 0.000000 
#    y 0.000000 1.519610 0.000000 
#    z 0.000000 0.000000 1.556610 
# 
# From -- ./inp_files/17319.got.cif
#   From: 2010.03.12/outbox.cif.g09.slc.cpg/sg38_9_cif.got.tgz:17319.got - 2010.04.14 02:38:36.
