data_PCOD8177477
_publ_section_title
;
Structure prediction by ZEFSAII (Michael W. Deem and Ramdas Pophale) SiO2 
 PCOD8177477
Probable space group: A M M 2
;
_chemical_formula_sum "Si O2"
_cell_formula_units_Z 48
_cell_length_a 10.676733
_cell_length_b 26.502432
_cell_length_c 9.973967
_cell_angle_alpha 90.000000
_cell_angle_beta 90.000000
_cell_angle_gamma 90.000000
_cell_volume 2822.227621
_symmetry_space_group_name_H-M "A M M 2"
_symmetry_group_IT_number 38
_symmetry_cell_setting 'orthorhombic'
loop_
_space_group_symop_operation_xyz
x,y,z
-x,-y,z
-x,y,z
x,-y,z
x,1/2+y,1/2+z
-x,1/2-y,1/2+z
-x,1/2+y,1/2+z
x,1/2-y,1/2+z
loop_
_atom_site_type_symbol
_atom_site_label
_atom_site_fract_x
_atom_site_fract_y
_atom_site_fract_z
Si Si1 0.147907 0.357746 0.747540
Si Si2 0.856349 0.124412 0.820349
Si Si3 0.636021 0.199391 0.882978
Si Si4 0.144062 0.340802 0.040225
Si Si5 0.145884 0.055410 0.056390
Si Si6 0.726459 0.740686 0.643817
O O1 0.206265 0.404046 0.660074
O O2 0.180285 0.304474 0.681355
O O3 0.000000 0.363587 0.745153
O O4 0.203057 0.360696 0.900025
O O5 0.756098 0.163616 0.877074
O O6 0.834909 0.118000 0.659795
O O7 0.000000 0.143980 0.846072
O O8 0.834082 0.072697 0.901373
O O9 0.500000 0.172368 0.860240
O O10 0.648018 0.243627 0.773865
O O11 0.630264 0.223609 0.029851
O O12 0.196179 0.287546 0.087059
O O13 0.000000 0.331415 0.010562
O O14 0.000000 0.050817 0.087332
O O15 0.208749 0.000000 0.074088
#
# Coordination Sequence:
#
# PCOD8177477 Si02
#       6
#     8   8   8   8   8   8
#     4  10  18  29  47  73 101 132 169 209 250 294
#     4   9  18  33  52  72  98 130 168 208 246 294
#     4  11  22  33  48  71 103 135 166 201 244 298
#     4   9  18  29  45  71 101 131 166 201 240 294
#     4   9  17  30  50  75 100 128 165 213 263 301
#     4  11  19  32  46  68 100 135 168 199 245 294
#
# _framework density 17.007843000000001
#
# number of rings (size 3 to 8) (size 9 to 14) (size 15 to 20)
#    0.000    2.167    3.333    1.000    0.000    1.333 
#    0.000    0.833    0.000    5.500    0.000    0.000 
#    0.000    0.000    0.000    0.000    0.000    0.000 
#
# Total GULP energy -297325.015281 kJ/mol
# GULP energy per Si atom -12388.542303 kJ/mol
# Density = 1.696913 g / cm^3
# Si number density = 17.007843 Si / 1000 Ang^3
#
#
#
# Elastic Constant Matrix: (Units=GPa)
#
#
# Indices 1 2 3 4 5 6 
#
# 1 47.5806 21.2010 22.9356 0.0000 0.0000 0.0000
# 2 21.2010 102.0842 59.2859 0.0000 0.0000 0.0000
# 3 22.9356 59.2859 141.3648 0.0000 0.0000 0.0000
# 4 0.0000 0.0000 0.0000 18.0360 0.0000 0.0000
# 5 0.0000 0.0000 0.0000 0.0000 7.1194 0.0000
# 6 0.0000 0.0000 0.0000 0.0000 0.0000 4.5344
#
#
#
# Elastic Compliance Matrix: (Units=1/GPa)
#
#
# Indices 1 2 3 4 5 6 
#
# 1 0.023740 -0.003561 -0.002358 0.000000 0.000000 0.000000
# 2 -0.003561 0.013484 -0.005077 0.000000 0.000000 0.000000
# 3 -0.002358 -0.005077 0.009586 0.000000 0.000000 0.000000
# 4 0.000000 0.000000 0.000000 0.055445 0.000000 0.000000
# 5 0.000000 0.000000 0.000000 0.000000 0.140461 0.000000
# 6 0.000000 0.000000 0.000000 0.000000 0.000000 0.220539
#
#
# Mechanical properties :
#
#
# Convention : Reuss Voigt Hill
#
# Bulk Modulus (GPa) = 40.29430 55.31940 47.80685
# Shear Modulus (GPa) = 10.13129 18.44508 14.28819
#
# Velocity S-wave (km/s) = 2.44331 3.29675 2.90158
# Velocity P-wave (km/s) = 5.63052 6.86206 6.27657
#
# Compressibility (1/GPa) = 0.02481741
#
# Stress axis : x y z
#
# Youngs Moduli (GPa) = 42.12220 74.16215 104.32056
#
# Poissons Ratio (x) = 0.26407 0.24603
# Poissons Ratio (y) = 0.14999 0.52966
# Poissons Ratio (z) = 0.09934 0.37654
#
# Static dielectric constant tensor:
#      x y z
#    x 2.859910 0.000000 0.000000 
#    y 0.000000 3.140620 0.000000 
#    z 0.000000 0.000000 3.766300 
# 
# 
# High freq. dielectric constant tensor:
#      x y z
#    x 1.619410 0.000000 0.000000 
#    y 0.000000 1.622060 0.000000 
#    z 0.000000 0.000000 1.682570 
# 
# From -- ./inp_files/4701.got.cif
#   From: 2010.03.12/outbox.cif.g09.slc.cpg/sg38_3_cif.got.tgz:4701.got - 2010.04.14 02:38:36.
