data_PCOD8177016
_publ_section_title
;
Structure prediction by ZEFSAII (Michael W. Deem and Ramdas Pophale) SiO2 
 PCOD8177016
Probable space group: C C C 2
;
_chemical_formula_sum "Si O2"
_cell_formula_units_Z 44
_cell_length_a 13.310938
_cell_length_b 6.565904
_cell_length_c 23.554416
_cell_angle_alpha 90.000000
_cell_angle_beta 90.000000
_cell_angle_gamma 90.000000
_cell_volume 2058.616883
_symmetry_space_group_name_H-M "C C C 2"
_symmetry_group_IT_number 37
_symmetry_cell_setting 'orthorhombic'
loop_
_space_group_symop_operation_xyz
x,y,z
-x,-y,z
-x,y,1/2+z
x,-y,1/2+z
1/2+x,1/2+y,z
1/2-x,1/2-y,z
1/2-x,1/2+y,1/2+z
1/2+x,1/2-y,1/2+z
loop_
_atom_site_type_symbol
_atom_site_label
_atom_site_fract_x
_atom_site_fract_y
_atom_site_fract_z
Si Si1 0.149861 0.838530 0.010350
Si Si2 0.500000 0.000000 0.985224
Si Si3 0.250000 0.750000 0.116820
Si Si4 0.604081 0.587566 0.800807
Si Si5 0.250000 0.250000 0.266521
Si Si6 0.634944 0.301247 0.425797
Si Si7 0.114153 0.558717 0.210494
O O1 0.250000 0.750000 0.978769
O O2 0.187316 0.902846 0.074320
O O3 0.060148 0.673373 0.020312
O O4 0.111017 0.024971 0.972490
O O5 0.583699 0.904182 0.945412
O O6 0.167945 0.633346 0.153649
O O7 0.500000 0.500000 0.776436
O O8 0.693995 0.422481 0.803255
O O9 0.585870 0.650022 0.865446
O O10 0.631325 0.776910 0.760495
O O11 0.165446 0.348467 0.227462
O O12 0.750000 0.250000 0.418110
O O13 0.000000 0.500000 0.197600
#
# Coordination Sequence:
#
# PCOD8177016 Si02
#       7
#     8   4   4   8   4   8   8
#     4  10  24  46  68 104 141 180 244 291 354 419
#     4  12  24  46  74 100 142 192 232 296 360 420
#     4  10  24  47  72 106 141 186 248 294 356 428
#     4  12  26  43  71 106 142 187 236 294 361 432
#     4  12  24  45  68  98 143 178 230 298 350 426
#     4  12  25  45  72 105 146 189 238 295 358 431
#     4  12  25  46  71 105 139 186 240 293 362 425
#
# _framework density 21.373574000000001
#
# number of rings (size 3 to 8) (size 9 to 14) (size 15 to 20)
#    0.545    0.000    5.455    2.727    3.818    2.909 
#    4.909    3.636    0.000    0.000    0.000    0.000 
#    0.000    0.000    0.000    0.000    0.000    0.000 
#
# Total GULP energy -272658.736991 kJ/mol
# GULP energy per Si atom -12393.578954 kJ/mol
# Density = 2.132493 g / cm^3
# Si number density = 21.373574 Si / 1000 Ang^3
#
#
#
# Elastic Constant Matrix: (Units=GPa)
#
#
# Indices 1 2 3 4 5 6 
#
# 1 129.1851 35.8701 21.2937 0.0000 0.0000 0.0000
# 2 35.8701 90.5806 41.0009 0.0000 0.0000 0.0000
# 3 21.2937 41.0009 138.7142 0.0000 0.0000 0.0000
# 4 0.0000 0.0000 0.0000 9.2392 0.0000 0.0000
# 5 0.0000 0.0000 0.0000 0.0000 -17.7188 0.0000
# 6 0.0000 0.0000 0.0000 0.0000 0.0000 55.9454
#
#
#
# Elastic Compliance Matrix: (Units=1/GPa)
#
#
# Indices 1 2 3 4 5 6 
#
# 1 0.008713 -0.003284 -0.000367 0.000000 0.000000 0.000000
# 2 -0.003284 0.013983 -0.003629 0.000000 0.000000 0.000000
# 3 -0.000367 -0.003629 0.008338 0.000000 0.000000 0.000000
# 4 0.000000 0.000000 0.000000 0.108234 0.000000 0.000000
# 5 0.000000 0.000000 0.000000 0.000000 -0.056437 0.000000
# 6 0.000000 0.000000 0.000000 0.000000 0.000000 0.017875
#
#
# Mechanical properties :
#
#
# Convention : Reuss Voigt Hill
#
# Bulk Modulus (GPa) = 60.70114 61.64549 61.17332
# Shear Modulus (GPa) = 41.40537 26.84753 34.12645
#
# Velocity S-wave (km/s) = 4.40616 3.54801 4.00016
# Velocity P-wave (km/s) = 7.37207 6.75936 7.07236
#
# Compressibility (1/GPa) = 0.01647416
#
# Stress axis : x y z
#
# Youngs Moduli (GPa) = 114.76765 71.51456 119.93291
#
# Poissons Ratio (x) = 0.23489 0.04398
# Poissons Ratio (y) = 0.37695 0.43523
# Poissons Ratio (z) = 0.04209 0.25952
#
# Static dielectric constant tensor:
#      x y z
#    x 4.889000 0.000000 0.000000 
#    y 0.000000 3.826030 0.000000 
#    z 0.000000 0.000000 3.638840 
# 
# 
# High freq. dielectric constant tensor:
#      x y z
#    x 1.869040 0.000000 0.000000 
#    y 0.000000 1.832530 0.000000 
#    z 0.000000 0.000000 1.821980 
# 
# From -- ./inp_files/19852.got.cif
#   From: 2010.03.12/outbox.cif.g09.slc.cpg/sg37_10_cif.got.tgz:19852.got - 2010.04.14 02:25:27.
