data_PCOD8177350
_publ_section_title
;
Structure prediction by ZEFSAII (Michael W. Deem and Ramdas Pophale) SiO2 
 PCOD8177350
Probable space group: A M M 2
;
_chemical_formula_sum "Si O2"
_cell_formula_units_Z 64
_cell_length_a 8.710809
_cell_length_b 26.542119
_cell_length_c 18.643275
_cell_angle_alpha 90.000000
_cell_angle_beta 90.000000
_cell_angle_gamma 90.000000
_cell_volume 4310.387245
_symmetry_space_group_name_H-M "A M M 2"
_symmetry_group_IT_number 38
_symmetry_cell_setting 'orthorhombic'
loop_
_space_group_symop_operation_xyz
x,y,z
-x,-y,z
-x,y,z
x,-y,z
x,1/2+y,1/2+z
-x,1/2-y,1/2+z
-x,1/2+y,1/2+z
x,1/2-y,1/2+z
loop_
_atom_site_type_symbol
_atom_site_label
_atom_site_fract_x
_atom_site_fract_y
_atom_site_fract_z
Si Si1 0.820663 0.942061 0.455390
Si Si2 0.681964 0.643963 0.866516
Si Si3 0.682571 0.055963 0.606636
Si Si4 0.821303 0.198601 0.241399
Si Si5 0.677545 0.710472 0.319478
Si Si6 0.321972 0.239329 0.457565
Si Si7 0.321770 0.147498 0.694243
Si Si8 0.682645 0.251665 0.116101
O O1 0.752474 0.908657 0.391700
O O2 0.740412 0.925945 0.529369
O O3 0.000000 0.932179 0.463273
O O4 0.784134 0.000000 0.436789
O O5 0.500000 0.640761 0.866847
O O6 0.739097 0.653583 0.785148
O O7 0.742424 0.688946 0.918985
O O8 0.500000 0.055364 0.605267
O O9 0.750980 0.095065 0.665991
O O10 0.745999 0.000000 0.624960
O O11 0.791353 0.250057 0.283817
O O12 0.753205 0.204992 0.161044
O O13 0.000000 0.186685 0.236404
O O14 0.500000 0.727104 0.303852
O O15 0.706248 0.711832 0.405316
O O16 0.708775 0.656587 0.280097
O O17 0.500000 0.230209 0.471273
O O18 0.247986 0.250193 0.535168
O O19 0.500000 0.142904 0.677944
O O20 0.259856 0.195486 0.649930
O O21 0.500000 0.246376 0.118347
#
# Coordination Sequence:
#
# PCOD8177350 Si02
#       8
#     8   8   8   8   8   8   8   8
#     4  10  20  31  41  57  82 107 131 165 205 236
#     4  10  18  30  46  60  76 104 139 167 195 233
#     4   9  16  26  40  57  77 105 141 174 201 233
#     4  10  18  27  38  56  80 102 126 158 196 235
#     4   8  14  26  40  54  74 102 133 163 197 236
#     4   8  14  24  41  60  75  97 132 168 195 228
#     4   8  13  22  37  54  74 101 132 167 201 233
#     4   9  15  25  39  54  74 100 130 160 192 233
#
# _framework density 14.847853000000001
#
# number of rings (size 3 to 8) (size 9 to 14) (size 15 to 20)
#    0.000    3.000    0.000    4.125    0.000    2.750 
#    0.000    8.125    0.000    0.000    0.000    0.000 
#    0.000    1.000    0.000    7.000    0.000    1.375 
#
# Total GULP energy -396439.744296 kJ/mol
# GULP energy per Si atom -12388.742009 kJ/mol
# Density = 1.481406 g / cm^3
# Si number density = 14.847853 Si / 1000 Ang^3
#
#
#
# Elastic Constant Matrix: (Units=GPa)
#
#
# Indices 1 2 3 4 5 6 
#
# 1 22.7706 14.4371 14.5852 0.0000 0.0000 0.0000
# 2 14.4371 77.2055 52.2968 0.0000 0.0000 0.0000
# 3 14.5852 52.2968 111.2471 0.0000 0.0000 0.0000
# 4 0.0000 0.0000 0.0000 27.7125 0.0000 0.0000
# 5 0.0000 0.0000 0.0000 0.0000 8.0726 0.0000
# 6 0.0000 0.0000 0.0000 0.0000 0.0000 13.8061
#
#
#
# Elastic Compliance Matrix: (Units=1/GPa)
#
#
# Indices 1 2 3 4 5 6 
#
# 1 0.050591 -0.007288 -0.003207 0.000000 0.000000 0.000000
# 2 -0.007288 0.020054 -0.008472 0.000000 0.000000 0.000000
# 3 -0.003207 -0.008472 0.013392 0.000000 0.000000 0.000000
# 4 0.000000 0.000000 0.000000 0.036085 0.000000 0.000000
# 5 0.000000 0.000000 0.000000 0.000000 0.123876 0.000000
# 6 0.000000 0.000000 0.000000 0.000000 0.000000 0.072432
#
#
# Mechanical properties :
#
#
# Convention : Reuss Voigt Hill
#
# Bulk Modulus (GPa) = 21.69019 41.54015 31.61517
# Shear Modulus (GPa) = 13.52338 18.57852 16.05095
#
# Velocity S-wave (km/s) = 3.02122 3.54115 3.29147
# Velocity P-wave (km/s) = 5.17787 6.69011 5.98197
#
# Compressibility (1/GPa) = 0.04610378
#
# Stress axis : x y z
#
# Youngs Moduli (GPa) = 19.76627 49.86590 74.67201
#
# Poissons Ratio (x) = 0.36344 0.23945
# Poissons Ratio (y) = 0.14406 0.63260
# Poissons Ratio (z) = 0.06338 0.42245
#
# Static dielectric constant tensor:
#      x y z
#    x 2.654310 0.000000 0.000000 
#    y 0.000000 2.892580 0.000000 
#    z 0.000000 0.000000 3.147850 
# 
# 
# High freq. dielectric constant tensor:
#      x y z
#    x 1.551610 0.000000 0.000000 
#    y 0.000000 1.533410 0.000000 
#    z 0.000000 0.000000 1.562410 
# 
# From -- ./inp_files/17343.got.cif
#   From: 2010.03.12/outbox.cif.g09.slc.cpg/sg38_9_cif.got.tgz:17343.got - 2010.04.14 02:38:36.
