data_PCOD8177106
_publ_section_title
;
Structure prediction by ZEFSAII (Michael W. Deem and Ramdas Pophale) SiO2 
 PCOD8177106
Probable space group: C C C 2
;
_chemical_formula_sum "Si O2"
_cell_formula_units_Z 60
_cell_length_a 16.856070
_cell_length_b 18.504519
_cell_length_c 8.685999
_cell_angle_alpha 90.000000
_cell_angle_beta 90.000000
_cell_angle_gamma 90.000000
_cell_volume 2709.280067
_symmetry_space_group_name_H-M "C C C 2"
_symmetry_group_IT_number 37
_symmetry_cell_setting 'orthorhombic'
loop_
_space_group_symop_operation_xyz
x,y,z
-x,-y,z
-x,y,1/2+z
x,-y,1/2+z
1/2+x,1/2+y,z
1/2-x,1/2-y,z
1/2-x,1/2+y,1/2+z
1/2+x,1/2-y,1/2+z
loop_
_atom_site_type_symbol
_atom_site_label
_atom_site_fract_x
_atom_site_fract_y
_atom_site_fract_z
Si Si1 0.690153 0.130519 0.195920
Si Si2 0.681612 0.518823 0.606839
Si Si3 0.960825 0.579043 0.535537
Si Si4 0.863853 0.191691 0.751188
Si Si5 0.909206 0.648784 0.218968
Si Si6 0.423189 0.452758 0.345807
Si Si7 0.242828 0.624147 0.534995
Si Si8 0.250000 0.750000 0.994350
O O1 0.765560 0.088024 0.134144
O O2 0.610052 0.084650 0.162357
O O3 0.702145 0.149835 0.375835
O O4 0.688345 0.205155 0.100034
O O5 0.599371 0.543165 0.525130
O O6 0.655609 0.484927 0.767813
O O7 0.729148 0.458010 0.511012
O O8 0.929515 0.601493 0.368649
O O9 0.000000 0.500000 0.532531
O O10 0.028893 0.634549 0.583379
O O11 0.912544 0.265588 0.744937
O O12 0.929999 0.129934 0.786522
O O13 0.816578 0.175068 0.590480
O O14 0.799997 0.194970 0.888886
O O15 0.821505 0.625594 0.170560
O O16 0.500000 0.500000 0.308827
#
# Coordination Sequence:
#
# PCOD8177106 Si02
#       8
#     8   8   8   8   8   8   8   4
#     4  12  25  44  73 109 142 188 254 299 363 448
#     4  11  23  42  69 104 135 183 240 299 351 425
#     4  12  27  46  72 105 148 198 246 305 373 448
#     4  11  23  47  74 101 145 194 233 309 366 433
#     4  12  25  48  67 105 147 191 243 300 377 430
#     4  11  24  46  69 103 139 187 237 292 371 432
#     4  11  24  43  76 103 142 190 249 301 364 440
#     4  12  22  44  76 102 140 184 244 302 360 432
#
# _framework density 22.146104000000001
#
# number of rings (size 3 to 8) (size 9 to 14) (size 15 to 20)
#    0.000    0.533    5.333    2.400    3.733    2.133 
#    9.600    0.667    0.000    0.000    0.000    0.000 
#    0.000    0.000    0.000    0.000    0.000    0.000 
#
# Total GULP energy -372011.434409 kJ/mol
# GULP energy per Si atom -12400.381147 kJ/mol
# Density = 2.209570 g / cm^3
# Si number density = 22.146104 Si / 1000 Ang^3
#
#
#
# Elastic Constant Matrix: (Units=GPa)
#
#
# Indices 1 2 3 4 5 6 
#
# 1 91.6041 64.7073 23.2672 0.0000 0.0000 0.0000
# 2 64.7073 138.8013 58.1497 0.0000 0.0000 0.0000
# 3 23.2672 58.1497 97.2956 0.0000 0.0000 0.0000
# 4 0.0000 0.0000 0.0000 29.6090 0.0000 0.0000
# 5 0.0000 0.0000 0.0000 0.0000 37.0156 0.0000
# 6 0.0000 0.0000 0.0000 0.0000 0.0000 45.8188
#
#
#
# Elastic Compliance Matrix: (Units=1/GPa)
#
#
# Indices 1 2 3 4 5 6 
#
# 1 0.016330 -0.007973 0.000860 0.000000 0.000000 0.000000
# 2 -0.007973 0.013504 -0.006164 0.000000 0.000000 0.000000
# 3 0.000860 -0.006164 0.013756 0.000000 0.000000 0.000000
# 4 0.000000 0.000000 0.000000 0.033773 0.000000 0.000000
# 5 0.000000 0.000000 0.000000 0.000000 0.027016 0.000000
# 6 0.000000 0.000000 0.000000 0.000000 0.000000 0.021825
#
#
# Mechanical properties :
#
#
# Convention : Reuss Voigt Hill
#
# Bulk Modulus (GPa) = 58.69909 68.88325 63.79117
# Shear Modulus (GPa) = 31.55814 34.59382 33.07598
#
# Velocity S-wave (km/s) = 3.77901 3.95659 3.86882
# Velocity P-wave (km/s) = 6.75308 7.21418 6.98744
#
# Compressibility (1/GPa) = 0.01703604
#
# Stress axis : x y z
#
# Youngs Moduli (GPa) = 61.23619 74.05241 72.69402
#
# Poissons Ratio (x) = 0.59044 -0.06252
# Poissons Ratio (y) = 0.48825 0.44809
# Poissons Ratio (z) = -0.05267 0.45646
#
# Static dielectric constant tensor:
#      x y z
#    x 3.838840 0.000000 0.000000 
#    y 0.000000 3.993730 0.000000 
#    z 0.000000 0.000000 4.032380 
# 
# 
# High freq. dielectric constant tensor:
#      x y z
#    x 1.861900 0.000000 0.000000 
#    y 0.000000 1.874950 0.000000 
#    z 0.000000 0.000000 1.882040 
# 
# From -- ./inp_files/4076.got.cif
#   From: 2010.03.12/outbox.cif.g09.slc.cpg/sg37_3_cif.got.tgz:4076.got - 2010.04.14 02:25:27.
