data_PCOD8177420
_publ_section_title
;
Structure prediction by ZEFSAII (Michael W. Deem and Ramdas Pophale) SiO2 
 PCOD8177420
Probable space group: A M M 2
;
_chemical_formula_sum "Si O2"
_cell_formula_units_Z 40
_cell_length_a 12.869158
_cell_length_b 9.169424
_cell_length_c 19.720383
_cell_angle_alpha 90.000000
_cell_angle_beta 90.000000
_cell_angle_gamma 90.000000
_cell_volume 2327.059745
_symmetry_space_group_name_H-M "A M M 2"
_symmetry_group_IT_number 38
_symmetry_cell_setting 'orthorhombic'
loop_
_space_group_symop_operation_xyz
x,y,z
-x,-y,z
-x,y,z
x,-y,z
x,1/2+y,1/2+z
-x,1/2-y,1/2+z
-x,1/2+y,1/2+z
x,1/2-y,1/2+z
loop_
_atom_site_type_symbol
_atom_site_label
_atom_site_fract_x
_atom_site_fract_y
_atom_site_fract_z
Si Si1 0.500000 0.327390 0.047001
Si Si2 0.704912 0.171274 0.053638
Si Si3 0.115058 0.826681 0.150786
Si Si4 0.116567 0.327918 0.802491
Si Si5 0.500000 0.665654 0.410334
Si Si6 0.725433 0.835458 0.895708
O O1 0.500000 0.500000 0.057721
O O2 0.603292 0.257296 0.080073
O O3 0.500000 0.287358 0.967970
O O4 0.801475 0.233100 0.097136
O O5 0.686900 0.000000 0.065638
O O6 0.727812 0.205135 0.975069
O O7 0.144026 0.772821 0.226633
O O8 0.000000 0.768459 0.130937
O O9 0.113679 0.000000 0.149403
O O10 0.123604 0.500000 0.805537
O O11 0.198140 0.268058 0.855852
O O12 0.000000 0.276383 0.821852
O O13 0.500000 0.500000 0.442531
O O14 0.393477 0.684532 0.367525
O O15 0.763842 0.000000 0.884532
#
# Coordination Sequence:
#
# PCOD8177420 Si02
#       6
#     4   8   8   8   4   8
#     4  10  18  28  45  70  99 125 149 183 231 282
#     4   9  17  31  51  71  92 120 156 195 228 265
#     4   8  15  30  51  70  88 118 160 197 227 265
#     4   9  18  32  48  67  94 125 154 188 231 275
#     4   8  16  32  49  66  91 123 157 191 227 266
#     4   9  17  29  48  72  94 118 150 189 233 277
#
# _framework density 17.189074000000002
#
# number of rings (size 3 to 8) (size 9 to 14) (size 15 to 20)
#    0.000    3.200    0.000    3.300    0.000    4.400 
#    0.000    4.000    0.000    5.400    0.000    0.000 
#    0.000    0.000    0.000    0.000    0.000    0.000 
#
# Total GULP energy -247835.622137 kJ/mol
# GULP energy per Si atom -12391.781107 kJ/mol
# Density = 1.714995 g / cm^3
# Si number density = 17.189074 Si / 1000 Ang^3
#
#
#
# Elastic Constant Matrix: (Units=GPa)
#
#
# Indices 1 2 3 4 5 6 
#
# 1 165.6537 46.6590 75.9116 0.0000 0.0000 0.0000
# 2 46.6590 44.7595 27.3575 0.0000 0.0000 0.0000
# 3 75.9116 27.3575 70.1740 0.0000 0.0000 0.0000
# 4 0.0000 0.0000 0.0000 18.9084 0.0000 0.0000
# 5 0.0000 0.0000 0.0000 0.0000 7.9804 0.0000
# 6 0.0000 0.0000 0.0000 0.0000 0.0000 27.7427
#
#
#
# Elastic Compliance Matrix: (Units=1/GPa)
#
#
# Indices 1 2 3 4 5 6 
#
# 1 0.013334 -0.006674 -0.011823 0.000000 0.000000 0.000000
# 2 -0.006674 0.032671 -0.005517 0.000000 0.000000 0.000000
# 3 -0.011823 -0.005517 0.029191 0.000000 0.000000 0.000000
# 4 0.000000 0.000000 0.000000 0.052887 0.000000 0.000000
# 5 0.000000 0.000000 0.000000 0.000000 0.125307 0.000000
# 6 0.000000 0.000000 0.000000 0.000000 0.000000 0.036045
#
#
# Mechanical properties :
#
#
# Convention : Reuss Voigt Hill
#
# Bulk Modulus (GPa) = 36.80786 64.49373 50.65079
# Shear Modulus (GPa) = 14.42921 19.63690 17.03306
#
# Velocity S-wave (km/s) = 2.90045 3.38362 3.15131
# Velocity P-wave (km/s) = 5.71637 7.27095 6.54002
#
# Compressibility (1/GPa) = 0.02716811
#
# Stress axis : x y z
#
# Youngs Moduli (GPa) = 74.99417 30.60811 34.25765
#
# Poissons Ratio (x) = 0.20428 0.40502
# Poissons Ratio (y) = 0.50052 0.18900
# Poissons Ratio (z) = 0.88664 0.16887
#
# Static dielectric constant tensor:
#      x y z
#    x 3.655690 0.000000 0.000000 
#    y 0.000000 2.879460 0.000000 
#    z 0.000000 0.000000 3.041270 
# 
# 
# High freq. dielectric constant tensor:
#      x y z
#    x 1.681890 0.000000 0.000000 
#    y 0.000000 1.635700 0.000000 
#    z 0.000000 0.000000 1.633360 
# 
# From -- ./inp_files/14308.got.cif
#   From: 2010.03.12/outbox.cif.g09.slc.cpg/sg38_8_cif.got.tgz:14308.got - 2010.04.14 02:38:36.
