data_PCOD8177217
_publ_section_title
;
Structure prediction by ZEFSAII (Michael W. Deem and Ramdas Pophale) SiO2 
 PCOD8177217
Probable space group: A M M 2
;
_chemical_formula_sum "Si O2"
_cell_formula_units_Z 32
_cell_length_a 12.057113
_cell_length_b 7.577235
_cell_length_c 18.147610
_cell_angle_alpha 90.000000
_cell_angle_beta 90.000000
_cell_angle_gamma 90.000000
_cell_volume 1657.958003
_symmetry_space_group_name_H-M "A M M 2"
_symmetry_group_IT_number 38
_symmetry_cell_setting 'orthorhombic'
loop_
_space_group_symop_operation_xyz
x,y,z
-x,-y,z
-x,y,z
x,-y,z
x,1/2+y,1/2+z
-x,1/2-y,1/2+z
-x,1/2+y,1/2+z
x,1/2-y,1/2+z
loop_
_atom_site_type_symbol
_atom_site_label
_atom_site_fract_x
_atom_site_fract_y
_atom_site_fract_z
Si Si1 0.500000 0.196400 0.305341
Si Si2 0.128929 0.500000 0.878685
Si Si3 0.871565 0.000000 0.551325
Si Si4 0.261321 0.198715 0.799593
Si Si5 0.735809 0.702194 0.628605
Si Si6 0.500000 0.705733 0.143111
O O1 0.612559 0.293425 0.331046
O O2 0.500000 0.180237 0.217162
O O3 0.500000 0.000000 0.338821
O O4 0.182069 0.324189 0.845713
O O5 0.000000 0.500000 0.858387
O O6 0.150513 0.500000 0.965019
O O7 0.821094 0.822819 0.585046
O O8 0.000000 0.000000 0.571300
O O9 0.258563 0.255961 0.714883
O O10 0.216838 0.000000 0.808142
O O11 0.767903 0.500000 0.613387
O O12 0.611304 0.743780 0.598318
O O13 0.500000 0.500000 0.164349
#
# Coordination Sequence:
#
# PCOD8177217 Si02
#       6
#     4   4   4   8   8   4
#     4  10  16  30  58  92 127 153 190 245 308 361
#     4  11  26  45  61  85 124 165 207 258 309 354
#     4  11  26  45  61  85 124 165 207 258 309 354
#     4  11  20  38  64  95 122 158 202 250 302 363
#     4  11  20  38  64  95 122 158 202 250 302 363
#     4  10  16  30  58  92 127 153 190 245 308 361
#
# _framework density 19.300851999999999
#
# number of rings (size 3 to 8) (size 9 to 14) (size 15 to 20)
#    0.000    1.250    5.000    5.250    0.000    3.000 
#    0.000    5.000    0.000    3.000    0.000    0.000 
#    0.000    0.000    0.000    0.000    0.000    0.000 
#
# Total GULP energy -198392.928390 kJ/mol
# GULP energy per Si atom -12399.558024 kJ/mol
# Density = 1.925692 g / cm^3
# Si number density = 19.300852 Si / 1000 Ang^3
#
#
#
# Elastic Constant Matrix: (Units=GPa)
#
#
# Indices 1 2 3 4 5 6 
#
# 1 160.8427 78.2067 73.6128 0.0000 0.0000 0.0000
# 2 78.2067 198.3435 48.2911 0.0000 0.0000 0.0000
# 3 73.6128 48.2911 63.2288 0.0000 0.0000 0.0000
# 4 0.0000 0.0000 0.0000 20.8773 0.0000 0.0000
# 5 0.0000 0.0000 0.0000 0.0000 -75.6813 0.0000
# 6 0.0000 0.0000 0.0000 0.0000 0.0000 38.7129
#
#
#
# Elastic Compliance Matrix: (Units=1/GPa)
#
#
# Indices 1 2 3 4 5 6 
#
# 1 0.013861 -0.001887 -0.014695 0.000000 0.000000 0.000000
# 2 -0.001887 0.006450 -0.002729 0.000000 0.000000 0.000000
# 3 -0.014695 -0.002729 0.035009 0.000000 0.000000 0.000000
# 4 0.000000 0.000000 0.000000 0.047899 0.000000 0.000000
# 5 0.000000 0.000000 0.000000 0.000000 -0.013213 0.000000
# 6 0.000000 0.000000 0.000000 0.000000 0.000000 0.025831
#
#
# Mechanical properties :
#
#
# Convention : Reuss Voigt Hill
#
# Bulk Modulus (GPa) = 59.89501 91.40402 75.64951
# Shear Modulus (GPa) = 31.24489 11.60206 21.42348
#
# Velocity S-wave (km/s) = 4.02784 2.45443 3.33524
# Velocity P-wave (km/s) = 7.26161 7.44934 7.35607
#
# Compressibility (1/GPa) = 0.01669588
#
# Stress axis : x y z
#
# Youngs Moduli (GPa) = 72.14715 155.02875 28.56410
#
# Poissons Ratio (x) = 0.29258 0.41976
# Poissons Ratio (y) = 0.13616 0.07796
# Poissons Ratio (z) = 1.06024 0.42312
#
# Static dielectric constant tensor:
#      x y z
#    x 3.835510 0.000000 0.000000 
#    y 0.000000 3.557040 0.000000 
#    z 0.000000 0.000000 3.142180 
# 
# 
# High freq. dielectric constant tensor:
#      x y z
#    x 1.759980 0.000000 0.000000 
#    y 0.000000 1.771590 0.000000 
#    z 0.000000 0.000000 1.705910 
# 
# From -- ./inp_files/17434.got.cif
#   From: 2010.03.12/outbox.cif.g09.slc.cpg/sg38_9_cif.got.tgz:17434.got - 2010.04.14 02:38:36.
