data_PCOD8177979
_publ_section_title
;
Structure prediction by ZEFSAII (Michael W. Deem and Ramdas Pophale) SiO2 
 PCOD8177979
Probable space group: A M M 2
;
_chemical_formula_sum "Si O2"
_cell_formula_units_Z 64
_cell_length_a 9.120648
_cell_length_b 22.926380
_cell_length_c 19.203613
_cell_angle_alpha 90.000000
_cell_angle_beta 90.000000
_cell_angle_gamma 90.000000
_cell_volume 4015.541575
_symmetry_space_group_name_H-M "A M M 2"
_symmetry_group_IT_number 38
_symmetry_cell_setting 'orthorhombic'
loop_
_space_group_symop_operation_xyz
x,y,z
-x,-y,z
-x,y,z
x,-y,z
x,1/2+y,1/2+z
-x,1/2-y,1/2+z
-x,1/2+y,1/2+z
x,1/2-y,1/2+z
loop_
_atom_site_type_symbol
_atom_site_label
_atom_site_fract_x
_atom_site_fract_y
_atom_site_fract_z
Si Si1 0.330991 0.777543 0.962830
Si Si2 0.325638 0.386811 0.112604
Si Si3 0.168818 0.932672 0.477411
Si Si4 0.167189 0.566068 0.244572
Si Si5 0.666761 0.155333 0.387222
Si Si6 0.170192 0.670432 0.340940
Si Si7 0.329401 0.729376 0.761024
Si Si8 0.672263 0.255119 0.110145
O O1 0.500000 0.796273 0.959700
O O2 0.308938 0.712473 0.933890
O O3 0.242025 0.824126 0.917178
O O4 0.266725 0.778174 0.041796
O O5 0.500000 0.389350 0.108621
O O6 0.274083 0.420293 0.181030
O O7 0.264626 0.320648 0.115548
O O8 0.262478 0.418761 0.045375
O O9 0.225238 0.895431 0.411624
O O10 0.000000 0.917178 0.491964
O O11 0.188564 0.000000 0.457483
O O12 0.193221 0.500000 0.269126
O O13 0.201987 0.606098 0.311396
O O14 0.000000 0.576050 0.219284
O O15 0.500000 0.133141 0.394411
O O16 0.704058 0.171691 0.306698
O O17 0.237239 0.716056 0.286952
O O18 0.000000 0.684126 0.348443
O O19 0.500000 0.746670 0.769463
O O20 0.288931 0.718525 0.679909
O O21 0.500000 0.261156 0.099384
#
# Coordination Sequence:
#
# PCOD8177979 Si02
#       8
#     8   8   8   8   8   8   8   8
#     4   9  17  31  49  68  93 122 150 185 233 280
#     4  11  20  32  49  69  93 124 163 197 225 269
#     4  11  23  35  46  63  93 131 163 194 234 272
#     4  10  21  35  47  63  94 131 162 194 233 272
#     4   9  17  30  48  70  91 118 156 194 229 273
#     4  10  19  30  45  68  92 120 158 194 228 269
#     4   9  17  31  50  69  93 120 148 187 236 282
#     4   9  16  29  49  71  94 122 151 181 228 283
#
# _framework density 15.938074
#
# number of rings (size 3 to 8) (size 9 to 14) (size 15 to 20)
#    0.000    2.250    2.500    2.250    0.000    5.250 
#    0.000    0.625    0.000    0.000    0.000    0.875 
#    0.000    5.000    0.000    0.000    0.000    0.000 
#
# Total GULP energy -396747.844991 kJ/mol
# GULP energy per Si atom -12398.370156 kJ/mol
# Density = 1.590180 g / cm^3
# Si number density = 15.938074 Si / 1000 Ang^3
#
#
#
# Elastic Constant Matrix: (Units=GPa)
#
#
# Indices 1 2 3 4 5 6 
#
# 1 73.5209 45.3320 47.8220 0.0000 0.0000 0.0000
# 2 45.3320 79.4227 59.1340 0.0000 0.0000 0.0000
# 3 47.8220 59.1340 140.7298 0.0000 0.0000 0.0000
# 4 0.0000 0.0000 0.0000 22.6535 0.0000 0.0000
# 5 0.0000 0.0000 0.0000 0.0000 20.2399 0.0000
# 6 0.0000 0.0000 0.0000 0.0000 0.0000 20.5143
#
#
#
# Elastic Compliance Matrix: (Units=1/GPa)
#
#
# Indices 1 2 3 4 5 6 
#
# 1 0.021930 -0.010141 -0.003191 0.000000 0.000000 0.000000
# 2 -0.010141 0.023013 -0.006224 0.000000 0.000000 0.000000
# 3 -0.003191 -0.006224 0.010805 0.000000 0.000000 0.000000
# 4 0.000000 0.000000 0.000000 0.044143 0.000000 0.000000
# 5 0.000000 0.000000 0.000000 0.000000 0.049407 0.000000
# 6 0.000000 0.000000 0.000000 0.000000 0.000000 0.048747
#
#
# Mechanical properties :
#
#
# Convention : Reuss Voigt Hill
#
# Bulk Modulus (GPa) = 60.10840 66.47216 63.29028
# Shear Modulus (GPa) = 20.60131 22.10723 21.35427
#
# Velocity S-wave (km/s) = 3.59915 3.72838 3.66434
# Velocity P-wave (km/s) = 7.42075 7.76733 7.59602
#
# Compressibility (1/GPa) = 0.01663661
#
# Stress axis : x y z
#
# Youngs Moduli (GPa) = 45.59959 43.45350 92.54679
#
# Poissons Ratio (x) = 0.44067 0.29530
# Poissons Ratio (y) = 0.46244 0.57600
# Poissons Ratio (z) = 0.14550 0.27045
#
# Static dielectric constant tensor:
#      x y z
#    x 3.006330 0.000000 0.000000 
#    y 0.000000 2.889710 0.000000 
#    z 0.000000 0.000000 3.263450 
# 
# 
# High freq. dielectric constant tensor:
#      x y z
#    x 1.609020 0.000000 0.000000 
#    y 0.000000 1.581200 0.000000 
#    z 0.000000 0.000000 1.613660 
# 
# From -- ./inp_files/20240.got.cif
#   From: 2010.03.12/outbox.cif.g09.slc.cpg/sg38_11_cif.got.tgz:20240.got - 2010.04.14 02:38:36.
