data_PCOD8177203
_publ_section_title
;
Structure prediction by ZEFSAII (Michael W. Deem and Ramdas Pophale) SiO2 
 PCOD8177203
Probable space group: A M M 2
;
_chemical_formula_sum "Si O2"
_cell_formula_units_Z 52
_cell_length_a 7.734182
_cell_length_b 17.405524
_cell_length_c 24.692374
_cell_angle_alpha 90.000000
_cell_angle_beta 90.000000
_cell_angle_gamma 90.000000
_cell_volume 3324.025420
_symmetry_space_group_name_H-M "A M M 2"
_symmetry_group_IT_number 38
_symmetry_cell_setting 'orthorhombic'
loop_
_space_group_symop_operation_xyz
x,y,z
-x,-y,z
-x,y,z
x,-y,z
x,1/2+y,1/2+z
-x,1/2-y,1/2+z
-x,1/2+y,1/2+z
x,1/2-y,1/2+z
loop_
_atom_site_type_symbol
_atom_site_label
_atom_site_fract_x
_atom_site_fract_y
_atom_site_fract_z
Si Si1 0.000000 0.683383 0.209291
Si Si2 0.309123 0.726445 0.671062
Si Si3 0.305489 0.816415 0.559601
Si Si4 0.000000 0.090101 0.818526
Si Si5 0.000000 0.909789 0.598075
Si Si6 0.796538 0.829482 0.002047
Si Si7 0.306315 0.412363 0.396201
Si Si8 0.795097 0.586592 0.609789
O O1 0.831545 0.738163 0.211675
O O2 0.000000 0.630820 0.261311
O O3 0.000000 0.629767 0.156626
O O4 0.500000 0.738961 0.696044
O O5 0.288620 0.768001 0.613982
O O6 0.278725 0.636064 0.659922
O O7 0.500000 0.848788 0.551489
O O8 0.254767 0.759673 0.510470
O O9 0.170126 0.886455 0.563538
O O10 0.829106 0.115852 0.851111
O O11 0.000000 0.000000 0.807094
O O12 0.000000 0.000000 0.607012
O O13 0.703000 0.859023 0.948613
O O14 0.000000 0.838218 0.994521
O O15 0.728973 0.880395 0.052410
O O16 0.500000 0.406448 0.371940
O O17 0.261925 0.500000 0.413087
O O18 0.726905 0.500000 0.616470
O O19 0.000000 0.591449 0.611624
#
# Coordination Sequence:
#
# PCOD8177203 Si02
#       8
#     4   8   8   4   4   8   8   8
#     4  10  19  34  49  62  82 114 154 198 237 270
#     4   9  17  29  45  64  87 117 151 185 223 265
#     4   9  17  29  44  65  92 119 148 183 220 264
#     4  10  21  35  49  64  85 115 152 197 240 268
#     4  10  19  31  47  66  87 115 152 191 232 276
#     4  10  16  27  46  67  94 130 159 178 208 257
#     4  10  20  32  46  67  95 124 154 187 220 257
#     4   9  16  25  41  67  98 128 155 179 206 252
#
# _framework density 15.643684
#
# number of rings (size 3 to 8) (size 9 to 14) (size 15 to 20)
#    0.000    2.462    2.308    1.154    0.000    2.462 
#    0.000    0.000    0.000    2.769    0.000    0.000 
#    0.000    4.923    0.000    6.462    0.000    0.000 
#
# Total GULP energy -322348.527048 kJ/mol
# GULP energy per Si atom -12398.020271 kJ/mol
# Density = 1.560808 g / cm^3
# Si number density = 15.643684 Si / 1000 Ang^3
#
#
#
# Elastic Constant Matrix: (Units=GPa)
#
#
# Indices 1 2 3 4 5 6 
#
# 1 113.7062 42.0046 35.5091 0.0000 0.0000 0.0000
# 2 42.0046 84.8894 31.4643 0.0000 0.0000 0.0000
# 3 35.5091 31.4643 61.8981 0.0000 0.0000 0.0000
# 4 0.0000 0.0000 0.0000 25.8883 0.0000 0.0000
# 5 0.0000 0.0000 0.0000 0.0000 9.5984 0.0000
# 6 0.0000 0.0000 0.0000 0.0000 0.0000 15.8768
#
#
#
# Elastic Compliance Matrix: (Units=1/GPa)
#
#
# Indices 1 2 3 4 5 6 
#
# 1 0.011764 -0.004090 -0.004669 0.000000 0.000000 0.000000
# 2 -0.004090 0.015937 -0.005755 0.000000 0.000000 0.000000
# 3 -0.004669 -0.005755 0.021760 0.000000 0.000000 0.000000
# 4 0.000000 0.000000 0.000000 0.038628 0.000000 0.000000
# 5 0.000000 0.000000 0.000000 0.000000 0.104184 0.000000
# 6 0.000000 0.000000 0.000000 0.000000 0.000000 0.062985
#
#
# Mechanical properties :
#
#
# Convention : Reuss Voigt Hill
#
# Bulk Modulus (GPa) = 48.94363 53.16109 51.05236
# Shear Modulus (GPa) = 17.17650 20.37374 18.77512
#
# Velocity S-wave (km/s) = 3.31718 3.61274 3.46811
# Velocity P-wave (km/s) = 6.78425 7.17348 6.98157
#
# Compressibility (1/GPa) = 0.02043167
#
# Stress axis : x y z
#
# Youngs Moduli (GPa) = 85.00684 62.74749 45.95688
#
# Poissons Ratio (x) = 0.25665 0.21459
# Poissons Ratio (y) = 0.34769 0.26447
# Poissons Ratio (z) = 0.39693 0.36109
#
# Static dielectric constant tensor:
#      x y z
#    x 3.216820 0.000000 0.000000 
#    y 0.000000 2.896440 0.000000 
#    z 0.000000 0.000000 2.592640 
# 
# 
# High freq. dielectric constant tensor:
#      x y z
#    x 1.620780 0.000000 0.000000 
#    y 0.000000 1.583050 0.000000 
#    z 0.000000 0.000000 1.550610 
# 
# From -- ./inp_files/22008.got.cif
#   From: 2010.03.12/outbox.cif.g09.slc.cpg/sg38_12_cif.got.tgz:22008.got - 2010.04.14 02:38:36.
