data_PCOD8177874
_publ_section_title
;
Structure prediction by ZEFSAII (Michael W. Deem and Ramdas Pophale) SiO2 
 PCOD8177874
Probable space group: A M M 2
;
_chemical_formula_sum "Si O2"
_cell_formula_units_Z 56
_cell_length_a 8.893486
_cell_length_b 13.658549
_cell_length_c 29.627749
_cell_angle_alpha 90.000000
_cell_angle_beta 90.000000
_cell_angle_gamma 90.000000
_cell_volume 3598.945313
_symmetry_space_group_name_H-M "A M M 2"
_symmetry_group_IT_number 38
_symmetry_cell_setting 'orthorhombic'
loop_
_space_group_symop_operation_xyz
x,y,z
-x,-y,z
-x,y,z
x,-y,z
x,1/2+y,1/2+z
-x,1/2-y,1/2+z
-x,1/2+y,1/2+z
x,1/2-y,1/2+z
loop_
_atom_site_type_symbol
_atom_site_label
_atom_site_fract_x
_atom_site_fract_y
_atom_site_fract_z
Si Si1 0.825005 0.613345 0.301970
Si Si2 0.322469 0.607007 0.033382
Si Si3 0.822876 0.114875 0.899492
Si Si4 0.178292 0.114090 0.704225
Si Si5 0.173794 0.612464 0.570610
Si Si6 0.677842 0.781122 0.621302
Si Si7 0.322138 0.298459 0.485576
O O1 0.789042 0.500000 0.301946
O O2 0.763574 0.654087 0.350085
O O3 0.764094 0.653468 0.253807
O O4 0.000000 0.632791 0.302538
O O5 0.500000 0.597833 0.033040
O O6 0.250222 0.500000 0.023224
O O7 0.270048 0.642500 0.082814
O O8 0.271531 0.686529 0.996184
O O9 0.731696 0.176766 0.935701
O O10 0.000000 0.133625 0.905442
O O11 0.787755 0.000000 0.905385
O O12 0.263295 0.181352 0.668882
O O13 0.000000 0.127466 0.699251
O O14 0.221128 0.000000 0.697438
O O15 0.194657 0.500000 0.584339
O O16 0.252244 0.675624 0.609797
O O17 0.248205 0.629166 0.521784
O O18 0.000000 0.641978 0.567115
O O19 0.500000 0.769558 0.622968
O O20 0.500000 0.310738 0.489559
#
# Coordination Sequence:
#
# PCOD8177874 Si02
#       7
#     8   8   8   8   8   8   8
#     4   7  12  24  41  60  82 111 146 178 209 248
#     4   8  15  28  42  56  79 111 142 168 198 243
#     4   9  16  27  43  61  84 116 148 175 208 253
#     4   9  16  27  44  65  89 116 146 180 214 252
#     4  10  20  33  47  62  83 113 147 179 210 252
#     4  10  19  29  44  66  89 113 141 175 216 260
#     4  10  19  28  42  65  88 111 140 176 218 258
#
# _framework density 15.560114
#
# number of rings (size 3 to 8) (size 9 to 14) (size 15 to 20)
#    0.000    3.000    0.000    4.714    0.000    4.000 
#    0.000    0.714    0.000   11.143    0.000    1.000 
#    0.000    5.714    0.000    0.000    0.000    0.000 
#
# Total GULP energy -346888.917061 kJ/mol
# GULP energy per Si atom -12388.889895 kJ/mol
# Density = 1.552470 g / cm^3
# Si number density = 15.560114 Si / 1000 Ang^3
#
#
#
# Elastic Constant Matrix: (Units=GPa)
#
#
# Indices 1 2 3 4 5 6 
#
# 1 59.3600 35.5872 45.5340 0.0000 0.0000 0.0000
# 2 35.5872 85.2606 59.8695 0.0000 0.0000 0.0000
# 3 45.5340 59.8695 153.1053 0.0000 0.0000 0.0000
# 4 0.0000 0.0000 0.0000 23.3259 0.0000 0.0000
# 5 0.0000 0.0000 0.0000 0.0000 15.3916 0.0000
# 6 0.0000 0.0000 0.0000 0.0000 0.0000 18.4183
#
#
#
# Elastic Compliance Matrix: (Units=1/GPa)
#
#
# Indices 1 2 3 4 5 6 
#
# 1 0.024567 -0.007063 -0.004544 0.000000 0.000000 0.000000
# 2 -0.007063 0.018199 -0.005016 0.000000 0.000000 0.000000
# 3 -0.004544 -0.005016 0.009844 0.000000 0.000000 0.000000
# 4 0.000000 0.000000 0.000000 0.042871 0.000000 0.000000
# 5 0.000000 0.000000 0.000000 0.000000 0.064971 0.000000
# 6 0.000000 0.000000 0.000000 0.000000 0.000000 0.054294
#
#
# Mechanical properties :
#
#
# Convention : Reuss Voigt Hill
#
# Bulk Modulus (GPa) = 51.64345 64.41195 58.02770
# Shear Modulus (GPa) = 19.65055 21.87616 20.76335
#
# Velocity S-wave (km/s) = 3.55756 3.75362 3.65690
# Velocity P-wave (km/s) = 7.08072 7.76348 7.42995
#
# Compressibility (1/GPa) = 0.01936354
#
# Stress axis : x y z
#
# Youngs Moduli (GPa) = 40.70574 54.94838 101.58132
#
# Poissons Ratio (x) = 0.38810 0.46162
# Poissons Ratio (y) = 0.28750 0.50952
# Poissons Ratio (z) = 0.18498 0.27561
#
# Static dielectric constant tensor:
#      x y z
#    x 2.802440 0.000000 0.000000 
#    y 0.000000 2.923490 0.000000 
#    z 0.000000 0.000000 3.270900 
# 
# 
# High freq. dielectric constant tensor:
#      x y z
#    x 1.582850 0.000000 0.000000 
#    y 0.000000 1.567750 0.000000 
#    z 0.000000 0.000000 1.602030 
# 
# From -- ./inp_files/24646.got.cif
#   From: 2010.03.12/outbox.cif.g09.slc.cpg/sg38_13_cif.got.tgz:24646.got - 2010.04.14 02:38:36.
