data_PCOD8177665
_publ_section_title
;
Structure prediction by ZEFSAII (Michael W. Deem and Ramdas Pophale) SiO2 
 PCOD8177665
Probable space group: A M M 2
;
_chemical_formula_sum "Si O2"
_cell_formula_units_Z 64
_cell_length_a 8.986981
_cell_length_b 20.710436
_cell_length_c 19.594441
_cell_angle_alpha 90.000000
_cell_angle_beta 90.000000
_cell_angle_gamma 90.000000
_cell_volume 3647.001514
_symmetry_space_group_name_H-M "A M M 2"
_symmetry_group_IT_number 38
_symmetry_cell_setting 'orthorhombic'
loop_
_space_group_symop_operation_xyz
x,y,z
-x,-y,z
-x,y,z
x,-y,z
x,1/2+y,1/2+z
-x,1/2-y,1/2+z
-x,1/2+y,1/2+z
x,1/2-y,1/2+z
loop_
_atom_site_type_symbol
_atom_site_label
_atom_site_fract_x
_atom_site_fract_y
_atom_site_fract_z
Si Si1 0.175970 0.190706 0.245480
Si Si2 0.825384 0.231827 0.099153
Si Si3 0.670988 0.073560 0.747078
Si Si4 0.330930 0.124154 0.456178
Si Si5 0.330341 0.135934 0.606701
Si Si6 0.175888 0.571200 0.829967
Si Si7 0.823749 0.315082 0.327193
Si Si8 0.326404 0.774844 0.961074
O O1 0.219804 0.190192 0.165821
O O2 0.243677 0.125856 0.279741
O O3 0.239632 0.254058 0.284096
O O4 0.000000 0.192127 0.253747
O O5 0.782404 0.305196 0.116215
O O6 0.000000 0.228534 0.084163
O O7 0.738106 0.203251 0.034355
O O8 0.500000 0.088076 0.766292
O O9 0.696794 0.084723 0.666448
O O10 0.776992 0.119023 0.790810
O O11 0.713683 0.000000 0.763611
O O12 0.500000 0.111178 0.433829
O O13 0.301926 0.101173 0.533953
O O14 0.225114 0.083512 0.407428
O O15 0.291736 0.199634 0.450085
O O16 0.500000 0.163276 0.607074
O O17 0.230927 0.500000 0.806751
O O18 0.000000 0.574546 0.828175
O O19 0.754312 0.315294 0.402454
O O20 0.000000 0.312819 0.333513
O O21 0.500000 0.790511 0.959625
#
# Coordination Sequence:
#
# PCOD8177665 Si02
#       8
#     8   8   8   8   8   8   8   8
#     4   9  18  32  51  77 104 132 171 216 263 307
#     4  10  18  31  52  77 104 135 170 217 269 311
#     4  10  21  36  53  75 107 146 182 219 266 319
#     4   9  18  31  48  72 103 137 172 211 251 299
#     4   9  18  32  49  72 103 139 178 213 253 309
#     4  10  20  34  51  72 102 139 174 210 255 308
#     4  11  20  34  56  80 105 137 176 224 268 311
#     4  10  20  34  52  79 107 135 172 216 265 319
#
# _framework density 17.548662
#
# number of rings (size 3 to 8) (size 9 to 14) (size 15 to 20)
#    0.000    2.250    2.500    1.875    0.000    3.000 
#    0.000    2.500    0.000    0.750    0.000    1.750 
#    0.000    0.000    0.000    0.000    0.000    0.000 
#
# Total GULP energy -396785.440273 kJ/mol
# GULP energy per Si atom -12399.545009 kJ/mol
# Density = 1.750872 g / cm^3
# Si number density = 17.548662 Si / 1000 Ang^3
#
#
#
# Elastic Constant Matrix: (Units=GPa)
#
#
# Indices 1 2 3 4 5 6 
#
# 1 57.7437 32.8778 44.1563 0.0000 0.0000 0.0000
# 2 32.8778 98.3888 64.2648 0.0000 0.0000 0.0000
# 3 44.1563 64.2648 130.1471 0.0000 0.0000 0.0000
# 4 0.0000 0.0000 0.0000 22.8861 0.0000 0.0000
# 5 0.0000 0.0000 0.0000 0.0000 28.4849 0.0000
# 6 0.0000 0.0000 0.0000 0.0000 0.0000 20.7669
#
#
#
# Elastic Compliance Matrix: (Units=1/GPa)
#
#
# Indices 1 2 3 4 5 6 
#
# 1 0.024436 -0.004060 -0.006286 0.000000 0.000000 0.000000
# 2 -0.004060 0.015677 -0.006364 0.000000 0.000000 0.000000
# 3 -0.006286 -0.006364 0.012959 0.000000 0.000000 0.000000
# 4 0.000000 0.000000 0.000000 0.043695 0.000000 0.000000
# 5 0.000000 0.000000 0.000000 0.000000 0.035106 0.000000
# 6 0.000000 0.000000 0.000000 0.000000 0.000000 0.048154
#
#
# Mechanical properties :
#
#
# Convention : Reuss Voigt Hill
#
# Bulk Modulus (GPa) = 50.88313 63.20861 57.04587
# Shear Modulus (GPa) = 22.72760 24.09293 23.41027
#
# Velocity S-wave (km/s) = 3.60268 3.70932 3.65639
# Velocity P-wave (km/s) = 6.80912 7.37852 7.09953
#
# Compressibility (1/GPa) = 0.01965288
#
# Stress axis : x y z
#
# Youngs Moduli (GPa) = 40.92247 63.78787 77.16853
#
# Poissons Ratio (x) = 0.25897 0.48509
# Poissons Ratio (y) = 0.16614 0.49107
# Poissons Ratio (z) = 0.25724 0.40592
#
# Static dielectric constant tensor:
#      x y z
#    x 3.139320 0.000000 0.000000 
#    y 0.000000 3.168170 0.000000 
#    z 0.000000 0.000000 3.414480 
# 
# 
# High freq. dielectric constant tensor:
#      x y z
#    x 1.670270 0.000000 0.000000 
#    y 0.000000 1.648580 0.000000 
#    z 0.000000 0.000000 1.685760 
# 
# From -- ./inp_files/17214.got.cif
#   From: 2010.03.12/outbox.cif.g09.slc.cpg/sg38_9_cif.got.tgz:17214.got - 2010.04.14 02:38:36.
