data_PCOD8177023
_publ_section_title
;
Structure prediction by ZEFSAII (Michael W. Deem and Ramdas Pophale) SiO2 
 PCOD8177023
Probable space group: C C C 2
;
_chemical_formula_sum "Si O2"
_cell_formula_units_Z 20
_cell_length_a 4.904036
_cell_length_b 17.186142
_cell_length_c 7.958351
_cell_angle_alpha 90.000000
_cell_angle_beta 90.000000
_cell_angle_gamma 90.000000
_cell_volume 670.741434
_symmetry_space_group_name_H-M "C C C 2"
_symmetry_group_IT_number 37
_symmetry_cell_setting 'orthorhombic'
loop_
_space_group_symop_operation_xyz
x,y,z
-x,-y,z
-x,y,1/2+z
x,-y,1/2+z
1/2+x,1/2+y,z
1/2-x,1/2-y,z
1/2-x,1/2+y,1/2+z
1/2+x,1/2-y,1/2+z
loop_
_atom_site_type_symbol
_atom_site_label
_atom_site_fract_x
_atom_site_fract_y
_atom_site_fract_z
Si Si1 0.251902 0.446105 0.350010
Si Si2 0.374385 0.345723 0.642183
Si Si3 0.250000 0.750000 0.437848
O O1 0.500000 0.500000 0.407007
O O2 0.183189 0.394123 0.515662
O O3 0.351358 0.393073 0.193925
O O4 0.000000 0.500000 0.292627
O O5 0.484721 0.265689 0.552723
O O6 0.206395 0.324847 0.812840
#
# Coordination Sequence:
#
# PCOD8177023 Si02
#       3
#     8   8   4
#     4  11  26  48  76 112 152 199 251 312 379 451
#     4  10  25  46  76 110 151 198 254 312 376 450
#     4  10  24  48  70 108 148 198 252 310 376 446
#
# _framework density 29.817753
#
# number of rings (size 3 to 8) (size 9 to 14) (size 15 to 20)
#    0.000    1.600    0.000    1.200    0.000   25.600 
#    0.000    6.000    0.000    0.000    0.000    0.000 
#    0.000    0.000    0.000    0.000    0.000    0.000 
#
# Total GULP energy -123995.429547 kJ/mol
# GULP energy per Si atom -12399.542955 kJ/mol
# Density = 2.974989 g / cm^3
# Si number density = 29.817753 Si / 1000 Ang^3
#
#
#
# Elastic Constant Matrix: (Units=GPa)
#
#
# Indices 1 2 3 4 5 6 
#
# 1 142.6134 51.6228 53.2241 0.0000 0.0000 0.0000
# 2 51.6228 136.7072 52.0489 0.0000 0.0000 0.0000
# 3 53.2241 52.0489 161.4008 0.0000 0.0000 0.0000
# 4 0.0000 0.0000 0.0000 7.6810 0.0000 0.0000
# 5 0.0000 0.0000 0.0000 0.0000 45.2890 0.0000
# 6 0.0000 0.0000 0.0000 0.0000 0.0000 50.7419
#
#
#
# Elastic Compliance Matrix: (Units=1/GPa)
#
#
# Indices 1 2 3 4 5 6 
#
# 1 0.008684 -0.002495 -0.002059 0.000000 0.000000 0.000000
# 2 -0.002495 0.009056 -0.002097 0.000000 0.000000 0.000000
# 3 -0.002059 -0.002097 0.007551 0.000000 0.000000 0.000000
# 4 0.000000 0.000000 0.000000 0.130191 0.000000 0.000000
# 5 0.000000 0.000000 0.000000 0.000000 0.022080 0.000000
# 6 0.000000 0.000000 0.000000 0.000000 0.000000 0.019708
#
#
# Mechanical properties :
#
#
# Convention : Reuss Voigt Hill
#
# Bulk Modulus (GPa) = 83.42166 83.83478 83.62822
# Shear Modulus (GPa) = 23.30265 39.66409 31.48337
#
# Velocity S-wave (km/s) = 2.79857 3.65117 3.25292
# Velocity P-wave (km/s) = 6.20327 6.77875 6.49739
#
# Compressibility (1/GPa) = 0.01198730
#
# Stress axis : x y z
#
# Youngs Moduli (GPa) = 115.16037 110.42767 132.43106
#
# Poissons Ratio (x) = 0.27554 0.27266
# Poissons Ratio (y) = 0.28734 0.27777
# Poissons Ratio (z) = 0.23710 0.23162
#
# Static dielectric constant tensor:
#      x y z
#    x 5.751830 0.000000 0.000000 
#    y 0.000000 6.312260 0.000000 
#    z 0.000000 0.000000 5.475680 
# 
# 
# High freq. dielectric constant tensor:
#      x y z
#    x 2.194190 0.000000 0.000000 
#    y 0.000000 2.237180 0.000000 
#    z 0.000000 0.000000 2.230890 
# 
# From -- ./inp_files/1578.got.cif
#   From: 2010.03.12/outbox.cif.g09.slc.cpg/sg37_1_cif.got.tgz:1578.got - 2010.04.14 02:25:27.
