data_PCOD8177960
_publ_section_title
;
Structure prediction by ZEFSAII (Michael W. Deem and Ramdas Pophale) SiO2 
 PCOD8177960
Probable space group: A M M 2
;
_chemical_formula_sum "Si O2"
_cell_formula_units_Z 36
_cell_length_a 7.540984
_cell_length_b 13.314955
_cell_length_c 22.458888
_cell_angle_alpha 90.000000
_cell_angle_beta 90.000000
_cell_angle_gamma 90.000000
_cell_volume 2255.048941
_symmetry_space_group_name_H-M "A M M 2"
_symmetry_group_IT_number 38
_symmetry_cell_setting 'orthorhombic'
loop_
_space_group_symop_operation_xyz
x,y,z
-x,-y,z
-x,y,z
x,-y,z
x,1/2+y,1/2+z
-x,1/2-y,1/2+z
-x,1/2+y,1/2+z
x,1/2-y,1/2+z
loop_
_atom_site_type_symbol
_atom_site_label
_atom_site_fract_x
_atom_site_fract_y
_atom_site_fract_z
Si Si1 0.298470 0.887151 0.947220
Si Si2 0.701660 0.615767 0.748838
Si Si3 0.000000 0.693582 0.527844
Si Si4 0.000000 0.612263 0.955570
Si Si5 0.000000 0.117185 0.156856
Si Si6 0.296334 0.196191 0.374985
O O1 0.500000 0.876079 0.970063
O O2 0.174414 0.860855 0.002736
O O3 0.261318 0.812685 0.891903
O O4 0.259572 0.000000 0.924706
O O5 0.500000 0.635390 0.728706
O O6 0.732106 0.500000 0.766893
O O7 0.826014 0.646274 0.694244
O O8 0.753156 0.682757 0.805901
O O9 0.000000 0.810991 0.510775
O O10 0.000000 0.685567 0.598604
O O11 0.174664 0.625972 0.915512
O O12 0.000000 0.500000 0.981812
O O13 0.000000 0.000000 0.139174
O O14 0.500000 0.164301 0.386245
#
# Coordination Sequence:
#
# PCOD8177960 Si02
#       6
#     8   8   4   4   4   8
#     4   9  17  29  46  68  92 117 145 178 217 260
#     4   9  17  28  43  64  88 113 142 177 216 258
#     4  10  20  32  45  63  89 118 149 183 216 253
#     4  10  19  30  47  68  88 114 145 178 220 266
#     4  10  19  30  44  61  83 114 148 179 214 255
#     4   9  17  29  46  69  94 116 140 176 221 265
#
# _framework density 15.964176999999999
#
# number of rings (size 3 to 8) (size 9 to 14) (size 15 to 20)
#    0.000    2.667    0.000    2.333    0.000    3.111 
#    0.000    2.222    0.000    1.333    0.000    0.000 
#    0.000    0.000    0.000    0.000    0.000    0.000 
#
# Total GULP energy -223201.613737 kJ/mol
# GULP energy per Si atom -12400.089652 kJ/mol
# Density = 1.592784 g / cm^3
# Si number density = 15.964177 Si / 1000 Ang^3
#
#
#
# Elastic Constant Matrix: (Units=GPa)
#
#
# Indices 1 2 3 4 5 6 
#
# 1 93.0215 45.7495 61.5534 0.0000 0.0000 0.0000
# 2 45.7495 103.9238 57.5698 0.0000 0.0000 0.0000
# 3 61.5534 57.5698 130.4655 0.0000 0.0000 0.0000
# 4 0.0000 0.0000 0.0000 19.9150 0.0000 0.0000
# 5 0.0000 0.0000 0.0000 0.0000 19.0446 0.0000
# 6 0.0000 0.0000 0.0000 0.0000 0.0000 15.9778
#
#
#
# Elastic Compliance Matrix: (Units=1/GPa)
#
#
# Indices 1 2 3 4 5 6 
#
# 1 0.016784 -0.003973 -0.006165 0.000000 0.000000 0.000000
# 2 -0.003973 0.013676 -0.004160 0.000000 0.000000 0.000000
# 3 -0.006165 -0.004160 0.012409 0.000000 0.000000 0.000000
# 4 0.000000 0.000000 0.000000 0.050213 0.000000 0.000000
# 5 0.000000 0.000000 0.000000 0.000000 0.052508 0.000000
# 6 0.000000 0.000000 0.000000 0.000000 0.000000 0.062587
#
#
# Mechanical properties :
#
#
# Convention : Reuss Voigt Hill
#
# Bulk Modulus (GPa) = 70.06815 73.01736 71.54275
# Shear Modulus (GPa) = 20.70107 21.82335 21.26221
#
# Velocity S-wave (km/s) = 3.60491 3.70133 3.65344
# Velocity P-wave (km/s) = 7.83028 8.00650 7.91888
#
# Compressibility (1/GPa) = 0.01427182
#
# Stress axis : x y z
#
# Youngs Moduli (GPa) = 59.58029 73.11984 80.58375
#
# Poissons Ratio (x) = 0.29053 0.49683
# Poissons Ratio (y) = 0.23673 0.33525
# Poissons Ratio (z) = 0.36734 0.30419
#
# Static dielectric constant tensor:
#      x y z
#    x 3.314990 0.000000 0.000000 
#    y 0.000000 3.011380 0.000000 
#    z 0.000000 0.000000 2.765510 
# 
# 
# High freq. dielectric constant tensor:
#      x y z
#    x 1.635880 0.000000 0.000000 
#    y 0.000000 1.599010 0.000000 
#    z 0.000000 0.000000 1.586570 
# 
# From -- ./inp_files/19394.got.cif
#   From: 2010.03.12/outbox.cif.g09.slc.cpg/sg38_10_cif.got.tgz:19394.got - 2010.04.14 02:38:36.
