data_PCOD8177967
_publ_section_title
;
Structure prediction by ZEFSAII (Michael W. Deem and Ramdas Pophale) SiO2 
 PCOD8177967
Probable space group: A M M 2
;
_chemical_formula_sum "Si O2"
_cell_formula_units_Z 64
_cell_length_a 14.239908
_cell_length_b 9.294383
_cell_length_c 31.264982
_cell_angle_alpha 90.000000
_cell_angle_beta 90.000000
_cell_angle_gamma 90.000000
_cell_volume 4137.956599
_symmetry_space_group_name_H-M "A M M 2"
_symmetry_group_IT_number 38
_symmetry_cell_setting 'orthorhombic'
loop_
_space_group_symop_operation_xyz
x,y,z
-x,-y,z
-x,y,z
x,-y,z
x,1/2+y,1/2+z
-x,1/2-y,1/2+z
-x,1/2+y,1/2+z
x,1/2-y,1/2+z
loop_
_atom_site_type_symbol
_atom_site_label
_atom_site_fract_x
_atom_site_fract_y
_atom_site_fract_z
Si Si1 0.391725 0.171177 0.666820
Si Si2 0.292183 0.833952 0.908084
Si Si3 0.389613 0.334236 0.319687
Si Si4 0.104104 0.834574 0.282110
Si Si5 0.610862 0.656709 0.074068
Si Si6 0.393297 0.671712 0.981950
Si Si7 0.896084 0.334231 0.366917
Si Si8 0.295464 0.668395 0.742597
O O1 0.500000 0.207072 0.677436
O O2 0.363267 0.232430 0.619305
O O3 0.325751 0.252844 0.699624
O O4 0.375589 0.000000 0.669593
O O5 0.344831 0.788230 0.864750
O O6 0.325266 0.737229 0.946991
O O7 0.180833 0.803001 0.903347
O O8 0.313084 0.000000 0.918688
O O9 0.500000 0.309880 0.323022
O O10 0.365157 0.500000 0.308808
O O11 0.349690 0.232873 0.282951
O O12 0.131837 0.749093 0.324360
O O13 0.183321 0.804451 0.246545
O O14 0.000000 0.789738 0.265011
O O15 0.104910 0.000000 0.295650
O O16 0.500000 0.634998 0.073280
O O17 0.659148 0.500000 0.074587
O O18 0.638660 0.733476 0.029086
O O19 0.500000 0.719037 0.971741
O O20 0.384894 0.500000 0.981715
O O21 0.892818 0.500000 0.353715
O O22 0.000000 0.289909 0.383726
O O23 0.319583 0.500000 0.739709
#
# Coordination Sequence:
#
# PCOD8177967 Si02
#       8
#     8   8   8   8   8   8   8   8
#     4   9  17  30  48  66  87 118 150 177 212 261
#     4  10  19  30  44  64  90 117 146 180 218 260
#     4  10  20  32  43  57  85 124 156 176 202 250
#     4   9  18  32  47  62  83 112 144 181 225 265
#     4   7  12  26  46  65  84 110 146 183 215 251
#     4   9  17  29  46  67  90 116 148 183 215 253
#     4   9  17  30  48  66  83 108 145 188 225 254
#     4  11  21  30  43  65  90 114 144 183 221 256
#
# _framework density 15.466571
#
# number of rings (size 3 to 8) (size 9 to 14) (size 15 to 20)
#    0.000    2.750    1.250    2.625    0.000    4.250 
#    0.000    0.625    0.000    2.250    0.000    0.875 
#    0.000    7.000    0.000    0.000    0.000    0.000 
#
# Total GULP energy -396516.819663 kJ/mol
# GULP energy per Si atom -12391.150614 kJ/mol
# Density = 1.543137 g / cm^3
# Si number density = 15.466571 Si / 1000 Ang^3
#
#
#
# Elastic Constant Matrix: (Units=GPa)
#
#
# Indices 1 2 3 4 5 6 
#
# 1 84.8339 34.1716 59.0048 0.0000 0.0000 0.0000
# 2 34.1716 44.6866 46.3589 0.0000 0.0000 0.0000
# 3 59.0048 46.3589 132.5979 0.0000 0.0000 0.0000
# 4 0.0000 0.0000 0.0000 19.2794 0.0000 0.0000
# 5 0.0000 0.0000 0.0000 0.0000 8.2088 0.0000
# 6 0.0000 0.0000 0.0000 0.0000 0.0000 19.9736
#
#
#
# Elastic Compliance Matrix: (Units=1/GPa)
#
#
# Indices 1 2 3 4 5 6 
#
# 1 0.019180 -0.009121 -0.005346 0.000000 0.000000 0.000000
# 2 -0.009121 0.039451 -0.009734 0.000000 0.000000 0.000000
# 3 -0.005346 -0.009734 0.013324 0.000000 0.000000 0.000000
# 4 0.000000 0.000000 0.000000 0.051869 0.000000 0.000000
# 5 0.000000 0.000000 0.000000 0.000000 0.121820 0.000000
# 6 0.000000 0.000000 0.000000 0.000000 0.000000 0.050066
#
#
# Mechanical properties :
#
#
# Convention : Reuss Voigt Hill
#
# Bulk Modulus (GPa) = 42.45771 60.13211 51.29491
# Shear Modulus (GPa) = 14.20601 17.66457 15.93529
#
# Velocity S-wave (km/s) = 3.03396 3.38318 3.21332
# Velocity P-wave (km/s) = 6.30746 7.36372 6.85596
#
# Compressibility (1/GPa) = 0.02355285
#
# Stress axis : x y z
#
# Youngs Moduli (GPa) = 52.13755 25.34776 75.05303
#
# Poissons Ratio (x) = 0.23119 0.40125
# Poissons Ratio (y) = 0.47553 0.73059
# Poissons Ratio (z) = 0.27874 0.24674
#
# Static dielectric constant tensor:
#      x y z
#    x 3.073880 0.000000 0.000000 
#    y 0.000000 2.850940 0.000000 
#    z 0.000000 0.000000 3.088180 
# 
# 
# High freq. dielectric constant tensor:
#      x y z
#    x 1.580060 0.000000 0.000000 
#    y 0.000000 1.581740 0.000000 
#    z 0.000000 0.000000 1.584640 
# 
# From -- ./inp_files/25050.got.cif
#   From: 2010.03.12/outbox.cif.g09.slc.cpg/sg38_13_cif.got.tgz:25050.got - 2010.04.14 02:38:36.
