data_PCOD8177294
_publ_section_title
;
Structure prediction by ZEFSAII (Michael W. Deem and Ramdas Pophale) SiO2 
 PCOD8177294
Probable space group: A M M 2
;
_chemical_formula_sum "Si O2"
_cell_formula_units_Z 64
_cell_length_a 9.067228
_cell_length_b 30.521136
_cell_length_c 14.420257
_cell_angle_alpha 90.000000
_cell_angle_beta 90.000000
_cell_angle_gamma 90.000000
_cell_volume 3990.692189
_symmetry_space_group_name_H-M "A M M 2"
_symmetry_group_IT_number 38
_symmetry_cell_setting 'orthorhombic'
loop_
_space_group_symop_operation_xyz
x,y,z
-x,-y,z
-x,y,z
x,-y,z
x,1/2+y,1/2+z
-x,1/2-y,1/2+z
-x,1/2+y,1/2+z
x,1/2-y,1/2+z
loop_
_atom_site_type_symbol
_atom_site_label
_atom_site_fract_x
_atom_site_fract_y
_atom_site_fract_z
Si Si1 0.171243 0.050084 0.647300
Si Si2 0.827988 0.713215 0.544744
Si Si3 0.174398 0.863008 0.919314
Si Si4 0.831792 0.265987 0.749535
Si Si5 0.331158 0.677616 0.252296
Si Si6 0.830032 0.301415 0.947781
Si Si7 0.669937 0.370618 0.061848
Si Si8 0.824621 0.047389 0.856933
O O1 0.258210 0.081913 0.577729
O O2 0.232710 0.056258 0.752195
O O3 0.000000 0.062544 0.642045
O O4 0.197268 0.000000 0.615117
O O5 0.756661 0.669804 0.496349
O O6 0.796694 0.708589 0.653956
O O7 0.763451 0.757945 0.499218
O O8 0.000000 0.713517 0.521531
O O9 0.223543 0.849103 0.817763
O O10 0.227339 0.914011 0.927754
O O11 0.000000 0.861029 0.924628
O O12 0.713643 0.227936 0.757799
O O13 0.000000 0.247445 0.747248
O O14 0.811528 0.297947 0.836785
O O15 0.500000 0.672432 0.284361
O O16 0.305502 0.660503 0.149517
O O17 0.743874 0.345193 0.976162
O O18 0.000000 0.307145 0.976534
O O19 0.500000 0.378226 0.038489
O O20 0.000000 0.045681 0.851273
O O21 0.764740 0.000000 0.892313
#
# Coordination Sequence:
#
# PCOD8177294 Si02
#       8
#     8   8   8   8   8   8   8   8
#     4   9  17  30  49  71  93 120 155 193 232 275
#     4   9  17  28  46  70  88 113 157 197 230 271
#     4  10  17  29  48  67  90 123 158 188 223 272
#     4  10  19  33  48  64  89 119 157 198 232 271
#     4  11  21  29  41  65  95 123 153 187 229 271
#     4  10  19  31  49  67  86 119 160 195 232 275
#     4  11  22  32  44  67  98 129 158 188 231 276
#     4   8  14  24  42  68  93 117 148 187 226 267
#
# _framework density 16.037319
#
# number of rings (size 3 to 8) (size 9 to 14) (size 15 to 20)
#    0.000    2.250    3.750    1.500    0.000    1.750 
#    0.000    0.625    0.000    0.375    0.000    0.875 
#    0.000    5.000    0.000    0.000    0.000    0.125 
#
# Total GULP energy -396598.224619 kJ/mol
# GULP energy per Si atom -12393.694519 kJ/mol
# Density = 1.600082 g / cm^3
# Si number density = 16.037319 Si / 1000 Ang^3
#
#
#
# Elastic Constant Matrix: (Units=GPa)
#
#
# Indices 1 2 3 4 5 6 
#
# 1 27.9010 35.9310 22.7114 0.0000 0.0000 0.0000
# 2 35.9310 120.9744 37.1654 0.0000 0.0000 0.0000
# 3 22.7114 37.1654 68.5262 0.0000 0.0000 0.0000
# 4 0.0000 0.0000 0.0000 26.9182 0.0000 0.0000
# 5 0.0000 0.0000 0.0000 0.0000 11.4488 0.0000
# 6 0.0000 0.0000 0.0000 0.0000 0.0000 12.8577
#
#
#
# Elastic Compliance Matrix: (Units=1/GPa)
#
#
# Indices 1 2 3 4 5 6 
#
# 1 0.067371 -0.015780 -0.013770 0.000000 0.000000 0.000000
# 2 -0.015780 0.013615 -0.002154 0.000000 0.000000 0.000000
# 3 -0.013770 -0.002154 0.020325 0.000000 0.000000 0.000000
# 4 0.000000 0.000000 0.000000 0.037150 0.000000 0.000000
# 5 0.000000 0.000000 0.000000 0.000000 0.087345 0.000000
# 6 0.000000 0.000000 0.000000 0.000000 0.000000 0.077775
#
#
# Mechanical properties :
#
#
# Convention : Reuss Voigt Hill
#
# Bulk Modulus (GPa) = 26.38339 45.44633 35.91486
# Shear Modulus (GPa) = 13.17093 18.35119 15.76106
#
# Velocity S-wave (km/s) = 2.86889 3.38639 3.13832
# Velocity P-wave (km/s) = 5.24032 6.60981 5.96450
#
# Compressibility (1/GPa) = 0.03790263
#
# Stress axis : x y z
#
# Youngs Moduli (GPa) = 14.84309 73.44947 49.19996
#
# Poissons Ratio (x) = 1.15901 0.67751
# Poissons Ratio (y) = 0.23422 0.10599
# Poissons Ratio (z) = 0.20440 0.15823
#
# Static dielectric constant tensor:
#      x y z
#    x 2.806960 0.000000 0.000000 
#    y 0.000000 3.472530 0.000000 
#    z 0.000000 0.000000 2.955260 
# 
# 
# High freq. dielectric constant tensor:
#      x y z
#    x 1.592160 0.000000 0.000000 
#    y 0.000000 1.614640 0.000000 
#    z 0.000000 0.000000 1.588450 
# 
# From -- ./inp_files/13045.got.cif
#   From: 2010.03.12/outbox.cif.g09.slc.cpg/sg38_7_cif.got.tgz:13045.got - 2010.04.14 02:38:36.
