data_PCOD8177281
_publ_section_title
;
Structure prediction by ZEFSAII (Michael W. Deem and Ramdas Pophale) SiO2 
 PCOD8177281
Probable space group: A M M 2
;
_chemical_formula_sum "Si O2"
_cell_formula_units_Z 64
_cell_length_a 9.361820
_cell_length_b 19.765237
_cell_length_c 20.923258
_cell_angle_alpha 90.000000
_cell_angle_beta 90.000000
_cell_angle_gamma 90.000000
_cell_volume 3871.610181
_symmetry_space_group_name_H-M "A M M 2"
_symmetry_group_IT_number 38
_symmetry_cell_setting 'orthorhombic'
loop_
_space_group_symop_operation_xyz
x,y,z
-x,-y,z
-x,y,z
x,-y,z
x,1/2+y,1/2+z
-x,1/2-y,1/2+z
-x,1/2+y,1/2+z
x,1/2-y,1/2+z
loop_
_atom_site_type_symbol
_atom_site_label
_atom_site_fract_x
_atom_site_fract_y
_atom_site_fract_z
Si Si1 0.830143 0.573189 0.768470
Si Si2 0.665600 0.576797 0.375277
Si Si3 0.169822 0.073328 0.413262
Si Si4 0.830236 0.784473 0.453402
Si Si5 0.830387 0.299625 0.329891
Si Si6 0.334896 0.076834 0.022823
Si Si7 0.831298 0.301119 0.571966
Si Si8 0.831394 0.789725 0.213458
O O1 0.777033 0.500000 0.741574
O O2 0.775967 0.581740 0.840941
O O3 0.767001 0.635346 0.727414
O O4 0.000000 0.575038 0.767527
O O5 0.500000 0.593885 0.364962
O O6 0.698187 0.500000 0.353776
O O7 0.760308 0.626458 0.332285
O O8 0.708187 0.586561 0.449058
O O9 0.228379 0.137976 0.453009
O O10 0.000000 0.074631 0.414296
O O11 0.223018 0.000000 0.440787
O O12 0.777848 0.744894 0.390289
O O13 0.770310 0.748572 0.517164
O O14 0.000000 0.784517 0.454649
O O15 0.773401 0.264524 0.264704
O O16 0.000000 0.308257 0.330157
O O17 0.500000 0.095180 0.032902
O O18 0.304255 0.000000 0.044181
O O19 0.238878 0.125302 0.066069
O O20 0.790414 0.269325 0.640999
O O21 0.000000 0.311293 0.565537
O O22 0.000000 0.793355 0.222373
#
# Coordination Sequence:
#
# PCOD8177281 Si02
#       8
#     8   8   8   8   8   8   8   8
#     4   8  12  19  32  51  78 111 141 167 205 259
#     4   9  18  32  49  69  92 117 150 195 238 273
#     4   8  12  19  34  55  79 108 141 175 212 256
#     4   9  15  24  39  61  87 114 147 186 220 257
#     4  10  17  28  47  68  91 120 151 186 230 276
#     4   9  18  32  47  64  91 125 156 188 230 278
#     4  10  19  29  43  66  94 122 153 189 227 268
#     4   9  17  27  39  61  94 123 145 182 232 269
#
# _framework density 16.53059
#
# number of rings (size 3 to 8) (size 9 to 14) (size 15 to 20)
#    0.000    3.000    2.500    1.500    0.000    1.000 
#    0.000    3.125    0.000    0.750    0.000    3.500 
#    0.000    3.000    0.000    0.000    0.000    0.250 
#
# Total GULP energy -396530.431131 kJ/mol
# GULP energy per Si atom -12391.575973 kJ/mol
# Density = 1.649297 g / cm^3
# Si number density = 16.530590 Si / 1000 Ang^3
#
#
#
# Elastic Constant Matrix: (Units=GPa)
#
#
# Indices 1 2 3 4 5 6 
#
# 1 18.7482 26.4134 21.7881 0.0000 0.0000 0.0000
# 2 26.4134 127.4436 65.5861 0.0000 0.0000 0.0000
# 3 21.7881 65.5861 109.3646 0.0000 0.0000 0.0000
# 4 0.0000 0.0000 0.0000 25.1673 0.0000 0.0000
# 5 0.0000 0.0000 0.0000 0.0000 9.6480 0.0000
# 6 0.0000 0.0000 0.0000 0.0000 0.0000 13.1692
#
#
#
# Elastic Compliance Matrix: (Units=1/GPa)
#
#
# Indices 1 2 3 4 5 6 
#
# 1 0.080738 -0.012230 -0.008751 0.000000 0.000000 0.000000
# 2 -0.012230 0.013202 -0.005481 0.000000 0.000000 0.000000
# 3 -0.008751 -0.005481 0.014174 0.000000 0.000000 0.000000
# 4 0.000000 0.000000 0.000000 0.039734 0.000000 0.000000
# 5 0.000000 0.000000 0.000000 0.000000 0.103648 0.000000
# 6 0.000000 0.000000 0.000000 0.000000 0.000000 0.075935
#
#
# Mechanical properties :
#
#
# Convention : Reuss Voigt Hill
#
# Bulk Modulus (GPa) = 18.11885 53.68130 35.90008
# Shear Modulus (GPa) = 12.53917 19.04816 15.79366
#
# Velocity S-wave (km/s) = 2.75715 3.39823 3.09434
# Velocity P-wave (km/s) = 4.59570 6.92400 5.87632
#
# Compressibility (1/GPa) = 0.05519113
#
# Stress axis : x y z
#
# Youngs Moduli (GPa) = 12.38571 75.74680 70.55273
#
# Poissons Ratio (x) = 0.92640 0.61738
# Poissons Ratio (y) = 0.15148 0.38667
# Poissons Ratio (z) = 0.10838 0.41514
#
# Static dielectric constant tensor:
#      x y z
#    x 2.562120 0.000000 0.000000 
#    y 0.000000 3.435790 0.000000 
#    z 0.000000 0.000000 3.090810 
# 
# 
# High freq. dielectric constant tensor:
#      x y z
#    x 1.579310 0.000000 0.000000 
#    y 0.000000 1.646650 0.000000 
#    z 0.000000 0.000000 1.615760 
# 
# From -- ./inp_files/17938.got.cif
#   From: 2010.03.12/outbox.cif.g09.slc.cpg/sg38_9_cif.got.tgz:17938.got - 2010.04.14 02:38:36.
