data_PCOD8177997
_publ_section_title
;
Structure prediction by ZEFSAII (Michael W. Deem and Ramdas Pophale) SiO2 
 PCOD8177997
Probable space group: A M M 2
;
_chemical_formula_sum "Si O2"
_cell_formula_units_Z 64
_cell_length_a 9.463237
_cell_length_b 14.422826
_cell_length_c 28.245125
_cell_angle_alpha 90.000000
_cell_angle_beta 90.000000
_cell_angle_gamma 90.000000
_cell_volume 3855.081661
_symmetry_space_group_name_H-M "A M M 2"
_symmetry_group_IT_number 38
_symmetry_cell_setting 'orthorhombic'
loop_
_space_group_symop_operation_xyz
x,y,z
-x,-y,z
-x,y,z
x,-y,z
x,1/2+y,1/2+z
-x,1/2-y,1/2+z
-x,1/2+y,1/2+z
x,1/2-y,1/2+z
loop_
_atom_site_type_symbol
_atom_site_label
_atom_site_fract_x
_atom_site_fract_y
_atom_site_fract_z
Si Si1 0.664745 0.392752 0.221870
Si Si2 0.166135 0.271509 0.040280
Si Si3 0.836705 0.106570 0.451225
Si Si4 0.163962 0.606326 0.129468
Si Si5 0.665449 0.392770 0.505641
Si Si6 0.332042 0.102721 0.899735
Si Si7 0.665568 0.715567 0.311999
Si Si8 0.664225 0.603516 0.859011
O O1 0.500000 0.373363 0.213056
O O2 0.691638 0.500000 0.235076
O O3 0.747119 0.363164 0.174987
O O4 0.728380 0.329319 0.264310
O O5 0.211639 0.328632 0.086508
O O6 0.000000 0.252127 0.039950
O O7 0.213448 0.331346 0.994998
O O8 0.247654 0.173523 0.040895
O O9 0.747597 0.135374 0.405430
O O10 0.000000 0.123237 0.439101
O O11 0.808452 0.000000 0.465075
O O12 0.196175 0.500000 0.115397
O O13 0.000000 0.619522 0.141633
O O14 0.500000 0.372249 0.511553
O O15 0.697737 0.500000 0.517982
O O16 0.719034 0.369318 0.452328
O O17 0.500000 0.104857 0.900181
O O18 0.268510 0.169644 0.859427
O O19 0.277795 0.000000 0.887453
O O20 0.500000 0.693983 0.311304
O O21 0.697682 0.825819 0.315744
O O22 0.500000 0.608709 0.872588
O O23 0.708106 0.500000 0.842622
#
# Coordination Sequence:
#
# PCOD8177997 Si02
#       8
#     8   8   8   8   8   8   8   8
#     4   9  17  29  46  68  89 109 140 182 224 265
#     4  10  19  30  47  68  88 117 155 187 219 265
#     4   9  17  29  44  64  92 122 151 185 224 265
#     4   9  18  33  50  67  90 118 145 177 223 276
#     4   9  18  31  46  66  93 123 153 185 220 257
#     4   8  13  22  38  61  87 114 143 172 206 253
#     4   9  15  24  41  63  87 114 142 176 217 257
#     4   9  17  28  42  62  88 118 151 182 213 256
#
# _framework density 16.601462999999999
#
# number of rings (size 3 to 8) (size 9 to 14) (size 15 to 20)
#    0.000    3.000    0.000    2.250    0.000    5.250 
#    0.000    0.625    0.000    5.250    0.000    3.500 
#    0.000    0.000    0.000    0.000    0.000    0.000 
#
# Total GULP energy -396682.295451 kJ/mol
# GULP energy per Si atom -12396.321733 kJ/mol
# Density = 1.656368 g / cm^3
# Si number density = 16.601463 Si / 1000 Ang^3
#
#
#
# Elastic Constant Matrix: (Units=GPa)
#
#
# Indices 1 2 3 4 5 6 
#
# 1 34.5669 37.6672 39.7789 0.0000 0.0000 0.0000
# 2 37.6672 110.1419 78.9257 0.0000 0.0000 0.0000
# 3 39.7789 78.9257 114.5190 0.0000 0.0000 0.0000
# 4 0.0000 0.0000 0.0000 30.2866 0.0000 0.0000
# 5 0.0000 0.0000 0.0000 0.0000 21.0257 0.0000
# 6 0.0000 0.0000 0.0000 0.0000 0.0000 21.8115
#
#
#
# Elastic Compliance Matrix: (Units=1/GPa)
#
#
# Indices 1 2 3 4 5 6 
#
# 1 0.053011 -0.009749 -0.011695 0.000000 0.000000 0.000000
# 2 -0.009749 0.019731 -0.010212 0.000000 0.000000 0.000000
# 3 -0.011695 -0.010212 0.019833 0.000000 0.000000 0.000000
# 4 0.000000 0.000000 0.000000 0.033018 0.000000 0.000000
# 5 0.000000 0.000000 0.000000 0.000000 0.047561 0.000000
# 6 0.000000 0.000000 0.000000 0.000000 0.000000 0.045847
#
#
# Mechanical properties :
#
#
# Convention : Reuss Voigt Hill
#
# Bulk Modulus (GPa) = 34.17311 63.55238 48.86275
# Shear Modulus (GPa) = 17.11941 21.48183 19.30062
#
# Velocity S-wave (km/s) = 3.21471 3.60109 3.41337
# Velocity P-wave (km/s) = 5.86585 7.46021 6.71055
#
# Compressibility (1/GPa) = 0.02926277
#
# Stress axis : x y z
#
# Youngs Moduli (GPa) = 18.86414 50.68159 50.42193
#
# Poissons Ratio (x) = 0.49408 0.58968
# Poissons Ratio (y) = 0.18390 0.51492
# Poissons Ratio (z) = 0.22061 0.51757
#
# Static dielectric constant tensor:
#      x y z
#    x 2.836650 0.000000 0.000000 
#    y 0.000000 3.210650 0.000000 
#    z 0.000000 0.000000 3.089780 
# 
# 
# High freq. dielectric constant tensor:
#      x y z
#    x 1.610050 0.000000 0.000000 
#    y 0.000000 1.643330 0.000000 
#    z 0.000000 0.000000 1.621970 
# 
# From -- ./inp_files/24730.got.cif
#   From: 2010.03.12/outbox.cif.g09.slc.cpg/sg38_13_cif.got.tgz:24730.got - 2010.04.14 02:38:36.
