data_PCOD8177031
_publ_section_title
;
Structure prediction by ZEFSAII (Michael W. Deem and Ramdas Pophale) SiO2 
 PCOD8177031
Probable space group: C C C 2
;
_chemical_formula_sum "Si O2"
_cell_formula_units_Z 40
_cell_length_a 11.731520
_cell_length_b 18.581676
_cell_length_c 8.257085
_cell_angle_alpha 90.000000
_cell_angle_beta 90.000000
_cell_angle_gamma 90.000000
_cell_volume 1799.972723
_symmetry_space_group_name_H-M "C C C 2"
_symmetry_group_IT_number 37
_symmetry_cell_setting 'orthorhombic'
loop_
_space_group_symop_operation_xyz
x,y,z
-x,-y,z
-x,y,1/2+z
x,-y,1/2+z
1/2+x,1/2+y,z
1/2-x,1/2-y,z
1/2-x,1/2+y,1/2+z
1/2+x,1/2-y,1/2+z
loop_
_atom_site_type_symbol
_atom_site_label
_atom_site_fract_x
_atom_site_fract_y
_atom_site_fract_z
Si Si1 0.355012 0.461152 0.952540
Si Si2 0.940687 0.904811 0.606595
Si Si3 0.120245 0.249456 0.475393
Si Si4 0.595350 0.062009 0.507932
Si Si5 0.987104 0.661947 0.741576
O O1 0.383972 0.426382 0.777744
O O2 0.421469 0.416334 0.095207
O O3 0.394891 0.544148 0.961190
O O4 0.222390 0.467469 0.996987
O O5 0.913674 0.823720 0.561569
O O6 0.250000 0.250000 0.422049
O O7 0.047676 0.266624 0.313953
O O8 0.098090 0.314755 0.599382
O O9 0.578337 0.103069 0.678240
O O10 0.590211 0.122750 0.371706
O O11 0.500000 0.000000 0.487085
#
# Coordination Sequence:
#
# PCOD8177031 Si02
#       5
#     8   8   8   8   8
#     4  11  25  42  71  97 141 172 240 281 348 409
#     4  11  24  43  66 103 133 186 223 286 345 403
#     4  11  24  43  69  94 144 180 225 281 337 422
#     4  11  25  43  70 100 136 176 229 296 345 409
#     4  10  25  43  64 105 126 180 233 264 357 406
#
# _framework density 22.222559
#
# number of rings (size 3 to 8) (size 9 to 14) (size 15 to 20)
#    0.000    1.200    0.000    5.400   11.200    3.200 
#    0.000    4.000    0.000    0.000    0.000    0.000 
#    0.000    0.000    0.000    0.000    0.000    0.000 
#
# Total GULP energy -247900.130318 kJ/mol
# GULP energy per Si atom -12395.006516 kJ/mol
# Density = 2.217198 g / cm^3
# Si number density = 22.222559 Si / 1000 Ang^3
#
#
#
# Elastic Constant Matrix: (Units=GPa)
#
#
# Indices 1 2 3 4 5 6 
#
# 1 136.9341 19.3402 5.5774 0.0000 0.0000 0.0000
# 2 19.3402 89.0743 7.0929 0.0000 0.0000 0.0000
# 3 5.5774 7.0929 68.2225 0.0000 0.0000 0.0000
# 4 0.0000 0.0000 0.0000 39.9232 0.0000 0.0000
# 5 0.0000 0.0000 0.0000 0.0000 23.8126 0.0000
# 6 0.0000 0.0000 0.0000 0.0000 0.0000 23.0706
#
#
#
# Elastic Compliance Matrix: (Units=1/GPa)
#
#
# Indices 1 2 3 4 5 6 
#
# 1 0.007548 -0.001603 -0.000450 0.000000 0.000000 0.000000
# 2 -0.001603 0.011661 -0.001081 0.000000 0.000000 0.000000
# 3 -0.000450 -0.001081 0.014807 0.000000 0.000000 0.000000
# 4 0.000000 0.000000 0.000000 0.025048 0.000000 0.000000
# 5 0.000000 0.000000 0.000000 0.000000 0.041995 0.000000
# 6 0.000000 0.000000 0.000000 0.000000 0.000000 0.043345
#
#
# Mechanical properties :
#
#
# Convention : Reuss Voigt Hill
#
# Bulk Modulus (GPa) = 36.04087 39.80575 37.92331
# Shear Modulus (GPa) = 31.26543 34.84265 33.05404
#
# Velocity S-wave (km/s) = 3.75497 3.96396 3.86088
# Velocity P-wave (km/s) = 5.92056 6.23714 6.08091
#
# Compressibility (1/GPa) = 0.02774628
#
# Stress axis : x y z
#
# Youngs Moduli (GPa) = 132.49396 85.75812 67.53486
#
# Poissons Ratio (x) = 0.13746 0.03042
# Poissons Ratio (y) = 0.21237 0.07302
# Poissons Ratio (z) = 0.05967 0.09273
#
# Static dielectric constant tensor:
#      x y z
#    x 4.028850 0.000000 0.000000 
#    y 0.000000 4.088950 0.000000 
#    z 0.000000 0.000000 4.165370 
# 
# 
# High freq. dielectric constant tensor:
#      x y z
#    x 1.872710 0.000000 0.000000 
#    y 0.000000 1.881900 0.000000 
#    z 0.000000 0.000000 1.881920 
# 
# From -- ./inp_files/2714.got.cif
#   From: 2010.03.12/outbox.cif.g09.slc.cpg/sg37_2_cif.got.tgz:2714.got - 2010.04.14 02:25:27.
