data_PCOD8177286
_publ_section_title
;
Structure prediction by ZEFSAII (Michael W. Deem and Ramdas Pophale) SiO2 
 PCOD8177286
Probable space group: A M M 2
;
_chemical_formula_sum "Si O2"
_cell_formula_units_Z 56
_cell_length_a 14.214365
_cell_length_b 9.203356
_cell_length_c 25.733783
_cell_angle_alpha 90.000000
_cell_angle_beta 90.000000
_cell_angle_gamma 90.000000
_cell_volume 3366.489926
_symmetry_space_group_name_H-M "A M M 2"
_symmetry_group_IT_number 38
_symmetry_cell_setting 'orthorhombic'
loop_
_space_group_symop_operation_xyz
x,y,z
-x,-y,z
-x,y,z
x,-y,z
x,1/2+y,1/2+z
-x,1/2-y,1/2+z
-x,1/2+y,1/2+z
x,1/2-y,1/2+z
loop_
_atom_site_type_symbol
_atom_site_label
_atom_site_fract_x
_atom_site_fract_y
_atom_site_fract_z
Si Si1 0.222496 0.172539 0.464660
Si Si2 0.606898 0.331176 0.625070
Si Si3 0.894347 0.172592 0.563613
Si Si4 0.393366 0.668114 0.505654
Si Si5 0.110196 0.167609 0.251839
Si Si6 0.103906 0.671825 0.868695
Si Si7 0.780498 0.327612 0.163848
O O1 0.158959 0.229263 0.512457
O O2 0.326490 0.237895 0.468807
O O3 0.176715 0.232294 0.411341
O O4 0.230804 0.000000 0.465047
O O5 0.500000 0.300574 0.642899
O O6 0.631516 0.500000 0.632023
O O7 0.619900 0.283676 0.565308
O O8 0.675392 0.236056 0.660830
O O9 0.840039 0.229160 0.614477
O O10 0.000000 0.236790 0.564002
O O11 0.898038 0.000000 0.563521
O O12 0.500000 0.697974 0.487805
O O13 0.367740 0.500000 0.499305
O O14 0.137608 0.211801 0.310726
O O15 0.170051 0.272016 0.215602
O O16 0.000000 0.194250 0.242192
O O17 0.135863 0.000000 0.240775
O O18 0.096500 0.500000 0.874169
O O19 0.000000 0.737816 0.879333
O O20 0.774599 0.500000 0.165599
#
# Coordination Sequence:
#
# PCOD8177286 Si02
#       7
#     8   8   8   8   8   8   8
#     4  10  17  28  49  74  96 122 158 200 239 278
#     4   9  18  33  51  69  93 128 166 200 237 287
#     4   9  17  27  40  65 100 129 150 179 229 287
#     4   9  18  32  48  67  96 131 160 190 235 290
#     4   9  18  33  51  70  94 129 171 207 237 277
#     4   8  15  29  50  73  95 124 165 205 237 274
#     4  11  20  30  47  73 102 129 157 196 244 293
#
# _framework density 16.634536000000001
#
# number of rings (size 3 to 8) (size 9 to 14) (size 15 to 20)
#    0.000    2.714    1.429    3.000    0.000    3.143 
#    0.000    2.143    0.000    4.286    0.000    2.000 
#    0.000    0.000    0.000    0.000    0.000    0.000 
#
# Total GULP energy -347170.459044 kJ/mol
# GULP energy per Si atom -12398.944966 kJ/mol
# Density = 1.659667 g / cm^3
# Si number density = 16.634536 Si / 1000 Ang^3
#
#
#
# Elastic Constant Matrix: (Units=GPa)
#
#
# Indices 1 2 3 4 5 6 
#
# 1 116.1507 44.0468 65.4745 0.0000 0.0000 0.0000
# 2 44.0468 45.0787 38.1056 0.0000 0.0000 0.0000
# 3 65.4745 38.1056 114.7308 0.0000 0.0000 0.0000
# 4 0.0000 0.0000 0.0000 21.8000 0.0000 0.0000
# 5 0.0000 0.0000 0.0000 0.0000 25.0762 0.0000
# 6 0.0000 0.0000 0.0000 0.0000 0.0000 25.0940
#
#
#
# Elastic Compliance Matrix: (Units=1/GPa)
#
#
# Indices 1 2 3 4 5 6 
#
# 1 0.015761 -0.010841 -0.005394 0.000000 0.000000 0.000000
# 2 -0.010841 0.038299 -0.006534 0.000000 0.000000 0.000000
# 3 -0.005394 -0.006534 0.013964 0.000000 0.000000 0.000000
# 4 0.000000 0.000000 0.000000 0.045872 0.000000 0.000000
# 5 0.000000 0.000000 0.000000 0.000000 0.039879 0.000000
# 6 0.000000 0.000000 0.000000 0.000000 0.000000 0.039850
#
#
# Mechanical properties :
#
#
# Convention : Reuss Voigt Hill
#
# Bulk Modulus (GPa) = 44.46889 63.46822 53.96855
# Shear Modulus (GPa) = 20.27103 22.94960 21.61032
#
# Velocity S-wave (km/s) = 3.49465 3.71837 3.60825
# Velocity P-wave (km/s) = 6.56310 7.52811 7.06211
#
# Compressibility (1/GPa) = 0.02248763
#
# Stress axis : x y z
#
# Youngs Moduli (GPa) = 63.44714 26.11032 71.61094
#
# Poissons Ratio (x) = 0.28305 0.38627
# Poissons Ratio (y) = 0.68781 0.46788
# Poissons Ratio (z) = 0.34224 0.17060
#
# Static dielectric constant tensor:
#      x y z
#    x 3.197600 0.000000 0.000000 
#    y 0.000000 2.789130 0.000000 
#    z 0.000000 0.000000 3.131900 
# 
# 
# High freq. dielectric constant tensor:
#      x y z
#    x 1.643130 0.000000 0.000000 
#    y 0.000000 1.613000 0.000000 
#    z 0.000000 0.000000 1.627950 
# 
# From -- ./inp_files/23833.got.cif
#   From: 2010.03.12/outbox.cif.g09.slc.cpg/sg38_12_cif.got.tgz:23833.got - 2010.04.14 02:38:36.
