data_PCOD8177396
_publ_section_title
;
Structure prediction by ZEFSAII (Michael W. Deem and Ramdas Pophale) SiO2 
 PCOD8177396
Probable space group: A M M 2
;
_chemical_formula_sum "Si O2"
_cell_formula_units_Z 56
_cell_length_a 8.647908
_cell_length_b 18.559776
_cell_length_c 21.190955
_cell_angle_alpha 90.000000
_cell_angle_beta 90.000000
_cell_angle_gamma 90.000000
_cell_volume 3401.216838
_symmetry_space_group_name_H-M "A M M 2"
_symmetry_group_IT_number 38
_symmetry_cell_setting 'orthorhombic'
loop_
_space_group_symop_operation_xyz
x,y,z
-x,-y,z
-x,y,z
x,-y,z
x,1/2+y,1/2+z
-x,1/2-y,1/2+z
-x,1/2+y,1/2+z
x,1/2-y,1/2+z
loop_
_atom_site_type_symbol
_atom_site_label
_atom_site_fract_x
_atom_site_fract_y
_atom_site_fract_z
Si Si1 0.683108 0.654805 0.378570
Si Si2 0.820013 0.917965 0.250930
Si Si3 0.682572 0.341357 0.630659
Si Si4 0.679540 0.204931 0.315457
Si Si5 0.820413 0.920431 0.758289
Si Si6 0.315806 0.918622 0.004732
Si Si7 0.820085 0.279162 0.197252
O O1 0.500000 0.651327 0.378188
O O2 0.735316 0.738881 0.369875
O O3 0.738079 0.604651 0.321757
O O4 0.750078 0.624654 0.444267
O O5 0.726936 0.891586 0.189692
O O6 0.773704 0.870449 0.312900
O O7 0.000000 0.908998 0.236633
O O8 0.775056 0.000000 0.265853
O O9 0.500000 0.330814 0.628358
O O10 0.744943 0.379391 0.567505
O O11 0.764442 0.261871 0.633833
O O12 0.500000 0.186346 0.322594
O O13 0.710467 0.245123 0.249997
O O14 0.789943 0.865491 0.699363
O O15 0.000000 0.922116 0.774539
O O16 0.760540 0.000000 0.738677
O O17 0.500000 0.919865 0.003697
O O18 0.250756 0.000000 0.003303
O O19 0.000000 0.262097 0.210695
#
# Coordination Sequence:
#
# PCOD8177396 Si02
#       7
#     8   8   8   8   8   8   8
#     4   9  17  29  44  62  84 111 141 169 199 241
#     4  10  19  29  42  61  85 111 137 169 210 249
#     4  10  18  28  43  61  83 112 144 173 200 238
#     4   9  16  26  42  62  82 105 136 171 205 244
#     4   9  17  28  42  62  86 110 136 168 208 249
#     4   9  17  28  42  61  85 113 141 167 198 236
#     4   9  16  27  42  58  81 110 137 169 209 248
#
# _framework density 16.464694000000001
#
# number of rings (size 3 to 8) (size 9 to 14) (size 15 to 20)
#    0.000    2.714    0.000    4.286    0.000    3.714 
#    0.000    1.429    0.000    3.429    0.000    1.000 
#    0.000    5.714    0.000    0.000    0.000    0.000 
#
# Total GULP energy -346904.943710 kJ/mol
# GULP energy per Si atom -12389.462275 kJ/mol
# Density = 1.642722 g / cm^3
# Si number density = 16.464694 Si / 1000 Ang^3
#
#
#
# Elastic Constant Matrix: (Units=GPa)
#
#
# Indices 1 2 3 4 5 6 
#
# 1 27.5145 28.2571 14.8925 0.0000 0.0000 0.0000
# 2 28.2571 172.1659 72.0255 0.0000 0.0000 0.0000
# 3 14.8925 72.0255 80.5601 0.0000 0.0000 0.0000
# 4 0.0000 0.0000 0.0000 29.2328 0.0000 0.0000
# 5 0.0000 0.0000 0.0000 0.0000 5.2844 0.0000
# 6 0.0000 0.0000 0.0000 0.0000 0.0000 23.4084
#
#
#
# Elastic Compliance Matrix: (Units=1/GPa)
#
#
# Indices 1 2 3 4 5 6 
#
# 1 0.044073 -0.006111 -0.002684 0.000000 0.000000 0.000000
# 2 -0.006111 0.010126 -0.007924 0.000000 0.000000 0.000000
# 3 -0.002684 -0.007924 0.019994 0.000000 0.000000 0.000000
# 4 0.000000 0.000000 0.000000 0.034208 0.000000 0.000000
# 5 0.000000 0.000000 0.000000 0.000000 0.189236 0.000000
# 6 0.000000 0.000000 0.000000 0.000000 0.000000 0.042720
#
#
# Mechanical properties :
#
#
# Convention : Reuss Voigt Hill
#
# Bulk Modulus (GPa) = 24.53655 56.73231 40.63443
# Shear Modulus (GPa) = 12.90728 22.58948 17.74838
#
# Velocity S-wave (km/s) = 2.80292 3.70806 3.28680
# Velocity P-wave (km/s) = 5.04084 7.27081 6.25599
#
# Compressibility (1/GPa) = 0.04075552
#
# Stress axis : x y z
#
# Youngs Moduli (GPa) = 22.68975 98.75386 50.01595
#
# Poissons Ratio (x) = 0.60345 0.13425
# Poissons Ratio (y) = 0.13865 0.39632
# Poissons Ratio (z) = 0.06090 0.78250
#
# Static dielectric constant tensor:
#      x y z
#    x 2.996010 0.000000 0.000000 
#    y 0.000000 3.749540 0.000000 
#    z 0.000000 0.000000 3.078180 
# 
# 
# High freq. dielectric constant tensor:
#      x y z
#    x 1.629530 0.000000 0.000000 
#    y 0.000000 1.645610 0.000000 
#    z 0.000000 0.000000 1.587050 
# 
# From -- ./inp_files/22242.got.cif
#   From: 2010.03.12/outbox.cif.g09.slc.cpg/sg38_12_cif.got.tgz:22242.got - 2010.04.14 02:38:36.
