data_PCOD8177757
_publ_section_title
;
Structure prediction by ZEFSAII (Michael W. Deem and Ramdas Pophale) SiO2 
 PCOD8177757
Probable space group: A M M 2
;
_chemical_formula_sum "Si O2"
_cell_formula_units_Z 64
_cell_length_a 24.006555
_cell_length_b 8.894963
_cell_length_c 15.461744
_cell_angle_alpha 90.000000
_cell_angle_beta 90.000000
_cell_angle_gamma 90.000000
_cell_volume 3301.660899
_symmetry_space_group_name_H-M "A M M 2"
_symmetry_group_IT_number 38
_symmetry_cell_setting 'orthorhombic'
loop_
_space_group_symop_operation_xyz
x,y,z
-x,-y,z
-x,y,z
x,-y,z
x,1/2+y,1/2+z
-x,1/2-y,1/2+z
-x,1/2+y,1/2+z
x,1/2-y,1/2+z
loop_
_atom_site_type_symbol
_atom_site_label
_atom_site_fract_x
_atom_site_fract_y
_atom_site_fract_z
Si Si1 0.631650 0.321565 0.024960
Si Si2 0.136792 0.678099 0.457343
Si Si3 0.435494 0.824055 0.877898
Si Si4 0.062656 0.321796 0.612782
Si Si5 0.364798 0.326967 0.219919
Si Si6 0.745947 0.175852 0.017950
Si Si7 0.757826 0.329487 0.193231
Si Si8 0.875781 0.827241 0.767243
O O1 0.631085 0.500000 0.022791
O O2 0.623537 0.260299 0.123637
O O3 0.691058 0.265054 0.988265
O O4 0.582513 0.258159 0.965782
O O5 0.137019 0.500000 0.467405
O O6 0.098909 0.747822 0.533982
O O7 0.200834 0.732999 0.462969
O O8 0.110725 0.724789 0.365100
O O9 0.500000 0.791815 0.861880
O O10 0.402460 0.753244 0.795367
O O11 0.422632 0.000000 0.889043
O O12 0.062574 0.500000 0.608513
O O13 0.088549 0.274219 0.703758
O O14 0.000000 0.258625 0.605172
O O15 0.381746 0.500000 0.216348
O O16 0.299847 0.303833 0.245332
O O17 0.761695 0.209216 0.117021
O O18 0.734449 0.000000 0.005444
O O19 0.757508 0.500000 0.154911
O O20 0.809588 0.304543 0.256285
O O21 0.892575 0.000000 0.751675
#
# Coordination Sequence:
#
# PCOD8177757 Si02
#       8
#     8   8   8   8   8   8   8   8
#     4  10  21  37  56  82 114 148 184 226 280 330
#     4   9  19  34  55  83 109 144 185 223 272 330
#     4  10  21  37  58  83 109 144 191 232 267 320
#     4  10  21  39  58  77 110 151 188 228 275 330
#     4   8  17  34  55  77 108 147 184 220 265 326
#     4  10  18  32  57  82 111 145 184 225 271 331
#     4   9  17  31  53  80 112 144 178 224 279 329
#     4  10  20  34  56  84 110 140 184 231 273 324
#
# _framework density 19.384181999999999
#
# number of rings (size 3 to 8) (size 9 to 14) (size 15 to 20)
#    0.000    2.500    1.250    1.500    1.750    1.500 
#    0.000    7.500    0.000    0.000    0.000    0.000 
#    0.000    0.000    0.000    0.000    0.000    0.000 
#
# Total GULP energy -396700.071209 kJ/mol
# GULP energy per Si atom -12396.877225 kJ/mol
# Density = 1.934006 g / cm^3
# Si number density = 19.384182 Si / 1000 Ang^3
#
#
#
# Elastic Constant Matrix: (Units=GPa)
#
#
# Indices 1 2 3 4 5 6 
#
# 1 113.3437 28.3097 55.2970 0.0000 0.0000 0.0000
# 2 28.3097 32.5651 17.7077 0.0000 0.0000 0.0000
# 3 55.2970 17.7077 105.2286 0.0000 0.0000 0.0000
# 4 0.0000 0.0000 0.0000 26.3003 0.0000 0.0000
# 5 0.0000 0.0000 0.0000 0.0000 26.2877 0.0000
# 6 0.0000 0.0000 0.0000 0.0000 0.0000 23.2436
#
#
#
# Elastic Compliance Matrix: (Units=1/GPa)
#
#
# Indices 1 2 3 4 5 6 
#
# 1 0.013874 -0.008912 -0.005791 0.000000 0.000000 0.000000
# 2 -0.008912 0.039525 -0.001968 0.000000 0.000000 0.000000
# 3 -0.005791 -0.001968 0.012877 0.000000 0.000000 0.000000
# 4 0.000000 0.000000 0.000000 0.038022 0.000000 0.000000
# 5 0.000000 0.000000 0.000000 0.000000 0.038041 0.000000
# 6 0.000000 0.000000 0.000000 0.000000 0.000000 0.043023
#
#
# Mechanical properties :
#
#
# Convention : Reuss Voigt Hill
#
# Bulk Modulus (GPa) = 30.36320 50.41849 40.39084
# Shear Modulus (GPa) = 21.76918 25.15453 23.46185
#
# Velocity S-wave (km/s) = 3.35481 3.60624 3.48280
# Velocity P-wave (km/s) = 5.54114 6.58837 6.08732
#
# Compressibility (1/GPa) = 0.03293460
#
# Stress axis : x y z
#
# Youngs Moduli (GPa) = 72.07777 25.30019 77.65544
#
# Poissons Ratio (x) = 0.22548 0.44970
# Poissons Ratio (y) = 0.64236 0.15283
# Poissons Ratio (z) = 0.41740 0.04979
#
# Static dielectric constant tensor:
#      x y z
#    x 3.679640 0.000000 0.000000 
#    y 0.000000 3.226810 0.000000 
#    z 0.000000 0.000000 3.634040 
# 
# 
# High freq. dielectric constant tensor:
#      x y z
#    x 1.757910 0.000000 0.000000 
#    y 0.000000 1.719250 0.000000 
#    z 0.000000 0.000000 1.755260 
# 
# From -- ./inp_files/15782.got.cif
#   From: 2010.03.12/outbox.cif.g09.slc.cpg/sg38_8_cif.got.tgz:15782.got - 2010.04.14 02:38:36.
