data_PCOD8177210
_publ_section_title
;
Structure prediction by ZEFSAII (Michael W. Deem and Ramdas Pophale) SiO2 
 PCOD8177210
Probable space group: A M M 2
;
_chemical_formula_sum "Si O2"
_cell_formula_units_Z 48
_cell_length_a 9.065979
_cell_length_b 16.711900
_cell_length_c 18.384148
_cell_angle_alpha 90.000000
_cell_angle_beta 90.000000
_cell_angle_gamma 90.000000
_cell_volume 2785.377382
_symmetry_space_group_name_H-M "A M M 2"
_symmetry_group_IT_number 38
_symmetry_cell_setting 'orthorhombic'
loop_
_space_group_symop_operation_xyz
x,y,z
-x,-y,z
-x,y,z
x,-y,z
x,1/2+y,1/2+z
-x,1/2-y,1/2+z
-x,1/2+y,1/2+z
x,1/2-y,1/2+z
loop_
_atom_site_type_symbol
_atom_site_label
_atom_site_fract_x
_atom_site_fract_y
_atom_site_fract_z
Si Si1 0.325330 0.588661 0.233140
Si Si2 0.674876 0.000000 0.204454
Si Si3 0.172105 0.162264 0.438681
Si Si4 0.674627 0.171250 0.177400
Si Si5 0.325183 0.260307 0.320033
Si Si6 0.325455 0.680495 0.089734
Si Si7 0.830504 0.500000 0.855548
O O1 0.500000 0.584766 0.233047
O O2 0.257700 0.500000 0.246677
O O3 0.276335 0.649395 0.297394
O O4 0.275538 0.620843 0.154199
O O5 0.732624 0.080445 0.163839
O O6 0.500000 0.000000 0.205574
O O7 0.725675 0.000000 0.286873
O O8 0.245753 0.235105 0.394293
O O9 0.238872 0.156469 0.518478
O O10 0.207636 0.077693 0.402360
O O11 0.000000 0.179826 0.443944
O O12 0.500000 0.174920 0.181128
O O13 0.731451 0.201572 0.255879
O O14 0.725630 0.229561 0.112621
O O15 0.500000 0.254785 0.331807
O O16 0.500000 0.675854 0.075459
O O17 0.000000 0.500000 0.830010
#
# Coordination Sequence:
#
# PCOD8177210 Si02
#       7
#     8   4   8   8   8   8   4
#     4   8  15  29  51  78 101 121 154 202 247 284
#     4  10  16  28  54  78  96 117 154 199 242 289
#     4  11  22  34  47  68 101 134 162 194 237 286
#     4   8  15  28  48  75  98 119 152 198 240 280
#     4   9  16  30  52  74  96 125 161 199 239 284
#     4   9  18  32  50  72  99 127 158 196 240 287
#     4  10  22  34  44  68 104 131 154 193 240 287
#
# _framework density 17.232852999999999
#
# number of rings (size 3 to 8) (size 9 to 14) (size 15 to 20)
#    0.000    2.833    1.667    2.500    1.167    0.667 
#    0.000    4.167    1.833    1.500    0.000    0.000 
#    0.000    0.000    0.000    0.000    0.000    0.000 
#
# Total GULP energy -297442.142047 kJ/mol
# GULP energy per Si atom -12393.422585 kJ/mol
# Density = 1.719363 g / cm^3
# Si number density = 17.232853 Si / 1000 Ang^3
#
#
#
# Elastic Constant Matrix: (Units=GPa)
#
#
# Indices 1 2 3 4 5 6 
#
# 1 35.8888 26.7879 23.0512 0.0000 0.0000 0.0000
# 2 26.7879 151.0071 37.2433 0.0000 0.0000 0.0000
# 3 23.0512 37.2433 63.1115 0.0000 0.0000 0.0000
# 4 0.0000 0.0000 0.0000 19.6880 0.0000 0.0000
# 5 0.0000 0.0000 0.0000 0.0000 1.8675 0.0000
# 6 0.0000 0.0000 0.0000 0.0000 0.0000 14.8579
#
#
#
# Elastic Compliance Matrix: (Units=1/GPa)
#
#
# Indices 1 2 3 4 5 6 
#
# 1 0.038282 -0.003912 -0.011674 0.000000 0.000000 0.000000
# 2 -0.003912 0.008150 -0.003381 0.000000 0.000000 0.000000
# 3 -0.011674 -0.003381 0.022104 0.000000 0.000000 0.000000
# 4 0.000000 0.000000 0.000000 0.050792 0.000000 0.000000
# 5 0.000000 0.000000 0.000000 0.000000 0.535477 0.000000
# 6 0.000000 0.000000 0.000000 0.000000 0.000000 0.067304
#
#
# Mechanical properties :
#
#
# Convention : Reuss Voigt Hill
#
# Bulk Modulus (GPa) = 32.67669 47.13024 39.90346
# Shear Modulus (GPa) = 6.49146 18.14434 12.31790
#
# Velocity S-wave (km/s) = 1.94296 3.24835 2.67646
# Velocity P-wave (km/s) = 4.90270 6.44030 5.72337
#
# Compressibility (1/GPa) = 0.03060286
#
# Stress axis : x y z
#
# Youngs Moduli (GPa) = 26.12210 122.70051 45.24115
#
# Poissons Ratio (x) = 0.47999 0.52814
# Poissons Ratio (y) = 0.10219 0.15294
# Poissons Ratio (z) = 0.30494 0.41481
#
# Static dielectric constant tensor:
#      x y z
#    x 2.850860 0.000000 0.000000 
#    y 0.000000 4.004010 0.000000 
#    z 0.000000 0.000000 3.041430 
# 
# 
# High freq. dielectric constant tensor:
#      x y z
#    x 1.628890 0.000000 0.000000 
#    y 0.000000 1.678950 0.000000 
#    z 0.000000 0.000000 1.646550 
# 
# From -- ./inp_files/19925.got.cif
#   From: 2010.03.12/outbox.cif.g09.slc.cpg/sg38_10_cif.got.tgz:19925.got - 2010.04.14 02:38:36.
