data_PCOD8177718
_publ_section_title
;
Structure prediction by ZEFSAII (Michael W. Deem and Ramdas Pophale) SiO2 
 PCOD8177718
Probable space group: A M M 2
;
_chemical_formula_sum "Si O2"
_cell_formula_units_Z 64
_cell_length_a 19.977425
_cell_length_b 8.914362
_cell_length_c 20.336272
_cell_angle_alpha 90.000000
_cell_angle_beta 90.000000
_cell_angle_gamma 90.000000
_cell_volume 3621.605300
_symmetry_space_group_name_H-M "A M M 2"
_symmetry_group_IT_number 38
_symmetry_cell_setting 'orthorhombic'
loop_
_space_group_symop_operation_xyz
x,y,z
-x,-y,z
-x,y,z
x,-y,z
x,1/2+y,1/2+z
-x,1/2-y,1/2+z
-x,1/2+y,1/2+z
x,1/2-y,1/2+z
loop_
_atom_site_type_symbol
_atom_site_label
_atom_site_fract_x
_atom_site_fract_y
_atom_site_fract_z
Si Si1 0.923438 0.677803 0.230720
Si Si2 0.317153 0.822648 0.670965
Si Si3 0.690716 0.823748 0.815715
Si Si4 0.200043 0.177426 0.987635
Si Si5 0.424893 0.176929 0.566127
Si Si6 0.821988 0.678287 0.632182
Si Si7 0.164033 0.178307 0.848793
Si Si8 0.651622 0.822909 0.954371
O O1 0.915257 0.500000 0.223893
O O2 0.883805 0.754427 0.171620
O O3 0.895233 0.735790 0.301268
O O4 0.000000 0.728968 0.226080
O O5 0.341300 0.781772 0.745289
O O6 0.374576 0.762308 0.622265
O O7 0.248095 0.739231 0.658260
O O8 0.305065 0.000000 0.663434
O O9 0.765999 0.757781 0.820187
O O10 0.645828 0.769521 0.877741
O O11 0.698354 0.000000 0.823685
O O12 0.168489 0.232032 0.056329
O O13 0.201781 0.000000 0.985208
O O14 0.156653 0.236051 0.924672
O O15 0.276739 0.233055 0.982163
O O16 0.500000 0.227558 0.584680
O O17 0.406611 0.243839 0.495305
O O18 0.419643 0.000000 0.561357
O O19 0.821983 0.500000 0.638522
O O20 0.163771 0.000000 0.848247
O O21 0.642602 0.000000 0.961992
#
# Coordination Sequence:
#
# PCOD8177718 Si02
#       8
#     8   8   8   8   8   8   8   8
#     4  10  20  34  53  75 100 134 173 207 246 302
#     4  10  18  32  53  74  99 133 171 211 249 296
#     4   8  14  26  50  76  95 118 158 211 253 279
#     4   8  15  27  47  74 101 123 156 207 252 287
#     4  10  21  34  48  71 105 140 167 200 254 311
#     4  11  20  31  50  77 106 133 163 207 257 304
#     4   8  13  26  48  72  96 122 158 205 245 280
#     4   9  16  30  51  74  97 125 163 208 251 294
#
# _framework density 17.671721000000002
#
# number of rings (size 3 to 8) (size 9 to 14) (size 15 to 20)
#    0.000    2.750    2.500    1.875    0.000    0.500 
#    0.000    1.875    0.000    6.000    0.000    0.000 
#    0.000    0.000    0.000    0.000    0.000    0.000 
#
# Total GULP energy -396530.056000 kJ/mol
# GULP energy per Si atom -12391.564250 kJ/mol
# Density = 1.763150 g / cm^3
# Si number density = 17.671721 Si / 1000 Ang^3
#
#
#
# Elastic Constant Matrix: (Units=GPa)
#
#
# Indices 1 2 3 4 5 6 
#
# 1 105.2772 23.6798 70.2269 0.0000 0.0000 0.0000
# 2 23.6798 17.9389 23.2571 0.0000 0.0000 0.0000
# 3 70.2269 23.2571 161.8034 0.0000 0.0000 0.0000
# 4 0.0000 0.0000 0.0000 22.8243 0.0000 0.0000
# 5 0.0000 0.0000 0.0000 0.0000 28.7226 0.0000
# 6 0.0000 0.0000 0.0000 0.0000 0.0000 17.9943
#
#
#
# Elastic Compliance Matrix: (Units=1/GPa)
#
#
# Indices 1 2 3 4 5 6 
#
# 1 0.016090 -0.014976 -0.004831 0.000000 0.000000 0.000000
# 2 -0.014976 0.082451 -0.005351 0.000000 0.000000 0.000000
# 3 -0.004831 -0.005351 0.009046 0.000000 0.000000 0.000000
# 4 0.000000 0.000000 0.000000 0.043813 0.000000 0.000000
# 5 0.000000 0.000000 0.000000 0.000000 0.034816 0.000000
# 6 0.000000 0.000000 0.000000 0.000000 0.000000 0.055573
#
#
# Mechanical properties :
#
#
# Convention : Reuss Voigt Hill
#
# Bulk Modulus (GPa) = 17.46086 57.70523 37.58304
# Shear Modulus (GPa) = 16.06711 25.09863 20.58287
#
# Velocity S-wave (km/s) = 3.01856 3.77274 3.41652
# Velocity P-wave (km/s) = 4.69586 7.19048 6.07264
#
# Compressibility (1/GPa) = 0.05727096
#
# Stress axis : x y z
#
# Youngs Moduli (GPa) = 62.15173 12.12843 110.54372
#
# Poissons Ratio (x) = 0.18163 0.53401
# Poissons Ratio (y) = 0.93077 0.59156
# Poissons Ratio (z) = 0.30024 0.06490
#
# Static dielectric constant tensor:
#      x y z
#    x 3.168220 0.000000 0.000000 
#    y 0.000000 2.881550 0.000000 
#    z 0.000000 0.000000 3.955840 
# 
# 
# High freq. dielectric constant tensor:
#      x y z
#    x 1.655530 0.000000 0.000000 
#    y 0.000000 1.641840 0.000000 
#    z 0.000000 0.000000 1.705960 
# 
# From -- ./inp_files/21513.got.cif
#   From: 2010.03.12/outbox.cif.g09.slc.cpg/sg38_11_cif.got.tgz:21513.got - 2010.04.14 02:38:36.
