data_PCOD8177193
_publ_section_title
;
Structure prediction by ZEFSAII (Michael W. Deem and Ramdas Pophale) SiO2 
 PCOD8177193
Probable space group: A M M 2
;
_chemical_formula_sum "Si O2"
_cell_formula_units_Z 44
_cell_length_a 20.484545
_cell_length_b 26.385145
_cell_length_c 5.286072
_cell_angle_alpha 90.000000
_cell_angle_beta 90.000000
_cell_angle_gamma 90.000000
_cell_volume 2857.056845
_symmetry_space_group_name_H-M "A M M 2"
_symmetry_group_IT_number 38
_symmetry_cell_setting 'orthorhombic'
loop_
_space_group_symop_operation_xyz
x,y,z
-x,-y,z
-x,y,z
x,-y,z
x,1/2+y,1/2+z
-x,1/2-y,1/2+z
-x,1/2+y,1/2+z
x,1/2-y,1/2+z
loop_
_atom_site_type_symbol
_atom_site_label
_atom_site_fract_x
_atom_site_fract_y
_atom_site_fract_z
Si Si1 0.000000 0.782603 0.669330
Si Si2 0.651090 0.718490 0.686335
Si Si3 0.422343 0.557099 0.202730
Si Si4 0.802750 0.195941 0.186822
Si Si5 0.577598 0.385605 0.702462
Si Si6 0.857852 0.309078 0.186686
O O1 0.064309 0.817235 0.696176
O O2 0.000000 0.758715 0.390777
O O3 0.634975 0.745509 0.422285
O O4 0.725821 0.701936 0.696883
O O5 0.604843 0.670597 0.707595
O O6 0.500000 0.556043 0.203953
O O7 0.394602 0.500000 0.204498
O O8 0.396367 0.585750 0.452398
O O9 0.396703 0.584964 0.950619
O O10 0.839603 0.249681 0.176715
O O11 0.827438 0.165303 0.434374
O O12 0.824403 0.165623 0.933886
O O13 0.500000 0.382478 0.701796
#
# Coordination Sequence:
#
# PCOD8177193 Si02
#       6
#     4   8   8   8   8   8
#     4  12  16  20  34  52  68  88 118 188 230 230
#     4  12  21  31  45  58  83 124 154 177 209 233
#     4   9  17  33  54  70  85 103 124 169 234 279
#     4  10  16  27  37  49  69 103 143 172 199 226
#     4  10  21  33  46  69  89 105 142 183 214 263
#     4  10  16  25  36  51  70  93 138 182 212 235
#
# _framework density 15.400463999999999
#
# number of rings (size 3 to 8) (size 9 to 14) (size 15 to 20)
#    0.000    1.636    7.273    1.636    0.000    2.909 
#    0.000    0.000    0.000    0.000    0.000    0.000 
#    0.000    0.000    0.000    0.000    0.000    0.000 
#
# Total GULP energy -272696.151831 kJ/mol
# GULP energy per Si atom -12395.279629 kJ/mol
# Density = 1.536541 g / cm^3
# Si number density = 15.400464 Si / 1000 Ang^3
#
#
#
# Elastic Constant Matrix: (Units=GPa)
#
#
# Indices 1 2 3 4 5 6 
#
# 1 35.3934 22.7084 21.8110 0.0000 0.0000 0.0000
# 2 22.7084 39.1662 20.8881 0.0000 0.0000 0.0000
# 3 21.8110 20.8881 142.5395 0.0000 0.0000 0.0000
# 4 0.0000 0.0000 0.0000 18.7979 0.0000 0.0000
# 5 0.0000 0.0000 0.0000 0.0000 15.8609 0.0000
# 6 0.0000 0.0000 0.0000 0.0000 0.0000 0.2794
#
#
#
# Elastic Compliance Matrix: (Units=1/GPa)
#
#
# Indices 1 2 3 4 5 6 
#
# 1 0.046487 -0.025123 -0.003432 0.000000 0.000000 0.000000
# 2 -0.025123 0.041274 -0.002204 0.000000 0.000000 0.000000
# 3 -0.003432 -0.002204 0.007864 0.000000 0.000000 0.000000
# 4 0.000000 0.000000 0.000000 0.053197 0.000000 0.000000
# 5 0.000000 0.000000 0.000000 0.000000 0.063048 0.000000
# 6 0.000000 0.000000 0.000000 0.000000 0.000000 3.578764
#
#
# Mechanical properties :
#
#
# Convention : Reuss Voigt Hill
#
# Bulk Modulus (GPa) = 29.31924 38.65713 33.98819
# Shear Modulus (GPa) = 1.29416 17.10042 9.19729
#
# Velocity S-wave (km/s) = 0.91769 3.33586 2.44644
# Velocity P-wave (km/s) = 4.49468 6.32400 5.48612
#
# Compressibility (1/GPa) = 0.03410729
#
# Stress axis : x y z
#
# Youngs Moduli (GPa) = 21.51117 24.22843 127.16613
#
# Poissons Ratio (x) = 0.60869 0.43641
# Poissons Ratio (y) = 0.54042 0.28029
# Poissons Ratio (z) = 0.07382 0.05340
#
# Static dielectric constant tensor:
#      x y z
#    x 2.905830 0.000000 0.000000 
#    y 0.000000 2.501520 0.000000 
#    z 0.000000 0.000000 4.863650 
# 
# 
# High freq. dielectric constant tensor:
#      x y z
#    x 1.575980 0.000000 0.000000 
#    y 0.000000 1.515140 0.000000 
#    z 0.000000 0.000000 1.631810 
# 
# From -- ./inp_files/1623.got.cif
#   From: 2010.03.12/outbox.cif.g09.slc.cpg/sg38_1_cif.got.tgz:1623.got - 2010.04.14 02:38:36.
