data_PCOD8177452
_publ_section_title
;
Structure prediction by ZEFSAII (Michael W. Deem and Ramdas Pophale) SiO2 
 PCOD8177452
Probable space group: A M M 2
;
_chemical_formula_sum "Si O2"
_cell_formula_units_Z 64
_cell_length_a 9.122722
_cell_length_b 18.230317
_cell_length_c 26.083410
_cell_angle_alpha 90.000000
_cell_angle_beta 90.000000
_cell_angle_gamma 90.000000
_cell_volume 4337.934890
_symmetry_space_group_name_H-M "A M M 2"
_symmetry_group_IT_number 38
_symmetry_cell_setting 'orthorhombic'
loop_
_space_group_symop_operation_xyz
x,y,z
-x,-y,z
-x,y,z
x,-y,z
x,1/2+y,1/2+z
-x,1/2-y,1/2+z
-x,1/2+y,1/2+z
x,1/2-y,1/2+z
loop_
_atom_site_type_symbol
_atom_site_label
_atom_site_fract_x
_atom_site_fract_y
_atom_site_fract_z
Si Si1 0.671193 0.583751 0.573500
Si Si2 0.833921 0.206949 0.520530
Si Si3 0.331168 0.584564 0.276089
Si Si4 0.165043 0.705683 0.626069
Si Si5 0.672627 0.167205 0.970135
Si Si6 0.829062 0.085303 0.879259
Si Si7 0.328828 0.830803 0.674745
Si Si8 0.328473 0.084181 0.572904
O O1 0.500000 0.592146 0.584176
O O2 0.723605 0.500000 0.576097
O O3 0.754603 0.628049 0.618048
O O4 0.711406 0.614070 0.517418
O O5 0.828424 0.250267 0.573458
O O6 0.744043 0.252826 0.478323
O O7 0.758325 0.128095 0.528805
O O8 0.000000 0.195777 0.501344
O O9 0.500000 0.599777 0.290771
O O10 0.308978 0.500000 0.260917
O O11 0.228532 0.607204 0.323208
O O12 0.280514 0.632598 0.227850
O O13 0.245155 0.753493 0.669570
O O14 0.000000 0.690365 0.644015
O O15 0.500000 0.176950 0.963134
O O16 0.739954 0.132500 0.919639
O O17 0.000000 0.104083 0.883125
O O18 0.797989 0.000000 0.890115
O O19 0.500000 0.813458 0.673422
O O20 0.286074 0.886332 0.629148
O O21 0.500000 0.094412 0.562509
O O22 0.279936 0.000000 0.569636
#
# Coordination Sequence:
#
# PCOD8177452 Si02
#       8
#     8   8   8   8   8   8   8   8
#     4   9  17  28  42  60  81 106 137 171 205 242
#     4   9  17  28  40  57  82 109 137 169 206 247
#     4   9  17  29  44  61  81 107 141 177 208 239
#     4   9  17  27  39  57  81 108 136 167 203 244
#     4  10  18  29  45  61  79 107 142 175 207 244
#     4  10  20  31  42  59  84 111 138 171 210 247
#     4   9  16  27  43  60  80 109 142 174 207 241
#     4   9  16  26  41  61  84 110 141 174 206 242
#
# _framework density 14.753564000000001
#
# number of rings (size 3 to 8) (size 9 to 14) (size 15 to 20)
#    0.000    2.750    0.000    2.250    0.000    7.250 
#    0.000    0.000    0.000    2.250    0.000    0.000 
#    0.000    1.000    0.000    8.750    0.000    4.875 
#
# Total GULP energy -396817.089203 kJ/mol
# GULP energy per Si atom -12400.534038 kJ/mol
# Density = 1.471998 g / cm^3
# Si number density = 14.753564 Si / 1000 Ang^3
#
#
#
# Elastic Constant Matrix: (Units=GPa)
#
#
# Indices 1 2 3 4 5 6 
#
# 1 79.4580 54.9517 45.5236 0.0000 0.0000 0.0000
# 2 54.9517 109.1060 52.2037 0.0000 0.0000 0.0000
# 3 45.5236 52.2037 74.6488 0.0000 0.0000 0.0000
# 4 0.0000 0.0000 0.0000 27.1478 0.0000 0.0000
# 5 0.0000 0.0000 0.0000 0.0000 19.7199 0.0000
# 6 0.0000 0.0000 0.0000 0.0000 0.0000 22.0958
#
#
#
# Elastic Compliance Matrix: (Units=1/GPa)
#
#
# Indices 1 2 3 4 5 6 
#
# 1 0.022555 -0.007182 -0.008733 0.000000 0.000000 0.000000
# 2 -0.007182 0.016061 -0.006852 0.000000 0.000000 0.000000
# 3 -0.008733 -0.006852 0.023513 0.000000 0.000000 0.000000
# 4 0.000000 0.000000 0.000000 0.036835 0.000000 0.000000
# 5 0.000000 0.000000 0.000000 0.000000 0.050710 0.000000
# 6 0.000000 0.000000 0.000000 0.000000 0.000000 0.045257
#
#
# Mechanical properties :
#
#
# Convention : Reuss Voigt Hill
#
# Bulk Modulus (GPa) = 60.25339 63.17452 61.71396
# Shear Modulus (GPa) = 20.32536 21.16161 20.74349
#
# Velocity S-wave (km/s) = 3.71571 3.79138 3.75373
# Velocity P-wave (km/s) = 7.70306 7.87901 7.79153
#
# Compressibility (1/GPa) = 0.01659658
#
# Stress axis : x y z
#
# Youngs Moduli (GPa) = 44.33575 62.26234 42.52893
#
# Poissons Ratio (x) = 0.44715 0.37139
# Poissons Ratio (y) = 0.31841 0.29142
# Poissons Ratio (z) = 0.38717 0.42663
#
# Static dielectric constant tensor:
#      x y z
#    x 2.944110 0.000000 0.000000 
#    y 0.000000 2.870000 0.000000 
#    z 0.000000 0.000000 2.631990 
# 
# 
# High freq. dielectric constant tensor:
#      x y z
#    x 1.574250 0.000000 0.000000 
#    y 0.000000 1.553480 0.000000 
#    z 0.000000 0.000000 1.529970 
# 
# From -- ./inp_files/20031.got.cif
#   From: 2010.03.12/outbox.cif.g09.slc.cpg/sg38_11_cif.got.tgz:20031.got - 2010.04.14 02:38:36.
