data_PCOD8177391
_publ_section_title
;
Structure prediction by ZEFSAII (Michael W. Deem and Ramdas Pophale) SiO2 
 PCOD8177391
Probable space group: A M M 2
;
_chemical_formula_sum "Si O2"
_cell_formula_units_Z 64
_cell_length_a 8.610283
_cell_length_b 18.582647
_cell_length_c 26.343181
_cell_angle_alpha 90.000000
_cell_angle_beta 90.000000
_cell_angle_gamma 90.000000
_cell_volume 4214.957683
_symmetry_space_group_name_H-M "A M M 2"
_symmetry_group_IT_number 38
_symmetry_cell_setting 'orthorhombic'
loop_
_space_group_symop_operation_xyz
x,y,z
-x,-y,z
-x,y,z
x,-y,z
x,1/2+y,1/2+z
-x,1/2-y,1/2+z
-x,1/2+y,1/2+z
x,1/2-y,1/2+z
loop_
_atom_site_type_symbol
_atom_site_label
_atom_site_fract_x
_atom_site_fract_y
_atom_site_fract_z
Si Si1 0.184032 0.579616 0.317930
Si Si2 0.680851 0.582554 0.507177
Si Si3 0.180367 0.081927 0.113746
Si Si4 0.179758 0.786479 0.760768
Si Si5 0.681684 0.338800 0.707374
Si Si6 0.681530 0.578642 0.807374
Si Si7 0.182231 0.334250 0.415721
Si Si8 0.318834 0.717459 0.857667
O O1 0.256881 0.500000 0.310518
O O2 0.228840 0.629502 0.269100
O O3 0.245394 0.613069 0.371077
O O4 0.000000 0.574696 0.321921
O O5 0.500000 0.594712 0.497729
O O6 0.729803 0.500000 0.497418
O O7 0.722551 0.604722 0.564389
O O8 0.776999 0.632973 0.469834
O O9 0.225713 0.135414 0.158525
O O10 0.000000 0.090253 0.100918
O O11 0.221009 0.000000 0.129738
O O12 0.280534 0.745695 0.717808
O O13 0.208448 0.751377 0.815312
O O14 0.000000 0.779442 0.745819
O O15 0.500000 0.348487 0.697803
O O16 0.743322 0.384920 0.755462
O O17 0.500000 0.568025 0.800456
O O18 0.760178 0.500000 0.815869
O O19 0.714417 0.631106 0.855759
O O20 0.268005 0.256041 0.410074
O O21 0.000000 0.321616 0.412141
O O22 0.500000 0.731536 0.845178
#
# Coordination Sequence:
#
# PCOD8177391 Si02
#       8
#     8   8   8   8   8   8   8   8
#     4   8  14  24  39  59  81 107 139 172 206 244
#     4  10  20  32  45  62  84 109 139 175 211 246
#     4  10  20  32  45  62  84 109 139 175 211 246
#     4   9  16  26  40  58  81 108 139 175 211 249
#     4  10  18  28  43  60  82 113 144 173 207 248
#     4   8  14  24  39  59  81 107 139 172 206 244
#     4  10  18  28  43  60  82 113 144 173 207 248
#     4   9  16  26  40  58  81 108 139 175 211 249
#
# _framework density 15.184018999999999
#
# number of rings (size 3 to 8) (size 9 to 14) (size 15 to 20)
#    0.000    2.750    0.000    4.500    0.000    2.500 
#    0.000    0.000    0.000   15.000    0.000    0.000 
#    0.000    1.000    0.000    2.750    0.000    4.000 
#
# Total GULP energy -396541.794609 kJ/mol
# GULP energy per Si atom -12391.931082 kJ/mol
# Density = 1.514946 g / cm^3
# Si number density = 15.184019 Si / 1000 Ang^3
#
#
#
# Elastic Constant Matrix: (Units=GPa)
#
#
# Indices 1 2 3 4 5 6 
#
# 1 36.0442 20.7662 11.1399 0.0000 0.0000 0.0000
# 2 20.7662 109.7671 47.7003 0.0000 0.0000 0.0000
# 3 11.1399 47.7003 64.2060 0.0000 0.0000 0.0000
# 4 0.0000 0.0000 0.0000 25.4890 0.0000 0.0000
# 5 0.0000 0.0000 0.0000 0.0000 22.2981 0.0000
# 6 0.0000 0.0000 0.0000 0.0000 0.0000 17.8519
#
#
#
# Elastic Compliance Matrix: (Units=1/GPa)
#
#
# Indices 1 2 3 4 5 6 
#
# 1 0.031238 -0.005249 -0.001520 0.000000 0.000000 0.000000
# 2 -0.005249 0.014336 -0.009740 0.000000 0.000000 0.000000
# 3 -0.001520 -0.009740 0.023074 0.000000 0.000000 0.000000
# 4 0.000000 0.000000 0.000000 0.039233 0.000000 0.000000
# 5 0.000000 0.000000 0.000000 0.000000 0.044847 0.000000
# 6 0.000000 0.000000 0.000000 0.000000 0.000000 0.056016
#
#
# Mechanical properties :
#
#
# Convention : Reuss Voigt Hill
#
# Bulk Modulus (GPa) = 28.06616 41.02557 34.54586
# Shear Modulus (GPa) = 19.71313 21.82187 20.76750
#
# Velocity S-wave (km/s) = 3.60708 3.79510 3.70228
# Velocity P-wave (km/s) = 5.98934 6.80304 6.40911
#
# Compressibility (1/GPa) = 0.03563010
#
# Stress axis : x y z
#
# Youngs Moduli (GPa) = 32.01264 69.75607 43.33803
#
# Poissons Ratio (x) = 0.36615 0.06588
# Poissons Ratio (y) = 0.16804 0.42210
# Poissons Ratio (z) = 0.04866 0.67940
#
# Static dielectric constant tensor:
#      x y z
#    x 2.824610 0.000000 0.000000 
#    y 0.000000 3.340410 0.000000 
#    z 0.000000 0.000000 2.700500 
# 
# 
# High freq. dielectric constant tensor:
#      x y z
#    x 1.579930 0.000000 0.000000 
#    y 0.000000 1.575220 0.000000 
#    z 0.000000 0.000000 1.543570 
# 
# From -- ./inp_files/22271.got.cif
#   From: 2010.03.12/outbox.cif.g09.slc.cpg/sg38_12_cif.got.tgz:22271.got - 2010.04.14 02:38:36.
