data_PCOD8177780
_publ_section_title
;
Structure prediction by ZEFSAII (Michael W. Deem and Ramdas Pophale) SiO2 
 PCOD8177780
Probable space group: A M M 2
;
_chemical_formula_sum "Si O2"
_cell_formula_units_Z 64
_cell_length_a 8.775896
_cell_length_b 24.831328
_cell_length_c 15.380210
_cell_angle_alpha 90.000000
_cell_angle_beta 90.000000
_cell_angle_gamma 90.000000
_cell_volume 3351.611561
_symmetry_space_group_name_H-M "A M M 2"
_symmetry_group_IT_number 38
_symmetry_cell_setting 'orthorhombic'
loop_
_space_group_symop_operation_xyz
x,y,z
-x,-y,z
-x,y,z
x,-y,z
x,1/2+y,1/2+z
-x,1/2-y,1/2+z
-x,1/2+y,1/2+z
x,1/2-y,1/2+z
loop_
_atom_site_type_symbol
_atom_site_label
_atom_site_fract_x
_atom_site_fract_y
_atom_site_fract_z
Si Si1 0.326047 0.779710 0.346070
Si Si2 0.318038 0.644541 0.575129
Si Si3 0.318993 0.939703 0.216300
Si Si4 0.824647 0.937518 0.572942
Si Si5 0.676921 0.395388 0.901950
Si Si6 0.675728 0.161397 0.888364
Si Si7 0.821289 0.757943 0.168923
Si Si8 0.680800 0.353986 0.198029
O O1 0.500000 0.781982 0.310469
O O2 0.294694 0.831159 0.407049
O O3 0.297287 0.725531 0.400462
O O4 0.215318 0.781495 0.263844
O O5 0.500000 0.648816 0.580102
O O6 0.255053 0.597735 0.638519
O O7 0.261771 0.632294 0.475674
O O8 0.248595 0.701982 0.598679
O O9 0.500000 0.939550 0.213113
O O10 0.264294 0.916981 0.308995
O O11 0.254721 0.000000 0.203219
O O12 0.774249 0.923942 0.475580
O O13 0.726059 0.906122 0.643881
O O14 0.000000 0.921474 0.583994
O O15 0.796616 0.000000 0.590744
O O16 0.500000 0.409764 0.916390
O O17 0.500000 0.147579 0.881476
O O18 0.748085 0.140879 0.797102
O O19 0.749113 0.699204 0.153741
O O20 0.000000 0.753631 0.155300
O O21 0.500000 0.347627 0.198959
#
# Coordination Sequence:
#
# PCOD8177780 Si02
#       8
#     8   8   8   8   8   8   8   8
#     4   9  17  33  53  79 109 147 190 227 273 333
#     4  10  18  33  55  80 112 149 186 230 281 336
#     4   9  17  30  51  79 110 144 186 232 277 327
#     4  11  25  42  58  82 116 152 192 240 295 349
#     4  10  19  33  56  84 111 148 196 238 279 335
#     4   8  17  32  55  83 111 140 180 230 281 331
#     4  11  21  33  52  83 117 149 183 227 285 343
#     4  10  21  40  62  83 108 145 194 242 286 338
#
# _framework density 19.095292000000001
#
# number of rings (size 3 to 8) (size 9 to 14) (size 15 to 20)
#    0.000    2.250    1.250    3.000    1.750    2.000 
#    0.000    3.750    0.000    2.625    0.000    0.000 
#    0.000    0.000    0.000    0.000    0.000    0.000 
#
# Total GULP energy -396706.816701 kJ/mol
# GULP energy per Si atom -12397.088022 kJ/mol
# Density = 1.905183 g / cm^3
# Si number density = 19.095292 Si / 1000 Ang^3
#
#
#
# Elastic Constant Matrix: (Units=GPa)
#
#
# Indices 1 2 3 4 5 6 
#
# 1 47.4490 25.8161 23.1529 0.0000 0.0000 0.0000
# 2 25.8161 102.5821 63.8167 0.0000 0.0000 0.0000
# 3 23.1529 63.8167 135.1800 0.0000 0.0000 0.0000
# 4 0.0000 0.0000 0.0000 30.0277 0.0000 0.0000
# 5 0.0000 0.0000 0.0000 0.0000 12.3431 0.0000
# 6 0.0000 0.0000 0.0000 0.0000 0.0000 20.0282
#
#
#
# Elastic Compliance Matrix: (Units=1/GPa)
#
#
# Indices 1 2 3 4 5 6 
#
# 1 0.024737 -0.005082 -0.001838 0.000000 0.000000 0.000000
# 2 -0.005082 0.014846 -0.006138 0.000000 0.000000 0.000000
# 3 -0.001838 -0.006138 0.010610 0.000000 0.000000 0.000000
# 4 0.000000 0.000000 0.000000 0.033303 0.000000 0.000000
# 5 0.000000 0.000000 0.000000 0.000000 0.081017 0.000000
# 6 0.000000 0.000000 0.000000 0.000000 0.000000 0.049930
#
#
# Mechanical properties :
#
#
# Convention : Reuss Voigt Hill
#
# Bulk Modulus (GPa) = 41.53325 56.75360 49.14343
# Shear Modulus (GPa) = 20.11397 23.97482 22.04439
#
# Velocity S-wave (km/s) = 3.24905 3.54720 3.40139
# Velocity P-wave (km/s) = 5.98940 6.82368 6.42010
#
# Compressibility (1/GPa) = 0.02407709
#
# Stress axis : x y z
#
# Youngs Moduli (GPa) = 40.42521 67.35909 94.25104
#
# Poissons Ratio (x) = 0.34234 0.17319
# Poissons Ratio (y) = 0.20545 0.57852
# Poissons Ratio (z) = 0.07428 0.41345
#
# Static dielectric constant tensor:
#      x y z
#    x 3.179820 0.000000 0.000000 
#    y 0.000000 3.580450 0.000000 
#    z 0.000000 0.000000 3.741780 
# 
# 
# High freq. dielectric constant tensor:
#      x y z
#    x 1.709720 0.000000 0.000000 
#    y 0.000000 1.737250 0.000000 
#    z 0.000000 0.000000 1.746720 
# 
# From -- ./inp_files/12845.got.cif
#   From: 2010.03.12/outbox.cif.g09.slc.cpg/sg38_7_cif.got.tgz:12845.got - 2010.04.14 02:38:36.
