data_PCOD8177985
_publ_section_title
;
Structure prediction by ZEFSAII (Michael W. Deem and Ramdas Pophale) SiO2 
 PCOD8177985
Probable space group: A M M 2
;
_chemical_formula_sum "Si O2"
_cell_formula_units_Z 56
_cell_length_a 8.760427
_cell_length_b 13.655896
_cell_length_c 29.253976
_cell_angle_alpha 90.000000
_cell_angle_beta 90.000000
_cell_angle_gamma 90.000000
_cell_volume 3499.696446
_symmetry_space_group_name_H-M "A M M 2"
_symmetry_group_IT_number 38
_symmetry_cell_setting 'orthorhombic'
loop_
_space_group_symop_operation_xyz
x,y,z
-x,-y,z
-x,y,z
x,-y,z
x,1/2+y,1/2+z
-x,1/2-y,1/2+z
-x,1/2+y,1/2+z
x,1/2-y,1/2+z
loop_
_atom_site_type_symbol
_atom_site_label
_atom_site_fract_x
_atom_site_fract_y
_atom_site_fract_z
Si Si1 0.831092 0.116353 0.643090
Si Si2 0.178717 0.388371 0.412772
Si Si3 0.180253 0.613011 0.244118
Si Si4 0.679546 0.890216 0.552543
Si Si5 0.178516 0.111941 0.377983
Si Si6 0.318628 0.715380 0.962435
Si Si7 0.680178 0.284594 0.328430
O O1 0.771931 0.149218 0.693136
O O2 0.726745 0.155431 0.601590
O O3 0.000000 0.158428 0.634675
O O4 0.834746 0.000000 0.643626
O O5 0.213788 0.500000 0.425934
O O6 0.261044 0.363105 0.365295
O O7 0.243280 0.321018 0.453461
O O8 0.000000 0.369161 0.406213
O O9 0.225806 0.500000 0.251918
O O10 0.275190 0.680267 0.278219
O O11 0.000000 0.626661 0.251820
O O12 0.500000 0.895654 0.550307
O O13 0.740366 0.821889 0.511685
O O14 0.748003 0.000000 0.546756
O O15 0.242525 0.179202 0.337200
O O16 0.000000 0.132490 0.385012
O O17 0.211212 0.000000 0.364811
O O18 0.500000 0.725481 0.960364
O O19 0.265377 0.637393 0.924745
O O20 0.500000 0.273905 0.332912
#
# Coordination Sequence:
#
# PCOD8177985 Si02
#       7
#     8   8   8   8   8   8   8
#     4   8  15  27  43  63  86 115 149 181 214 253
#     4  10  20  33  47  63  87 118 150 186 223 258
#     4   9  17  30  46  64  90 121 150 182 219 259
#     4   9  17  28  42  63  92 121 145 174 216 262
#     4  10  20  33  48  65  87 117 151 185 219 257
#     4  10  19  30  46  67  91 119 149 181 219 263
#     4  11  21  30  45  68  91 117 148 181 219 264
#
# _framework density 16.001387000000001
#
# number of rings (size 3 to 8) (size 9 to 14) (size 15 to 20)
#    0.000    2.429    0.000    6.000    0.000    6.571 
#    0.000    2.857    0.000    0.000    0.000    1.000 
#    0.000    5.714    0.000    0.000    0.000    0.000 
#
# Total GULP energy -347128.635025 kJ/mol
# GULP energy per Si atom -12397.451251 kJ/mol
# Density = 1.596497 g / cm^3
# Si number density = 16.001387 Si / 1000 Ang^3
#
#
#
# Elastic Constant Matrix: (Units=GPa)
#
#
# Indices 1 2 3 4 5 6 
#
# 1 45.4435 31.0401 22.7558 0.0000 0.0000 0.0000
# 2 31.0401 93.9556 49.2632 0.0000 0.0000 0.0000
# 3 22.7558 49.2632 121.4338 0.0000 0.0000 0.0000
# 4 0.0000 0.0000 0.0000 23.6720 0.0000 0.0000
# 5 0.0000 0.0000 0.0000 0.0000 28.9784 0.0000
# 6 0.0000 0.0000 0.0000 0.0000 0.0000 19.0147
#
#
#
# Elastic Compliance Matrix: (Units=1/GPa)
#
#
# Indices 1 2 3 4 5 6 
#
# 1 0.028777 -0.008484 -0.001951 0.000000 0.000000 0.000000
# 2 -0.008484 0.016020 -0.004909 0.000000 0.000000 0.000000
# 3 -0.001951 -0.004909 0.010592 0.000000 0.000000 0.000000
# 4 0.000000 0.000000 0.000000 0.042244 0.000000 0.000000
# 5 0.000000 0.000000 0.000000 0.000000 0.034508 0.000000
# 6 0.000000 0.000000 0.000000 0.000000 0.000000 0.052591
#
#
# Mechanical properties :
#
#
# Convention : Reuss Voigt Hill
#
# Bulk Modulus (GPa) = 40.48394 51.88347 46.18370
# Shear Modulus (GPa) = 22.35580 24.85126 23.60353
#
# Velocity S-wave (km/s) = 3.74186 3.94518 3.84486
# Velocity P-wave (km/s) = 6.63505 7.29707 6.97392
#
# Compressibility (1/GPa) = 0.02470115
#
# Stress axis : x y z
#
# Youngs Moduli (GPa) = 34.74947 62.42072 94.41037
#
# Poissons Ratio (x) = 0.52960 0.18417
# Poissons Ratio (y) = 0.29483 0.46348
# Poissons Ratio (z) = 0.06779 0.30644
#
# Static dielectric constant tensor:
#      x y z
#    x 3.104260 0.000000 0.000000 
#    y 0.000000 2.923830 0.000000 
#    z 0.000000 0.000000 3.190590 
# 
# 
# High freq. dielectric constant tensor:
#      x y z
#    x 1.622530 0.000000 0.000000 
#    y 0.000000 1.585110 0.000000 
#    z 0.000000 0.000000 1.612070 
# 
# From -- ./inp_files/23836.got.cif
#   From: 2010.03.12/outbox.cif.g09.slc.cpg/sg38_12_cif.got.tgz:23836.got - 2010.04.14 02:38:36.
