data_PCOD8177397
_publ_section_title
;
Structure prediction by ZEFSAII (Michael W. Deem and Ramdas Pophale) SiO2 
 PCOD8177397
Probable space group: A M M 2
;
_chemical_formula_sum "Si O2"
_cell_formula_units_Z 56
_cell_length_a 9.185930
_cell_length_b 18.300680
_cell_length_c 20.919689
_cell_angle_alpha 90.000000
_cell_angle_beta 90.000000
_cell_angle_gamma 90.000000
_cell_volume 3516.783091
_symmetry_space_group_name_H-M "A M M 2"
_symmetry_group_IT_number 38
_symmetry_cell_setting 'orthorhombic'
loop_
_space_group_symop_operation_xyz
x,y,z
-x,-y,z
-x,y,z
x,-y,z
x,1/2+y,1/2+z
-x,1/2-y,1/2+z
-x,1/2+y,1/2+z
x,1/2-y,1/2+z
loop_
_atom_site_type_symbol
_atom_site_label
_atom_site_fract_x
_atom_site_fract_y
_atom_site_fract_z
Si Si1 0.827043 0.339279 0.688630
Si Si2 0.669709 0.083336 0.301990
Si Si3 0.827379 0.418139 0.559295
Si Si4 0.829788 0.415939 0.301249
Si Si5 0.339153 0.283584 0.877937
Si Si6 0.335970 0.792185 0.741023
Si Si7 0.829377 0.340871 0.432856
O O1 0.768268 0.394583 0.742098
O O2 0.779724 0.372119 0.620734
O O3 0.754811 0.259182 0.692957
O O4 0.000000 0.331930 0.696213
O O5 0.500000 0.096156 0.283819
O O6 0.709815 0.132551 0.364441
O O7 0.702032 0.000000 0.320453
O O8 0.762277 0.500000 0.563789
O O9 0.764115 0.378865 0.496035
O O10 0.000000 0.422847 0.554441
O O11 0.786187 0.500000 0.293411
O O12 0.742164 0.370696 0.247656
O O13 0.785543 0.390742 0.372527
O O14 0.000000 0.402683 0.289910
O O15 0.500000 0.280875 0.908085
O O16 0.336695 0.245608 0.809357
O O17 0.233419 0.241249 0.926214
O O18 0.500000 0.803133 0.715034
O O19 0.000000 0.331630 0.438908
#
# Coordination Sequence:
#
# PCOD8177397 Si02
#       7
#     8   8   8   8   8   8   8
#     4  10  18  28  43  62  85 113 145 179 210 244
#     4   9  17  29  44  62  86 114 140 170 213 260
#     4   9  17  28  42  62  87 114 143 173 206 244
#     4   9  16  26  43  67  90 111 139 176 214 251
#     4   8  15  27  41  58  81 108 138 173 211 249
#     4   9  17  29  43  59  83 114 144 175 213 255
#     4   9  16  27  43  61  84 115 145 171 202 245
#
# _framework density 15.923643
#
# number of rings (size 3 to 8) (size 9 to 14) (size 15 to 20)
#    0.000    3.000    0.000    2.571    0.000    6.286 
#    0.000    1.429    0.000    3.000    0.000    1.000 
#    0.000    5.714    0.000    0.000    0.000    0.000 
#
# Total GULP energy -347090.062289 kJ/mol
# GULP energy per Si atom -12396.073653 kJ/mol
# Density = 1.588740 g / cm^3
# Si number density = 15.923643 Si / 1000 Ang^3
#
#
#
# Elastic Constant Matrix: (Units=GPa)
#
#
# Indices 1 2 3 4 5 6 
#
# 1 57.8812 52.0705 33.8967 0.0000 0.0000 0.0000
# 2 52.0705 151.8460 63.4516 0.0000 0.0000 0.0000
# 3 33.8967 63.4516 72.8118 0.0000 0.0000 0.0000
# 4 0.0000 0.0000 0.0000 24.8858 0.0000 0.0000
# 5 0.0000 0.0000 0.0000 0.0000 11.7149 0.0000
# 6 0.0000 0.0000 0.0000 0.0000 0.0000 25.0532
#
#
#
# Elastic Compliance Matrix: (Units=1/GPa)
#
#
# Indices 1 2 3 4 5 6 
#
# 1 0.027142 -0.006334 -0.007116 0.000000 0.000000 0.000000
# 2 -0.006334 0.011835 -0.007365 0.000000 0.000000 0.000000
# 3 -0.007116 -0.007365 0.023465 0.000000 0.000000 0.000000
# 4 0.000000 0.000000 0.000000 0.040184 0.000000 0.000000
# 5 0.000000 0.000000 0.000000 0.000000 0.085362 0.000000
# 6 0.000000 0.000000 0.000000 0.000000 0.000000 0.039915
#
#
# Mechanical properties :
#
#
# Convention : Reuss Voigt Hill
#
# Bulk Modulus (GPa) = 48.04832 64.59739 56.32285
# Shear Modulus (GPa) = 18.08511 21.20545 19.64528
#
# Velocity S-wave (km/s) = 3.37373 3.65320 3.51624
# Velocity P-wave (km/s) = 6.73912 7.64523 7.20643
#
# Compressibility (1/GPa) = 0.02081238
#
# Stress axis : x y z
#
# Youngs Moduli (GPa) = 36.84307 84.49321 42.61639
#
# Poissons Ratio (x) = 0.53517 0.30326
# Poissons Ratio (y) = 0.23336 0.31387
# Poissons Ratio (z) = 0.26218 0.62230
#
# Static dielectric constant tensor:
#      x y z
#    x 2.993910 0.000000 0.000000 
#    y 0.000000 3.295240 0.000000 
#    z 0.000000 0.000000 2.823430 
# 
# 
# High freq. dielectric constant tensor:
#      x y z
#    x 1.603910 0.000000 0.000000 
#    y 0.000000 1.617600 0.000000 
#    z 0.000000 0.000000 1.570640 
# 
# From -- ./inp_files/19973.got.cif
#   From: 2010.03.12/outbox.cif.g09.slc.cpg/sg38_10_cif.got.tgz:19973.got - 2010.04.14 02:38:36.
