data_PCOD8177863
_publ_section_title
;
Structure prediction by ZEFSAII (Michael W. Deem and Ramdas Pophale) SiO2 
 PCOD8177863
Probable space group: A M M 2
;
_chemical_formula_sum "Si O2"
_cell_formula_units_Z 64
_cell_length_a 9.270541
_cell_length_b 18.027990
_cell_length_c 26.554235
_cell_angle_alpha 90.000000
_cell_angle_beta 90.000000
_cell_angle_gamma 90.000000
_cell_volume 4437.988595
_symmetry_space_group_name_H-M "A M M 2"
_symmetry_group_IT_number 38
_symmetry_cell_setting 'orthorhombic'
loop_
_space_group_symop_operation_xyz
x,y,z
-x,-y,z
-x,y,z
x,-y,z
x,1/2+y,1/2+z
-x,1/2-y,1/2+z
-x,1/2+y,1/2+z
x,1/2-y,1/2+z
loop_
_atom_site_type_symbol
_atom_site_label
_atom_site_fract_x
_atom_site_fract_y
_atom_site_fract_z
Si Si1 0.830682 0.584700 0.206500
Si Si2 0.667096 0.914443 0.608316
Si Si3 0.670129 0.153663 0.503544
Si Si4 0.830801 0.825942 0.804400
Si Si5 0.833295 0.913474 0.411290
Si Si6 0.340955 0.201243 0.953602
Si Si7 0.337134 0.297508 0.853253
Si Si8 0.168645 0.583206 0.403170
O O1 0.783443 0.500000 0.217566
O O2 0.754538 0.615263 0.156352
O O3 0.781079 0.635181 0.252988
O O4 0.000000 0.589935 0.198055
O O5 0.500000 0.902450 0.620045
O O6 0.716282 0.868190 0.559697
O O7 0.703262 0.000000 0.597468
O O8 0.500000 0.139189 0.493558
O O9 0.759601 0.103842 0.464715
O O10 0.707347 0.241271 0.497258
O O11 0.742865 0.749221 0.809554
O O12 0.791201 0.882363 0.849267
O O13 0.000000 0.807470 0.804774
O O14 0.752680 0.871773 0.365428
O O15 0.000000 0.887739 0.413325
O O16 0.820201 0.000000 0.399893
O O17 0.500000 0.169724 0.964723
O O18 0.340128 0.248245 0.902833
O O19 0.235404 0.131228 0.948822
O O20 0.500000 0.317679 0.836050
O O21 0.231532 0.500000 0.405011
O O22 0.000000 0.582722 0.412126
#
# Coordination Sequence:
#
# PCOD8177863 Si02
#       8
#     8   8   8   8   8   8   8   8
#     4   9  17  28  41  58  81 108 137 169 203 237
#     4   9  17  28  41  57  78 105 136 169 202 234
#     4   9  17  29  43  57  77 107 139 168 201 240
#     4   9  16  27  42  57  77 106 136 165 197 232
#     4  10  19  28  40  60  83 106 134 166 198 235
#     4   8  15  26  38  54  75  99 128 161 195 230
#     4   9  17  28  41  57  78 104 133 164 197 234
#     4   9  16  25  38  56  77 102 131 159 189 229
#
# _framework density 14.420947
#
# number of rings (size 3 to 8) (size 9 to 14) (size 15 to 20)
#    0.000    3.000    0.000    2.250    0.000    7.250 
#    0.000    1.250    0.000    2.250    0.000    0.000 
#    0.000    1.000    0.000    6.500    0.000    4.875 
#
# Total GULP energy -396714.822852 kJ/mol
# GULP energy per Si atom -12397.338214 kJ/mol
# Density = 1.438812 g / cm^3
# Si number density = 14.420947 Si / 1000 Ang^3
#
#
#
# Elastic Constant Matrix: (Units=GPa)
#
#
# Indices 1 2 3 4 5 6 
#
# 1 62.8211 46.7659 39.3368 0.0000 0.0000 0.0000
# 2 46.7659 86.8500 53.4577 0.0000 0.0000 0.0000
# 3 39.3368 53.4577 90.0101 0.0000 0.0000 0.0000
# 4 0.0000 0.0000 0.0000 25.7325 0.0000 0.0000
# 5 0.0000 0.0000 0.0000 0.0000 22.4636 0.0000
# 6 0.0000 0.0000 0.0000 0.0000 0.0000 22.9920
#
#
#
# Elastic Compliance Matrix: (Units=1/GPa)
#
#
# Indices 1 2 3 4 5 6 
#
# 1 0.028019 -0.011901 -0.005177 0.000000 0.000000 0.000000
# 2 -0.011901 0.023203 -0.008580 0.000000 0.000000 0.000000
# 3 -0.005177 -0.008580 0.018468 0.000000 0.000000 0.000000
# 4 0.000000 0.000000 0.000000 0.038861 0.000000 0.000000
# 5 0.000000 0.000000 0.000000 0.000000 0.044516 0.000000
# 6 0.000000 0.000000 0.000000 0.000000 0.000000 0.043493
#
#
# Mechanical properties :
#
#
# Convention : Reuss Voigt Hill
#
# Bulk Modulus (GPa) = 54.42107 57.64468 56.03287
# Shear Modulus (GPa) = 19.68487 20.91235 20.29861
#
# Velocity S-wave (km/s) = 3.69862 3.81220 3.75584
# Velocity P-wave (km/s) = 7.48727 7.70953 7.59921
#
# Compressibility (1/GPa) = 0.01837524
#
# Stress axis : x y z
#
# Youngs Moduli (GPa) = 35.68948 43.09739 54.14796
#
# Poissons Ratio (x) = 0.51290 0.28033
# Poissons Ratio (y) = 0.42474 0.46457
# Poissons Ratio (z) = 0.18477 0.36976
#
# Static dielectric constant tensor:
#      x y z
#    x 2.908030 0.000000 0.000000 
#    y 0.000000 2.876500 0.000000 
#    z 0.000000 0.000000 2.702720 
# 
# 
# High freq. dielectric constant tensor:
#      x y z
#    x 1.556820 0.000000 0.000000 
#    y 0.000000 1.537860 0.000000 
#    z 0.000000 0.000000 1.518990 
# 
# From -- ./inp_files/22263.got.cif
#   From: 2010.03.12/outbox.cif.g09.slc.cpg/sg38_12_cif.got.tgz:22263.got - 2010.04.14 02:38:36.
