data_PCOD8177028
_publ_section_title
;
Structure prediction by ZEFSAII (Michael W. Deem and Ramdas Pophale) SiO2 
 PCOD8177028
Probable space group: C C C 2
;
_chemical_formula_sum "Si O2"
_cell_formula_units_Z 28
_cell_length_a 22.487119
_cell_length_b 5.305844
_cell_length_c 8.113316
_cell_angle_alpha 90.000000
_cell_angle_beta 90.000000
_cell_angle_gamma 90.000000
_cell_volume 968.025252
_symmetry_space_group_name_H-M "C C C 2"
_symmetry_group_IT_number 37
_symmetry_cell_setting 'orthorhombic'
loop_
_space_group_symop_operation_xyz
x,y,z
-x,-y,z
-x,y,1/2+z
x,-y,1/2+z
1/2+x,1/2+y,z
1/2-x,1/2-y,z
1/2-x,1/2+y,1/2+z
1/2+x,1/2-y,1/2+z
loop_
_atom_site_type_symbol
_atom_site_label
_atom_site_fract_x
_atom_site_fract_y
_atom_site_fract_z
Si Si1 0.678816 0.112309 0.016960
Si Si2 0.750000 0.250000 0.721676
Si Si3 0.602686 0.771036 0.808129
Si Si4 0.500000 0.000000 0.658002
Si Si5 0.000000 0.000000 0.951814
O O1 0.643189 0.285654 0.146516
O O2 0.738727 0.997974 0.108025
O O3 0.694229 0.274251 0.851453
O O4 0.641660 0.862468 0.964105
O O5 0.560730 0.528213 0.843901
O O6 0.558443 0.008770 0.772853
O O7 0.493386 0.251820 0.556346
#
# Coordination Sequence:
#
# PCOD8177028 Si02
#       5
#     8   4   8   4   4
#     4  10  24  52  82 117 173 217 291 365 440 506
#     4  10  24  50  80 114 160 218 294 366 424 516
#     4  11  24  50  80 116 176 226 280 352 447 513
#     4  12  26  50  76 124 174 222 280 352 420 550
#     4  12  26  50  80 122 174 222 284 352 418 548
#
# _framework density 28.924863999999999
#
# number of rings (size 3 to 8) (size 9 to 14) (size 15 to 20)
#    0.000    1.143    2.857    1.714    0.000    4.571 
#   15.429    0.000    0.000    0.000    0.000    0.000 
#    0.000    0.000    0.000    0.000    0.000    0.000 
#
# Total GULP energy -173453.896758 kJ/mol
# GULP energy per Si atom -12389.564054 kJ/mol
# Density = 2.885903 g / cm^3
# Si number density = 28.924864 Si / 1000 Ang^3
#
#
#
# Elastic Constant Matrix: (Units=GPa)
#
#
# Indices 1 2 3 4 5 6 
#
# 1 147.7631 37.4646 43.7353 0.0000 0.0000 0.0000
# 2 37.4646 150.1817 70.3375 0.0000 0.0000 0.0000
# 3 43.7353 70.3375 144.6824 0.0000 0.0000 0.0000
# 4 0.0000 0.0000 0.0000 60.8787 0.0000 0.0000
# 5 0.0000 0.0000 0.0000 0.0000 70.7403 0.0000
# 6 0.0000 0.0000 0.0000 0.0000 0.0000 55.6230
#
#
#
# Elastic Compliance Matrix: (Units=1/GPa)
#
#
# Indices 1 2 3 4 5 6 
#
# 1 0.007560 -0.001056 -0.001772 0.000000 0.000000 0.000000
# 2 -0.001056 0.008769 -0.003944 0.000000 0.000000 0.000000
# 3 -0.001772 -0.003944 0.009365 0.000000 0.000000 0.000000
# 4 0.000000 0.000000 0.000000 0.016426 0.000000 0.000000
# 5 0.000000 0.000000 0.000000 0.000000 0.014136 0.000000
# 6 0.000000 0.000000 0.000000 0.000000 0.000000 0.017978
#
#
# Mechanical properties :
#
#
# Convention : Reuss Voigt Hill
#
# Bulk Modulus (GPa) = 82.30437 82.85578 82.58007
# Shear Modulus (GPa) = 54.44986 56.85438 55.65212
#
# Velocity S-wave (km/s) = 4.34344 4.43831 4.39113
# Velocity P-wave (km/s) = 7.32600 7.41432 7.37029
#
# Compressibility (1/GPa) = 0.01215002
#
# Stress axis : x y z
#
# Youngs Moduli (GPa) = 132.27916 114.03585 106.78498
#
# Poissons Ratio (x) = 0.12043 0.18920
# Poissons Ratio (y) = 0.13969 0.42115
# Poissons Ratio (z) = 0.23437 0.44975
#
# Static dielectric constant tensor:
#      x y z
#    x 4.976460 0.000000 0.000000 
#    y 0.000000 6.060160 0.000000 
#    z 0.000000 0.000000 6.071730 
# 
# 
# High freq. dielectric constant tensor:
#      x y z
#    x 2.189740 0.000000 0.000000 
#    y 0.000000 2.142530 0.000000 
#    z 0.000000 0.000000 2.201800 
# 
# From -- ./inp_files/1670.got.cif
#   From: 2010.03.12/outbox.cif.g09.slc.cpg/sg37_1_cif.got.tgz:1670.got - 2010.04.14 02:25:27.
