data_PCOD8177957
_publ_section_title
;
Structure prediction by ZEFSAII (Michael W. Deem and Ramdas Pophale) SiO2 
 PCOD8177957
Probable space group: A M M 2
;
_chemical_formula_sum "Si O2"
_cell_formula_units_Z 64
_cell_length_a 9.167340
_cell_length_b 19.862078
_cell_length_c 22.515674
_cell_angle_alpha 90.000000
_cell_angle_beta 90.000000
_cell_angle_gamma 90.000000
_cell_volume 4099.708458
_symmetry_space_group_name_H-M "A M M 2"
_symmetry_group_IT_number 38
_symmetry_cell_setting 'orthorhombic'
loop_
_space_group_symop_operation_xyz
x,y,z
-x,-y,z
-x,y,z
x,-y,z
x,1/2+y,1/2+z
-x,1/2-y,1/2+z
-x,1/2+y,1/2+z
x,1/2-y,1/2+z
loop_
_atom_site_type_symbol
_atom_site_label
_atom_site_fract_x
_atom_site_fract_y
_atom_site_fract_z
Si Si1 0.671162 0.183864 0.147970
Si Si2 0.329084 0.306474 0.510680
Si Si3 0.159687 0.650446 0.335272
Si Si4 0.663662 0.647346 0.826640
Si Si5 0.171455 0.076972 0.947196
Si Si6 0.659330 0.721444 0.247278
Si Si7 0.830841 0.921677 0.223977
Si Si8 0.835908 0.279293 0.918871
O O1 0.500000 0.170314 0.160944
O O2 0.725691 0.248681 0.186136
O O3 0.759920 0.118189 0.168732
O O4 0.701490 0.201432 0.080183
O O5 0.500000 0.304736 0.495281
O O6 0.264164 0.378579 0.492438
O O7 0.249894 0.244881 0.477558
O O8 0.221855 0.592659 0.379285
O O9 0.250806 0.659439 0.274882
O O10 0.155980 0.718806 0.372534
O O11 0.000000 0.629803 0.313375
O O12 0.500000 0.620053 0.839596
O O13 0.652720 0.718325 0.794052
O O14 0.750519 0.594475 0.785911
O O15 0.750067 0.658190 0.888728
O O16 0.000000 0.095034 0.953776
O O17 0.203952 0.000000 0.962597
O O18 0.500000 0.691717 0.234810
O O19 0.000000 0.901000 0.230137
O O20 0.812998 0.000000 0.209444
O O21 0.000000 0.302144 0.936232
#
# Coordination Sequence:
#
# PCOD8177957 Si02
#       8
#     8   8   8   8   8   8   8   8
#     4   9  19  32  43  57  81 114 147 177 212 253
#     4  10  19  30  43  60  83 111 145 181 213 249
#     4   8  14  24  39  58  76  97 127 163 203 245
#     4   9  16  27  44  63  82 106 136 172 215 258
#     4   9  18  31  43  56  80 113 143 171 207 250
#     4   8  14  25  40  57  76  99 128 164 207 249
#     4  10  20  31  43  61  85 114 148 183 216 252
#     4   9  16  27  43  62  83 106 134 170 213 258
#
# _framework density 15.610867000000001
#
# number of rings (size 3 to 8) (size 9 to 14) (size 15 to 20)
#    0.000    3.000    0.000    3.000    0.000    8.750 
#    0.000    2.500    0.000    0.000    0.000    0.000 
#    0.000    1.000    0.000    8.000    0.000    2.625 
#
# Total GULP energy -396608.400992 kJ/mol
# GULP energy per Si atom -12394.012531 kJ/mol
# Density = 1.557534 g / cm^3
# Si number density = 15.610867 Si / 1000 Ang^3
#
#
#
# Elastic Constant Matrix: (Units=GPa)
#
#
# Indices 1 2 3 4 5 6 
#
# 1 96.3459 20.9893 54.8457 0.0000 0.0000 0.0000
# 2 20.9893 12.8467 32.6240 0.0000 0.0000 0.0000
# 3 54.8457 32.6240 102.7302 0.0000 0.0000 0.0000
# 4 0.0000 0.0000 0.0000 14.4927 0.0000 0.0000
# 5 0.0000 0.0000 0.0000 0.0000 21.0199 0.0000
# 6 0.0000 0.0000 0.0000 0.0000 0.0000 17.7479
#
#
#
# Elastic Compliance Matrix: (Units=1/GPa)
#
#
# Indices 1 2 3 4 5 6 
#
# 1 0.016146 -0.023198 -0.001253 0.000000 0.000000 0.000000
# 2 -0.023198 0.435539 -0.125929 0.000000 0.000000 0.000000
# 3 -0.001253 -0.125929 0.050395 0.000000 0.000000 0.000000
# 4 0.000000 0.000000 0.000000 0.069000 0.000000 0.000000
# 5 0.000000 0.000000 0.000000 0.000000 0.047574 0.000000
# 6 0.000000 0.000000 0.000000 0.000000 0.000000 0.056345
#
#
# Mechanical properties :
#
#
# Convention : Reuss Voigt Hill
#
# Bulk Modulus (GPa) = 4.96722 47.64898 26.30810
# Shear Modulus (GPa) = 4.79447 17.54968 11.17207
#
# Velocity S-wave (km/s) = 1.75440 3.35654 2.67808
# Velocity P-wave (km/s) = 2.70050 6.75359 5.14314
#
# Compressibility (1/GPa) = 0.20131976
#
# Stress axis : x y z
#
# Youngs Moduli (GPa) = 61.93296 2.29600 19.84330
#
# Poissons Ratio (x) = 0.05326 0.02487
# Poissons Ratio (y) = 1.43669 2.49886
# Poissons Ratio (z) = 0.07763 0.28913
#
# Static dielectric constant tensor:
#      x y z
#    x 3.243670 0.000000 0.000000 
#    y 0.000000 2.710620 0.000000 
#    z 0.000000 0.000000 2.955890 
# 
# 
# High freq. dielectric constant tensor:
#      x y z
#    x 1.611780 0.000000 0.000000 
#    y 0.000000 1.553030 0.000000 
#    z 0.000000 0.000000 1.583240 
# 
# From -- ./inp_files/20249.got.cif
#   From: 2010.03.12/outbox.cif.g09.slc.cpg/sg38_11_cif.got.tgz:20249.got - 2010.04.14 02:38:36.
