data_PCOD8177753
_publ_section_title
;
Structure prediction by ZEFSAII (Michael W. Deem and Ramdas Pophale) SiO2 
 PCOD8177753
Probable space group: A M M 2
;
_chemical_formula_sum "Si O2"
_cell_formula_units_Z 48
_cell_length_a 18.988332
_cell_length_b 7.787239
_cell_length_c 15.534242
_cell_angle_alpha 90.000000
_cell_angle_beta 90.000000
_cell_angle_gamma 90.000000
_cell_volume 2296.996783
_symmetry_space_group_name_H-M "A M M 2"
_symmetry_group_IT_number 38
_symmetry_cell_setting 'orthorhombic'
loop_
_space_group_symop_operation_xyz
x,y,z
-x,-y,z
-x,y,z
x,-y,z
x,1/2+y,1/2+z
-x,1/2-y,1/2+z
-x,1/2+y,1/2+z
x,1/2-y,1/2+z
loop_
_atom_site_type_symbol
_atom_site_label
_atom_site_fract_x
_atom_site_fract_y
_atom_site_fract_z
Si Si1 0.579471 0.000000 0.310830
Si Si2 0.674677 0.189186 0.807803
Si Si3 0.824192 0.699508 0.862100
Si Si4 0.421530 0.000000 0.105588
Si Si5 0.078539 0.202575 0.706383
Si Si6 0.676123 0.196397 0.605166
Si Si7 0.828303 0.798908 0.553118
O O1 0.620681 0.831053 0.344783
O O2 0.577031 0.000000 0.208358
O O3 0.500000 0.000000 0.348192
O O4 0.751467 0.201082 0.849544
O O5 0.685266 0.212662 0.706743
O O6 0.643645 0.000000 0.828530
O O7 0.806443 0.500000 0.854088
O O8 0.883284 0.752200 0.794840
O O9 0.854545 0.745867 0.956928
O O10 0.383999 0.173757 0.071802
O O11 0.500000 0.000000 0.067591
O O12 0.120140 0.284719 0.624699
O O13 0.000000 0.281781 0.708227
O O14 0.074209 0.000000 0.696449
O O15 0.748380 0.265537 0.563842
O O16 0.657437 0.000000 0.577844
O O17 0.827362 0.000000 0.570819
#
# Coordination Sequence:
#
# PCOD8177753 Si02
#       7
#     4   8   8   4   8   8   8
#     4   9  18  32  52  84 120 155 194 245 307 358
#     4  10  18  32  56  83 114 153 199 249 295 352
#     4  11  21  35  59  88 116 151 204 251 291 353
#     4   9  18  30  50  84 116 147 190 241 301 352
#     4  10  21  39  60  83 118 156 192 243 306 361
#     4   9  17  32  54  78 111 151 194 242 288 349
#     4   9  19  36  58  84 111 153 202 240 289 356
#
# _framework density 20.896851000000002
#
# number of rings (size 3 to 8) (size 9 to 14) (size 15 to 20)
#    0.000    2.333    2.500    0.500    0.000    1.667 
#    3.000    5.000    0.000    1.000    0.000    0.000 
#    0.000    0.000    0.000    0.000    0.000    0.000 
#
# Total GULP energy -297544.580616 kJ/mol
# GULP energy per Si atom -12397.690859 kJ/mol
# Density = 2.084929 g / cm^3
# Si number density = 20.896851 Si / 1000 Ang^3
#
#
#
# Elastic Constant Matrix: (Units=GPa)
#
#
# Indices 1 2 3 4 5 6 
#
# 1 176.9384 59.9747 71.3221 0.0000 0.0000 0.0000
# 2 59.9747 93.6485 20.7756 0.0000 0.0000 0.0000
# 3 71.3221 20.7756 74.6116 0.0000 0.0000 0.0000
# 4 0.0000 0.0000 0.0000 18.7044 0.0000 0.0000
# 5 0.0000 0.0000 0.0000 0.0000 68.0065 0.0000
# 6 0.0000 0.0000 0.0000 0.0000 0.0000 24.5973
#
#
#
# Elastic Compliance Matrix: (Units=1/GPa)
#
#
# Indices 1 2 3 4 5 6 
#
# 1 0.011056 -0.005048 -0.009163 0.000000 0.000000 0.000000
# 2 -0.005048 0.013686 0.001014 0.000000 0.000000 0.000000
# 3 -0.009163 0.001014 0.021880 0.000000 0.000000 0.000000
# 4 0.000000 0.000000 0.000000 0.053463 0.000000 0.000000
# 5 0.000000 0.000000 0.000000 0.000000 0.014704 0.000000
# 6 0.000000 0.000000 0.000000 0.000000 0.000000 0.040655
#
#
# Mechanical properties :
#
#
# Convention : Reuss Voigt Hill
#
# Bulk Modulus (GPa) = 49.43535 72.14924 60.79230
# Shear Modulus (GPa) = 26.51384 35.13672 30.82528
#
# Velocity S-wave (km/s) = 3.56588 4.10498 3.84489
# Velocity P-wave (km/s) = 6.37669 7.55441 6.99040
#
# Compressibility (1/GPa) = 0.02022844
#
# Stress axis : x y z
#
# Youngs Moduli (GPa) = 90.44586 73.06757 45.70479
#
# Poissons Ratio (x) = 0.36884 0.41881
# Poissons Ratio (y) = 0.45656 -0.04637
# Poissons Ratio (z) = 0.82878 -0.07413
#
# Static dielectric constant tensor:
#      x y z
#    x 3.837320 0.000000 0.000000 
#    y 0.000000 3.824910 0.000000 
#    z 0.000000 0.000000 3.622070 
# 
# 
# High freq. dielectric constant tensor:
#      x y z
#    x 1.807920 0.000000 0.000000 
#    y 0.000000 1.812950 0.000000 
#    z 0.000000 0.000000 1.803500 
# 
# From -- ./inp_files/15023.got.cif
#   From: 2010.03.12/outbox.cif.g09.slc.cpg/sg38_8_cif.got.tgz:15023.got - 2010.04.14 02:38:36.
