data_PCOD8177612
_publ_section_title
;
Structure prediction by ZEFSAII (Michael W. Deem and Ramdas Pophale) SiO2 
 PCOD8177612
Probable space group: A M M 2
;
_chemical_formula_sum "Si O2"
_cell_formula_units_Z 64
_cell_length_a 14.644183
_cell_length_b 8.604555
_cell_length_c 24.710560
_cell_angle_alpha 90.000000
_cell_angle_beta 90.000000
_cell_angle_gamma 90.000000
_cell_volume 3113.695578
_symmetry_space_group_name_H-M "A M M 2"
_symmetry_group_IT_number 38
_symmetry_cell_setting 'orthorhombic'
loop_
_space_group_symop_operation_xyz
x,y,z
-x,-y,z
-x,y,z
x,-y,z
x,1/2+y,1/2+z
-x,1/2-y,1/2+z
-x,1/2+y,1/2+z
x,1/2-y,1/2+z
loop_
_atom_site_type_symbol
_atom_site_label
_atom_site_fract_x
_atom_site_fract_y
_atom_site_fract_z
Si Si1 0.843133 0.322596 0.171230
Si Si2 0.659250 0.320357 0.639545
Si Si3 0.295043 0.183276 0.528946
Si Si4 0.100691 0.178814 0.279948
Si Si5 0.714098 0.320965 0.830407
Si Si6 0.600548 0.675084 0.241427
Si Si7 0.902906 0.320973 0.053837
Si Si8 0.394361 0.680678 0.427211
O O1 0.807549 0.500000 0.174782
O O2 0.758955 0.206471 0.164507
O O3 0.896627 0.281107 0.225725
O O4 0.906274 0.302040 0.118752
O O5 0.633472 0.500000 0.638629
O O6 0.649650 0.255809 0.578825
O O7 0.590718 0.229246 0.679181
O O8 0.190278 0.252130 0.528350
O O9 0.348409 0.221480 0.474690
O O10 0.290404 0.000000 0.537901
O O11 0.178716 0.225094 0.323818
O O12 0.000000 0.203705 0.306250
O O13 0.116033 0.000000 0.263312
O O14 0.702778 0.500000 0.847854
O O15 0.667456 0.292134 0.772506
O O16 0.663859 0.212054 0.873472
O O17 0.500000 0.681481 0.267871
O O18 0.639503 0.500000 0.245076
O O19 0.903287 0.500000 0.037096
O O20 0.000000 0.246389 0.032737
O O21 0.500000 0.732159 0.419461
O O22 0.388399 0.500000 0.441562
#
# Coordination Sequence:
#
# PCOD8177612 Si02
#       8
#     8   8   8   8   8   8   8   8
#     4  10  18  30  52  82 118 161 206 247 290 343
#     4  11  21  35  56  84 122 163 198 241 297 355
#     4  10  21  38  62  90 119 153 196 248 299 353
#     4  10  21  36  55  84 122 161 200 243 295 354
#     4  11  23  40  63  89 119 155 196 247 300 355
#     4  11  23  38  58  86 120 157 196 243 300 361
#     4   8  15  29  51  83 120 155 193 234 281 341
#     4  11  25  45  67  88 112 149 198 252 307 364
#
# _framework density 20.554355000000001
#
# number of rings (size 3 to 8) (size 9 to 14) (size 15 to 20)
#    0.000    1.750    1.250    4.500    0.000    5.250 
#    0.000    0.625    0.000   11.250    0.000    0.000 
#    0.000    0.000    0.000    0.000    0.000    0.000 
#
# Total GULP energy -396646.895780 kJ/mol
# GULP energy per Si atom -12395.215493 kJ/mol
# Density = 2.050757 g / cm^3
# Si number density = 20.554355 Si / 1000 Ang^3
#
#
#
# Elastic Constant Matrix: (Units=GPa)
#
#
# Indices 1 2 3 4 5 6 
#
# 1 129.5739 21.3673 41.3673 0.0000 0.0000 0.0000
# 2 21.3673 64.5632 12.4295 0.0000 0.0000 0.0000
# 3 41.3673 12.4295 82.5563 0.0000 0.0000 0.0000
# 4 0.0000 0.0000 0.0000 32.8019 0.0000 0.0000
# 5 0.0000 0.0000 0.0000 0.0000 22.0761 0.0000
# 6 0.0000 0.0000 0.0000 0.0000 0.0000 21.6193
#
#
#
# Elastic Compliance Matrix: (Units=1/GPa)
#
#
# Indices 1 2 3 4 5 6 
#
# 1 0.009507 -0.002296 -0.004418 0.000000 0.000000 0.000000
# 2 -0.002296 0.016505 -0.001335 0.000000 0.000000 0.000000
# 3 -0.004418 -0.001335 0.014528 0.000000 0.000000 0.000000
# 4 0.000000 0.000000 0.000000 0.030486 0.000000 0.000000
# 5 0.000000 0.000000 0.000000 0.000000 0.045298 0.000000
# 6 0.000000 0.000000 0.000000 0.000000 0.000000 0.046255
#
#
# Mechanical properties :
#
#
# Convention : Reuss Voigt Hill
#
# Bulk Modulus (GPa) = 40.91151 47.44684 44.17918
# Shear Modulus (GPa) = 26.76332 28.73475 27.74903
#
# Velocity S-wave (km/s) = 3.61234 3.74302 3.67826
# Velocity P-wave (km/s) = 6.11113 6.46638 6.29126
#
# Compressibility (1/GPa) = 0.02444300
#
# Stress axis : x y z
#
# Youngs Moduli (GPa) = 105.18974 60.58620 68.83427
#
# Poissons Ratio (x) = 0.13909 0.30411
# Poissons Ratio (y) = 0.24148 0.09187
# Poissons Ratio (z) = 0.46472 0.08086
#
# Static dielectric constant tensor:
#      x y z
#    x 4.000190 0.000000 0.000000 
#    y 0.000000 3.530300 0.000000 
#    z 0.000000 0.000000 3.512190 
# 
# 
# High freq. dielectric constant tensor:
#      x y z
#    x 1.815860 0.000000 0.000000 
#    y 0.000000 1.791480 0.000000 
#    z 0.000000 0.000000 1.780030 
# 
# From -- ./inp_files/22988.got.cif
#   From: 2010.03.12/outbox.cif.g09.slc.cpg/sg38_12_cif.got.tgz:22988.got - 2010.04.14 02:38:36.
