data_PCOD8177690
_publ_section_title
;
Structure prediction by ZEFSAII (Michael W. Deem and Ramdas Pophale) SiO2 
 PCOD8177690
Probable space group: A M M 2
;
_chemical_formula_sum "Si O2"
_cell_formula_units_Z 64
_cell_length_a 8.759740
_cell_length_b 29.143495
_cell_length_c 12.750553
_cell_angle_alpha 90.000000
_cell_angle_beta 90.000000
_cell_angle_gamma 90.000000
_cell_volume 3255.081521
_symmetry_space_group_name_H-M "A M M 2"
_symmetry_group_IT_number 38
_symmetry_cell_setting 'orthorhombic'
loop_
_space_group_symop_operation_xyz
x,y,z
-x,-y,z
-x,y,z
x,-y,z
x,1/2+y,1/2+z
-x,1/2-y,1/2+z
-x,1/2+y,1/2+z
x,1/2-y,1/2+z
loop_
_atom_site_type_symbol
_atom_site_label
_atom_site_fract_x
_atom_site_fract_y
_atom_site_fract_z
Si Si1 0.181100 0.552983 0.429160
Si Si2 0.319456 0.101055 0.131433
Si Si3 0.679715 0.201423 0.645401
Si Si4 0.179865 0.049146 0.555824
Si Si5 0.823767 0.919720 0.339674
Si Si6 0.672137 0.200557 0.197036
Si Si7 0.672203 0.833086 0.418035
Si Si8 0.818372 0.614100 0.232949
O O1 0.239430 0.500000 0.418410
O O2 0.243856 0.576548 0.533394
O O3 0.239281 0.584572 0.332715
O O4 0.000000 0.552961 0.434115
O O5 0.500000 0.100592 0.118380
O O6 0.275599 0.072024 0.235437
O O7 0.255350 0.153388 0.148832
O O8 0.500000 0.201720 0.667483
O O9 0.752713 0.252245 0.660621
O O10 0.721307 0.189758 0.526273
O O11 0.752664 0.165638 0.728676
O O12 0.235608 0.048186 0.434835
O O13 0.250042 0.088770 0.629160
O O14 0.000000 0.056970 0.554852
O O15 0.222063 0.000000 0.606438
O O16 0.800442 0.869604 0.388704
O O17 0.000000 0.928008 0.310611
O O18 0.500000 0.200882 0.154571
O O19 0.675613 0.203240 0.323351
O O20 0.500000 0.854290 0.425421
O O21 0.000000 0.616261 0.233839
#
# Coordination Sequence:
#
# PCOD8177690 Si02
#       8
#     8   8   8   8   8   8   8   8
#     4  10  22  40  61  83 112 153 195 236 287 348
#     4  10  21  38  59  81 111 147 188 236 284 333
#     4  10  19  32  54  80 108 146 191 236 285 338
#     4   9  17  30  51  78 105 136 174 215 263 323
#     4  10  18  31  54  80 106 139 179 223 274 332
#     4   8  17  33  52  77 107 147 191 231 279 339
#     4   9  17  31  50  72 105 142 178 225 278 329
#     4  10  20  36  56  80 110 143 185 234 281 333
#
# _framework density 19.661566000000001
#
# number of rings (size 3 to 8) (size 9 to 14) (size 15 to 20)
#    0.000    2.500    1.250    1.875    0.000    3.750 
#    0.000    6.875    0.000    3.750    0.000    0.000 
#    0.000    0.000    0.000    0.000    0.000    0.000 
#
# Total GULP energy -396462.632806 kJ/mol
# GULP energy per Si atom -12389.457275 kJ/mol
# Density = 1.961682 g / cm^3
# Si number density = 19.661566 Si / 1000 Ang^3
#
#
#
# Elastic Constant Matrix: (Units=GPa)
#
#
# Indices 1 2 3 4 5 6 
#
# 1 10.8747 13.0850 18.1214 0.0000 0.0000 0.0000
# 2 13.0850 109.0860 57.0474 0.0000 0.0000 0.0000
# 3 18.1214 57.0474 115.1441 0.0000 0.0000 0.0000
# 4 0.0000 0.0000 0.0000 28.1785 0.0000 0.0000
# 5 0.0000 0.0000 0.0000 0.0000 24.5669 0.0000
# 6 0.0000 0.0000 0.0000 0.0000 0.0000 22.5078
#
#
#
# Elastic Compliance Matrix: (Units=1/GPa)
#
#
# Indices 1 2 3 4 5 6 
#
# 1 0.127974 -0.006503 -0.016919 0.000000 0.000000 0.000000
# 2 -0.006503 0.012703 -0.005270 0.000000 0.000000 0.000000
# 3 -0.016919 -0.005270 0.013959 0.000000 0.000000 0.000000
# 4 0.000000 0.000000 0.000000 0.035488 0.000000 0.000000
# 5 0.000000 0.000000 0.000000 0.000000 0.040705 0.000000
# 6 0.000000 0.000000 0.000000 0.000000 0.000000 0.044429
#
#
# Mechanical properties :
#
#
# Convention : Reuss Voigt Hill
#
# Bulk Modulus (GPa) = 10.28256 45.73471 28.00863
# Shear Modulus (GPa) = 13.69639 24.84070 19.26855
#
# Velocity S-wave (km/s) = 2.64220 3.55831 3.13391
# Velocity P-wave (km/s) = 3.81437 6.33984 5.23178
#
# Compressibility (1/GPa) = 0.09725208
#
# Stress axis : x y z
#
# Youngs Moduli (GPa) = 7.81408 78.71998 71.64024
#
# Poissons Ratio (x) = 0.51190 1.21207
# Poissons Ratio (y) = 0.05081 0.37757
# Poissons Ratio (z) = 0.13221 0.41488
#
# Static dielectric constant tensor:
#      x y z
#    x 3.239860 0.000000 0.000000 
#    y 0.000000 3.809640 0.000000 
#    z 0.000000 0.000000 3.818400 
# 
# 
# High freq. dielectric constant tensor:
#      x y z
#    x 1.729150 0.000000 0.000000 
#    y 0.000000 1.766560 0.000000 
#    z 0.000000 0.000000 1.773450 
# 
# From -- ./inp_files/8621.got.cif
#   From: 2010.03.12/outbox.cif.g09.slc.cpg/sg38_5_cif.got.tgz:8621.got - 2010.04.14 02:38:36.
