data_PCOD8177667
_publ_section_title
;
Structure prediction by ZEFSAII (Michael W. Deem and Ramdas Pophale) SiO2 
 PCOD8177667
Probable space group: A M M 2
;
_chemical_formula_sum "Si O2"
_cell_formula_units_Z 64
_cell_length_a 14.621607
_cell_length_b 9.085495
_cell_length_c 24.880619
_cell_angle_alpha 90.000000
_cell_angle_beta 90.000000
_cell_angle_gamma 90.000000
_cell_volume 3305.254319
_symmetry_space_group_name_H-M "A M M 2"
_symmetry_group_IT_number 38
_symmetry_cell_setting 'orthorhombic'
loop_
_space_group_symop_operation_xyz
x,y,z
-x,-y,z
-x,y,z
x,-y,z
x,1/2+y,1/2+z
-x,1/2-y,1/2+z
-x,1/2+y,1/2+z
x,1/2-y,1/2+z
loop_
_atom_site_type_symbol
_atom_site_label
_atom_site_fract_x
_atom_site_fract_y
_atom_site_fract_z
Si Si1 0.278951 0.671022 0.450370
Si Si2 0.599564 0.165581 0.245695
Si Si3 0.100751 0.329325 0.918826
Si Si4 0.857413 0.827357 0.299195
Si Si5 0.604103 0.324745 0.550104
Si Si6 0.319502 0.669983 0.330884
Si Si7 0.727393 0.173905 0.148916
Si Si8 0.898199 0.669556 0.191591
O O1 0.261417 0.500000 0.459799
O O2 0.178396 0.743351 0.451721
O O3 0.346132 0.734073 0.496067
O O4 0.329806 0.702599 0.393994
O O5 0.500000 0.170268 0.217593
O O6 0.592857 0.277076 0.297022
O O7 0.673782 0.218500 0.202566
O O8 0.621240 0.000000 0.265322
O O9 0.125394 0.500000 0.923785
O O10 0.096424 0.284438 0.855963
O O11 0.000000 0.294663 0.943207
O O12 0.753479 0.776949 0.302998
O O13 0.904376 0.742627 0.250408
O O14 0.864420 0.000000 0.286995
O O15 0.500000 0.261742 0.553315
O O16 0.598939 0.500000 0.550136
O O17 0.666744 0.267834 0.599127
O O18 0.295345 0.500000 0.321218
O O19 0.826406 0.251525 0.151513
O O20 0.742914 0.000000 0.144286
O O21 0.869163 0.500000 0.198017
O O22 0.000000 0.683088 0.166131
#
# Coordination Sequence:
#
# PCOD8177667 Si02
#       8
#     8   8   8   8   8   8   8   8
#     4   9  19  34  54  81 110 141 181 227 274 322
#     4  10  20  33  51  78 109 141 178 222 275 332
#     4   9  18  32  51  77 110 148 186 222 266 320
#     4  10  18  31  52  77 107 145 188 228 265 314
#     4   9  18  36  62  86 106 135 181 234 280 322
#     4  10  19  31  49  77 114 150 180 216 271 330
#     4  10  20  36  59  82 105 139 184 231 274 320
#     4  11  23  36  52  78 113 149 181 219 272 329
#
# _framework density 19.363109000000001
#
# number of rings (size 3 to 8) (size 9 to 14) (size 15 to 20)
#    0.000    2.250    1.250    1.875    0.000    5.000 
#    0.000    2.500    0.000    6.000    0.000    0.000 
#    0.000    0.000    0.000    0.000    0.000    0.000 
#
# Total GULP energy -396620.231457 kJ/mol
# GULP energy per Si atom -12394.382233 kJ/mol
# Density = 1.931904 g / cm^3
# Si number density = 19.363109 Si / 1000 Ang^3
#
#
#
# Elastic Constant Matrix: (Units=GPa)
#
#
# Indices 1 2 3 4 5 6 
#
# 1 137.4573 42.7657 65.6765 0.0000 0.0000 0.0000
# 2 42.7657 58.4513 39.8227 0.0000 0.0000 0.0000
# 3 65.6765 39.8227 110.8965 0.0000 0.0000 0.0000
# 4 0.0000 0.0000 0.0000 21.1430 0.0000 0.0000
# 5 0.0000 0.0000 0.0000 0.0000 19.3511 0.0000
# 6 0.0000 0.0000 0.0000 0.0000 0.0000 24.5930
#
#
#
# Elastic Compliance Matrix: (Units=1/GPa)
#
#
# Indices 1 2 3 4 5 6 
#
# 1 0.011083 -0.004815 -0.004835 0.000000 0.000000 0.000000
# 2 -0.004815 0.024741 -0.006033 0.000000 0.000000 0.000000
# 3 -0.004835 -0.006033 0.014047 0.000000 0.000000 0.000000
# 4 0.000000 0.000000 0.000000 0.047297 0.000000 0.000000
# 5 0.000000 0.000000 0.000000 0.000000 0.051677 0.000000
# 6 0.000000 0.000000 0.000000 0.000000 0.000000 0.040662
#
#
# Mechanical properties :
#
#
# Convention : Reuss Voigt Hill
#
# Bulk Modulus (GPa) = 54.03592 67.03718 60.53655
# Shear Modulus (GPa) = 22.02244 23.58677 22.80461
#
# Velocity S-wave (km/s) = 3.37611 3.49396 3.43554
# Velocity P-wave (km/s) = 6.56998 7.13955 6.86068
#
# Compressibility (1/GPa) = 0.01850621
#
# Stress axis : x y z
#
# Youngs Moduli (GPa) = 90.22815 40.41812 71.18911
#
# Poissons Ratio (x) = 0.19461 0.34418
# Poissons Ratio (y) = 0.43445 0.42948
# Poissons Ratio (z) = 0.43622 0.24384
#
# Static dielectric constant tensor:
#      x y z
#    x 3.729450 0.000000 0.000000 
#    y 0.000000 3.321360 0.000000 
#    z 0.000000 0.000000 3.479360 
# 
# 
# High freq. dielectric constant tensor:
#      x y z
#    x 1.763020 0.000000 0.000000 
#    y 0.000000 1.734470 0.000000 
#    z 0.000000 0.000000 1.734750 
# 
# From -- ./inp_files/22918.got.cif
#   From: 2010.03.12/outbox.cif.g09.slc.cpg/sg38_12_cif.got.tgz:22918.got - 2010.04.14 02:38:36.
