data_PCOD8177924
_publ_section_title
;
Structure prediction by ZEFSAII (Michael W. Deem and Ramdas Pophale) SiO2 
 PCOD8177924
Probable space group: A M M 2
;
_chemical_formula_sum "Si O2"
_cell_formula_units_Z 48
_cell_length_a 9.033771
_cell_length_b 23.808445
_cell_length_c 13.899102
_cell_angle_alpha 90.000000
_cell_angle_beta 90.000000
_cell_angle_gamma 90.000000
_cell_volume 2989.419414
_symmetry_space_group_name_H-M "A M M 2"
_symmetry_group_IT_number 38
_symmetry_cell_setting 'orthorhombic'
loop_
_space_group_symop_operation_xyz
x,y,z
-x,-y,z
-x,y,z
x,-y,z
x,1/2+y,1/2+z
-x,1/2-y,1/2+z
-x,1/2+y,1/2+z
x,1/2-y,1/2+z
loop_
_atom_site_type_symbol
_atom_site_label
_atom_site_fract_x
_atom_site_fract_y
_atom_site_fract_z
Si Si1 0.174742 0.768195 0.259030
Si Si2 0.670316 0.563230 0.267378
Si Si3 0.673162 0.830242 0.648204
Si Si4 0.825338 0.222157 0.476211
Si Si5 0.174008 0.333996 0.578718
Si Si6 0.175798 0.937565 0.964079
O O1 0.256205 0.711841 0.225977
O O2 0.223597 0.785982 0.365842
O O3 0.220002 0.819789 0.188488
O O4 0.000000 0.755799 0.253685
O O5 0.500000 0.568202 0.298750
O O6 0.707763 0.500000 0.231811
O O7 0.706639 0.606152 0.181375
O O8 0.767267 0.579792 0.359336
O O9 0.500000 0.817501 0.641815
O O10 0.744505 0.823789 0.542519
O O11 0.771862 0.283772 0.509543
O O12 0.000000 0.214492 0.490024
O O13 0.241207 0.393271 0.542283
O O14 0.000000 0.338822 0.570451
O O15 0.000000 0.935665 0.960495
O O16 0.231960 0.000000 0.992515
#
# Coordination Sequence:
#
# PCOD8177924 Si02
#       6
#     8   8   8   8   8   8
#     4   9  17  30  47  64  86 118 148 173 209 259
#     4   9  18  31  44  60  85 115 142 170 212 261
#     4  10  19  29  44  66  89 112 141 180 219 253
#     4   9  17  29  45  62  83 114 147 177 212 258
#     4   8  14  25  41  62  85 108 137 172 210 250
#     4   9  16  26  43  66  88 111 141 176 210 247
#
# _framework density 16.056629000000001
#
# number of rings (size 3 to 8) (size 9 to 14) (size 15 to 20)
#    0.000    3.000    0.000    2.500    0.000    3.333 
#    0.000    5.000    0.000    1.000    0.000    2.333 
#    0.000    0.000    0.000    0.000    0.000    0.000 
#
# Total GULP energy -297479.371327 kJ/mol
# GULP energy per Si atom -12394.973805 kJ/mol
# Density = 1.602008 g / cm^3
# Si number density = 16.056629 Si / 1000 Ang^3
#
#
#
# Elastic Constant Matrix: (Units=GPa)
#
#
# Indices 1 2 3 4 5 6 
#
# 1 32.7877 26.1800 32.4593 0.0000 0.0000 0.0000
# 2 26.1800 111.6668 76.2312 0.0000 0.0000 0.0000
# 3 32.4593 76.2312 147.2941 0.0000 0.0000 0.0000
# 4 0.0000 0.0000 0.0000 27.5641 0.0000 0.0000
# 5 0.0000 0.0000 0.0000 0.0000 13.7110 0.0000
# 6 0.0000 0.0000 0.0000 0.0000 0.0000 18.9674
#
#
#
# Elastic Compliance Matrix: (Units=1/GPa)
#
#
# Indices 1 2 3 4 5 6 
#
# 1 0.040957 -0.005320 -0.006272 0.000000 0.000000 0.000000
# 2 -0.005320 0.014539 -0.006352 0.000000 0.000000 0.000000
# 3 -0.006272 -0.006352 0.011459 0.000000 0.000000 0.000000
# 4 0.000000 0.000000 0.000000 0.036279 0.000000 0.000000
# 5 0.000000 0.000000 0.000000 0.000000 0.072934 0.000000
# 6 0.000000 0.000000 0.000000 0.000000 0.000000 0.052722
#
#
# Mechanical properties :
#
#
# Convention : Reuss Voigt Hill
#
# Bulk Modulus (GPa) = 32.19034 62.38773 47.28903
# Shear Modulus (GPa) = 18.17298 22.50705 20.34002
#
# Velocity S-wave (km/s) = 3.36788 3.74803 3.56303
# Velocity P-wave (km/s) = 5.93423 7.59404 6.81485
#
# Compressibility (1/GPa) = 0.03106522
#
# Stress axis : x y z
#
# Youngs Moduli (GPa) = 24.41603 68.78097 87.26918
#
# Poissons Ratio (x) = 0.36594 0.54736
# Poissons Ratio (y) = 0.12990 0.55434
# Poissons Ratio (z) = 0.15314 0.43690
#
# Static dielectric constant tensor:
#      x y z
#    x 2.889390 0.000000 0.000000 
#    y 0.000000 3.292710 0.000000 
#    z 0.000000 0.000000 3.126360 
# 
# 
# High freq. dielectric constant tensor:
#      x y z
#    x 1.601740 0.000000 0.000000 
#    y 0.000000 1.609170 0.000000 
#    z 0.000000 0.000000 1.609390 
# 
# From -- ./inp_files/9312.got.cif
#   From: 2010.03.12/outbox.cif.g09.slc.cpg/sg38_5_cif.got.tgz:9312.got - 2010.04.14 02:38:36.
