data_PCOD8177353
_publ_section_title
;
Structure prediction by ZEFSAII (Michael W. Deem and Ramdas Pophale) SiO2 
 PCOD8177353
Probable space group: A M M 2
;
_chemical_formula_sum "Si O2"
_cell_formula_units_Z 64
_cell_length_a 9.052874
_cell_length_b 26.461855
_cell_length_c 18.279798
_cell_angle_alpha 90.000000
_cell_angle_beta 90.000000
_cell_angle_gamma 90.000000
_cell_volume 4379.032349
_symmetry_space_group_name_H-M "A M M 2"
_symmetry_group_IT_number 38
_symmetry_cell_setting 'orthorhombic'
loop_
_space_group_symop_operation_xyz
x,y,z
-x,-y,z
-x,y,z
x,-y,z
x,1/2+y,1/2+z
-x,1/2-y,1/2+z
-x,1/2+y,1/2+z
x,1/2-y,1/2+z
loop_
_atom_site_type_symbol
_atom_site_label
_atom_site_fract_x
_atom_site_fract_y
_atom_site_fract_z
Si Si1 0.326783 0.242366 0.004690
Si Si2 0.175006 0.555097 0.663114
Si Si3 0.829563 0.941380 0.998579
Si Si4 0.675062 0.354973 0.415417
Si Si5 0.166919 0.303368 0.290085
Si Si6 0.163131 0.296484 0.887055
Si Si7 0.324181 0.245473 0.170887
Si Si8 0.174823 0.652399 0.746470
O O1 0.500000 0.244469 0.001187
O O2 0.270614 0.249212 0.087051
O O3 0.271233 0.188966 0.971487
O O4 0.269417 0.289465 0.956179
O O5 0.238810 0.500000 0.686421
O O6 0.227678 0.568744 0.581145
O O7 0.228280 0.597073 0.720762
O O8 0.000000 0.551886 0.661373
O O9 0.729348 0.908743 0.944514
O O10 0.000000 0.924980 0.989891
O O11 0.809339 0.000000 0.977963
O O12 0.500000 0.355215 0.406448
O O13 0.747263 0.346183 0.335786
O O14 0.166494 0.252134 0.335560
O O15 0.252091 0.292546 0.214125
O O16 0.000000 0.321576 0.273639
O O17 0.210848 0.342643 0.833419
O O18 0.000000 0.305736 0.918765
O O19 0.500000 0.247991 0.179095
O O20 0.267616 0.192071 0.199974
O O21 0.000000 0.661562 0.732587
#
# Coordination Sequence:
#
# PCOD8177353 Si02
#       8
#     8   8   8   8   8   8   8   8
#     4   9  18  28  38  55  79 105 132 161 194 235
#     4   8  14  25  41  59  79 105 138 174 206 234
#     4   9  17  28  41  58  80 107 139 172 203 234
#     4  10  18  28  42  59  80 108 138 166 200 238
#     4   9  17  29  42  57  77 102 132 164 198 235
#     4   8  15  25  37  54  75  99 128 161 193 230
#     4  10  18  27  39  57  80 104 131 162 197 236
#     4   9  16  26  40  58  78 103 136 167 197 235
#
# _framework density 14.615100999999999
#
# number of rings (size 3 to 8) (size 9 to 14) (size 15 to 20)
#    0.000    3.000    0.000    3.375    0.000    4.750 
#    0.000    0.000    0.000    1.125    0.000    0.000 
#    0.000    1.000    0.000    9.250    0.000    2.500 
#
# Total GULP energy -396635.113107 kJ/mol
# GULP energy per Si atom -12394.847285 kJ/mol
# Density = 1.458184 g / cm^3
# Si number density = 14.615101 Si / 1000 Ang^3
#
#
#
# Elastic Constant Matrix: (Units=GPa)
#
#
# Indices 1 2 3 4 5 6 
#
# 1 48.5500 23.3807 35.6418 0.0000 0.0000 0.0000
# 2 23.3807 70.2319 45.5936 0.0000 0.0000 0.0000
# 3 35.6418 45.5936 96.9857 0.0000 0.0000 0.0000
# 4 0.0000 0.0000 0.0000 25.5329 0.0000 0.0000
# 5 0.0000 0.0000 0.0000 0.0000 23.2957 0.0000
# 6 0.0000 0.0000 0.0000 0.0000 0.0000 15.7720
#
#
#
# Elastic Compliance Matrix: (Units=1/GPa)
#
#
# Indices 1 2 3 4 5 6 
#
# 1 0.028942 -0.003929 -0.008789 0.000000 0.000000 0.000000
# 2 -0.003929 0.021026 -0.008440 0.000000 0.000000 0.000000
# 3 -0.008789 -0.008440 0.017509 0.000000 0.000000 0.000000
# 4 0.000000 0.000000 0.000000 0.039165 0.000000 0.000000
# 5 0.000000 0.000000 0.000000 0.000000 0.042926 0.000000
# 6 0.000000 0.000000 0.000000 0.000000 0.000000 0.063403
#
#
# Mechanical properties :
#
#
# Convention : Reuss Voigt Hill
#
# Bulk Modulus (GPa) = 39.74697 47.22222 43.48460
# Shear Modulus (GPa) = 18.96276 20.33021 19.64648
#
# Velocity S-wave (km/s) = 3.60596 3.73371 3.67039
# Velocity P-wave (km/s) = 6.67773 7.13920 6.91232
#
# Compressibility (1/GPa) = 0.02515915
#
# Stress axis : x y z
#
# Youngs Moduli (GPa) = 34.55233 47.55988 57.11506
#
# Poissons Ratio (x) = 0.18688 0.50197
# Poissons Ratio (y) = 0.13577 0.48208
# Poissons Ratio (z) = 0.30367 0.40143
#
# Static dielectric constant tensor:
#      x y z
#    x 2.782050 0.000000 0.000000 
#    y 0.000000 2.811740 0.000000 
#    z 0.000000 0.000000 2.969950 
# 
# 
# High freq. dielectric constant tensor:
#      x y z
#    x 1.556140 0.000000 0.000000 
#    y 0.000000 1.526510 0.000000 
#    z 0.000000 0.000000 1.548030 
# 
# From -- ./inp_files/17332.got.cif
#   From: 2010.03.12/outbox.cif.g09.slc.cpg/sg38_9_cif.got.tgz:17332.got - 2010.04.14 02:38:36.
