data_PCOD8177999
_publ_section_title
;
Structure prediction by ZEFSAII (Michael W. Deem and Ramdas Pophale) SiO2 
 PCOD8177999
Probable space group: A M M 2
;
_chemical_formula_sum "Si O2"
_cell_formula_units_Z 64
_cell_length_a 17.953399
_cell_length_b 9.198431
_cell_length_c 22.846626
_cell_angle_alpha 90.000000
_cell_angle_beta 90.000000
_cell_angle_gamma 90.000000
_cell_volume 3772.962686
_symmetry_space_group_name_H-M "A M M 2"
_symmetry_group_IT_number 38
_symmetry_cell_setting 'orthorhombic'
loop_
_space_group_symop_operation_xyz
x,y,z
-x,-y,z
-x,y,z
x,-y,z
x,1/2+y,1/2+z
-x,1/2-y,1/2+z
-x,1/2+y,1/2+z
x,1/2-y,1/2+z
loop_
_atom_site_type_symbol
_atom_site_label
_atom_site_fract_x
_atom_site_fract_y
_atom_site_fract_z
Si Si1 0.293817 0.832710 0.936070
Si Si2 0.917044 0.666896 0.867848
Si Si3 0.223256 0.329944 0.317162
Si Si4 0.417795 0.833702 0.135349
Si Si5 0.841579 0.334927 0.982471
Si Si6 0.206997 0.839735 0.600294
Si Si7 0.729347 0.829147 0.200912
Si Si8 0.361638 0.837425 0.531729
O O1 0.286806 0.803430 0.866503
O O2 0.214935 0.788998 0.962701
O O3 0.309766 0.000000 0.949824
O O4 0.358807 0.739472 0.967685
O O5 0.903927 0.500000 0.848943
O O6 0.856603 0.763729 0.834457
O O7 0.911753 0.680924 0.938943
O O8 0.000000 0.718304 0.849921
O O9 0.211057 0.500000 0.305691
O O10 0.254765 0.253510 0.260171
O O11 0.500000 0.814022 0.164051
O O12 0.354056 0.782688 0.180794
O O13 0.417607 0.744504 0.075072
O O14 0.401880 0.000000 0.118591
O O15 0.808100 0.500000 0.975648
O O16 0.859263 0.309761 0.052278
O O17 0.210612 0.721166 0.651744
O O18 0.280615 0.833020 0.560668
O O19 0.198109 0.000000 0.628914
O O20 0.737944 0.000000 0.210664
O O21 0.391416 0.000000 0.522613
#
# Coordination Sequence:
#
# PCOD8177999 Si02
#       8
#     8   8   8   8   8   8   8   8
#     4   9  16  26  42  64  88 115 147 185 229 273
#     4   9  17  30  49  72  97 124 155 194 241 292
#     4  10  20  32  47  68  95 127 165 205 241 282
#     4   9  18  32  49  70  96 124 154 193 243 294
#     4   8  14  25  42  65  91 117 144 178 225 276
#     4   8  14  25  41  62  89 117 144 180 225 271
#     4  10  19  30  47  69  92 123 164 204 241 283
#     4   9  16  26  43  67  92 117 145 180 225 275
#
# _framework density 16.962796000000001
#
# number of rings (size 3 to 8) (size 9 to 14) (size 15 to 20)
#    0.000    3.000    0.000    2.250    0.000    5.500 
#    0.000    0.000    0.000    1.500    0.000    5.250 
#    0.000    0.000    0.000    0.000    0.000    0.000 
#
# Total GULP energy -396429.725849 kJ/mol
# GULP energy per Si atom -12388.428933 kJ/mol
# Density = 1.692419 g / cm^3
# Si number density = 16.962796 Si / 1000 Ang^3
#
#
#
# Elastic Constant Matrix: (Units=GPa)
#
#
# Indices 1 2 3 4 5 6 
#
# 1 60.5458 36.7314 43.5843 0.0000 0.0000 0.0000
# 2 36.7314 101.3596 69.1100 0.0000 0.0000 0.0000
# 3 43.5843 69.1100 122.5325 0.0000 0.0000 0.0000
# 4 0.0000 0.0000 0.0000 28.8577 0.0000 0.0000
# 5 0.0000 0.0000 0.0000 0.0000 16.5944 0.0000
# 6 0.0000 0.0000 0.0000 0.0000 0.0000 16.0774
#
#
#
# Elastic Compliance Matrix: (Units=1/GPa)
#
#
# Indices 1 2 3 4 5 6 
#
# 1 0.023432 -0.004564 -0.005761 0.000000 0.000000 0.000000
# 2 -0.004564 0.016919 -0.007920 0.000000 0.000000 0.000000
# 3 -0.005761 -0.007920 0.014677 0.000000 0.000000 0.000000
# 4 0.000000 0.000000 0.000000 0.034653 0.000000 0.000000
# 5 0.000000 0.000000 0.000000 0.000000 0.060261 0.000000
# 6 0.000000 0.000000 0.000000 0.000000 0.000000 0.062199
#
#
# Mechanical properties :
#
#
# Convention : Reuss Voigt Hill
#
# Bulk Modulus (GPa) = 53.93584 64.80992 59.37288
# Shear Modulus (GPa) = 19.62253 21.30672 20.46462
#
# Velocity S-wave (km/s) = 3.40486 3.54797 3.47715
# Velocity P-wave (km/s) = 6.87917 7.42120 7.15532
#
# Compressibility (1/GPa) = 0.01854055
#
# Stress axis : x y z
#
# Youngs Moduli (GPa) = 42.67683 59.10355 68.13435
#
# Poissons Ratio (x) = 0.26973 0.39250
# Poissons Ratio (y) = 0.19476 0.53959
# Poissons Ratio (z) = 0.24585 0.46807
#
# Static dielectric constant tensor:
#      x y z
#    x 2.918270 0.000000 0.000000 
#    y 0.000000 3.284910 0.000000 
#    z 0.000000 0.000000 3.306940 
# 
# 
# High freq. dielectric constant tensor:
#      x y z
#    x 1.607610 0.000000 0.000000 
#    y 0.000000 1.664070 0.000000 
#    z 0.000000 0.000000 1.647490 
# 
# From -- ./inp_files/23096.got.cif
#   From: 2010.03.12/outbox.cif.g09.slc.cpg/sg38_12_cif.got.tgz:23096.got - 2010.04.14 02:38:36.
