data_PCOD8177498
_publ_section_title
;
Structure prediction by ZEFSAII (Michael W. Deem and Ramdas Pophale) SiO2 
 PCOD8177498
Probable space group: A M M 2
;
_chemical_formula_sum "Si O2"
_cell_formula_units_Z 64
_cell_length_a 9.095839
_cell_length_b 14.486319
_cell_length_c 28.151347
_cell_angle_alpha 90.000000
_cell_angle_beta 90.000000
_cell_angle_gamma 90.000000
_cell_volume 3709.368581
_symmetry_space_group_name_H-M "A M M 2"
_symmetry_group_IT_number 38
_symmetry_cell_setting 'orthorhombic'
loop_
_space_group_symop_operation_xyz
x,y,z
-x,-y,z
-x,y,z
x,-y,z
x,1/2+y,1/2+z
-x,1/2-y,1/2+z
-x,1/2+y,1/2+z
x,1/2-y,1/2+z
loop_
_atom_site_type_symbol
_atom_site_label
_atom_site_fract_x
_atom_site_fract_y
_atom_site_fract_z
Si Si1 0.325912 0.230302 0.208360
Si Si2 0.674581 0.897431 0.291923
Si Si3 0.673325 0.287963 0.439953
Si Si4 0.172793 0.605566 0.523226
Si Si5 0.332573 0.107096 0.845722
Si Si6 0.670854 0.605686 0.619983
Si Si7 0.674217 0.101310 0.397658
Si Si8 0.172786 0.105882 0.749418
O O1 0.500000 0.244163 0.210122
O O2 0.263043 0.174669 0.253816
O O3 0.278909 0.174064 0.161688
O O4 0.248042 0.330363 0.209162
O O5 0.500000 0.894592 0.289628
O O6 0.731530 0.872260 0.344827
O O7 0.729548 0.000000 0.278336
O O8 0.500000 0.300554 0.448572
O O9 0.759799 0.328109 0.484038
O O10 0.723014 0.338795 0.391884
O O11 0.720532 0.180273 0.434961
O O12 0.215249 0.500000 0.511153
O O13 0.237125 0.634217 0.573972
O O14 0.000000 0.620142 0.524596
O O15 0.500000 0.135014 0.833129
O O16 0.233247 0.134591 0.801098
O O17 0.318850 0.000000 0.858139
O O18 0.500000 0.618249 0.607897
O O19 0.703470 0.500000 0.635391
O O20 0.500000 0.096589 0.394654
O O21 0.735242 0.000000 0.413295
O O22 0.000000 0.121392 0.748972
O O23 0.214614 0.000000 0.737933
#
# Coordination Sequence:
#
# PCOD8177498 Si02
#       8
#     8   8   8   8   8   8   8   8
#     4  10  18  29  50  76  97 121 157 197 235 277
#     4   8  13  23  42  70 101 126 149 182 226 277
#     4  10  18  29  49  73  95 123 161 202 242 283
#     4  10  21  35  50  70  97 127 156 189 235 290
#     4   9  17  29  46  69  95 123 159 202 243 283
#     4   9  18  33  53  77 102 124 149 187 236 288
#     4   8  14  24  40  66  98 127 154 187 227 270
#     4  10  21  34  46  64  95 134 169 199 234 277
#
# _framework density 17.253609000000001
#
# number of rings (size 3 to 8) (size 9 to 14) (size 15 to 20)
#    0.000    2.750    0.000    3.000    0.000    6.500 
#    0.000    1.250    0.000    2.250    0.000    3.500 
#    0.000    0.000    0.000    0.000    0.000    0.000 
#
# Total GULP energy -396717.610393 kJ/mol
# GULP energy per Si atom -12397.425325 kJ/mol
# Density = 1.721434 g / cm^3
# Si number density = 17.253609 Si / 1000 Ang^3
#
#
#
# Elastic Constant Matrix: (Units=GPa)
#
#
# Indices 1 2 3 4 5 6 
#
# 1 46.5835 44.1452 47.2973 0.0000 0.0000 0.0000
# 2 44.1452 120.2377 87.4858 0.0000 0.0000 0.0000
# 3 47.2973 87.4858 116.1128 0.0000 0.0000 0.0000
# 4 0.0000 0.0000 0.0000 30.9521 0.0000 0.0000
# 5 0.0000 0.0000 0.0000 0.0000 6.8800 0.0000
# 6 0.0000 0.0000 0.0000 0.0000 0.0000 17.2154
#
#
#
# Elastic Compliance Matrix: (Units=1/GPa)
#
#
# Indices 1 2 3 4 5 6 
#
# 1 0.038484 -0.006028 -0.011134 0.000000 0.000000 0.000000
# 2 -0.006028 0.019353 -0.012126 0.000000 0.000000 0.000000
# 3 -0.011134 -0.012126 0.022284 0.000000 0.000000 0.000000
# 4 0.000000 0.000000 0.000000 0.032308 0.000000 0.000000
# 5 0.000000 0.000000 0.000000 0.000000 0.145349 0.000000
# 6 0.000000 0.000000 0.000000 0.000000 0.000000 0.058088
#
#
# Mechanical properties :
#
#
# Convention : Reuss Voigt Hill
#
# Bulk Modulus (GPa) = 46.41548 71.19898 58.80723
# Shear Modulus (GPa) = 13.10186 17.94321 15.52254
#
# Velocity S-wave (km/s) = 2.75866 3.22835 3.00270
# Velocity P-wave (km/s) = 6.09157 7.43317 6.79556
#
# Compressibility (1/GPa) = 0.02154453
#
# Stress axis : x y z
#
# Youngs Moduli (GPa) = 25.98461 51.67074 44.87446
#
# Poissons Ratio (x) = 0.31148 0.49964
# Poissons Ratio (y) = 0.15664 0.54416
# Poissons Ratio (z) = 0.28932 0.62658
#
# Static dielectric constant tensor:
#      x y z
#    x 2.909210 0.000000 0.000000 
#    y 0.000000 3.527000 0.000000 
#    z 0.000000 0.000000 3.130230 
# 
# 
# High freq. dielectric constant tensor:
#      x y z
#    x 1.634790 0.000000 0.000000 
#    y 0.000000 1.673580 0.000000 
#    z 0.000000 0.000000 1.648290 
# 
# From -- ./inp_files/24800.got.cif
#   From: 2010.03.12/outbox.cif.g09.slc.cpg/sg38_13_cif.got.tgz:24800.got - 2010.04.14 02:38:36.
