data_PCOD8177995
_publ_section_title
;
Structure prediction by ZEFSAII (Michael W. Deem and Ramdas Pophale) SiO2 
 PCOD8177995
Probable space group: A M M 2
;
_chemical_formula_sum "Si O2"
_cell_formula_units_Z 56
_cell_length_a 8.976088
_cell_length_b 13.801435
_cell_length_c 24.062191
_cell_angle_alpha 90.000000
_cell_angle_beta 90.000000
_cell_angle_gamma 90.000000
_cell_volume 2980.893883
_symmetry_space_group_name_H-M "A M M 2"
_symmetry_group_IT_number 38
_symmetry_cell_setting 'orthorhombic'
loop_
_space_group_symop_operation_xyz
x,y,z
-x,-y,z
-x,y,z
x,-y,z
x,1/2+y,1/2+z
-x,1/2-y,1/2+z
-x,1/2+y,1/2+z
x,1/2-y,1/2+z
loop_
_atom_site_type_symbol
_atom_site_label
_atom_site_fract_x
_atom_site_fract_y
_atom_site_fract_z
Si Si1 0.675916 0.213013 0.452700
Si Si2 0.168601 0.289114 0.839846
Si Si3 0.831616 0.608150 0.276799
Si Si4 0.170862 0.290823 0.621107
Si Si5 0.171899 0.109749 0.550751
Si Si6 0.173203 0.389742 0.507254
Si Si7 0.674855 0.723128 0.731438
O O1 0.500000 0.214179 0.449305
O O2 0.740047 0.178980 0.393589
O O3 0.728059 0.134471 0.497598
O O4 0.732565 0.320477 0.467411
O O5 0.170256 0.170894 0.834078
O O6 0.246140 0.331939 0.783617
O O7 0.000000 0.328703 0.844193
O O8 0.771584 0.500000 0.288442
O O9 0.725875 0.663144 0.232240
O O10 0.000000 0.605318 0.252733
O O11 0.211261 0.181741 0.601201
O O12 0.205637 0.365408 0.571564
O O13 0.272971 0.321793 0.672981
O O14 0.000000 0.297351 0.640198
O O15 0.000000 0.125042 0.533223
O O16 0.204020 0.000000 0.570062
O O17 0.220759 0.500000 0.495712
O O18 0.000000 0.371796 0.494071
O O19 0.500000 0.712658 0.737835
#
# Coordination Sequence:
#
# PCOD8177995 Si02
#       7
#     8   8   8   8   8   8   8
#     4  11  21  33  52  80 111 139 168 212 269 319
#     4   9  18  33  51  70  95 134 175 209 247 301
#     4   8  16  30  46  65  91 127 168 205 244 296
#     4   9  17  32  53  77 104 136 173 213 257 306
#     4   9  19  36  57  78 101 137 183 222 255 301
#     4   9  19  36  57  78 101 135 180 222 257 303
#     4  10  19  30  46  72 102 133 165 204 256 309
#
# _framework density 18.786311999999999
#
# number of rings (size 3 to 8) (size 9 to 14) (size 15 to 20)
#    0.857    1.857    0.000    3.429    0.000    4.286 
#    0.000    2.857    0.000    0.857    0.000    2.000 
#    0.000    0.000    0.000    0.000    0.000    0.000 
#
# Total GULP energy -347006.028731 kJ/mol
# GULP energy per Si atom -12393.072455 kJ/mol
# Density = 1.874355 g / cm^3
# Si number density = 18.786312 Si / 1000 Ang^3
#
#
#
# Elastic Constant Matrix: (Units=GPa)
#
#
# Indices 1 2 3 4 5 6 
#
# 1 121.9236 7.1309 55.3780 0.0000 0.0000 0.0000
# 2 7.1309 35.7494 -4.5448 0.0000 0.0000 0.0000
# 3 55.3780 -4.5448 106.4497 0.0000 0.0000 0.0000
# 4 0.0000 0.0000 0.0000 12.1310 0.0000 0.0000
# 5 0.0000 0.0000 0.0000 0.0000 24.9603 0.0000
# 6 0.0000 0.0000 0.0000 0.0000 0.0000 15.9194
#
#
#
# Elastic Compliance Matrix: (Units=1/GPa)
#
#
# Indices 1 2 3 4 5 6 
#
# 1 0.011040 -0.002948 -0.005869 0.000000 0.000000 0.000000
# 2 -0.002948 0.028913 0.002768 0.000000 0.000000 0.000000
# 3 -0.005869 0.002768 0.012566 0.000000 0.000000 0.000000
# 4 0.000000 0.000000 0.000000 0.082433 0.000000 0.000000
# 5 0.000000 0.000000 0.000000 0.000000 0.040064 0.000000
# 6 0.000000 0.000000 0.000000 0.000000 0.000000 0.062816
#
#
# Mechanical properties :
#
#
# Convention : Reuss Voigt Hill
#
# Bulk Modulus (GPa) = 24.74051 42.22789 33.48420
# Shear Modulus (GPa) = 18.98228 24.34604 21.66416
#
# Velocity S-wave (km/s) = 3.18218 3.60383 3.39955
# Velocity P-wave (km/s) = 5.16717 6.31218 5.76816
#
# Compressibility (1/GPa) = 0.04041954
#
# Stress axis : x y z
#
# Youngs Moduli (GPa) = 90.57868 34.58708 79.58211
#
# Poissons Ratio (x) = 0.10197 0.46709
# Poissons Ratio (y) = 0.26706 -0.22030
# Poissons Ratio (z) = 0.53163 -0.09574
#
# Static dielectric constant tensor:
#      x y z
#    x 3.272830 0.000000 0.000000 
#    y 0.000000 3.213460 0.000000 
#    z 0.000000 0.000000 3.276270 
# 
# 
# High freq. dielectric constant tensor:
#      x y z
#    x 1.721250 0.000000 0.000000 
#    y 0.000000 1.697280 0.000000 
#    z 0.000000 0.000000 1.723130 
# 
# From -- ./inp_files/19823.got.cif
#   From: 2010.03.12/outbox.cif.g09.slc.cpg/sg38_10_cif.got.tgz:19823.got - 2010.04.14 02:38:36.
