data_PCOD8177141
_publ_section_title
;
Structure prediction by ZEFSAII (Michael W. Deem and Ramdas Pophale) SiO2 
 PCOD8177141
Probable space group: C C C 2
;
_chemical_formula_sum "Si O2"
_cell_formula_units_Z 48
_cell_length_a 7.521198
_cell_length_b 34.535450
_cell_length_c 8.806193
_cell_angle_alpha 90.000000
_cell_angle_beta 90.000000
_cell_angle_gamma 90.000000
_cell_volume 2287.390645
_symmetry_space_group_name_H-M "C C C 2"
_symmetry_group_IT_number 37
_symmetry_cell_setting 'orthorhombic'
loop_
_space_group_symop_operation_xyz
x,y,z
-x,-y,z
-x,y,1/2+z
x,-y,1/2+z
1/2+x,1/2+y,z
1/2-x,1/2-y,z
1/2-x,1/2+y,1/2+z
1/2+x,1/2-y,1/2+z
loop_
_atom_site_type_symbol
_atom_site_label
_atom_site_fract_x
_atom_site_fract_y
_atom_site_fract_z
Si Si1 0.318673 0.542385 0.951250
Si Si2 0.314490 0.707777 0.346912
Si Si3 0.487435 0.096525 0.558219
Si Si4 0.693059 0.707077 0.206783
Si Si5 0.505953 0.847660 0.808797
Si Si6 0.803197 0.960719 0.088879
O O1 0.322139 0.537894 0.770137
O O2 0.193128 0.576923 0.003422
O O3 0.249001 0.503055 0.028778
O O4 0.514282 0.552775 0.011297
O O5 0.250000 0.750000 0.295608
O O6 0.504202 0.697377 0.279051
O O7 0.319564 0.703915 0.527013
O O8 0.176367 0.678235 0.271857
O O9 0.480011 0.109528 0.733112
O O10 0.507668 0.139321 0.483977
O O11 0.653639 0.068546 0.531593
O O12 0.750000 0.750000 0.258758
O O13 0.827799 0.675613 0.272140
#
# Coordination Sequence:
#
# PCOD8177141 Si02
#       6
#     8   8   8   8   8   8
#     4  11  25  44  71 101 136 182 227 277 329 404
#     4  11  25  44  70  97 131 174 223 282 336 408
#     4  12  27  44  68  97 145 176 228 277 341 399
#     4  11  25  44  70  98 130 174 226 277 341 403
#     4  12  26  46  63 105 135 179 224 284 342 403
#     4  11  25  44  71 102 135 183 228 273 334 399
#
# _framework density 20.984611999999998
#
# number of rings (size 3 to 8) (size 9 to 14) (size 15 to 20)
#    0.000    0.667    5.000    2.500    7.000    4.667 
#    0.000    0.000    0.000    0.000    0.000    0.000 
#    0.000    0.000    0.000    0.000    0.000    0.000 
#
# Total GULP energy -297682.902428 kJ/mol
# GULP energy per Si atom -12403.454268 kJ/mol
# Density = 2.093685 g / cm^3
# Si number density = 20.984612 Si / 1000 Ang^3
#
#
#
# Elastic Constant Matrix: (Units=GPa)
#
#
# Indices 1 2 3 4 5 6 
#
# 1 150.1398 66.0491 33.0786 0.0000 0.0000 0.0000
# 2 66.0491 107.2746 25.7217 0.0000 0.0000 0.0000
# 3 33.0786 25.7217 66.7808 0.0000 0.0000 0.0000
# 4 0.0000 0.0000 0.0000 37.0870 0.0000 0.0000
# 5 0.0000 0.0000 0.0000 0.0000 31.0913 0.0000
# 6 0.0000 0.0000 0.0000 0.0000 0.0000 40.3279
#
#
#
# Elastic Compliance Matrix: (Units=1/GPa)
#
#
# Indices 1 2 3 4 5 6 
#
# 1 0.009563 -0.005236 -0.002720 0.000000 0.000000 0.000000
# 2 -0.005236 0.013137 -0.002466 0.000000 0.000000 0.000000
# 3 -0.002720 -0.002466 0.017272 0.000000 0.000000 0.000000
# 4 0.000000 0.000000 0.000000 0.026964 0.000000 0.000000
# 5 0.000000 0.000000 0.000000 0.000000 0.032163 0.000000
# 6 0.000000 0.000000 0.000000 0.000000 0.000000 0.024797
#
#
# Mechanical properties :
#
#
# Convention : Reuss Voigt Hill
#
# Bulk Modulus (GPa) = 52.28256 63.76603 58.02429
# Shear Modulus (GPa) = 33.08714 34.99095 34.03904
#
# Velocity S-wave (km/s) = 3.97512 4.08788 4.03189
# Velocity P-wave (km/s) = 6.78510 7.26182 7.02750
#
# Compressibility (1/GPa) = 0.01912684
#
# Stress axis : x y z
#
# Youngs Moduli (GPa) = 104.56884 76.12132 57.89786
#
# Poissons Ratio (x) = 0.39855 0.15750
# Poissons Ratio (y) = 0.54750 0.14280
# Poissons Ratio (z) = 0.28445 0.18775
#
# Static dielectric constant tensor:
#      x y z
#    x 3.822950 0.000000 0.000000 
#    y 0.000000 3.842650 0.000000 
#    z 0.000000 0.000000 3.891200 
# 
# 
# High freq. dielectric constant tensor:
#      x y z
#    x 1.832000 0.000000 0.000000 
#    y 0.000000 1.830540 0.000000 
#    z 0.000000 0.000000 1.838560 
# 
# From -- ./inp_files/2396.got.cif
#   From: 2010.03.12/outbox.cif.g09.slc.cpg/sg37_2_cif.got.tgz:2396.got - 2010.04.14 02:25:27.
