data_PCOD8177465
_publ_section_title
;
Structure prediction by ZEFSAII (Michael W. Deem and Ramdas Pophale) SiO2 
 PCOD8177465
Probable space group: A M M 2
;
_chemical_formula_sum "Si O2"
_cell_formula_units_Z 64
_cell_length_a 14.159760
_cell_length_b 9.379734
_cell_length_c 30.849069
_cell_angle_alpha 90.000000
_cell_angle_beta 90.000000
_cell_angle_gamma 90.000000
_cell_volume 4097.212384
_symmetry_space_group_name_H-M "A M M 2"
_symmetry_group_IT_number 38
_symmetry_cell_setting 'orthorhombic'
loop_
_space_group_symop_operation_xyz
x,y,z
-x,-y,z
-x,y,z
x,-y,z
x,1/2+y,1/2+z
-x,1/2-y,1/2+z
-x,1/2+y,1/2+z
x,1/2-y,1/2+z
loop_
_atom_site_type_symbol
_atom_site_label
_atom_site_fract_x
_atom_site_fract_y
_atom_site_fract_z
Si Si1 0.890688 0.836128 0.909740
Si Si2 0.607552 0.664707 0.853462
Si Si3 0.891095 0.166451 0.574826
Si Si4 0.797818 0.169367 0.486437
Si Si5 0.778166 0.668505 0.323840
Si Si6 0.397917 0.168895 0.451858
Si Si7 0.112202 0.157792 0.155330
Si Si8 0.110548 0.665373 0.752068
O O1 0.863161 0.739279 0.950229
O O2 0.831999 0.788172 0.867790
O O3 0.000000 0.811753 0.898768
O O4 0.869769 0.000000 0.921636
O O5 0.500000 0.684214 0.837539
O O6 0.638619 0.500000 0.849498
O O7 0.674330 0.761893 0.823793
O O8 0.618400 0.720188 0.902731
O O9 0.832422 0.220644 0.533423
O O10 0.848365 0.238566 0.617992
O O11 0.000000 0.208711 0.567201
O O12 0.878960 0.000000 0.581613
O O13 0.689047 0.221930 0.481383
O O14 0.807491 0.000000 0.481112
O O15 0.769556 0.500000 0.318352
O O16 0.834475 0.730271 0.283494
O O17 0.500000 0.227920 0.468885
O O18 0.402303 0.000000 0.451763
O O19 0.144750 0.205041 0.203313
O O20 0.000000 0.158009 0.154719
O O21 0.150666 0.000000 0.145128
O O22 0.133180 0.500000 0.762173
O O23 0.000000 0.694978 0.757654
#
# Coordination Sequence:
#
# PCOD8177465 Si02
#       8
#     8   8   8   8   8   8   8   8
#     4  10  21  33  41  56  89 127 156 180 212 261
#     4   9  17  31  50  68  87 116 156 197 232 269
#     4   9  17  27  40  63  92 117 144 182 226 269
#     4  10  18  29  46  66  88 116 153 191 223 262
#     4  11  21  31  45  67  95 124 152 186 232 280
#     4   8  14  26  45  66  86 111 147 191 230 260
#     4   8  15  29  47  65  85 113 149 187 226 268
#     4   9  18  32  49  68  90 118 156 196 228 267
#
# _framework density 15.620377
#
# number of rings (size 3 to 8) (size 9 to 14) (size 15 to 20)
#    0.000    2.750    1.250    2.625    0.000    3.250 
#    0.000    2.500    0.000    0.375    0.000    0.875 
#    0.000    3.000    0.000    0.000    0.000    0.000 
#
# Total GULP energy -396688.525160 kJ/mol
# GULP energy per Si atom -12396.516411 kJ/mol
# Density = 1.558482 g / cm^3
# Si number density = 15.620377 Si / 1000 Ang^3
#
#
#
# Elastic Constant Matrix: (Units=GPa)
#
#
# Indices 1 2 3 4 5 6 
#
# 1 79.1736 38.5136 44.8067 0.0000 0.0000 0.0000
# 2 38.5136 57.1272 53.0396 0.0000 0.0000 0.0000
# 3 44.8067 53.0396 110.2347 0.0000 0.0000 0.0000
# 4 0.0000 0.0000 0.0000 27.3193 0.0000 0.0000
# 5 0.0000 0.0000 0.0000 0.0000 8.2500 0.0000
# 6 0.0000 0.0000 0.0000 0.0000 0.0000 18.0148
#
#
#
# Elastic Compliance Matrix: (Units=1/GPa)
#
#
# Indices 1 2 3 4 5 6 
#
# 1 0.019280 -0.010342 -0.002861 0.000000 0.000000 0.000000
# 2 -0.010342 0.037186 -0.013688 0.000000 0.000000 0.000000
# 3 -0.002861 -0.013688 0.016820 0.000000 0.000000 0.000000
# 4 0.000000 0.000000 0.000000 0.036604 0.000000 0.000000
# 5 0.000000 0.000000 0.000000 0.000000 0.121212 0.000000
# 6 0.000000 0.000000 0.000000 0.000000 0.000000 0.055510
#
#
# Mechanical properties :
#
#
# Convention : Reuss Voigt Hill
#
# Bulk Modulus (GPa) = 51.27047 57.69501 54.48274
# Shear Modulus (GPa) = 14.41347 18.06186 16.23767
#
# Velocity S-wave (km/s) = 3.04095 3.40413 3.22765
# Velocity P-wave (km/s) = 6.72487 7.24339 6.98894
#
# Compressibility (1/GPa) = 0.01950441
#
# Stress axis : x y z
#
# Youngs Moduli (GPa) = 51.86627 26.89160 59.45134
#
# Poissons Ratio (x) = 0.27812 0.17006
# Poissons Ratio (y) = 0.53642 0.81379
# Poissons Ratio (z) = 0.14837 0.36810
#
# Static dielectric constant tensor:
#      x y z
#    x 3.083660 0.000000 0.000000 
#    y 0.000000 2.889420 0.000000 
#    z 0.000000 0.000000 3.014770 
# 
# 
# High freq. dielectric constant tensor:
#      x y z
#    x 1.583680 0.000000 0.000000 
#    y 0.000000 1.589540 0.000000 
#    z 0.000000 0.000000 1.587570 
# 
# From -- ./inp_files/25061.got.cif
#   From: 2010.03.12/outbox.cif.g09.slc.cpg/sg38_13_cif.got.tgz:25061.got - 2010.04.14 02:38:36.
