data_PCOD8177969
_publ_section_title
;
Structure prediction by ZEFSAII (Michael W. Deem and Ramdas Pophale) SiO2 
 PCOD8177969
Probable space group: A M M 2
;
_chemical_formula_sum "Si O2"
_cell_formula_units_Z 56
_cell_length_a 10.004071
_cell_length_b 18.029419
_cell_length_c 17.803599
_cell_angle_alpha 90.000000
_cell_angle_beta 90.000000
_cell_angle_gamma 90.000000
_cell_volume 3211.192205
_symmetry_space_group_name_H-M "A M M 2"
_symmetry_group_IT_number 38
_symmetry_cell_setting 'orthorhombic'
loop_
_space_group_symop_operation_xyz
x,y,z
-x,-y,z
-x,y,z
x,-y,z
x,1/2+y,1/2+z
-x,1/2-y,1/2+z
-x,1/2+y,1/2+z
x,1/2-y,1/2+z
loop_
_atom_site_type_symbol
_atom_site_label
_atom_site_fract_x
_atom_site_fract_y
_atom_site_fract_z
Si Si1 0.150405 0.412184 0.198420
Si Si2 0.159021 0.915977 0.985543
Si Si3 0.158137 0.328470 0.343810
Si Si4 0.841197 0.834581 0.299635
Si Si5 0.351305 0.088050 0.575747
Si Si6 0.647704 0.912490 0.408925
Si Si7 0.158192 0.416985 0.652155
O O1 0.155263 0.500000 0.200006
O O2 0.203630 0.384175 0.278445
O O3 0.243572 0.377925 0.133327
O O4 0.000000 0.383228 0.183100
O O5 0.218196 0.859117 0.922850
O O6 0.000000 0.913438 0.982348
O O7 0.206922 0.000000 0.967742
O O8 0.209910 0.892496 0.069093
O O9 0.210907 0.247146 0.321233
O O10 0.000000 0.325851 0.350155
O O11 0.766748 0.890059 0.354773
O O12 0.797100 0.856951 0.214750
O O13 0.000000 0.843631 0.310400
O O14 0.500000 0.112187 0.601115
O O15 0.320961 0.118739 0.492376
O O16 0.339237 0.000000 0.576548
O O17 0.500000 0.883989 0.382785
O O18 0.644298 0.000000 0.412852
O O19 0.212762 0.500000 0.671661
O O20 0.000000 0.421141 0.649654
#
# Coordination Sequence:
#
# PCOD8177969 Si02
#       7
#     8   8   8   8   8   8   8
#     4   9  16  27  45  68  94 123 156 194 231 269
#     4   8  13  24  43  63  86 122 164 195 222 269
#     4   9  17  28  40  64  98 126 151 186 238 285
#     4  10  19  30  44  69 100 122 147 190 243 289
#     4   8  15  29  47  66  88 115 151 190 225 269
#     4   9  18  33  51  68  89 122 161 195 227 272
#     4   8  14  25  42  63  86 116 154 192 226 266
#
# _framework density 17.439005999999999
#
# number of rings (size 3 to 8) (size 9 to 14) (size 15 to 20)
#    0.000    3.286    0.000    2.571    0.000    3.143 
#    2.571    2.143    0.000    0.000    0.000    1.000 
#    0.000    3.429    0.000    0.000    0.000    0.000 
#
# Total GULP energy -346922.556835 kJ/mol
# GULP energy per Si atom -12390.091316 kJ/mol
# Density = 1.739931 g / cm^3
# Si number density = 17.439006 Si / 1000 Ang^3
#
#
#
# Elastic Constant Matrix: (Units=GPa)
#
#
# Indices 1 2 3 4 5 6 
#
# 1 45.7148 14.4583 46.2419 0.0000 0.0000 0.0000
# 2 14.4583 60.9503 59.2380 0.0000 0.0000 0.0000
# 3 46.2419 59.2380 159.7557 0.0000 0.0000 0.0000
# 4 0.0000 0.0000 0.0000 21.3677 0.0000 0.0000
# 5 0.0000 0.0000 0.0000 0.0000 8.8165 0.0000
# 6 0.0000 0.0000 0.0000 0.0000 0.0000 9.2566
#
#
#
# Elastic Compliance Matrix: (Units=1/GPa)
#
#
# Indices 1 2 3 4 5 6 
#
# 1 0.031110 0.002145 -0.009800 0.000000 0.000000 0.000000
# 2 0.002145 0.025799 -0.010187 0.000000 0.000000 0.000000
# 3 -0.009800 -0.010187 0.012874 0.000000 0.000000 0.000000
# 4 0.000000 0.000000 0.000000 0.046800 0.000000 0.000000
# 5 0.000000 0.000000 0.000000 0.000000 0.113424 0.000000
# 6 0.000000 0.000000 0.000000 0.000000 0.000000 0.108031
#
#
# Mechanical properties :
#
#
# Convention : Reuss Voigt Hill
#
# Bulk Modulus (GPa) = 29.32743 56.25525 42.79134
# Shear Modulus (GPa) = 12.98405 17.65365 15.31885
#
# Velocity S-wave (km/s) = 2.73159 3.18513 2.96704
# Velocity P-wave (km/s) = 5.17711 6.77164 6.02733
#
# Compressibility (1/GPa) = 0.03409777
#
# Stress axis : x y z
#
# Youngs Moduli (GPa) = 32.14447 38.76107 77.67718
#
# Poissons Ratio (x) = -0.08315 0.76126
# Poissons Ratio (y) = -0.06896 0.79133
# Poissons Ratio (z) = 0.31502 0.39487
#
# Static dielectric constant tensor:
#      x y z
#    x 2.930150 0.000000 0.000000 
#    y 0.000000 3.135450 0.000000 
#    z 0.000000 0.000000 3.691880 
# 
# 
# High freq. dielectric constant tensor:
#      x y z
#    x 1.622820 0.000000 0.000000 
#    y 0.000000 1.650490 0.000000 
#    z 0.000000 0.000000 1.688180 
# 
# From -- ./inp_files/17876.got.cif
#   From: 2010.03.12/outbox.cif.g09.slc.cpg/sg38_9_cif.got.tgz:17876.got - 2010.04.14 02:38:36.
