data_PCOD8177798
_publ_section_title
;
Structure prediction by ZEFSAII (Michael W. Deem and Ramdas Pophale) SiO2 
 PCOD8177798
Probable space group: A M M 2
;
_chemical_formula_sum "Si O2"
_cell_formula_units_Z 48
_cell_length_a 8.769271
_cell_length_b 14.540552
_cell_length_c 20.328128
_cell_angle_alpha 90.000000
_cell_angle_beta 90.000000
_cell_angle_gamma 90.000000
_cell_volume 2592.040434
_symmetry_space_group_name_H-M "A M M 2"
_symmetry_group_IT_number 38
_symmetry_cell_setting 'orthorhombic'
loop_
_space_group_symop_operation_xyz
x,y,z
-x,-y,z
-x,y,z
x,-y,z
x,1/2+y,1/2+z
-x,1/2-y,1/2+z
-x,1/2+y,1/2+z
x,1/2-y,1/2+z
loop_
_atom_site_type_symbol
_atom_site_label
_atom_site_fract_x
_atom_site_fract_y
_atom_site_fract_z
Si Si1 0.680335 0.316522 0.457000
Si Si2 0.677790 0.197076 0.204179
Si Si3 0.324950 0.500000 0.652036
Si Si4 0.319012 0.694800 0.076083
Si Si5 0.823269 0.000000 0.757153
Si Si6 0.822046 0.693378 0.320048
Si Si7 0.680410 0.000000 0.616519
Si Si8 0.820591 0.000000 0.011115
O O1 0.500000 0.327783 0.461359
O O2 0.740808 0.241146 0.509329
O O3 0.729203 0.281908 0.385447
O O4 0.756266 0.412801 0.473260
O O5 0.500000 0.218129 0.216311
O O6 0.709072 0.088561 0.196779
O O7 0.738903 0.246995 0.138545
O O8 0.774396 0.233553 0.265084
O O9 0.500000 0.500000 0.627373
O O10 0.221807 0.500000 0.587565
O O11 0.500000 0.693880 0.076792
O O12 0.253214 0.590985 0.080929
O O13 0.780283 0.089701 0.799027
O O14 0.722067 0.000000 0.692590
O O15 0.000000 0.000000 0.736678
O O16 0.000000 0.703542 0.334355
O O17 0.500000 0.000000 0.611806
O O18 0.000000 0.000000 0.003561
#
# Coordination Sequence:
#
# PCOD8177798 Si02
#       8
#     8   8   4   8   4   8   4   4
#     4  11  22  39  59  82 114 156 197 235 283 346
#     4  10  19  36  60  85 111 148 194 238 282 338
#     4  10  20  37  60  85 116 149 194 243 286 343
#     4   9  18  33  58  86 111 140 187 239 279 329
#     4  10  21  35  52  78 115 147 176 220 279 338
#     4  11  23  38  55  83 120 153 187 235 290 346
#     4  10  18  33  58  87 112 137 178 233 282 328
#     4  12  23  35  56  88 121 149 184 240 303 351
#
# _framework density 18.518229999999999
#
# number of rings (size 3 to 8) (size 9 to 14) (size 15 to 20)
#    0.000    1.667    3.333    2.250    0.000    2.000 
#    0.000    2.500    0.000    3.000    0.000    0.000 
#    0.000    0.000    0.000    0.000    0.000    0.000 
#
# Total GULP energy -297670.651883 kJ/mol
# GULP energy per Si atom -12402.943828 kJ/mol
# Density = 1.847608 g / cm^3
# Si number density = 18.518230 Si / 1000 Ang^3
#
#
#
# Elastic Constant Matrix: (Units=GPa)
#
#
# Indices 1 2 3 4 5 6 
#
# 1 58.2250 31.6055 34.3770 0.0000 0.0000 0.0000
# 2 31.6055 149.5734 69.0463 0.0000 0.0000 0.0000
# 3 34.3770 69.0463 134.9702 0.0000 0.0000 0.0000
# 4 0.0000 0.0000 0.0000 33.8446 0.0000 0.0000
# 5 0.0000 0.0000 0.0000 0.0000 20.5630 0.0000
# 6 0.0000 0.0000 0.0000 0.0000 0.0000 18.1111
#
#
#
# Elastic Compliance Matrix: (Units=1/GPa)
#
#
# Indices 1 2 3 4 5 6 
#
# 1 0.020943 -0.002570 -0.004020 0.000000 0.000000 0.000000
# 2 -0.002570 0.009068 -0.003984 0.000000 0.000000 0.000000
# 3 -0.004020 -0.003984 0.010471 0.000000 0.000000 0.000000
# 4 0.000000 0.000000 0.000000 0.029547 0.000000 0.000000
# 5 0.000000 0.000000 0.000000 0.000000 0.048631 0.000000
# 6 0.000000 0.000000 0.000000 0.000000 0.000000 0.055215
#
#
# Mechanical properties :
#
#
# Convention : Reuss Voigt Hill
#
# Bulk Modulus (GPa) = 51.72088 68.09178 59.90633
# Shear Modulus (GPa) = 24.81800 28.35307 26.58554
#
# Velocity S-wave (km/s) = 3.66484 3.91716 3.79310
# Velocity P-wave (km/s) = 6.77483 7.57026 7.18356
#
# Compressibility (1/GPa) = 0.01933455
#
# Stress axis : x y z
#
# Youngs Moduli (GPa) = 47.74890 110.27855 95.50126
#
# Poissons Ratio (x) = 0.28340 0.38387
# Poissons Ratio (y) = 0.12271 0.38051
# Poissons Ratio (z) = 0.19193 0.43939
#
# Static dielectric constant tensor:
#      x y z
#    x 3.238470 0.000000 0.000000 
#    y 0.000000 3.693130 0.000000 
#    z 0.000000 0.000000 3.404360 
# 
# 
# High freq. dielectric constant tensor:
#      x y z
#    x 1.702650 0.000000 0.000000 
#    y 0.000000 1.726110 0.000000 
#    z 0.000000 0.000000 1.716960 
# 
# From -- ./inp_files/16717.got.cif
#   From: 2010.03.12/outbox.cif.g09.slc.cpg/sg38_9_cif.got.tgz:16717.got - 2010.04.14 02:38:36.
