data_PCOD8177737
_publ_section_title
;
Structure prediction by ZEFSAII (Michael W. Deem and Ramdas Pophale) SiO2 
 PCOD8177737
Probable space group: A M M 2
;
_chemical_formula_sum "Si O2"
_cell_formula_units_Z 64
_cell_length_a 8.904094
_cell_length_b 20.592648
_cell_length_c 19.807130
_cell_angle_alpha 90.000000
_cell_angle_beta 90.000000
_cell_angle_gamma 90.000000
_cell_volume 3631.813044
_symmetry_space_group_name_H-M "A M M 2"
_symmetry_group_IT_number 38
_symmetry_cell_setting 'orthorhombic'
loop_
_space_group_symop_operation_xyz
x,y,z
-x,-y,z
-x,y,z
x,-y,z
x,1/2+y,1/2+z
-x,1/2-y,1/2+z
-x,1/2+y,1/2+z
x,1/2-y,1/2+z
loop_
_atom_site_type_symbol
_atom_site_label
_atom_site_fract_x
_atom_site_fract_y
_atom_site_fract_z
Si Si1 0.325398 0.181173 0.274440
Si Si2 0.822586 0.626996 0.130782
Si Si3 0.323992 0.263220 0.634321
Si Si4 0.327367 0.120657 0.491292
Si Si5 0.320940 0.811479 0.847665
Si Si6 0.328295 0.272354 0.488118
Si Si7 0.673337 0.072644 0.755842
Si Si8 0.827843 0.073684 0.360011
O O1 0.500000 0.170995 0.291655
O O2 0.298033 0.184805 0.193592
O O3 0.265044 0.247834 0.307501
O O4 0.235408 0.119829 0.301584
O O5 0.760581 0.697177 0.152294
O O6 0.769510 0.576807 0.187699
O O7 0.000000 0.629200 0.126633
O O8 0.759975 0.602434 0.059314
O O9 0.500000 0.245174 0.626941
O O10 0.260967 0.290618 0.562174
O O11 0.500000 0.101421 0.501177
O O12 0.308394 0.196212 0.474195
O O13 0.261224 0.080209 0.429670
O O14 0.500000 0.810266 0.850089
O O15 0.253048 0.809547 0.924335
O O16 0.263051 0.876712 0.811363
O O17 0.500000 0.293250 0.489393
O O18 0.500000 0.088815 0.739065
O O19 0.690428 0.000000 0.785362
O O20 0.000000 0.092081 0.373547
O O21 0.810742 0.000000 0.334066
#
# Coordination Sequence:
#
# PCOD8177737 Si02
#       8
#     8   8   8   8   8   8   8   8
#     4  10  18  32  55  78 101 135 179 223 260 305
#     4  11  21  32  49  75 108 142 173 214 262 311
#     4   9  17  31  52  77 105 137 175 218 261 311
#     4  10  19  34  55  76 100 137 179 214 253 309
#     4   9  15  28  51  78 102 128 172 221 259 300
#     4   8  14  26  49  77 101 127 161 209 262 301
#     4  10  20  34  52  73 101 140 180 218 262 314
#     4  11  24  38  51  74 109 141 171 215 268 321
#
# _framework density 17.622053999999999
#
# number of rings (size 3 to 8) (size 9 to 14) (size 15 to 20)
#    0.000    2.250    2.500    2.625    0.000    2.250 
#    0.000    0.000    0.000    0.750    0.000    3.500 
#    0.000    0.000    0.000    0.000    0.000    0.000 
#
# Total GULP energy -396692.191659 kJ/mol
# GULP energy per Si atom -12396.630989 kJ/mol
# Density = 1.758195 g / cm^3
# Si number density = 17.622054 Si / 1000 Ang^3
#
#
#
# Elastic Constant Matrix: (Units=GPa)
#
#
# Indices 1 2 3 4 5 6 
#
# 1 75.8012 35.0654 35.3281 0.0000 0.0000 0.0000
# 2 35.0654 90.0542 60.1050 0.0000 0.0000 0.0000
# 3 35.3281 60.1050 129.2987 0.0000 0.0000 0.0000
# 4 0.0000 0.0000 0.0000 24.2558 0.0000 0.0000
# 5 0.0000 0.0000 0.0000 0.0000 14.5440 0.0000
# 6 0.0000 0.0000 0.0000 0.0000 0.0000 16.9936
#
#
#
# Elastic Compliance Matrix: (Units=1/GPa)
#
#
# Indices 1 2 3 4 5 6 
#
# 1 0.016514 -0.004957 -0.002208 0.000000 0.000000 0.000000
# 2 -0.004957 0.017587 -0.006821 0.000000 0.000000 0.000000
# 3 -0.002208 -0.006821 0.011508 0.000000 0.000000 0.000000
# 4 0.000000 0.000000 0.000000 0.041227 0.000000 0.000000
# 5 0.000000 0.000000 0.000000 0.000000 0.068757 0.000000
# 6 0.000000 0.000000 0.000000 0.000000 0.000000 0.058846
#
#
# Mechanical properties :
#
#
# Convention : Reuss Voigt Hill
#
# Bulk Modulus (GPa) = 56.69593 61.79455 59.24524
# Shear Modulus (GPa) = 20.13769 22.13572 21.13671
#
# Velocity S-wave (km/s) = 3.38413 3.54805 3.46706
# Velocity P-wave (km/s) = 6.89296 7.20608 7.05126
#
# Compressibility (1/GPa) = 0.01763795
#
# Stress axis : x y z
#
# Youngs Moduli (GPa) = 60.55302 56.85993 86.89482
#
# Poissons Ratio (x) = 0.28184 0.19187
# Poissons Ratio (y) = 0.30014 0.59272
# Poissons Ratio (z) = 0.13371 0.38785
#
# Static dielectric constant tensor:
#      x y z
#    x 3.038350 0.000000 0.000000 
#    y 0.000000 3.061070 0.000000 
#    z 0.000000 0.000000 3.610150 
# 
# 
# High freq. dielectric constant tensor:
#      x y z
#    x 1.655010 0.000000 0.000000 
#    y 0.000000 1.652150 0.000000 
#    z 0.000000 0.000000 1.693220 
# 
# From -- ./inp_files/20047.got.cif
#   From: 2010.03.12/outbox.cif.g09.slc.cpg/sg38_11_cif.got.tgz:20047.got - 2010.04.14 02:38:36.
