data_PCOD8177773
_publ_section_title
;
Structure prediction by ZEFSAII (Michael W. Deem and Ramdas Pophale) SiO2 
 PCOD8177773
Probable space group: A M M 2
;
_chemical_formula_sum "Si O2"
_cell_formula_units_Z 40
_cell_length_a 8.335859
_cell_length_b 23.225937
_cell_length_c 10.375974
_cell_angle_alpha 90.000000
_cell_angle_beta 90.000000
_cell_angle_gamma 90.000000
_cell_volume 2008.872985
_symmetry_space_group_name_H-M "A M M 2"
_symmetry_group_IT_number 38
_symmetry_cell_setting 'orthorhombic'
loop_
_space_group_symop_operation_xyz
x,y,z
-x,-y,z
-x,y,z
x,-y,z
x,1/2+y,1/2+z
-x,1/2-y,1/2+z
-x,1/2+y,1/2+z
x,1/2-y,1/2+z
loop_
_atom_site_type_symbol
_atom_site_label
_atom_site_fract_x
_atom_site_fract_y
_atom_site_fract_z
Si Si1 0.314484 0.000000 0.359200
Si Si2 0.809219 0.305583 0.999678
Si Si3 0.812308 0.500000 0.142661
Si Si4 0.808999 0.823819 0.999877
Si Si5 0.190665 0.117425 0.261934
Si Si6 0.191589 0.879476 0.738385
O O1 0.214114 0.000000 0.490273
O O2 0.270951 0.055351 0.274506
O O3 0.500000 0.000000 0.395423
O O4 0.739507 0.240970 0.995333
O O5 0.744489 0.336172 0.128644
O O6 0.000000 0.303725 0.999768
O O7 0.748365 0.340947 0.875933
O O8 0.737918 0.556964 0.208784
O O9 0.000000 0.500000 0.167325
O O10 0.748507 0.855512 0.128092
O O11 0.000000 0.821608 0.997578
O O12 0.743071 0.858531 0.876300
O O13 0.000000 0.110296 0.265441
O O14 0.000000 0.880355 0.735939
#
# Coordination Sequence:
#
# PCOD8177773 Si02
#       6
#     4   8   4   8   8   8
#     4  12  24  37  54  74 100 136 182 226 261 305
#     4   9  15  26  47  77 112 140 163 201 253 305
#     4  10  18  33  54  74  98 132 172 214 261 307
#     4   9  17  27  45  81 116 135 160 205 258 308
#     4  10  19  33  55  81 108 138 172 211 257 308
#     4   9  16  26  45  73 105 135 164 203 250 298
#
# _framework density 19.911662
#
# number of rings (size 3 to 8) (size 9 to 14) (size 15 to 20)
#    0.000    2.400    2.000    2.100    0.000    5.600 
#    0.000    3.000    0.000    3.600    0.000    0.000 
#    0.000    0.000    0.000    0.000    0.000    0.000 
#
# Total GULP energy -247996.305939 kJ/mol
# GULP energy per Si atom -12399.815297 kJ/mol
# Density = 1.986634 g / cm^3
# Si number density = 19.911662 Si / 1000 Ang^3
#
#
#
# Elastic Constant Matrix: (Units=GPa)
#
#
# Indices 1 2 3 4 5 6 
#
# 1 9.0587 7.4635 1.8333 0.0000 0.0000 0.0000
# 2 7.4635 211.7135 104.6259 0.0000 0.0000 0.0000
# 3 1.8333 104.6259 193.0058 0.0000 0.0000 0.0000
# 4 0.0000 0.0000 0.0000 34.2387 0.0000 0.0000
# 5 0.0000 0.0000 0.0000 0.0000 1.4543 0.0000
# 6 0.0000 0.0000 0.0000 0.0000 0.0000 -0.5440
#
#
#
# Elastic Compliance Matrix: (Units=1/GPa)
#
#
# Indices 1 2 3 4 5 6 
#
# 1 0.114009 -0.004759 0.001497 0.000000 0.000000 0.000000
# 2 -0.004759 0.006650 -0.003560 0.000000 0.000000 0.000000
# 3 0.001497 -0.003560 0.007097 0.000000 0.000000 0.000000
# 4 0.000000 0.000000 0.000000 0.029207 0.000000 0.000000
# 5 0.000000 0.000000 0.000000 0.000000 0.687610 0.000000
# 6 0.000000 0.000000 0.000000 0.000000 0.000000 -1.838272
#
#
# Mechanical properties :
#
#
# Convention : Reuss Voigt Hill
#
# Bulk Modulus (GPa) = 8.76331 71.29149 40.02740
# Shear Modulus (GPa) = -5.30775 27.02016 10.85620
#
# Velocity S-wave (km/s) = -1.63445 3.68775 2.33752
# Velocity P-wave (km/s) = 0.92127 7.34944 5.23751
#
# Compressibility (1/GPa) = 0.11411218
#
# Stress axis : x y z
#
# Youngs Moduli (GPa) = 8.77124 150.36755 140.90980
#
# Poissons Ratio (x) = 0.71558 -0.21091
# Poissons Ratio (y) = 0.04174 0.50162
# Poissons Ratio (z) = -0.01313 0.53529
#
# Static dielectric constant tensor:
#      x y z
#    x 2.831550 0.000000 0.000000 
#    y 0.000000 3.984670 0.000000 
#    z 0.000000 0.000000 3.770780 
# 
# 
# High freq. dielectric constant tensor:
#      x y z
#    x 1.703230 0.000000 0.000000 
#    y 0.000000 1.796320 0.000000 
#    z 0.000000 0.000000 1.784380 
# 
# From -- ./inp_files/3494.got.cif
#   From: 2010.03.12/outbox.cif.g09.slc.cpg/sg38_2_cif.got.tgz:3494.got - 2010.04.14 02:38:36.
