data_PCOD8177288
_publ_section_title
;
Structure prediction by ZEFSAII (Michael W. Deem and Ramdas Pophale) SiO2 
 PCOD8177288
Probable space group: A M M 2
;
_chemical_formula_sum "Si O2"
_cell_formula_units_Z 56
_cell_length_a 19.556231
_cell_length_b 18.662649
_cell_length_c 7.529714
_cell_angle_alpha 90.000000
_cell_angle_beta 90.000000
_cell_angle_gamma 90.000000
_cell_volume 2748.127812
_symmetry_space_group_name_H-M "A M M 2"
_symmetry_group_IT_number 38
_symmetry_cell_setting 'orthorhombic'
loop_
_space_group_symop_operation_xyz
x,y,z
-x,-y,z
-x,y,z
x,-y,z
x,1/2+y,1/2+z
-x,1/2-y,1/2+z
-x,1/2+y,1/2+z
x,1/2-y,1/2+z
loop_
_atom_site_type_symbol
_atom_site_label
_atom_site_fract_x
_atom_site_fract_y
_atom_site_fract_z
Si Si1 0.143704 0.672390 0.271450
Si Si2 0.920851 0.817645 0.139318
Si Si3 0.711431 0.208754 0.735485
Si Si4 0.573988 0.200126 0.913021
Si Si5 0.573008 0.356763 0.808561
Si Si6 0.856976 0.417685 0.921429
Si Si7 0.714971 0.859913 0.360658
O O1 0.122149 0.747165 0.182613
O O2 0.098753 0.652850 0.443785
O O3 0.221953 0.680061 0.341668
O O4 0.135808 0.611104 0.122239
O O5 0.907885 0.877238 0.288879
O O6 0.000000 0.796980 0.140339
O O7 0.640867 0.173126 0.806926
O O8 0.724640 0.183787 0.538685
O O9 0.709650 0.295493 0.716726
O O10 0.500000 0.180502 0.821230
O O11 0.578634 0.286257 0.933065
O O12 0.574354 0.166505 0.105587
O O13 0.500000 0.396721 0.847514
O O14 0.641802 0.403373 0.850746
O O15 0.878392 0.500000 0.924424
O O16 0.779712 0.411681 0.840791
#
# Coordination Sequence:
#
# PCOD8177288 Si02
#       7
#     8   8   8   8   8   8   8
#     4  11  22  40  67  97 128 162 211 262 303 369
#     4  12  24  41  70 101 124 161 209 254 312 375
#     4  10  17  28  50  81 107 152 196 246 296 354
#     4   9  16  23  37  69 114 147 180 241 309 353
#     4   9  16  24  39  68 106 148 189 239 297 352
#     4  11  26  44  63  93 133 167 204 258 315 369
#     4  10  18  30  53  78 110 150 198 246 301 358
#
# _framework density 20.377507999999999
#
# number of rings (size 3 to 8) (size 9 to 14) (size 15 to 20)
#    0.000    1.714    2.857    4.714    2.000    3.143 
#    0.000    0.000    0.000    0.429    0.000    0.000 
#    0.000    0.000    0.000    0.000    0.000    0.000 
#
# Total GULP energy -346880.126248 kJ/mol
# GULP energy per Si atom -12388.575937 kJ/mol
# Density = 2.033113 g / cm^3
# Si number density = 20.377508 Si / 1000 Ang^3
#
#
#
# Elastic Constant Matrix: (Units=GPa)
#
#
# Indices 1 2 3 4 5 6 
#
# 1 140.4580 8.6981 27.7406 0.0000 0.0000 0.0000
# 2 8.6981 59.2083 8.8617 0.0000 0.0000 0.0000
# 3 27.7406 8.8617 50.4343 0.0000 0.0000 0.0000
# 4 0.0000 0.0000 0.0000 15.5883 0.0000 0.0000
# 5 0.0000 0.0000 0.0000 0.0000 31.0414 0.0000
# 6 0.0000 0.0000 0.0000 0.0000 0.0000 7.6293
#
#
#
# Elastic Compliance Matrix: (Units=1/GPa)
#
#
# Indices 1 2 3 4 5 6 
#
# 1 0.008003 -0.000531 -0.004309 0.000000 0.000000 0.000000
# 2 -0.000531 0.017381 -0.002762 0.000000 0.000000 0.000000
# 3 -0.004309 -0.002762 0.022683 0.000000 0.000000 0.000000
# 4 0.000000 0.000000 0.000000 0.064151 0.000000 0.000000
# 5 0.000000 0.000000 0.000000 0.000000 0.032215 0.000000
# 6 0.000000 0.000000 0.000000 0.000000 0.000000 0.131074
#
#
# Mechanical properties :
#
#
# Convention : Reuss Voigt Hill
#
# Bulk Modulus (GPa) = 30.42842 37.85571 34.14207
# Shear Modulus (GPa) = 16.57466 24.50513 20.53989
#
# Velocity S-wave (km/s) = 2.85508 3.47155 3.17830
# Velocity P-wave (km/s) = 5.08265 5.88952 5.50090
#
# Compressibility (1/GPa) = 0.03286401
#
# Stress axis : x y z
#
# Youngs Moduli (GPa) = 124.94600 57.53447 44.08559
#
# Poissons Ratio (x) = 0.03054 0.18996
# Poissons Ratio (y) = 0.06633 0.12176
# Poissons Ratio (z) = 0.53838 0.15891
#
# Static dielectric constant tensor:
#      x y z
#    x 4.504370 0.000000 0.000000 
#    y 0.000000 3.035590 0.000000 
#    z 0.000000 0.000000 3.734030 
# 
# 
# High freq. dielectric constant tensor:
#      x y z
#    x 1.833650 0.000000 0.000000 
#    y 0.000000 1.707130 0.000000 
#    z 0.000000 0.000000 1.802850 
# 
# From -- ./inp_files/6798.got.cif
#   From: 2010.03.12/outbox.cif.g09.slc.cpg/sg38_4_cif.got.tgz:6798.got - 2010.04.14 02:38:36.
