data_PCOD8177882
_publ_section_title
;
Structure prediction by ZEFSAII (Michael W. Deem and Ramdas Pophale) SiO2 
 PCOD8177882
Probable space group: A M M 2
;
_chemical_formula_sum "Si O2"
_cell_formula_units_Z 64
_cell_length_a 9.244902
_cell_length_b 32.850393
_cell_length_c 11.732378
_cell_angle_alpha 90.000000
_cell_angle_beta 90.000000
_cell_angle_gamma 90.000000
_cell_volume 3563.107524
_symmetry_space_group_name_H-M "A M M 2"
_symmetry_group_IT_number 38
_symmetry_cell_setting 'orthorhombic'
loop_
_space_group_symop_operation_xyz
x,y,z
-x,-y,z
-x,y,z
x,-y,z
x,1/2+y,1/2+z
-x,1/2-y,1/2+z
-x,1/2+y,1/2+z
x,1/2-y,1/2+z
loop_
_atom_site_type_symbol
_atom_site_label
_atom_site_fract_x
_atom_site_fract_y
_atom_site_fract_z
Si Si1 0.334549 0.327229 0.070840
Si Si2 0.162816 0.453962 0.970813
Si Si3 0.834663 0.818530 0.982521
Si Si4 0.667129 0.545445 0.202191
Si Si5 0.330830 0.315738 0.715993
Si Si6 0.339049 0.110603 0.367864
Si Si7 0.165500 0.728138 0.913843
Si Si8 0.669151 0.870358 0.805055
O O1 0.500000 0.311652 0.072783
O O2 0.287098 0.344517 0.193269
O O3 0.315715 0.363347 0.981427
O O4 0.232804 0.289850 0.031469
O O5 0.172675 0.500000 0.927857
O O6 0.246662 0.447133 0.087383
O O7 0.000000 0.440141 0.993613
O O8 0.228691 0.426885 0.869364
O O9 0.745280 0.811365 0.096267
O O10 0.000000 0.830411 0.010993
O O11 0.828043 0.776733 0.912826
O O12 0.763160 0.854665 0.910209
O O13 0.500000 0.549267 0.168270
O O14 0.700954 0.500000 0.252868
O O15 0.706714 0.581506 0.290295
O O16 0.500000 0.304458 0.707495
O O17 0.309049 0.362064 0.757288
O O18 0.258129 0.285214 0.805292
O O19 0.500000 0.092575 0.363902
O O20 0.000000 0.712783 0.903385
O O21 0.500000 0.864569 0.832417
#
# Coordination Sequence:
#
# PCOD8177882 Si02
#       8
#     8   8   8   8   8   8   8   8
#     4   9  18  33  53  80 108 138 181 222 261 316
#     4  10  19  28  44  77 114 143 173 211 261 322
#     4  11  25  40  55  79 110 144 182 224 273 326
#     4   9  17  32  54  78 109 146 181 223 272 321
#     4  10  22  40  60  79 102 137 183 227 268 317
#     4   9  17  33  54  76 102 135 175 219 264 313
#     4  10  22  38  56  79 109 142 177 221 272 325
#     4  10  20  35  55  82 112 144 185 227 269 323
#
# _framework density 17.961849000000001
#
# number of rings (size 3 to 8) (size 9 to 14) (size 15 to 20)
#    0.000    2.250    1.250    2.250    1.750    6.250 
#    0.000    0.000    0.000    0.750    0.000    1.750 
#    0.000    0.000    0.000    0.000    0.000    0.000 
#
# Total GULP energy -396779.963406 kJ/mol
# GULP energy per Si atom -12399.373856 kJ/mol
# Density = 1.792097 g / cm^3
# Si number density = 17.961849 Si / 1000 Ang^3
#
#
#
# Elastic Constant Matrix: (Units=GPa)
#
#
# Indices 1 2 3 4 5 6 
#
# 1 112.7272 56.1086 45.3126 0.0000 0.0000 0.0000
# 2 56.1086 95.3877 29.6353 0.0000 0.0000 0.0000
# 3 45.3126 29.6353 76.9853 0.0000 0.0000 0.0000
# 4 0.0000 0.0000 0.0000 22.2898 0.0000 0.0000
# 5 0.0000 0.0000 0.0000 0.0000 18.4125 0.0000
# 6 0.0000 0.0000 0.0000 0.0000 0.0000 28.6454
#
#
#
# Elastic Compliance Matrix: (Units=1/GPa)
#
#
# Indices 1 2 3 4 5 6 
#
# 1 0.014651 -0.006746 -0.006027 0.000000 0.000000 0.000000
# 2 -0.006746 0.015013 -0.001809 0.000000 0.000000 0.000000
# 3 -0.006027 -0.001809 0.017233 0.000000 0.000000 0.000000
# 4 0.000000 0.000000 0.000000 0.044864 0.000000 0.000000
# 5 0.000000 0.000000 0.000000 0.000000 0.054311 0.000000
# 6 0.000000 0.000000 0.000000 0.000000 0.000000 0.034910
#
#
# Mechanical properties :
#
#
# Convention : Reuss Voigt Hill
#
# Bulk Modulus (GPa) = 56.38586 60.80146 58.59366
# Shear Modulus (GPa) = 23.14214 24.13912 23.64063
#
# Velocity S-wave (km/s) = 3.59333 3.66992 3.63182
# Velocity P-wave (km/s) = 6.97683 7.20288 7.09076
#
# Compressibility (1/GPa) = 0.01773494
#
# Stress axis : x y z
#
# Youngs Moduli (GPa) = 68.25455 66.60705 58.02781
#
# Poissons Ratio (x) = 0.44930 0.34972
# Poissons Ratio (y) = 0.46042 0.10497
# Poissons Ratio (z) = 0.41135 0.12049
#
# Static dielectric constant tensor:
#      x y z
#    x 3.466510 0.000000 0.000000 
#    y 0.000000 3.487360 0.000000 
#    z 0.000000 0.000000 3.068950 
# 
# 
# High freq. dielectric constant tensor:
#      x y z
#    x 1.704430 0.000000 0.000000 
#    y 0.000000 1.696190 0.000000 
#    z 0.000000 0.000000 1.666180 
# 
# From -- ./inp_files/8616.got.cif
#   From: 2010.03.12/outbox.cif.g09.slc.cpg/sg38_5_cif.got.tgz:8616.got - 2010.04.14 02:38:36.
