data_PCOD8177180
_publ_section_title
;
Structure prediction by ZEFSAII (Michael W. Deem and Ramdas Pophale) SiO2 
 PCOD8177180
Probable space group: C C C 2
;
_chemical_formula_sum "Si O2"
_cell_formula_units_Z 24
_cell_length_a 17.231388
_cell_length_b 7.587107
_cell_length_c 7.293633
_cell_angle_alpha 90.000000
_cell_angle_beta 90.000000
_cell_angle_gamma 90.000000
_cell_volume 953.543208
_symmetry_space_group_name_H-M "C C C 2"
_symmetry_group_IT_number 37
_symmetry_cell_setting 'orthorhombic'
loop_
_space_group_symop_operation_xyz
x,y,z
-x,-y,z
-x,y,1/2+z
x,-y,1/2+z
1/2+x,1/2+y,z
1/2-x,1/2-y,z
1/2-x,1/2+y,1/2+z
1/2+x,1/2-y,1/2+z
loop_
_atom_site_type_symbol
_atom_site_label
_atom_site_fract_x
_atom_site_fract_y
_atom_site_fract_z
Si Si1 0.402452 0.155737 0.775950
Si Si2 0.047983 0.174204 0.135216
Si Si3 0.338020 0.219357 0.402813
O O1 0.489401 0.165529 0.689392
O O2 0.344611 0.235681 0.622130
O O3 0.372435 0.962752 0.824637
O O4 0.401087 0.272434 0.959244
O O5 0.107712 0.135140 0.302431
O O6 0.000000 0.000000 0.090642
O O7 0.250000 0.250000 0.341744
#
# Coordination Sequence:
#
# PCOD8177180 Si02
#       3
#     8   8   8
#     4  12  26  51  84 113 159 211 270 326 398 476
#     4  12  27  50  86 121 156 208 278 327 393 492
#     4  12  29  51  81 119 162 215 266 337 405 471
#
# _framework density 25.169284000000001
#
# number of rings (size 3 to 8) (size 9 to 14) (size 15 to 20)
#    0.000    0.000    6.667    2.000    0.000    5.333 
#    0.000    0.000    0.000    0.000    0.000    0.000 
#    0.000    0.000    0.000    0.000    0.000    0.000 
#
# Total GULP energy -148765.249100 kJ/mol
# GULP energy per Si atom -12397.104092 kJ/mol
# Density = 2.511200 g / cm^3
# Si number density = 25.169284 Si / 1000 Ang^3
#
#
#
# Elastic Constant Matrix: (Units=GPa)
#
#
# Indices 1 2 3 4 5 6 
#
# 1 176.9984 61.8264 42.1650 0.0000 0.0000 0.0000
# 2 61.8264 94.5021 45.4511 0.0000 0.0000 0.0000
# 3 42.1650 45.4511 166.4794 0.0000 0.0000 0.0000
# 4 0.0000 0.0000 0.0000 16.8152 0.0000 0.0000
# 5 0.0000 0.0000 0.0000 0.0000 44.4182 0.0000
# 6 0.0000 0.0000 0.0000 0.0000 0.0000 29.0695
#
#
#
# Elastic Compliance Matrix: (Units=1/GPa)
#
#
# Indices 1 2 3 4 5 6 
#
# 1 0.007381 -0.004524 -0.000634 0.000000 0.000000 0.000000
# 2 -0.004524 0.014954 -0.002937 0.000000 0.000000 0.000000
# 3 -0.000634 -0.002937 0.006969 0.000000 0.000000 0.000000
# 4 0.000000 0.000000 0.000000 0.059470 0.000000 0.000000
# 5 0.000000 0.000000 0.000000 0.000000 0.022513 0.000000
# 6 0.000000 0.000000 0.000000 0.000000 0.000000 0.034400
#
#
# Mechanical properties :
#
#
# Convention : Reuss Voigt Hill
#
# Bulk Modulus (GPa) = 76.25385 81.87388 79.06387
# Shear Modulus (GPa) = 30.07534 37.29642 33.68588
#
# Velocity S-wave (km/s) = 3.46051 3.85362 3.66235
# Velocity P-wave (km/s) = 6.80654 7.23881 7.02600
#
# Compressibility (1/GPa) = 0.01311409
#
# Stress axis : x y z
#
# Youngs Moduli (GPa) = 135.48131 66.87211 143.48818
#
# Poissons Ratio (x) = 0.30252 0.09102
# Poissons Ratio (y) = 0.61290 0.42140
# Poissons Ratio (z) = 0.08595 0.19639
#
# Static dielectric constant tensor:
#      x y z
#    x 4.512860 0.000000 0.000000 
#    y 0.000000 4.462670 0.000000 
#    z 0.000000 0.000000 5.009350 
# 
# 
# High freq. dielectric constant tensor:
#      x y z
#    x 1.984140 0.000000 0.000000 
#    y 0.000000 1.998530 0.000000 
#    z 0.000000 0.000000 2.030520 
# 
# From -- ./inp_files/1976.got.cif
#   From: 2010.03.12/outbox.cif.g09.slc.cpg/sg37_1_cif.got.tgz:1976.got - 2010.04.14 02:25:27.
