data_PCOD8177413
_publ_section_title
;
Structure prediction by ZEFSAII (Michael W. Deem and Ramdas Pophale) SiO2 
 PCOD8177413
Probable space group: A M M 2
;
_chemical_formula_sum "Si O2"
_cell_formula_units_Z 40
_cell_length_a 8.735662
_cell_length_b 26.347211
_cell_length_c 9.300063
_cell_angle_alpha 90.000000
_cell_angle_beta 90.000000
_cell_angle_gamma 90.000000
_cell_volume 2140.505569
_symmetry_space_group_name_H-M "A M M 2"
_symmetry_group_IT_number 38
_symmetry_cell_setting 'orthorhombic'
loop_
_space_group_symop_operation_xyz
x,y,z
-x,-y,z
-x,y,z
x,-y,z
x,1/2+y,1/2+z
-x,1/2-y,1/2+z
-x,1/2+y,1/2+z
x,1/2-y,1/2+z
loop_
_atom_site_type_symbol
_atom_site_label
_atom_site_fract_x
_atom_site_fract_y
_atom_site_fract_z
Si Si1 0.677597 0.609502 0.203360
Si Si2 0.682979 0.297840 0.384107
Si Si3 0.682233 0.201136 0.208055
Si Si4 0.822023 0.500000 0.878296
Si Si5 0.323677 0.500000 0.180729
Si Si6 0.318243 0.103331 0.377609
O O1 0.500000 0.622741 0.195464
O O2 0.752399 0.651785 0.306644
O O3 0.704951 0.552376 0.268973
O O4 0.742518 0.612069 0.040784
O O5 0.500000 0.298742 0.387521
O O6 0.744417 0.249041 0.297929
O O7 0.747040 0.295808 0.546204
O O8 0.500000 0.201835 0.207903
O O9 0.742782 0.149646 0.281243
O O10 0.748507 0.448884 0.811431
O O11 0.000000 0.500000 0.844684
O O12 0.790524 0.500000 0.047748
O O13 0.500000 0.500000 0.122557
O O14 0.500000 0.099533 0.374912
#
# Coordination Sequence:
#
# PCOD8177413 Si02
#       6
#     8   8   8   4   4   8
#     4   8  13  22  38  58  85 116 146 176 212 253
#     4   9  15  23  36  61  92 120 146 178 218 260
#     4   9  16  24  37  59  90 119 145 178 220 261
#     4  10  18  28  45  68  88 112 146 184 218 258
#     4   8  14  26  43  64  90 122 150 176 212 256
#     4   9  16  28  44  64  89 118 146 178 217 259
#
# _framework density 18.687173999999999
#
# number of rings (size 3 to 8) (size 9 to 14) (size 15 to 20)
#    0.000    3.200    0.000    3.300    0.000    4.800 
#    0.000    1.000    0.000    4.800    0.000   23.800 
#    0.000    0.000    0.000    0.000    0.000    0.000 
#
# Total GULP energy -247811.091308 kJ/mol
# GULP energy per Si atom -12390.554565 kJ/mol
# Density = 1.864464 g / cm^3
# Si number density = 18.687174 Si / 1000 Ang^3
#
#
#
# Elastic Constant Matrix: (Units=GPa)
#
#
# Indices 1 2 3 4 5 6 
#
# 1 18.6576 17.0217 8.5435 0.0000 0.0000 0.0000
# 2 17.0217 223.8226 97.3544 0.0000 0.0000 0.0000
# 3 8.5435 97.3544 122.7052 0.0000 0.0000 0.0000
# 4 0.0000 0.0000 0.0000 36.2094 0.0000 0.0000
# 5 0.0000 0.0000 0.0000 0.0000 3.3504 0.0000
# 6 0.0000 0.0000 0.0000 0.0000 0.0000 3.5137
#
#
#
# Elastic Compliance Matrix: (Units=1/GPa)
#
#
# Indices 1 2 3 4 5 6 
#
# 1 0.057647 -0.004028 -0.000818 0.000000 0.000000 0.000000
# 2 -0.004028 0.007104 -0.005356 0.000000 0.000000 0.000000
# 3 -0.000818 -0.005356 0.012456 0.000000 0.000000 0.000000
# 4 0.000000 0.000000 0.000000 0.027617 0.000000 0.000000
# 5 0.000000 0.000000 0.000000 0.000000 0.298470 0.000000
# 6 0.000000 0.000000 0.000000 0.000000 0.000000 0.284604
#
#
# Mechanical properties :
#
#
# Convention : Reuss Voigt Hill
#
# Bulk Modulus (GPa) = 17.60460 67.89161 42.74811
# Shear Modulus (GPa) = 6.87536 24.76575 15.82056
#
# Velocity S-wave (km/s) = 1.92020 3.64439 2.91280
# Velocity P-wave (km/s) = 3.78911 7.35651 5.85131
#
# Compressibility (1/GPa) = 0.05680335
#
# Stress axis : x y z
#
# Youngs Moduli (GPa) = 17.34689 140.77258 80.28490
#
# Poissons Ratio (x) = 0.56710 0.06564
# Poissons Ratio (y) = 0.06988 0.42997
# Poissons Ratio (z) = 0.01418 0.75392
#
# Static dielectric constant tensor:
#      x y z
#    x 2.646890 0.000000 0.000000 
#    y 0.000000 3.961050 0.000000 
#    z 0.000000 0.000000 3.373490 
# 
# 
# High freq. dielectric constant tensor:
#      x y z
#    x 1.646720 0.000000 0.000000 
#    y 0.000000 1.755230 0.000000 
#    z 0.000000 0.000000 1.695800 
# 
# From -- ./inp_files/3495.got.cif
#   From: 2010.03.12/outbox.cif.g09.slc.cpg/sg38_2_cif.got.tgz:3495.got - 2010.04.14 02:38:36.
