data_PCOD8177599
_publ_section_title
;
Structure prediction by ZEFSAII (Michael W. Deem and Ramdas Pophale) SiO2 
 PCOD8177599
Probable space group: A M M 2
;
_chemical_formula_sum "Si O2"
_cell_formula_units_Z 64
_cell_length_a 14.661284
_cell_length_b 9.137996
_cell_length_c 24.571229
_cell_angle_alpha 90.000000
_cell_angle_beta 90.000000
_cell_angle_gamma 90.000000
_cell_volume 3291.924374
_symmetry_space_group_name_H-M "A M M 2"
_symmetry_group_IT_number 38
_symmetry_cell_setting 'orthorhombic'
loop_
_space_group_symop_operation_xyz
x,y,z
-x,-y,z
-x,y,z
x,-y,z
x,1/2+y,1/2+z
-x,1/2-y,1/2+z
-x,1/2+y,1/2+z
x,1/2-y,1/2+z
loop_
_atom_site_type_symbol
_atom_site_label
_atom_site_fract_x
_atom_site_fract_y
_atom_site_fract_z
Si Si1 0.849515 0.329357 0.171230
Si Si2 0.671438 0.329457 0.641101
Si Si3 0.280555 0.328315 0.519741
Si Si4 0.099029 0.166315 0.274906
Si Si5 0.711385 0.330028 0.819694
Si Si6 0.599820 0.664654 0.230940
Si Si7 0.898596 0.331161 0.049806
Si Si8 0.393331 0.827600 0.427250
O O1 0.827426 0.500000 0.178473
O O2 0.759222 0.233340 0.171564
O O3 0.906057 0.272990 0.222821
O O4 0.901501 0.301044 0.114485
O O5 0.663319 0.500000 0.652146
O O6 0.672604 0.293662 0.577445
O O7 0.590441 0.245080 0.672088
O O8 0.272844 0.500000 0.508236
O O9 0.177884 0.263618 0.518596
O O10 0.348717 0.255391 0.477509
O O11 0.179550 0.203269 0.318328
O O12 0.000000 0.182629 0.304349
O O13 0.113050 0.000000 0.254027
O O14 0.689114 0.500000 0.812408
O O15 0.670037 0.245656 0.769318
O O16 0.664479 0.274195 0.875043
O O17 0.500000 0.667406 0.258141
O O18 0.634462 0.500000 0.222041
O O19 0.875163 0.500000 0.038113
O O20 0.000000 0.291544 0.027489
O O21 0.500000 0.784174 0.420957
O O22 0.382955 0.000000 0.436711
#
# Coordination Sequence:
#
# PCOD8177599 Si02
#       8
#     8   8   8   8   8   8   8   8
#     4  10  18  30  51  80 115 153 193 234 278 329
#     4  10  20  35  54  79 114 154 190 228 282 345
#     4  10  22  38  58  85 116 149 190 241 295 345
#     4  10  20  33  52  81 116 153 191 230 277 336
#     4  10  21  39  61  83 113 151 192 237 283 339
#     4  11  23  36  54  84 117 149 186 232 289 347
#     4   9  18  33  54  82 117 157 197 234 278 336
#     4  10  22  41  64  86 108 144 196 247 295 349
#
# _framework density 19.441514999999999
#
# number of rings (size 3 to 8) (size 9 to 14) (size 15 to 20)
#    0.000    2.000    1.250    2.250    0.000    5.750 
#    0.000    3.125    0.000    2.250    0.000    0.000 
#    0.000    0.000    0.000    0.000    0.000    0.000 
#
# Total GULP energy -396648.307327 kJ/mol
# GULP energy per Si atom -12395.259604 kJ/mol
# Density = 1.939727 g / cm^3
# Si number density = 19.441515 Si / 1000 Ang^3
#
#
#
# Elastic Constant Matrix: (Units=GPa)
#
#
# Indices 1 2 3 4 5 6 
#
# 1 141.7259 42.8688 64.8184 0.0000 0.0000 0.0000
# 2 42.8688 68.8356 52.9622 0.0000 0.0000 0.0000
# 3 64.8184 52.9622 100.1150 0.0000 0.0000 0.0000
# 4 0.0000 0.0000 0.0000 27.7961 0.0000 0.0000
# 5 0.0000 0.0000 0.0000 0.0000 22.7992 0.0000
# 6 0.0000 0.0000 0.0000 0.0000 0.0000 24.2264
#
#
#
# Elastic Compliance Matrix: (Units=1/GPa)
#
#
# Indices 1 2 3 4 5 6 
#
# 1 0.010209 -0.002146 -0.005474 0.000000 0.000000 0.000000
# 2 -0.002146 0.024950 -0.011810 0.000000 0.000000 0.000000
# 3 -0.005474 -0.011810 0.019780 0.000000 0.000000 0.000000
# 4 0.000000 0.000000 0.000000 0.035976 0.000000 0.000000
# 5 0.000000 0.000000 0.000000 0.000000 0.043861 0.000000
# 6 0.000000 0.000000 0.000000 0.000000 0.000000 0.041277
#
#
# Mechanical properties :
#
#
# Convention : Reuss Voigt Hill
#
# Bulk Modulus (GPa) = 62.19105 70.21948 66.20527
# Shear Modulus (GPa) = 22.69908 24.96612 23.83260
#
# Velocity S-wave (km/s) = 3.42066 3.58741 3.50503
# Velocity P-wave (km/s) = 6.90358 7.30453 7.10688
#
# Compressibility (1/GPa) = 0.01607948
#
# Stress axis : x y z
#
# Youngs Moduli (GPa) = 97.95675 40.08011 50.55517
#
# Poissons Ratio (x) = 0.08600 0.27676
# Poissons Ratio (y) = 0.21018 0.59704
# Poissons Ratio (z) = 0.53625 0.47334
#
# Static dielectric constant tensor:
#      x y z
#    x 3.917480 0.000000 0.000000 
#    y 0.000000 3.548590 0.000000 
#    z 0.000000 0.000000 3.447580 
# 
# 
# High freq. dielectric constant tensor:
#      x y z
#    x 1.768160 0.000000 0.000000 
#    y 0.000000 1.758070 0.000000 
#    z 0.000000 0.000000 1.732430 
# 
# From -- ./inp_files/22989.got.cif
#   From: 2010.03.12/outbox.cif.g09.slc.cpg/sg38_12_cif.got.tgz:22989.got - 2010.04.14 02:38:36.
