data_PCOD8177832
_publ_section_title
;
Structure prediction by ZEFSAII (Michael W. Deem and Ramdas Pophale) SiO2 
 PCOD8177832
Probable space group: A M M 2
;
_chemical_formula_sum "Si O2"
_cell_formula_units_Z 40
_cell_length_a 8.777884
_cell_length_b 11.627948
_cell_length_c 19.915757
_cell_angle_alpha 90.000000
_cell_angle_beta 90.000000
_cell_angle_gamma 90.000000
_cell_volume 2032.776994
_symmetry_space_group_name_H-M "A M M 2"
_symmetry_group_IT_number 38
_symmetry_cell_setting 'orthorhombic'
loop_
_space_group_symop_operation_xyz
x,y,z
-x,-y,z
-x,y,z
x,-y,z
x,1/2+y,1/2+z
-x,1/2-y,1/2+z
-x,1/2+y,1/2+z
x,1/2-y,1/2+z
loop_
_atom_site_type_symbol
_atom_site_label
_atom_site_fract_x
_atom_site_fract_y
_atom_site_fract_z
Si Si1 0.175373 0.780084 0.047550
Si Si2 0.819990 0.261846 0.797302
Si Si3 0.676916 0.633000 0.418211
Si Si4 0.818970 0.627928 0.167302
Si Si5 0.171647 0.500000 0.637741
Si Si6 0.677740 0.000000 0.277168
O O1 0.229667 0.673306 0.093616
O O2 0.200466 0.890928 0.092507
O O3 0.000000 0.767523 0.024881
O O4 0.278929 0.788531 0.981794
O O5 0.773551 0.172785 0.854660
O O6 0.758270 0.211107 0.726420
O O7 0.747586 0.386326 0.811333
O O8 0.000000 0.275897 0.796242
O O9 0.500000 0.650029 0.402439
O O10 0.716976 0.500000 0.433140
O O11 0.750991 0.500000 0.176729
O O12 0.000000 0.625550 0.171907
O O13 0.289890 0.500000 0.698115
O O14 0.000000 0.500000 0.667841
O O15 0.500000 0.000000 0.291055
#
# Coordination Sequence:
#
# PCOD8177832 Si02
#       6
#     8   8   8   8   4   4
#     4  10  19  35  60  86 116 153 200 251 294 348
#     4  11  22  40  64  88 116 156 205 250 294 355
#     4  11  24  40  58  86 123 159 198 247 306 365
#     4   9  18  34  59  90 118 146 191 249 298 342
#     4  10  18  34  60  90 116 147 200 251 292 350
#     4  12  24  38  60  90 124 155 190 245 312 368
#
# _framework density 19.677513999999999
#
# number of rings (size 3 to 8) (size 9 to 14) (size 15 to 20)
#    0.000    1.600    3.000    2.700    0.000    2.800 
#    1.800    0.000    0.000    2.400    0.000    0.000 
#    0.000    0.000    0.000    0.000    0.000    0.000 
#
# Total GULP energy -248036.182334 kJ/mol
# GULP energy per Si atom -12401.809117 kJ/mol
# Density = 1.963273 g / cm^3
# Si number density = 19.677514 Si / 1000 Ang^3
#
#
#
# Elastic Constant Matrix: (Units=GPa)
#
#
# Indices 1 2 3 4 5 6 
#
# 1 71.7681 34.6598 29.9377 0.0000 0.0000 0.0000
# 2 34.6598 117.5600 35.0586 0.0000 0.0000 0.0000
# 3 29.9377 35.0586 101.3918 0.0000 0.0000 0.0000
# 4 0.0000 0.0000 0.0000 66.4523 0.0000 0.0000
# 5 0.0000 0.0000 0.0000 0.0000 23.3906 0.0000
# 6 0.0000 0.0000 0.0000 0.0000 0.0000 32.3044
#
#
#
# Elastic Compliance Matrix: (Units=1/GPa)
#
#
# Indices 1 2 3 4 5 6 
#
# 1 0.017445 -0.004022 -0.003760 0.000000 0.000000 0.000000
# 2 -0.004022 0.010411 -0.002413 0.000000 0.000000 0.000000
# 3 -0.003760 -0.002413 0.011807 0.000000 0.000000 0.000000
# 4 0.000000 0.000000 0.000000 0.015048 0.000000 0.000000
# 5 0.000000 0.000000 0.000000 0.000000 0.042752 0.000000
# 6 0.000000 0.000000 0.000000 0.000000 0.000000 0.030956
#
#
# Mechanical properties :
#
#
# Convention : Reuss Voigt Hill
#
# Bulk Modulus (GPa) = 51.88259 54.44800 53.16529
# Shear Modulus (GPa) = 32.20962 37.16705 34.68834
#
# Velocity S-wave (km/s) = 4.05022 4.35076 4.20318
# Velocity P-wave (km/s) = 6.94954 7.27798 7.11565
#
# Compressibility (1/GPa) = 0.01927429
#
# Stress axis : x y z
#
# Youngs Moduli (GPa) = 57.32436 96.04785 84.69430
#
# Poissons Ratio (x) = 0.38628 0.31847
# Poissons Ratio (y) = 0.23055 0.20433
# Poissons Ratio (z) = 0.21555 0.23172
#
# Static dielectric constant tensor:
#      x y z
#    x 3.328410 0.000000 0.000000 
#    y 0.000000 3.726210 0.000000 
#    z 0.000000 0.000000 3.569080 
# 
# 
# High freq. dielectric constant tensor:
#      x y z
#    x 1.742600 0.000000 0.000000 
#    y 0.000000 1.774930 0.000000 
#    z 0.000000 0.000000 1.766460 
# 
# From -- ./inp_files/19496.got.cif
#   From: 2010.03.12/outbox.cif.g09.slc.cpg/sg38_10_cif.got.tgz:19496.got - 2010.04.14 02:38:36.
