data_PCOD8177945
_publ_section_title
;
Structure prediction by ZEFSAII (Michael W. Deem and Ramdas Pophale) SiO2 
 PCOD8177945
Probable space group: A M M 2
;
_chemical_formula_sum "Si O2"
_cell_formula_units_Z 48
_cell_length_a 8.972095
_cell_length_b 13.725023
_cell_length_c 23.573307
_cell_angle_alpha 90.000000
_cell_angle_beta 90.000000
_cell_angle_gamma 90.000000
_cell_volume 2902.869126
_symmetry_space_group_name_H-M "A M M 2"
_symmetry_group_IT_number 38
_symmetry_cell_setting 'orthorhombic'
loop_
_space_group_symop_operation_xyz
x,y,z
-x,-y,z
-x,y,z
x,-y,z
x,1/2+y,1/2+z
-x,1/2-y,1/2+z
-x,1/2+y,1/2+z
x,1/2-y,1/2+z
loop_
_atom_site_type_symbol
_atom_site_label
_atom_site_fract_x
_atom_site_fract_y
_atom_site_fract_z
Si Si1 0.171795 0.611821 0.460560
Si Si2 0.675750 0.106512 0.623835
Si Si3 0.172585 0.612296 0.668035
Si Si4 0.676043 0.295624 0.562716
Si Si5 0.827213 0.888504 0.830423
Si Si6 0.324121 0.277124 0.232873
O O1 0.215849 0.500000 0.471437
O O2 0.273665 0.680416 0.499217
O O3 0.201999 0.639910 0.395571
O O4 0.000000 0.628794 0.476389
O O5 0.500000 0.095979 0.622983
O O6 0.726058 0.184311 0.576238
O O7 0.726154 0.144576 0.685539
O O8 0.748935 0.000000 0.612431
O O9 0.194409 0.500000 0.684130
O O10 0.247980 0.631655 0.607255
O O11 0.248425 0.674097 0.718278
O O12 0.000000 0.640801 0.663428
O O13 0.500000 0.307987 0.569051
O O14 0.728941 0.815358 0.793561
O O15 0.000000 0.875442 0.814972
O O16 0.777889 0.000000 0.819505
O O17 0.500000 0.261199 0.233549
#
# Coordination Sequence:
#
# PCOD8177945 Si02
#       6
#     8   8   8   8   8   8
#     4   9  18  32  48  66  92 127 160 190 230 279
#     4   8  15  28  44  64  92 122 148 178 223 277
#     4  10  20  33  49  68  93 127 160 189 230 285
#     4  10  19  29  46  72  96 120 154 197 240 278
#     4   9  18  32  49  69  94 125 160 195 232 280
#     4  10  19  30  48  73  97 121 152 193 239 283
#
# _framework density 16.535364999999999
#
# number of rings (size 3 to 8) (size 9 to 14) (size 15 to 20)
#    0.000    2.667    0.000    4.500    0.000    5.333 
#    0.000    1.667    0.000   11.000    0.000    4.667 
#    0.000    0.000    0.000    0.000    0.000    0.000 
#
# Total GULP energy -297575.268469 kJ/mol
# GULP energy per Si atom -12398.969520 kJ/mol
# Density = 1.649773 g / cm^3
# Si number density = 16.535365 Si / 1000 Ang^3
#
#
#
# Elastic Constant Matrix: (Units=GPa)
#
#
# Indices 1 2 3 4 5 6 
#
# 1 80.9491 50.7485 46.1848 0.0000 0.0000 0.0000
# 2 50.7485 111.6832 57.9698 0.0000 0.0000 0.0000
# 3 46.1848 57.9698 97.7104 0.0000 0.0000 0.0000
# 4 0.0000 0.0000 0.0000 27.5710 0.0000 0.0000
# 5 0.0000 0.0000 0.0000 0.0000 30.3000 0.0000
# 6 0.0000 0.0000 0.0000 0.0000 0.0000 23.6157
#
#
#
# Elastic Compliance Matrix: (Units=1/GPa)
#
#
# Indices 1 2 3 4 5 6 
#
# 1 0.019206 -0.005802 -0.005636 0.000000 0.000000 0.000000
# 2 -0.005802 0.014691 -0.005973 0.000000 0.000000 0.000000
# 3 -0.005636 -0.005973 0.016442 0.000000 0.000000 0.000000
# 4 0.000000 0.000000 0.000000 0.036270 0.000000 0.000000
# 5 0.000000 0.000000 0.000000 0.000000 0.033003 0.000000
# 6 0.000000 0.000000 0.000000 0.000000 0.000000 0.042345
#
#
# Mechanical properties :
#
#
# Convention : Reuss Voigt Hill
#
# Bulk Modulus (GPa) = 64.44703 66.68321 65.56512
# Shear Modulus (GPa) = 24.75831 25.32666 25.04248
#
# Velocity S-wave (km/s) = 3.87369 3.91790 3.89585
# Velocity P-wave (km/s) = 7.68552 7.80267 7.74432
#
# Compressibility (1/GPa) = 0.01551662
#
# Stress axis : x y z
#
# Youngs Moduli (GPa) = 52.06596 68.06991 60.81876
#
# Poissons Ratio (x) = 0.39493 0.34279
# Poissons Ratio (y) = 0.30208 0.36330
# Poissons Ratio (z) = 0.29345 0.40661
#
# Static dielectric constant tensor:
#      x y z
#    x 3.026860 0.000000 0.000000 
#    y 0.000000 3.229480 0.000000 
#    z 0.000000 0.000000 3.001090 
# 
# 
# High freq. dielectric constant tensor:
#      x y z
#    x 1.633320 0.000000 0.000000 
#    y 0.000000 1.629800 0.000000 
#    z 0.000000 0.000000 1.625470 
# 
# From -- ./inp_files/19620.got.cif
#   From: 2010.03.12/outbox.cif.g09.slc.cpg/sg38_10_cif.got.tgz:19620.got - 2010.04.14 02:38:36.
