data_PCOD8177173
_publ_section_title
;
Structure prediction by ZEFSAII (Michael W. Deem and Ramdas Pophale) SiO2 
 PCOD8177173
Probable space group: C C C 2
;
_chemical_formula_sum "Si O2"
_cell_formula_units_Z 56
_cell_length_a 9.222232
_cell_length_b 13.318507
_cell_length_c 20.991040
_cell_angle_alpha 90.000000
_cell_angle_beta 90.000000
_cell_angle_gamma 90.000000
_cell_volume 2578.253066
_symmetry_space_group_name_H-M "C C C 2"
_symmetry_group_IT_number 37
_symmetry_cell_setting 'orthorhombic'
loop_
_space_group_symop_operation_xyz
x,y,z
-x,-y,z
-x,y,1/2+z
x,-y,1/2+z
1/2+x,1/2+y,z
1/2-x,1/2-y,z
1/2-x,1/2+y,1/2+z
1/2+x,1/2-y,1/2+z
loop_
_atom_site_type_symbol
_atom_site_label
_atom_site_fract_x
_atom_site_fract_y
_atom_site_fract_z
Si Si1 0.518612 0.756291 0.649600
Si Si2 0.767978 0.584413 0.794644
Si Si3 0.662724 0.539681 0.030893
Si Si4 0.250000 0.250000 0.066724
Si Si5 0.750000 0.750000 0.376669
Si Si6 0.337277 0.960318 0.912501
Si Si7 0.767976 0.915587 0.648750
Si Si8 0.481388 0.256292 0.793794
O O1 0.381824 0.789548 0.609014
O O2 0.637433 0.840210 0.635921
O O3 0.582711 0.645220 0.634921
O O4 0.467499 0.750003 0.721697
O O5 0.766866 0.493343 0.844648
O O6 0.750005 0.544234 0.721697
O O7 0.637430 0.659787 0.807471
O O8 0.917287 0.645223 0.808476
O O9 0.500000 0.500000 0.024312
O O10 0.681792 0.659948 0.025078
O O11 0.733137 0.506657 0.098745
O O12 0.749997 0.499998 0.971697
O O13 0.681788 0.840051 0.418315
O O14 0.618178 0.710450 0.334379
O O15 0.500000 0.000000 0.919085
#
# Coordination Sequence:
#
# PCOD8177173 Si02
#       8
#     8   8   8   4   4   8   8   8
#     4   9  19  38  70 107 138 179 227 282 347 417
#     4   9  20  44  71  98 143 183 223 286 351 413
#     4  12  29  49  68 102 139 186 238 292 356 423
#     4  12  25  42  70 100 137 180 232 300 336 432
#     4  12  25  42  70 100 137 180 232 300 336 432
#     4  12  29  49  68 102 139 186 238 292 356 423
#     4   9  20  44  71  98 143 183 223 286 351 413
#     4   9  19  38  70 107 138 179 227 282 347 417
#
# _framework density 21.720133000000001
#
# number of rings (size 3 to 8) (size 9 to 14) (size 15 to 20)
#    0.000    1.714    2.857    2.143    4.000    5.714 
#    0.000    0.000    0.000    0.000    0.000    0.000 
#    0.000    0.000    0.000    0.000    0.000    0.000 
#
# Total GULP energy -347062.309903 kJ/mol
# GULP energy per Si atom -12395.082497 kJ/mol
# Density = 2.167070 g / cm^3
# Si number density = 21.720133 Si / 1000 Ang^3
#
#
#
# Elastic Constant Matrix: (Units=GPa)
#
#
# Indices 1 2 3 4 5 6 
#
# 1 115.8858 42.4585 61.0563 0.0000 0.0000 0.0000
# 2 42.4585 130.5251 57.8789 0.0000 0.0000 0.0000
# 3 61.0563 57.8789 116.4782 0.0000 0.0000 0.0000
# 4 0.0000 0.0000 0.0000 14.9091 0.0000 0.0000
# 5 0.0000 0.0000 0.0000 0.0000 12.9992 0.0000
# 6 0.0000 0.0000 0.0000 0.0000 0.0000 26.1719
#
#
#
# Elastic Compliance Matrix: (Units=1/GPa)
#
#
# Indices 1 2 3 4 5 6 
#
# 1 0.012130 -0.001445 -0.005641 0.000000 0.000000 0.000000
# 2 -0.001445 0.009999 -0.004211 0.000000 0.000000 0.000000
# 3 -0.005641 -0.004211 0.013635 0.000000 0.000000 0.000000
# 4 0.000000 0.000000 0.000000 0.067073 0.000000 0.000000
# 5 0.000000 0.000000 0.000000 0.000000 0.076928 0.000000
# 6 0.000000 0.000000 0.000000 0.000000 0.000000 0.038209
#
#
# Mechanical properties :
#
#
# Convention : Reuss Voigt Hill
#
# Bulk Modulus (GPa) = 75.92636 76.18628 76.05632
# Shear Modulus (GPa) = 20.41177 24.24907 22.33042
#
# Velocity S-wave (km/s) = 3.06888 3.34493 3.20987
# Velocity P-wave (km/s) = 6.89855 7.07606 6.98786
#
# Compressibility (1/GPa) = 0.01317066
#
# Stress axis : x y z
#
# Youngs Moduli (GPa) = 82.43765 100.01369 73.34258
#
# Poissons Ratio (x) = 0.14448 0.41371
# Poissons Ratio (y) = 0.11909 0.30886
# Poissons Ratio (z) = 0.46501 0.42117
#
# Static dielectric constant tensor:
#      x y z
#    x 4.048860 0.000000 0.000000 
#    y 0.000000 3.885460 0.000000 
#    z 0.000000 0.000000 3.841080 
# 
# 
# High freq. dielectric constant tensor:
#      x y z
#    x 1.863400 0.000000 0.000000 
#    y 0.000000 1.851450 0.000000 
#    z 0.000000 0.000000 1.844830 
# 
# From -- ./inp_files/16478.got.cif
#   From: 2010.03.12/outbox.cif.g09.slc.cpg/sg37_9_cif.got.tgz:16478.got - 2010.04.14 02:25:27.
