data_PCOD8177984
_publ_section_title
;
Structure prediction by ZEFSAII (Michael W. Deem and Ramdas Pophale) SiO2 
 PCOD8177984
Probable space group: A M M 2
;
_chemical_formula_sum "Si O2"
_cell_formula_units_Z 64
_cell_length_a 18.042997
_cell_length_b 9.309700
_cell_length_c 22.707439
_cell_angle_alpha 90.000000
_cell_angle_beta 90.000000
_cell_angle_gamma 90.000000
_cell_volume 3814.279549
_symmetry_space_group_name_H-M "A M M 2"
_symmetry_group_IT_number 38
_symmetry_cell_setting 'orthorhombic'
loop_
_space_group_symop_operation_xyz
x,y,z
-x,-y,z
-x,y,z
x,-y,z
x,1/2+y,1/2+z
-x,1/2-y,1/2+z
-x,1/2+y,1/2+z
x,1/2-y,1/2+z
loop_
_atom_site_type_symbol
_atom_site_label
_atom_site_fract_x
_atom_site_fract_y
_atom_site_fract_z
Si Si1 0.728273 0.169751 0.707700
Si Si2 0.354611 0.659790 0.026501
Si Si3 0.918088 0.836143 0.388922
Si Si4 0.418286 0.329550 0.145785
Si Si5 0.295770 0.838591 0.928516
Si Si6 0.229469 0.829857 0.324651
Si Si7 0.861204 0.159397 0.991805
Si Si8 0.197607 0.157494 0.587737
O O1 0.644609 0.222369 0.691486
O O2 0.756752 0.263604 0.761236
O O3 0.782788 0.207639 0.653703
O O4 0.730009 0.000000 0.722492
O O5 0.382433 0.500000 0.008221
O O6 0.404176 0.727616 0.079238
O O7 0.271377 0.647112 0.049415
O O8 0.358080 0.764118 0.969762
O O9 0.855331 0.790450 0.342069
O O10 0.915293 0.744652 0.448521
O O11 0.000000 0.815273 0.360548
O O12 0.904093 0.000000 0.407820
O O13 0.500000 0.279328 0.167250
O O14 0.411876 0.500000 0.141508
O O15 0.286512 0.743176 0.870032
O O16 0.219722 0.845105 0.963778
O O17 0.321660 0.000000 0.911617
O O18 0.243437 0.000000 0.323931
O O19 0.893162 0.000000 0.000339
O O20 0.858916 0.233022 0.056307
O O21 0.160264 0.000000 0.589765
#
# Coordination Sequence:
#
# PCOD8177984 Si02
#       8
#     8   8   8   8   8   8   8   8
#     4   9  17  29  46  68  93 122 158 195 227 266
#     4   8  13  23  41  64  87 110 139 175 215 261
#     4   9  18  32  48  65  87 117 150 184 228 282
#     4   8  14  26  46  70  93 119 151 187 230 278
#     4   9  16  26  41  62  88 114 140 175 219 265
#     4  10  19  30  46  67  90 118 155 196 233 271
#     4   9  16  25  41  66  90 110 136 174 219 262
#     4   8  14  25  41  61  86 115 143 173 213 261
#
# _framework density 16.779053000000001
#
# number of rings (size 3 to 8) (size 9 to 14) (size 15 to 20)
#    0.000    3.250    0.000    2.625    0.000    4.250 
#    0.000    1.875    0.000    3.000    0.000    3.500 
#    0.000    0.000    0.000    0.000    0.000    0.000 
#
# Total GULP energy -396562.991515 kJ/mol
# GULP energy per Si atom -12392.593485 kJ/mol
# Density = 1.674086 g / cm^3
# Si number density = 16.779053 Si / 1000 Ang^3
#
#
#
# Elastic Constant Matrix: (Units=GPa)
#
#
# Indices 1 2 3 4 5 6 
#
# 1 63.3131 31.1597 42.2410 0.0000 0.0000 0.0000
# 2 31.1597 95.0463 64.4333 0.0000 0.0000 0.0000
# 3 42.2410 64.4333 123.0480 0.0000 0.0000 0.0000
# 4 0.0000 0.0000 0.0000 31.4522 0.0000 0.0000
# 5 0.0000 0.0000 0.0000 0.0000 15.5787 0.0000
# 6 0.0000 0.0000 0.0000 0.0000 0.0000 10.7090
#
#
#
# Elastic Compliance Matrix: (Units=1/GPa)
#
#
# Indices 1 2 3 4 5 6 
#
# 1 0.021062 -0.003106 -0.005604 0.000000 0.000000 0.000000
# 2 -0.003106 0.016770 -0.007715 0.000000 0.000000 0.000000
# 3 -0.005604 -0.007715 0.014091 0.000000 0.000000 0.000000
# 4 0.000000 0.000000 0.000000 0.031794 0.000000 0.000000
# 5 0.000000 0.000000 0.000000 0.000000 0.064190 0.000000
# 6 0.000000 0.000000 0.000000 0.000000 0.000000 0.093379
#
#
# Mechanical properties :
#
#
# Convention : Reuss Voigt Hill
#
# Bulk Modulus (GPa) = 52.43199 61.89727 57.16463
# Shear Modulus (GPa) = 17.82576 21.11954 19.47265
#
# Velocity S-wave (km/s) = 3.26296 3.55164 3.41036
# Velocity P-wave (km/s) = 6.74627 7.33407 7.04630
#
# Compressibility (1/GPa) = 0.01907233
#
# Stress axis : x y z
#
# Youngs Moduli (GPa) = 47.47908 59.63181 70.96914
#
# Poissons Ratio (x) = 0.18521 0.39771
# Poissons Ratio (y) = 0.14746 0.54753
# Poissons Ratio (z) = 0.26607 0.46006
#
# Static dielectric constant tensor:
#      x y z
#    x 2.956840 0.000000 0.000000 
#    y 0.000000 3.295140 0.000000 
#    z 0.000000 0.000000 3.069580 
# 
# 
# High freq. dielectric constant tensor:
#      x y z
#    x 1.608620 0.000000 0.000000 
#    y 0.000000 1.640740 0.000000 
#    z 0.000000 0.000000 1.633000 
# 
# From -- ./inp_files/21528.got.cif
#   From: 2010.03.12/outbox.cif.g09.slc.cpg/sg38_11_cif.got.tgz:21528.got - 2010.04.14 02:38:36.
