data_PCOD8177105
_publ_section_title
;
Structure prediction by ZEFSAII (Michael W. Deem and Ramdas Pophale) SiO2 
 PCOD8177105
Probable space group: C C C 2
;
_chemical_formula_sum "Si O2"
_cell_formula_units_Z 48
_cell_length_a 26.014202
_cell_length_b 8.915937
_cell_length_c 9.828824
_cell_angle_alpha 90.000000
_cell_angle_beta 90.000000
_cell_angle_gamma 90.000000
_cell_volume 2279.707131
_symmetry_space_group_name_H-M "C C C 2"
_symmetry_group_IT_number 37
_symmetry_cell_setting 'orthorhombic'
loop_
_space_group_symop_operation_xyz
x,y,z
-x,-y,z
-x,y,1/2+z
x,-y,1/2+z
1/2+x,1/2+y,z
1/2-x,1/2-y,z
1/2-x,1/2+y,1/2+z
1/2+x,1/2-y,1/2+z
loop_
_atom_site_type_symbol
_atom_site_label
_atom_site_fract_x
_atom_site_fract_y
_atom_site_fract_z
Si Si1 0.393170 0.368276 0.353030
Si Si2 0.077723 0.690061 0.596109
Si Si3 0.302134 0.158694 0.405106
Si Si4 0.159753 0.463024 0.669096
Si Si5 0.474410 0.661098 0.087893
Si Si6 0.390014 0.703390 0.309112
O O1 0.404997 0.320964 0.198815
O O2 0.348955 0.272661 0.422207
O O3 0.443304 0.345816 0.446658
O O4 0.371723 0.536876 0.346320
O O5 0.101695 0.532207 0.649123
O O6 0.101131 0.709597 0.448105
O O7 0.015913 0.702395 0.581719
O O8 0.250000 0.250000 0.408675
O O9 0.307246 0.044329 0.531154
O O10 0.305852 0.067053 0.265573
O O11 0.153745 0.295860 0.729653
O O12 0.500000 0.500000 0.108999
O O13 0.441184 0.694386 0.220094
#
# Coordination Sequence:
#
# PCOD8177105 Si02
#       6
#     8   8   8   8   8   8
#     4  11  23  42  69 102 139 183 234 290 331 414
#     4  11  24  39  65  97 145 186 228 274 344 405
#     4  11  26  51  74  99 137 177 234 294 361 412
#     4  11  25  49  68 102 140 178 228 298 346 422
#     4  12  22  38  66 103 142 190 229 275 334 419
#     4  12  22  41  68  97 141 184 228 282 342 392
#
# _framework density 21.055337000000002
#
# number of rings (size 3 to 8) (size 9 to 14) (size 15 to 20)
#    0.000    0.667    6.667    1.000    0.000    2.000 
#    3.000    2.500    0.000    0.000    0.000    0.000 
#    0.000    0.000    0.000    0.000    0.000    0.000 
#
# Total GULP energy -297602.775096 kJ/mol
# GULP energy per Si atom -12400.115629 kJ/mol
# Density = 2.100741 g / cm^3
# Si number density = 21.055337 Si / 1000 Ang^3
#
#
#
# Elastic Constant Matrix: (Units=GPa)
#
#
# Indices 1 2 3 4 5 6 
#
# 1 86.5667 45.6517 31.9036 0.0000 0.0000 0.0000
# 2 45.6517 101.3439 40.8430 0.0000 0.0000 0.0000
# 3 31.9036 40.8430 133.5518 0.0000 0.0000 0.0000
# 4 0.0000 0.0000 0.0000 29.9940 0.0000 0.0000
# 5 0.0000 0.0000 0.0000 0.0000 18.8858 0.0000
# 6 0.0000 0.0000 0.0000 0.0000 0.0000 27.6834
#
#
#
# Elastic Compliance Matrix: (Units=1/GPa)
#
#
# Indices 1 2 3 4 5 6 
#
# 1 0.015517 -0.006269 -0.001790 0.000000 0.000000 0.000000
# 2 -0.006269 0.013787 -0.002719 0.000000 0.000000 0.000000
# 3 -0.001790 -0.002719 0.008747 0.000000 0.000000 0.000000
# 4 0.000000 0.000000 0.000000 0.033340 0.000000 0.000000
# 5 0.000000 0.000000 0.000000 0.000000 0.052950 0.000000
# 6 0.000000 0.000000 0.000000 0.000000 0.000000 0.036123
#
#
# Mechanical properties :
#
#
# Convention : Reuss Voigt Hill
#
# Bulk Modulus (GPa) = 60.61924 62.02876 61.32400
# Shear Modulus (GPa) = 26.66428 28.85024 27.75726
#
# Velocity S-wave (km/s) = 3.56250 3.70565 3.63478
# Velocity P-wave (km/s) = 6.76571 6.91614 6.84134
#
# Compressibility (1/GPa) = 0.01649641
#
# Stress axis : x y z
#
# Youngs Moduli (GPa) = 64.44465 72.53257 114.32804
#
# Poissons Ratio (x) = 0.45468 0.20462
# Poissons Ratio (y) = 0.40398 0.31084
# Poissons Ratio (z) = 0.11534 0.19720
#
# Static dielectric constant tensor:
#      x y z
#    x 3.791500 0.000000 0.000000 
#    y 0.000000 3.965730 0.000000 
#    z 0.000000 0.000000 3.990460 
# 
# 
# High freq. dielectric constant tensor:
#      x y z
#    x 1.796420 0.000000 0.000000 
#    y 0.000000 1.827550 0.000000 
#    z 0.000000 0.000000 1.852150 
# 
# From -- ./inp_files/4940.got.cif
#   From: 2010.03.12/outbox.cif.g09.slc.cpg/sg37_3_cif.got.tgz:4940.got - 2010.04.14 02:25:27.
