data_PCOD8177708
_publ_section_title
;
Structure prediction by ZEFSAII (Michael W. Deem and Ramdas Pophale) SiO2 
 PCOD8177708
Probable space group: A M M 2
;
_chemical_formula_sum "Si O2"
_cell_formula_units_Z 48
_cell_length_a 9.045088
_cell_length_b 16.627874
_cell_length_c 18.774792
_cell_angle_alpha 90.000000
_cell_angle_beta 90.000000
_cell_angle_gamma 90.000000
_cell_volume 2823.739673
_symmetry_space_group_name_H-M "A M M 2"
_symmetry_group_IT_number 38
_symmetry_cell_setting 'orthorhombic'
loop_
_space_group_symop_operation_xyz
x,y,z
-x,-y,z
-x,y,z
x,-y,z
x,1/2+y,1/2+z
-x,1/2-y,1/2+z
-x,1/2+y,1/2+z
x,1/2-y,1/2+z
loop_
_atom_site_type_symbol
_atom_site_label
_atom_site_fract_x
_atom_site_fract_y
_atom_site_fract_z
Si Si1 0.326257 0.588729 0.223210
Si Si2 0.826449 0.000000 0.211389
Si Si3 0.671675 0.153038 0.434437
Si Si4 0.825737 0.172798 0.176098
Si Si5 0.328749 0.257421 0.302727
Si Si6 0.325673 0.695563 0.092474
Si Si7 0.824361 0.500000 0.870348
O O1 0.500000 0.577345 0.219354
O O2 0.252935 0.500000 0.233960
O O3 0.284263 0.648842 0.288656
O O4 0.271451 0.627487 0.148478
O O5 0.779291 0.920750 0.167754
O O6 0.757009 0.000000 0.290659
O O7 0.000000 0.000000 0.223735
O O8 0.500000 0.128117 0.433804
O O9 0.698749 0.231393 0.384344
O O10 0.726164 0.173517 0.513573
O O11 0.767859 0.078720 0.409837
O O12 0.770477 0.201303 0.253184
O O13 0.749175 0.219959 0.111944
O O14 0.000000 0.185788 0.172169
O O15 0.500000 0.245182 0.280745
O O16 0.500000 0.707535 0.097040
O O17 0.000000 0.500000 0.872274
#
# Coordination Sequence:
#
# PCOD8177708 Si02
#       7
#     8   4   8   8   8   8   4
#     4   8  14  26  46  68  88 117 157 196 235 282
#     4   9  18  31  49  73  99 128 163 208 249 291
#     4  10  20  33  50  72 103 135 163 200 251 304
#     4  10  18  32  51  71  97 130 167 203 246 293
#     4   9  17  30  48  71  96 126 163 200 242 294
#     4   9  19  33  49  70  99 129 164 203 245 299
#     4  11  21  33  49  75 107 132 165 206 247 299
#
# _framework density 16.998733999999999
#
# number of rings (size 3 to 8) (size 9 to 14) (size 15 to 20)
#    0.000    2.667    1.667    1.750    1.167    0.667 
#    0.000    1.667    1.833    4.500    0.000    0.000 
#    0.000    0.000    0.000    0.000    0.000    0.000 
#
# Total GULP energy -297475.778890 kJ/mol
# GULP energy per Si atom -12394.824120 kJ/mol
# Density = 1.696004 g / cm^3
# Si number density = 16.998734 Si / 1000 Ang^3
#
#
#
# Elastic Constant Matrix: (Units=GPa)
#
#
# Indices 1 2 3 4 5 6 
#
# 1 35.6713 33.8312 22.6059 0.0000 0.0000 0.0000
# 2 33.8312 167.1830 67.6211 0.0000 0.0000 0.0000
# 3 22.6059 67.6211 101.3095 0.0000 0.0000 0.0000
# 4 0.0000 0.0000 0.0000 17.0994 0.0000 0.0000
# 5 0.0000 0.0000 0.0000 0.0000 16.8713 0.0000
# 6 0.0000 0.0000 0.0000 0.0000 0.0000 23.0665
#
#
#
# Elastic Compliance Matrix: (Units=1/GPa)
#
#
# Indices 1 2 3 4 5 6 
#
# 1 0.036038 -0.005534 -0.004347 0.000000 0.000000 0.000000
# 2 -0.005534 0.009043 -0.004801 0.000000 0.000000 0.000000
# 3 -0.004347 -0.004801 0.014046 0.000000 0.000000 0.000000
# 4 0.000000 0.000000 0.000000 0.058482 0.000000 0.000000
# 5 0.000000 0.000000 0.000000 0.000000 0.059272 0.000000
# 6 0.000000 0.000000 0.000000 0.000000 0.000000 0.043353
#
#
# Mechanical properties :
#
#
# Convention : Reuss Voigt Hill
#
# Bulk Modulus (GPa) = 33.60137 61.36445 47.48291
# Shear Modulus (GPa) = 19.26642 23.41450 21.34046
#
# Velocity S-wave (km/s) = 3.37026 3.71540 3.54703
# Velocity P-wave (km/s) = 5.91225 7.38805 6.69097
#
# Compressibility (1/GPa) = 0.02976069
#
# Stress axis : x y z
#
# Youngs Moduli (GPa) = 27.74884 110.57832 71.19701
#
# Poissons Ratio (x) = 0.61196 0.30952
# Poissons Ratio (y) = 0.15357 0.34184
# Poissons Ratio (z) = 0.12064 0.53092
#
# Static dielectric constant tensor:
#      x y z
#    x 2.950630 0.000000 0.000000 
#    y 0.000000 3.615220 0.000000 
#    z 0.000000 0.000000 3.184000 
# 
# 
# High freq. dielectric constant tensor:
#      x y z
#    x 1.633590 0.000000 0.000000 
#    y 0.000000 1.662210 0.000000 
#    z 0.000000 0.000000 1.640230 
# 
# From -- ./inp_files/19927.got.cif
#   From: 2010.03.12/outbox.cif.g09.slc.cpg/sg38_10_cif.got.tgz:19927.got - 2010.04.14 02:38:36.
