data_PCOD8177245
_publ_section_title
;
Structure prediction by ZEFSAII (Michael W. Deem and Ramdas Pophale) SiO2 
 PCOD8177245
Probable space group: A M M 2
;
_chemical_formula_sum "Si O2"
_cell_formula_units_Z 64
_cell_length_a 14.140491
_cell_length_b 9.169315
_cell_length_c 31.575162
_cell_angle_alpha 90.000000
_cell_angle_beta 90.000000
_cell_angle_gamma 90.000000
_cell_volume 4093.991812
_symmetry_space_group_name_H-M "A M M 2"
_symmetry_group_IT_number 38
_symmetry_cell_setting 'orthorhombic'
loop_
_space_group_symop_operation_xyz
x,y,z
-x,-y,z
-x,y,z
x,-y,z
x,1/2+y,1/2+z
-x,1/2-y,1/2+z
-x,1/2+y,1/2+z
x,1/2-y,1/2+z
loop_
_atom_site_type_symbol
_atom_site_label
_atom_site_fract_x
_atom_site_fract_y
_atom_site_fract_z
Si Si1 0.395801 0.672494 0.212160
Si Si2 0.607632 0.673138 0.120989
Si Si3 0.892593 0.168945 0.006680
Si Si4 0.718101 0.327064 0.877739
Si Si5 0.387355 0.831608 0.803859
Si Si6 0.605969 0.826748 0.459882
Si Si7 0.892546 0.830221 0.909529
Si Si8 0.278818 0.173345 0.541030
O O1 0.500000 0.741855 0.211392
O O2 0.405436 0.500000 0.212742
O O3 0.348089 0.720335 0.167228
O O4 0.347814 0.717023 0.256934
O O5 0.500000 0.731377 0.115737
O O6 0.605698 0.500000 0.116983
O O7 0.673738 0.736269 0.083865
O O8 0.826156 0.262428 0.037379
O O9 0.000000 0.198668 0.020861
O O10 0.867030 0.000000 0.011472
O O11 0.878295 0.218638 0.958140
O O12 0.724325 0.500000 0.876351
O O13 0.664897 0.272538 0.836314
O O14 0.660495 0.269644 0.918513
O O15 0.823743 0.262619 0.879542
O O16 0.500000 0.808039 0.806430
O O17 0.362211 0.000000 0.813435
O O18 0.500000 0.762092 0.459401
O O19 0.658744 0.769660 0.501687
O O20 0.602431 0.000000 0.459915
O O21 0.000000 0.798131 0.895302
O O22 0.869006 0.000000 0.904256
O O23 0.271627 0.000000 0.541385
#
# Coordination Sequence:
#
# PCOD8177245 Si02
#       8
#     8   8   8   8   8   8   8   8
#     4   7  11  22  40  62  86 112 145 185 222 252
#     4   8  13  22  40  66  92 116 144 179 218 257
#     4   9  18  32  47  61  82 114 147 181 221 261
#     4  11  20  29  43  65  92 120 147 179 219 263
#     4   9  17  29  45  64  88 119 154 188 219 256
#     4   9  17  27  37  55  88 123 147 167 198 245
#     4   9  18  33  50  64  81 110 149 190 226 261
#     4  10  17  26  43  67  89 113 146 181 214 251
#
# _framework density 15.632664
#
# number of rings (size 3 to 8) (size 9 to 14) (size 15 to 20)
#    0.000    3.000    1.250    3.375    0.000    2.750 
#    0.000    1.250    0.000    3.000    0.000    2.625 
#    0.000    3.000    0.000    0.000    0.000    0.000 
#
# Total GULP energy -396511.163562 kJ/mol
# GULP energy per Si atom -12390.973861 kJ/mol
# Density = 1.559708 g / cm^3
# Si number density = 15.632664 Si / 1000 Ang^3
#
#
#
# Elastic Constant Matrix: (Units=GPa)
#
#
# Indices 1 2 3 4 5 6 
#
# 1 87.0748 30.9920 53.3226 0.0000 0.0000 0.0000
# 2 30.9920 33.8057 31.8312 0.0000 0.0000 0.0000
# 3 53.3226 31.8312 134.5991 0.0000 0.0000 0.0000
# 4 0.0000 0.0000 0.0000 16.8656 0.0000 0.0000
# 5 0.0000 0.0000 0.0000 0.0000 11.5779 0.0000
# 6 0.0000 0.0000 0.0000 0.0000 0.0000 20.7425
#
#
#
# Elastic Compliance Matrix: (Units=1/GPa)
#
#
# Indices 1 2 3 4 5 6 
#
# 1 0.018835 -0.013175 -0.004346 0.000000 0.000000 0.000000
# 2 -0.013175 0.047271 -0.005959 0.000000 0.000000 0.000000
# 3 -0.004346 -0.005959 0.010560 0.000000 0.000000 0.000000
# 4 0.000000 0.000000 0.000000 0.059292 0.000000 0.000000
# 5 0.000000 0.000000 0.000000 0.000000 0.086372 0.000000
# 6 0.000000 0.000000 0.000000 0.000000 0.000000 0.048210
#
#
# Mechanical properties :
#
#
# Convention : Reuss Voigt Hill
#
# Bulk Modulus (GPa) = 33.66434 54.19682 43.93058
# Shear Modulus (GPa) = 15.27165 19.12612 17.19888
#
# Velocity S-wave (km/s) = 3.12894 3.50161 3.32051
# Velocity P-wave (km/s) = 5.88516 7.14791 6.54705
#
# Compressibility (1/GPa) = 0.02970502
#
# Stress axis : x y z
#
# Youngs Moduli (GPa) = 53.09223 21.15463 94.69267
#
# Poissons Ratio (x) = 0.27872 0.41152
# Poissons Ratio (y) = 0.69951 0.56432
# Poissons Ratio (z) = 0.23073 0.12607
#
# Static dielectric constant tensor:
#      x y z
#    x 2.876550 0.000000 0.000000 
#    y 0.000000 2.606610 0.000000 
#    z 0.000000 0.000000 3.257920 
# 
# 
# High freq. dielectric constant tensor:
#      x y z
#    x 1.580010 0.000000 0.000000 
#    y 0.000000 1.566230 0.000000 
#    z 0.000000 0.000000 1.598490 
# 
# From -- ./inp_files/25087.got.cif
#   From: 2010.03.12/outbox.cif.g09.slc.cpg/sg38_13_cif.got.tgz:25087.got - 2010.04.14 02:38:36.
