data_PCOD8177713
_publ_section_title
;
Structure prediction by ZEFSAII (Michael W. Deem and Ramdas Pophale) SiO2 
 PCOD8177713
Probable space group: A M M 2
;
_chemical_formula_sum "Si O2"
_cell_formula_units_Z 48
_cell_length_a 9.300926
_cell_length_b 16.413766
_cell_length_c 18.389359
_cell_angle_alpha 90.000000
_cell_angle_beta 90.000000
_cell_angle_gamma 90.000000
_cell_volume 2807.378813
_symmetry_space_group_name_H-M "A M M 2"
_symmetry_group_IT_number 38
_symmetry_cell_setting 'orthorhombic'
loop_
_space_group_symop_operation_xyz
x,y,z
-x,-y,z
-x,y,z
x,-y,z
x,1/2+y,1/2+z
-x,1/2-y,1/2+z
-x,1/2+y,1/2+z
x,1/2-y,1/2+z
loop_
_atom_site_type_symbol
_atom_site_label
_atom_site_fract_x
_atom_site_fract_y
_atom_site_fract_z
Si Si1 0.836830 0.175866 0.365880
Si Si2 0.830598 0.270857 0.221696
Si Si3 0.666828 0.194861 0.943590
Si Si4 0.669469 0.000000 0.177787
Si Si5 0.163382 0.000000 0.323950
Si Si6 0.670028 0.832663 0.107676
Si Si7 0.668396 0.094472 0.803950
O O1 0.797008 0.204963 0.284495
O O2 0.741182 0.219544 0.425928
O O3 0.809038 0.079462 0.373041
O O4 0.000000 0.199350 0.383003
O O5 0.755275 0.239155 0.148423
O O6 0.760823 0.357288 0.243929
O O7 0.000000 0.282566 0.208210
O O8 0.500000 0.212956 0.940631
O O9 0.709784 0.125913 0.884800
O O10 0.714089 0.166777 0.023264
O O11 0.723787 0.919939 0.136203
O O12 0.500000 0.000000 0.182504
O O13 0.727965 0.000000 0.258296
O O14 0.000000 0.000000 0.293530
O O15 0.500000 0.819470 0.119361
O O16 0.500000 0.108553 0.788382
O O17 0.710232 0.000000 0.799093
#
# Coordination Sequence:
#
# PCOD8177713 Si02
#       7
#     8   8   8   4   4   8   8
#     4   9  18  32  50  72  99 132 168 205 246 293
#     4  10  19  32  52  74 100 135 171 207 246 295
#     4   9  19  33  51  74 103 134 165 202 249 301
#     4  10  20  30  48  78 106 131 162 203 246 297
#     4  10  18  32  52  74 102 131 164 205 248 297
#     4  10  20  33  50  75 106 135 165 203 249 299
#     4   9  18  33  54  77 101 131 167 208 252 297
#
# _framework density 17.097798999999998
#
# number of rings (size 3 to 8) (size 9 to 14) (size 15 to 20)
#    0.000    2.500    1.667    0.500    1.167    2.333 
#    0.000    0.000    1.833    0.000    0.000    0.000 
#    0.000    0.000    0.000    0.000    0.000    0.000 
#
# Total GULP energy -297620.846252 kJ/mol
# GULP energy per Si atom -12400.868594 kJ/mol
# Density = 1.705888 g / cm^3
# Si number density = 17.097799 Si / 1000 Ang^3
#
#
#
# Elastic Constant Matrix: (Units=GPa)
#
#
# Indices 1 2 3 4 5 6 
#
# 1 40.4396 40.6961 36.0375 0.0000 0.0000 0.0000
# 2 40.6961 131.4132 46.3467 0.0000 0.0000 0.0000
# 3 36.0375 46.3467 77.9001 0.0000 0.0000 0.0000
# 4 0.0000 0.0000 0.0000 13.9727 0.0000 0.0000
# 5 0.0000 0.0000 0.0000 0.0000 20.0344 0.0000
# 6 0.0000 0.0000 0.0000 0.0000 0.0000 25.2567
#
#
#
# Elastic Compliance Matrix: (Units=1/GPa)
#
#
# Indices 1 2 3 4 5 6 
#
# 1 0.049511 -0.009181 -0.017442 0.000000 0.000000 0.000000
# 2 -0.009181 0.011333 -0.002495 0.000000 0.000000 0.000000
# 3 -0.017442 -0.002495 0.022390 0.000000 0.000000 0.000000
# 4 0.000000 0.000000 0.000000 0.071568 0.000000 0.000000
# 5 0.000000 0.000000 0.000000 0.000000 0.049914 0.000000
# 6 0.000000 0.000000 0.000000 0.000000 0.000000 0.039593
#
#
# Mechanical properties :
#
#
# Convention : Reuss Voigt Hill
#
# Bulk Modulus (GPa) = 40.00411 55.10150 47.55281
# Shear Modulus (GPa) = 16.08344 20.29762 18.19053
#
# Velocity S-wave (km/s) = 3.07037 3.44924 3.26530
# Velocity P-wave (km/s) = 6.00146 6.93976 6.48759
#
# Compressibility (1/GPa) = 0.02499743
#
# Stress axis : x y z
#
# Youngs Moduli (GPa) = 20.19755 88.23951 44.66211
#
# Poissons Ratio (x) = 0.81014 0.77900
# Poissons Ratio (y) = 0.18544 0.11144
# Poissons Ratio (z) = 0.35229 0.22017
#
# Static dielectric constant tensor:
#      x y z
#    x 3.150810 0.000000 0.000000 
#    y 0.000000 3.309070 0.000000 
#    z 0.000000 0.000000 3.066430 
# 
# 
# High freq. dielectric constant tensor:
#      x y z
#    x 1.658500 0.000000 0.000000 
#    y 0.000000 1.662210 0.000000 
#    z 0.000000 0.000000 1.640250 
# 
# From -- ./inp_files/16663.got.cif
#   From: 2010.03.12/outbox.cif.g09.slc.cpg/sg38_9_cif.got.tgz:16663.got - 2010.04.14 02:38:36.
