data_PCOD8177030
_publ_section_title
;
Structure prediction by ZEFSAII (Michael W. Deem and Ramdas Pophale) SiO2 
 PCOD8177030
Probable space group: C C C 2
;
_chemical_formula_sum "Si O2"
_cell_formula_units_Z 64
_cell_length_a 9.569556
_cell_length_b 16.933531
_cell_length_c 18.440462
_cell_angle_alpha 90.000000
_cell_angle_beta 90.000000
_cell_angle_gamma 90.000000
_cell_volume 2988.209987
_symmetry_space_group_name_H-M "C C C 2"
_symmetry_group_IT_number 37
_symmetry_cell_setting 'orthorhombic'
loop_
_space_group_symop_operation_xyz
x,y,z
-x,-y,z
-x,y,1/2+z
x,-y,1/2+z
1/2+x,1/2+y,z
1/2-x,1/2-y,z
1/2-x,1/2+y,1/2+z
1/2+x,1/2-y,1/2+z
loop_
_atom_site_type_symbol
_atom_site_label
_atom_site_fract_x
_atom_site_fract_y
_atom_site_fract_z
Si Si1 0.467768 0.591840 0.418940
Si Si2 0.310286 0.673145 0.299871
Si Si3 0.244240 0.441435 0.029065
Si Si4 0.873146 0.054280 0.677422
Si Si5 0.535600 0.307743 0.158640
Si Si6 0.200722 0.118598 0.528419
Si Si7 0.627413 0.047308 0.228778
Si Si8 0.973723 0.644997 0.589851
O O1 0.500000 0.500000 0.406184
O O2 0.441076 0.635634 0.343039
O O3 0.320961 0.600967 0.461819
O O4 0.598398 0.634212 0.460086
O O5 0.250000 0.750000 0.342448
O O6 0.356776 0.709528 0.222758
O O7 0.189276 0.608133 0.286950
O O8 0.359862 0.440902 0.091248
O O9 0.222268 0.534185 0.016762
O O10 0.100876 0.395865 0.047302
O O11 0.907773 0.145245 0.697094
O O12 0.734211 0.023805 0.714364
O O13 0.000000 0.000000 0.703464
O O14 0.612435 0.368148 0.102310
O O15 0.475785 0.227915 0.123537
O O16 0.343784 0.170370 0.536320
O O17 0.582561 0.087017 0.152801
O O18 0.500000 0.000000 0.265483
#
# Coordination Sequence:
#
# PCOD8177030 Si02
#       8
#     8   8   8   8   8   8   8   8
#     4  10  25  42  66  97 131 179 232 267 321 415
#     4  12  24  44  67  96 139 178 222 279 345 401
#     4  11  20  39  64  97 131 167 217 276 331 392
#     4  12  19  35  66  95 128 166 224 273 325 389
#     4  12  23  37  66 103 131 170 220 280 336 395
#     4  11  19  40  66  97 127 170 225 273 322 398
#     4  12  23  40  67 100 132 172 221 281 346 397
#     4  12  22  37  66 105 133 164 208 288 346 387
#
# _framework density 21.417504999999998
#
# number of rings (size 3 to 8) (size 9 to 14) (size 15 to 20)
#    0.000    0.500    8.750    1.125    1.750    1.500 
#    0.000    2.500    0.000    0.000    3.250    0.000 
#    0.000    0.000    0.000    0.000    0.000    0.000 
#
# Total GULP energy -396470.833505 kJ/mol
# GULP energy per Si atom -12389.713547 kJ/mol
# Density = 2.136876 g / cm^3
# Si number density = 21.417505 Si / 1000 Ang^3
#
#
#
# Elastic Constant Matrix: (Units=GPa)
#
#
# Indices 1 2 3 4 5 6 
#
# 1 138.2129 68.8548 43.1767 0.0000 0.0000 0.0000
# 2 68.8548 116.1493 31.3220 0.0000 0.0000 0.0000
# 3 43.1767 31.3220 75.0564 0.0000 0.0000 0.0000
# 4 0.0000 0.0000 0.0000 28.4231 0.0000 0.0000
# 5 0.0000 0.0000 0.0000 0.0000 50.9472 0.0000
# 6 0.0000 0.0000 0.0000 0.0000 0.0000 35.2099
#
#
#
# Elastic Compliance Matrix: (Units=1/GPa)
#
#
# Indices 1 2 3 4 5 6 
#
# 1 0.011325 -0.005585 -0.004184 0.000000 0.000000 0.000000
# 2 -0.005585 0.012456 -0.001985 0.000000 0.000000 0.000000
# 3 -0.004184 -0.001985 0.016558 0.000000 0.000000 0.000000
# 4 0.000000 0.000000 0.000000 0.035183 0.000000 0.000000
# 5 0.000000 0.000000 0.000000 0.000000 0.019628 0.000000
# 6 0.000000 0.000000 0.000000 0.000000 0.000000 0.028401
#
#
# Mechanical properties :
#
#
# Convention : Reuss Voigt Hill
#
# Bulk Modulus (GPa) = 59.41465 68.45840 63.93653
# Shear Modulus (GPa) = 32.75054 35.32039 34.03546
#
# Velocity S-wave (km/s) = 3.91467 4.06536 3.99073
# Velocity P-wave (km/s) = 6.94509 7.35319 7.15205
#
# Compressibility (1/GPa) = 0.01683087
#
# Stress axis : x y z
#
# Youngs Moduli (GPa) = 88.30340 80.28348 60.39200
#
# Poissons Ratio (x) = 0.44839 0.25267
# Poissons Ratio (y) = 0.49318 0.11989
# Poissons Ratio (z) = 0.36944 0.15937
#
# Static dielectric constant tensor:
#      x y z
#    x 3.818690 0.000000 0.000000 
#    y 0.000000 3.900660 0.000000 
#    z 0.000000 0.000000 3.547630 
# 
# 
# High freq. dielectric constant tensor:
#      x y z
#    x 1.846190 0.000000 0.000000 
#    y 0.000000 1.844180 0.000000 
#    z 0.000000 0.000000 1.799520 
# 
# From -- ./inp_files/16517.got.cif
#   From: 2010.03.12/outbox.cif.g09.slc.cpg/sg37_9_cif.got.tgz:16517.got - 2010.04.14 02:25:27.
