data_PCOD8177562
_publ_section_title
;
Structure prediction by ZEFSAII (Michael W. Deem and Ramdas Pophale) SiO2 
 PCOD8177562
Probable space group: A M M 2
;
_chemical_formula_sum "Si O2"
_cell_formula_units_Z 48
_cell_length_a 14.360671
_cell_length_b 8.638182
_cell_length_c 20.818268
_cell_angle_alpha 90.000000
_cell_angle_beta 90.000000
_cell_angle_gamma 90.000000
_cell_volume 2582.508014
_symmetry_space_group_name_H-M "A M M 2"
_symmetry_group_IT_number 38
_symmetry_cell_setting 'orthorhombic'
loop_
_space_group_symop_operation_xyz
x,y,z
-x,-y,z
-x,y,z
x,-y,z
x,1/2+y,1/2+z
-x,1/2-y,1/2+z
-x,1/2+y,1/2+z
x,1/2-y,1/2+z
loop_
_atom_site_type_symbol
_atom_site_label
_atom_site_fract_x
_atom_site_fract_y
_atom_site_fract_z
Si Si1 0.791224 0.816734 0.184370
Si Si2 0.207959 0.315455 0.431661
Si Si3 0.895992 0.815970 0.057179
Si Si4 0.398040 0.316384 0.628505
Si Si5 0.105588 0.183391 0.805709
Si Si6 0.601913 0.815913 0.983978
O O1 0.843488 0.759076 0.120626
O O2 0.683406 0.761702 0.176917
O O3 0.836598 0.732489 0.244098
O O4 0.800310 0.000000 0.193938
O O5 0.203961 0.500000 0.430479
O O6 0.153957 0.250472 0.493758
O O7 0.158934 0.248043 0.367993
O O8 0.315637 0.257134 0.436850
O O9 0.000000 0.748800 0.059078
O O10 0.896288 0.000000 0.054847
O O11 0.500000 0.259939 0.653406
O O12 0.395223 0.500000 0.624786
O O13 0.380420 0.253024 0.556321
O O14 0.000000 0.249750 0.803198
O O15 0.102045 0.000000 0.809471
O O16 0.500000 0.758451 0.959256
O O17 0.603624 0.000000 0.986215
#
# Coordination Sequence:
#
# PCOD8177562 Si02
#       6
#     8   8   8   8   8   8
#     4  10  18  30  49  72  94 119 155 197 235 272
#     4   9  15  26  42  62  88 118 152 188 228 273
#     4   9  15  23  40  66  88 107 145 199 236 258
#     4   8  13  23  42  70  99 120 143 185 240 283
#     4  10  21  34  46  63  94 133 161 185 229 286
#     4   8  12  20  38  65  93 115 140 185 240 279
#
# _framework density 18.586583000000001
#
# number of rings (size 3 to 8) (size 9 to 14) (size 15 to 20)
#    0.000    3.000    1.667    2.000    0.000    3.000 
#    0.000    0.833    0.000    2.500    0.000    0.000 
#    0.000    0.000    0.000    0.000    0.000    0.000 
#
# Total GULP energy -297388.297323 kJ/mol
# GULP energy per Si atom -12391.179055 kJ/mol
# Density = 1.854428 g / cm^3
# Si number density = 18.586583 Si / 1000 Ang^3
#
#
#
# Elastic Constant Matrix: (Units=GPa)
#
#
# Indices 1 2 3 4 5 6 
#
# 1 207.6759 7.9982 92.3657 0.0000 0.0000 0.0000
# 2 7.9982 3.5805 6.0226 0.0000 0.0000 0.0000
# 3 92.3657 6.0226 141.3230 0.0000 0.0000 0.0000
# 4 0.0000 0.0000 0.0000 18.5021 0.0000 0.0000
# 5 0.0000 0.0000 0.0000 0.0000 36.3169 0.0000
# 6 0.0000 0.0000 0.0000 0.0000 0.0000 11.8094
#
#
#
# Elastic Compliance Matrix: (Units=1/GPa)
#
#
# Indices 1 2 3 4 5 6 
#
# 1 0.007025 -0.008585 -0.004226 0.000000 0.000000 0.000000
# 2 -0.008585 0.311352 -0.007657 0.000000 0.000000 0.000000
# 3 -0.004226 -0.007657 0.010164 0.000000 0.000000 0.000000
# 4 0.000000 0.000000 0.000000 0.054048 0.000000 0.000000
# 5 0.000000 0.000000 0.000000 0.000000 0.027535 0.000000
# 6 0.000000 0.000000 0.000000 0.000000 0.000000 0.084678
#
#
# Mechanical properties :
#
#
# Convention : Reuss Voigt Hill
#
# Bulk Modulus (GPa) = 3.47699 62.81694 33.14697
# Shear Modulus (GPa) = 7.91630 29.73855 18.82743
#
# Velocity S-wave (km/s) = 2.06601 4.00434 3.18615
# Velocity P-wave (km/s) = 2.75063 7.43303 5.60428
#
# Compressibility (1/GPa) = 0.28760493
#
# Stress axis : x y z
#
# Youngs Moduli (GPa) = 142.34365 3.21179 98.38516
#
# Poissons Ratio (x) = 0.02757 0.41574
# Poissons Ratio (y) = 1.22208 0.75337
# Poissons Ratio (z) = 0.60150 0.02459
#
# Static dielectric constant tensor:
#      x y z
#    x 4.094420 0.000000 0.000000 
#    y 0.000000 2.664040 0.000000 
#    z 0.000000 0.000000 3.390790 
# 
# 
# High freq. dielectric constant tensor:
#      x y z
#    x 1.748360 0.000000 0.000000 
#    y 0.000000 1.642820 0.000000 
#    z 0.000000 0.000000 1.706450 
# 
# From -- ./inp_files/14478.got.cif
#   From: 2010.03.12/outbox.cif.g09.slc.cpg/sg38_8_cif.got.tgz:14478.got - 2010.04.14 02:38:36.
