data_PCOD8177347
_publ_section_title
;
Structure prediction by ZEFSAII (Michael W. Deem and Ramdas Pophale) SiO2 
 PCOD8177347
Probable space group: A M M 2
;
_chemical_formula_sum "Si O2"
_cell_formula_units_Z 56
_cell_length_a 9.219329
_cell_length_b 28.958886
_cell_length_c 13.725981
_cell_angle_alpha 90.000000
_cell_angle_beta 90.000000
_cell_angle_gamma 90.000000
_cell_volume 3664.582962
_symmetry_space_group_name_H-M "A M M 2"
_symmetry_group_IT_number 38
_symmetry_cell_setting 'orthorhombic'
loop_
_space_group_symop_operation_xyz
x,y,z
-x,-y,z
-x,y,z
x,-y,z
x,1/2+y,1/2+z
-x,1/2-y,1/2+z
-x,1/2+y,1/2+z
x,1/2-y,1/2+z
loop_
_atom_site_type_symbol
_atom_site_label
_atom_site_fract_x
_atom_site_fract_y
_atom_site_fract_z
Si Si1 0.664258 0.599859 0.588790
Si Si2 0.335817 0.500000 0.609743
Si Si3 0.172155 0.000000 0.305979
Si Si4 0.833646 0.821086 0.990805
Si Si5 0.329525 0.314703 0.913123
Si Si6 0.169448 0.226604 0.586762
Si Si7 0.168528 0.764851 0.806427
Si Si8 0.330402 0.909628 0.311767
O O1 0.500000 0.616865 0.583468
O O2 0.682890 0.547156 0.548005
O O3 0.751186 0.632663 0.517466
O O4 0.717941 0.602079 0.700864
O O5 0.500000 0.500000 0.655859
O O6 0.215374 0.500000 0.693053
O O7 0.240273 0.953455 0.353157
O O8 0.000000 0.000000 0.320031
O O9 0.798636 0.807090 0.879446
O O10 0.000000 0.832875 0.005571
O O11 0.786882 0.779085 0.060950
O O12 0.500000 0.305322 0.918123
O O13 0.261680 0.279679 0.834883
O O14 0.293431 0.366410 0.879826
O O15 0.260703 0.308324 0.020087
O O16 0.210178 0.217754 0.698899
O O17 0.000000 0.218424 0.564931
O O18 0.000000 0.750204 0.812284
O O19 0.500000 0.922027 0.314105
#
# Coordination Sequence:
#
# PCOD8177347 Si02
#       8
#     8   4   4   8   8   8   8   8
#     4   9  16  27  43  60  82 114 144 169 206 256
#     4   8  16  30  42  56  85 118 141 168 215 264
#     4  10  18  26  42  66  85 108 145 180 207 246
#     4   9  17  27  41  63  86 109 141 177 212 249
#     4  10  19  29  45  68  89 113 147 182 216 256
#     4   9  18  32  46  60  85 119 148 177 214 256
#     4   9  18  32  46  61  87 121 149 177 218 260
#     4   9  18  31  43  59  89 121 141 168 216 262
#
# _framework density 15.281409999999999
#
# number of rings (size 3 to 8) (size 9 to 14) (size 15 to 20)
#    0.000    2.857    0.000    3.643    0.000    6.286 
#    0.000    0.000    0.000    0.000    0.000    1.000 
#    0.000    4.571    0.000    0.000    0.000    0.000 
#
# Total GULP energy -347083.100090 kJ/mol
# GULP energy per Si atom -12395.825003 kJ/mol
# Density = 1.524663 g / cm^3
# Si number density = 15.281410 Si / 1000 Ang^3
#
#
#
# Elastic Constant Matrix: (Units=GPa)
#
#
# Indices 1 2 3 4 5 6 
#
# 1 70.3031 59.4237 39.9266 0.0000 0.0000 0.0000
# 2 59.4237 127.0101 57.9952 0.0000 0.0000 0.0000
# 3 39.9266 57.9952 98.1084 0.0000 0.0000 0.0000
# 4 0.0000 0.0000 0.0000 23.1554 0.0000 0.0000
# 5 0.0000 0.0000 0.0000 0.0000 21.4387 0.0000
# 6 0.0000 0.0000 0.0000 0.0000 0.0000 24.3292
#
#
#
# Elastic Compliance Matrix: (Units=1/GPa)
#
#
# Indices 1 2 3 4 5 6 
#
# 1 0.024866 -0.009606 -0.004441 0.000000 0.000000 0.000000
# 2 -0.009606 0.014495 -0.004659 0.000000 0.000000 0.000000
# 3 -0.004441 -0.004659 0.014754 0.000000 0.000000 0.000000
# 4 0.000000 0.000000 0.000000 0.043187 0.000000 0.000000
# 5 0.000000 0.000000 0.000000 0.000000 0.046645 0.000000
# 6 0.000000 0.000000 0.000000 0.000000 0.000000 0.041103
#
#
# Mechanical properties :
#
#
# Convention : Reuss Voigt Hill
#
# Bulk Modulus (GPa) = 59.87058 67.79030 63.83044
# Shear Modulus (GPa) = 21.92696 22.98972 22.45834
#
# Velocity S-wave (km/s) = 3.79209 3.88290 3.83776
# Velocity P-wave (km/s) = 7.64441 8.03493 7.84210
#
# Compressibility (1/GPa) = 0.01670270
#
# Stress axis : x y z
#
# Youngs Moduli (GPa) = 40.21600 68.98819 67.77618
#
# Poissons Ratio (x) = 0.66270 0.30100
# Poissons Ratio (y) = 0.38631 0.31579
# Poissons Ratio (z) = 0.17860 0.32144
#
# Static dielectric constant tensor:
#      x y z
#    x 2.898360 0.000000 0.000000 
#    y 0.000000 2.998580 0.000000 
#    z 0.000000 0.000000 2.830770 
# 
# 
# High freq. dielectric constant tensor:
#      x y z
#    x 1.587830 0.000000 0.000000 
#    y 0.000000 1.582680 0.000000 
#    z 0.000000 0.000000 1.555340 
# 
# From -- ./inp_files/13007.got.cif
#   From: 2010.03.12/outbox.cif.g09.slc.cpg/sg38_7_cif.got.tgz:13007.got - 2010.04.14 02:38:36.
