data_PCOD8177819
_publ_section_title
;
Structure prediction by ZEFSAII (Michael W. Deem and Ramdas Pophale) SiO2 
 PCOD8177819
Probable space group: A M M 2
;
_chemical_formula_sum "Si O2"
_cell_formula_units_Z 40
_cell_length_a 8.830578
_cell_length_b 28.481045
_cell_length_c 7.824944
_cell_angle_alpha 90.000000
_cell_angle_beta 90.000000
_cell_angle_gamma 90.000000
_cell_volume 1968.005415
_symmetry_space_group_name_H-M "A M M 2"
_symmetry_group_IT_number 38
_symmetry_cell_setting 'orthorhombic'
loop_
_space_group_symop_operation_xyz
x,y,z
-x,-y,z
-x,y,z
x,-y,z
x,1/2+y,1/2+z
-x,1/2-y,1/2+z
-x,1/2+y,1/2+z
x,1/2-y,1/2+z
loop_
_atom_site_type_symbol
_atom_site_label
_atom_site_fract_x
_atom_site_fract_y
_atom_site_fract_z
Si Si1 0.820933 0.390065 0.640920
Si Si2 0.679386 0.101024 0.794654
Si Si3 0.320447 0.298878 0.762901
Si Si4 0.678703 0.198237 0.649573
Si Si5 0.174440 0.554456 0.975227
O O1 0.753563 0.415533 0.472819
O O2 0.758870 0.336927 0.642462
O O3 0.764592 0.417469 0.809707
O O4 0.000000 0.390647 0.627909
O O5 0.500000 0.098695 0.810544
O O6 0.738467 0.154058 0.757474
O O7 0.729172 0.067088 0.641895
O O8 0.500000 0.301716 0.732194
O O9 0.255019 0.247355 0.718079
O O10 0.271858 0.310148 0.955375
O O11 0.500000 0.201266 0.664239
O O12 0.196070 0.500000 0.934015
O O13 0.000000 0.567094 0.011423
#
# Coordination Sequence:
#
# PCOD8177819 Si02
#       5
#     8   8   8   8   8
#     4  11  23  39  60  89 124 163 204 249 303 368
#     4  11  22  39  64  93 123 158 203 258 307 359
#     4  10  18  34  57  84 118 160 206 249 298 362
#     4   9  18  32  56  86 119 158 202 249 304 362
#     4  10  23  44  66  87 119 163 206 252 310 370
#
# _framework density 20.325146
#
# number of rings (size 3 to 8) (size 9 to 14) (size 15 to 20)
#    0.000    1.800    2.000    2.400    0.000    5.200 
#    0.000    7.000    0.000    0.000    0.000    0.000 
#    0.000    0.000    0.000    0.000    0.000    0.000 
#
# Total GULP energy -248045.307182 kJ/mol
# GULP energy per Si atom -12402.265359 kJ/mol
# Density = 2.027888 g / cm^3
# Si number density = 20.325146 Si / 1000 Ang^3
#
#
#
# Elastic Constant Matrix: (Units=GPa)
#
#
# Indices 1 2 3 4 5 6 
#
# 1 57.4372 23.7650 37.1933 0.0000 0.0000 0.0000
# 2 23.7650 82.5692 30.6870 0.0000 0.0000 0.0000
# 3 37.1933 30.6870 125.6178 0.0000 0.0000 0.0000
# 4 0.0000 0.0000 0.0000 29.0603 0.0000 0.0000
# 5 0.0000 0.0000 0.0000 0.0000 32.8989 0.0000
# 6 0.0000 0.0000 0.0000 0.0000 0.0000 25.2783
#
#
#
# Elastic Compliance Matrix: (Units=1/GPa)
#
#
# Indices 1 2 3 4 5 6 
#
# 1 0.022960 -0.004489 -0.005701 0.000000 0.000000 0.000000
# 2 -0.004489 0.014198 -0.002139 0.000000 0.000000 0.000000
# 3 -0.005701 -0.002139 0.010171 0.000000 0.000000 0.000000
# 4 0.000000 0.000000 0.000000 0.034411 0.000000 0.000000
# 5 0.000000 0.000000 0.000000 0.000000 0.030396 0.000000
# 6 0.000000 0.000000 0.000000 0.000000 0.000000 0.039560
#
#
# Mechanical properties :
#
#
# Convention : Reuss Voigt Hill
#
# Bulk Modulus (GPa) = 44.11223 49.87945 46.99584
# Shear Modulus (GPa) = 27.18685 29.04609 28.11647
#
# Velocity S-wave (km/s) = 3.66129 3.78441 3.72336
# Velocity P-wave (km/s) = 6.29474 6.60982 6.45420
#
# Compressibility (1/GPa) = 0.02266945
#
# Stress axis : x y z
#
# Youngs Moduli (GPa) = 43.55467 70.43127 98.31584
#
# Poissons Ratio (x) = 0.31619 0.56053
# Poissons Ratio (y) = 0.19553 0.21032
# Poissons Ratio (z) = 0.24832 0.15067
#
# Static dielectric constant tensor:
#      x y z
#    x 3.379320 0.000000 0.000000 
#    y 0.000000 3.760150 0.000000 
#    z 0.000000 0.000000 3.849330 
# 
# 
# High freq. dielectric constant tensor:
#      x y z
#    x 1.765820 0.000000 0.000000 
#    y 0.000000 1.793540 0.000000 
#    z 0.000000 0.000000 1.809870 
# 
# From -- ./inp_files/3446.got.cif
#   From: 2010.03.12/outbox.cif.g09.slc.cpg/sg38_2_cif.got.tgz:3446.got - 2010.04.14 02:38:36.
