data_PCOD8177198
_publ_section_title
;
Structure prediction by ZEFSAII (Michael W. Deem and Ramdas Pophale) SiO2 
 PCOD8177198
Probable space group: A M M 2
;
_chemical_formula_sum "Si O2"
_cell_formula_units_Z 56
_cell_length_a 13.548885
_cell_length_b 20.384043
_cell_length_c 14.542836
_cell_angle_alpha 90.000000
_cell_angle_beta 90.000000
_cell_angle_gamma 90.000000
_cell_volume 4016.455781
_symmetry_space_group_name_H-M "A M M 2"
_symmetry_group_IT_number 38
_symmetry_cell_setting 'orthorhombic'
loop_
_space_group_symop_operation_xyz
x,y,z
-x,-y,z
-x,y,z
x,-y,z
x,1/2+y,1/2+z
-x,1/2-y,1/2+z
-x,1/2+y,1/2+z
x,1/2-y,1/2+z
loop_
_atom_site_type_symbol
_atom_site_label
_atom_site_fract_x
_atom_site_fract_y
_atom_site_fract_z
Si Si1 0.210296 0.925809 0.190810
Si Si2 0.114048 0.180073 0.072939
Si Si3 0.389819 0.075232 0.301892
Si Si4 0.115100 0.426392 0.062354
Si Si5 0.885606 0.735394 0.379139
Si Si6 0.883352 0.692524 0.181538
Si Si7 0.207389 0.625793 0.882642
O O1 0.177406 0.881854 0.105355
O O2 0.329799 0.921425 0.204643
O O3 0.159939 0.900415 0.286385
O O4 0.176261 0.000000 0.170813
O O5 0.154687 0.245351 0.123073
O O6 0.000000 0.168347 0.098484
O O7 0.128704 0.185785 0.963621
O O8 0.500000 0.104424 0.290401
O O9 0.327133 0.117088 0.377119
O O10 0.394260 0.000000 0.335556
O O11 0.133943 0.500000 0.099455
O O12 0.158439 0.374722 0.137036
O O13 0.000000 0.412923 0.045663
O O14 0.168483 0.418289 0.965322
O O15 0.847972 0.699028 0.287025
O O16 0.819989 0.798946 0.398278
O O17 0.000000 0.757247 0.370701
O O18 0.000000 0.689923 0.177341
#
# Coordination Sequence:
#
# PCOD8177198 Si02
#       7
#     8   8   8   8   8   8   8
#     4   9  18  29  43  66  88 110 141 180 225 260
#     4  10  18  28  42  61  88 119 148 174 209 259
#     4   8  15  28  44  63  88 113 136 172 227 281
#     4  10  18  26  38  60  88 113 142 180 212 243
#     4  10  18  28  43  63  86 117 152 177 203 252
#     4   9  16  27  40  55  80 116 151 172 198 247
#     4  10  16  26  44  66  86 107 138 176 218 259
#
# _framework density 13.942641
#
# number of rings (size 3 to 8) (size 9 to 14) (size 15 to 20)
#    0.857    1.714    2.857    1.286    0.000    0.857 
#    0.000    0.714    0.000    3.429    0.000    0.000 
#    0.000    0.000    0.000    4.571    0.000    0.000 
#
# Total GULP energy -346957.868834 kJ/mol
# GULP energy per Si atom -12391.352458 kJ/mol
# Density = 1.391091 g / cm^3
# Si number density = 13.942641 Si / 1000 Ang^3
#
#
#
# Elastic Constant Matrix: (Units=GPa)
#
#
# Indices 1 2 3 4 5 6 
#
# 1 57.6815 32.9786 23.4045 0.0000 0.0000 0.0000
# 2 32.9786 86.0487 36.7524 0.0000 0.0000 0.0000
# 3 23.4045 36.7524 83.1645 0.0000 0.0000 0.0000
# 4 0.0000 0.0000 0.0000 25.6097 0.0000 0.0000
# 5 0.0000 0.0000 0.0000 0.0000 8.2696 0.0000
# 6 0.0000 0.0000 0.0000 0.0000 0.0000 13.7380
#
#
#
# Elastic Compliance Matrix: (Units=1/GPa)
#
#
# Indices 1 2 3 4 5 6 
#
# 1 0.022854 -0.007411 -0.003157 0.000000 0.000000 0.000000
# 2 -0.007411 0.016728 -0.005307 0.000000 0.000000 0.000000
# 3 -0.003157 -0.005307 0.015258 0.000000 0.000000 0.000000
# 4 0.000000 0.000000 0.000000 0.039048 0.000000 0.000000
# 5 0.000000 0.000000 0.000000 0.000000 0.120925 0.000000
# 6 0.000000 0.000000 0.000000 0.000000 0.000000 0.072791
#
#
# Mechanical properties :
#
#
# Convention : Reuss Voigt Hill
#
# Bulk Modulus (GPa) = 43.30590 45.90731 44.60661
# Shear Modulus (GPa) = 15.28813 18.44072 16.86442
#
# Velocity S-wave (km/s) = 3.31494 3.64072 3.48164
# Velocity P-wave (km/s) = 6.76604 7.11832 6.94441
#
# Compressibility (1/GPa) = 0.02309154
#
# Stress axis : x y z
#
# Youngs Moduli (GPa) = 43.75510 59.77911 65.53907
#
# Poissons Ratio (x) = 0.44301 0.20689
# Poissons Ratio (y) = 0.32426 0.34782
# Poissons Ratio (z) = 0.13813 0.31725
#
# Static dielectric constant tensor:
#      x y z
#    x 2.492990 0.000000 0.000000 
#    y 0.000000 2.741850 0.000000 
#    z 0.000000 0.000000 2.750460 
# 
# 
# High freq. dielectric constant tensor:
#      x y z
#    x 1.487890 0.000000 0.000000 
#    y 0.000000 1.531010 0.000000 
#    z 0.000000 0.000000 1.522080 
# 
# From -- ./inp_files/14748.got.cif
#   From: 2010.03.12/outbox.cif.g09.slc.cpg/sg38_8_cif.got.tgz:14748.got - 2010.04.14 02:38:36.
