data_PCOD8177331
_publ_section_title
;
Structure prediction by ZEFSAII (Michael W. Deem and Ramdas Pophale) SiO2 
 PCOD8177331
Probable space group: A M M 2
;
_chemical_formula_sum "Si O2"
_cell_formula_units_Z 64
_cell_length_a 9.567979
_cell_length_b 26.323808
_cell_length_c 17.902567
_cell_angle_alpha 90.000000
_cell_angle_beta 90.000000
_cell_angle_gamma 90.000000
_cell_volume 4509.041533
_symmetry_space_group_name_H-M "A M M 2"
_symmetry_group_IT_number 38
_symmetry_cell_setting 'orthorhombic'
loop_
_space_group_symop_operation_xyz
x,y,z
-x,-y,z
-x,y,z
x,-y,z
x,1/2+y,1/2+z
-x,1/2-y,1/2+z
-x,1/2+y,1/2+z
x,1/2-y,1/2+z
loop_
_atom_site_type_symbol
_atom_site_label
_atom_site_fract_x
_atom_site_fract_y
_atom_site_fract_z
Si Si1 0.833634 0.943904 0.471590
Si Si2 0.160499 0.058693 0.303745
Si Si3 0.336444 0.760494 0.321593
Si Si4 0.162315 0.748796 0.970672
Si Si5 0.337284 0.858936 0.227330
Si Si6 0.653922 0.697668 0.182127
Si Si7 0.655149 0.798909 0.085643
Si Si8 0.838954 0.648823 0.067697
O O1 0.781266 0.932226 0.387671
O O2 0.775660 0.901582 0.528531
O O3 0.000000 0.942511 0.469950
O O4 0.781822 0.000000 0.496959
O O5 0.250095 0.091174 0.246044
O O6 0.000000 0.076136 0.298126
O O7 0.176213 0.000000 0.281452
O O8 0.500000 0.760265 0.343958
O O9 0.238824 0.753324 0.392206
O O10 0.295292 0.813504 0.283022
O O11 0.302309 0.713604 0.265875
O O12 0.231965 0.793808 0.019563
O O13 0.183250 0.695041 0.010944
O O14 0.000000 0.761748 0.959091
O O15 0.500000 0.871362 0.235494
O O16 0.301371 0.844198 0.141654
O O17 0.500000 0.672682 0.182856
O O18 0.650288 0.748033 0.133347
O O19 0.760344 0.657344 0.146151
O O20 0.500000 0.808880 0.051960
O O21 0.000000 0.641481 0.088142
#
# Coordination Sequence:
#
# PCOD8177331 Si02
#       8
#     8   8   8   8   8   8   8   8
#     4   8  14  25  39  54  75 104 134 160 188 225
#     4   9  17  28  41  57  79 107 135 164 199 233
#     4   9  17  28  40  55  77 105 133 158 190 233
#     4  10  18  25  37  59  81 101 129 163 195 227
#     4   9  17  28  42  58  76 103 137 167 195 229
#     4   8  15  27  40  53  72 100 130 157 188 229
#     4   8  15  28  41  53  74 103 131 159 193 232
#     4   9  16  25  38  56  76  99 129 162 192 221
#
# _framework density 14.193702999999999
#
# number of rings (size 3 to 8) (size 9 to 14) (size 15 to 20)
#    0.000    3.250    0.000    3.375    0.000    3.250 
#    0.000    3.125    0.000    1.125    0.000    0.000 
#    0.000    1.000    0.000    7.500    0.000    3.875 
#
# Total GULP energy -396630.652085 kJ/mol
# GULP energy per Si atom -12394.707878 kJ/mol
# Density = 1.416140 g / cm^3
# Si number density = 14.193703 Si / 1000 Ang^3
#
#
#
# Elastic Constant Matrix: (Units=GPa)
#
#
# Indices 1 2 3 4 5 6 
#
# 1 73.8518 38.8363 55.9280 0.0000 0.0000 0.0000
# 2 38.8363 67.0149 36.2019 0.0000 0.0000 0.0000
# 3 55.9280 36.2019 74.5629 0.0000 0.0000 0.0000
# 4 0.0000 0.0000 0.0000 25.5417 0.0000 0.0000
# 5 0.0000 0.0000 0.0000 0.0000 26.4529 0.0000
# 6 0.0000 0.0000 0.0000 0.0000 0.0000 19.1263
#
#
#
# Elastic Compliance Matrix: (Units=1/GPa)
#
#
# Indices 1 2 3 4 5 6 
#
# 1 0.034316 -0.008109 -0.021803 0.000000 0.000000 0.000000
# 2 -0.008109 0.022143 -0.004669 0.000000 0.000000 0.000000
# 3 -0.021803 -0.004669 0.032032 0.000000 0.000000 0.000000
# 4 0.000000 0.000000 0.000000 0.039152 0.000000 0.000000
# 5 0.000000 0.000000 0.000000 0.000000 0.037803 0.000000
# 6 0.000000 0.000000 0.000000 0.000000 0.000000 0.052284
#
#
# Mechanical properties :
#
#
# Convention : Reuss Voigt Hill
#
# Bulk Modulus (GPa) = 51.73103 53.04021 52.38562
# Shear Modulus (GPa) = 17.04540 19.85507 18.45024
#
# Velocity S-wave (km/s) = 3.46918 3.74420 3.60931
# Velocity P-wave (km/s) = 7.25069 7.49279 7.37274
#
# Compressibility (1/GPa) = 0.01933076
#
# Stress axis : x y z
#
# Youngs Moduli (GPa) = 29.14099 45.16024 31.21876
#
# Poissons Ratio (x) = 0.36619 0.68065
# Poissons Ratio (y) = 0.23630 0.14576
# Poissons Ratio (z) = 0.63535 0.21085
#
# Static dielectric constant tensor:
#      x y z
#    x 2.795360 0.000000 0.000000 
#    y 0.000000 2.702080 0.000000 
#    z 0.000000 0.000000 2.773690 
# 
# 
# High freq. dielectric constant tensor:
#      x y z
#    x 1.537530 0.000000 0.000000 
#    y 0.000000 1.511710 0.000000 
#    z 0.000000 0.000000 1.528630 
# 
# From -- ./inp_files/17322.got.cif
#   From: 2010.03.12/outbox.cif.g09.slc.cpg/sg38_9_cif.got.tgz:17322.got - 2010.04.14 02:38:36.
