data_PCOD8177820
_publ_section_title
;
Structure prediction by ZEFSAII (Michael W. Deem and Ramdas Pophale) SiO2 
 PCOD8177820
Probable space group: A M M 2
;
_chemical_formula_sum "Si O2"
_cell_formula_units_Z 64
_cell_length_a 8.702361
_cell_length_b 20.623957
_cell_length_c 19.779745
_cell_angle_alpha 90.000000
_cell_angle_beta 90.000000
_cell_angle_gamma 90.000000
_cell_volume 3550.011648
_symmetry_space_group_name_H-M "A M M 2"
_symmetry_group_IT_number 38
_symmetry_cell_setting 'orthorhombic'
loop_
_space_group_symop_operation_xyz
x,y,z
-x,-y,z
-x,y,z
x,-y,z
x,1/2+y,1/2+z
-x,1/2-y,1/2+z
-x,1/2+y,1/2+z
x,1/2-y,1/2+z
loop_
_atom_site_type_symbol
_atom_site_label
_atom_site_fract_x
_atom_site_fract_y
_atom_site_fract_z
Si Si1 0.682243 0.810338 0.830050
Si Si2 0.317952 0.228874 0.540530
Si Si3 0.179767 0.688345 0.906994
Si Si4 0.680218 0.729398 0.188566
Si Si5 0.677808 0.572572 0.421241
Si Si6 0.678584 0.877591 0.183135
Si Si7 0.178935 0.631455 0.546001
Si Si8 0.677811 0.426417 0.826668
O O1 0.500000 0.804240 0.828778
O O2 0.741738 0.748628 0.870533
O O3 0.747551 0.810281 0.752714
O O4 0.736780 0.877009 0.864478
O O5 0.500000 0.221261 0.533027
O O6 0.235597 0.184826 0.484642
O O7 0.257289 0.206185 0.615124
O O8 0.276619 0.304148 0.530608
O O9 0.220343 0.620439 0.872286
O O10 0.000000 0.699388 0.904560
O O11 0.500000 0.720311 0.185988
O O12 0.722845 0.804057 0.201292
O O13 0.500000 0.585697 0.438955
O O14 0.701636 0.500000 0.392768
O O15 0.778903 0.579802 0.488523
O O16 0.500000 0.884636 0.164312
O O17 0.776536 0.899970 0.118208
O O18 0.723498 0.920759 0.247711
O O19 0.000000 0.648473 0.544082
O O20 0.500000 0.406547 0.835530
O O21 0.708067 0.500000 0.850110
#
# Coordination Sequence:
#
# PCOD8177820 Si02
#       8
#     8   8   8   8   8   8   8   8
#     4  10  18  34  58  79 104 139 180 227 270 319
#     4  10  19  34  55  78 106 142 182 226 266 318
#     4  12  23  34  53  83 113 142 178 224 278 329
#     4   8  15  29  53  80 102 131 175 221 268 310
#     4  10  21  35  53  77 106 145 186 221 265 322
#     4   9  17  32  52  76 106 142 183 221 260 317
#     4  11  21  32  49  77 111 145 180 222 272 322
#     4  10  21  38  59  80 105 144 190 229 268 321
#
# _framework density 18.028110000000002
#
# number of rings (size 3 to 8) (size 9 to 14) (size 15 to 20)
#    0.000    2.000    2.500    3.375    0.000    1.500 
#    0.000    1.875    0.000    0.750    0.000    3.500 
#    0.000    0.000    0.000    0.000    0.000    0.000 
#
# Total GULP energy -396737.712596 kJ/mol
# GULP energy per Si atom -12398.053519 kJ/mol
# Density = 1.798708 g / cm^3
# Si number density = 18.028110 Si / 1000 Ang^3
#
#
#
# Elastic Constant Matrix: (Units=GPa)
#
#
# Indices 1 2 3 4 5 6 
#
# 1 14.3161 17.0058 14.0265 0.0000 0.0000 0.0000
# 2 17.0058 83.5218 55.1372 0.0000 0.0000 0.0000
# 3 14.0265 55.1372 128.5788 0.0000 0.0000 0.0000
# 4 0.0000 0.0000 0.0000 23.4252 0.0000 0.0000
# 5 0.0000 0.0000 0.0000 0.0000 8.7355 0.0000
# 6 0.0000 0.0000 0.0000 0.0000 0.0000 11.0971
#
#
#
# Elastic Compliance Matrix: (Units=1/GPa)
#
#
# Indices 1 2 3 4 5 6 
#
# 1 0.092863 -0.017046 -0.002821 0.000000 0.000000 0.000000
# 2 -0.017046 0.019829 -0.006644 0.000000 0.000000 0.000000
# 3 -0.002821 -0.006644 0.010934 0.000000 0.000000 0.000000
# 4 0.000000 0.000000 0.000000 0.042689 0.000000 0.000000
# 5 0.000000 0.000000 0.000000 0.000000 0.114476 0.000000
# 6 0.000000 0.000000 0.000000 0.000000 0.000000 0.090114
#
#
# Mechanical properties :
#
#
# Convention : Reuss Voigt Hill
#
# Bulk Modulus (GPa) = 14.16305 44.30620 29.23463
# Shear Modulus (GPa) = 11.17415 18.00137 14.58776
#
# Velocity S-wave (km/s) = 2.49232 3.16336 2.84767
# Velocity P-wave (km/s) = 4.01937 6.16214 5.20227
#
# Compressibility (1/GPa) = 0.07060624
#
# Stress axis : x y z
#
# Youngs Moduli (GPa) = 10.76852 50.42996 91.45743
#
# Poissons Ratio (x) = 0.85961 0.25799
# Poissons Ratio (y) = 0.18356 0.60762
# Poissons Ratio (z) = 0.03038 0.33505
#
# Static dielectric constant tensor:
#      x y z
#    x 3.134770 0.000000 0.000000 
#    y 0.000000 3.111580 0.000000 
#    z 0.000000 0.000000 3.863930 
# 
# 
# High freq. dielectric constant tensor:
#      x y z
#    x 1.680580 0.000000 0.000000 
#    y 0.000000 1.666760 0.000000 
#    z 0.000000 0.000000 1.709440 
# 
# From -- ./inp_files/20021.got.cif
#   From: 2010.03.12/outbox.cif.g09.slc.cpg/sg38_11_cif.got.tgz:20021.got - 2010.04.14 02:38:36.
