data_PCOD8177584
_publ_section_title
;
Structure prediction by ZEFSAII (Michael W. Deem and Ramdas Pophale) SiO2 
 PCOD8177584
Probable space group: A M M 2
;
_chemical_formula_sum "Si O2"
_cell_formula_units_Z 40
_cell_length_a 9.022733
_cell_length_b 20.755662
_cell_length_c 12.437995
_cell_angle_alpha 90.000000
_cell_angle_beta 90.000000
_cell_angle_gamma 90.000000
_cell_volume 2329.298106
_symmetry_space_group_name_H-M "A M M 2"
_symmetry_group_IT_number 38
_symmetry_cell_setting 'orthorhombic'
loop_
_space_group_symop_operation_xyz
x,y,z
-x,-y,z
-x,y,z
x,-y,z
x,1/2+y,1/2+z
-x,1/2-y,1/2+z
-x,1/2+y,1/2+z
x,1/2-y,1/2+z
loop_
_atom_site_type_symbol
_atom_site_label
_atom_site_fract_x
_atom_site_fract_y
_atom_site_fract_z
Si Si1 0.171224 0.424909 0.000000
Si Si2 0.673647 0.698215 0.598908
Si Si3 0.326056 0.659249 0.171294
Si Si4 0.170940 0.835904 0.306046
Si Si5 0.827395 0.193317 0.881213
O O1 0.202605 0.500000 0.988330
O O2 0.216626 0.392418 0.887380
O O3 0.000000 0.409584 0.026291
O O4 0.271086 0.398073 0.095812
O O5 0.500000 0.688469 0.584847
O O6 0.716761 0.772772 0.617303
O O7 0.729470 0.656348 0.699943
O O8 0.754534 0.672027 0.493123
O O9 0.500000 0.653243 0.190017
O O10 0.246072 0.652131 0.285967
O O11 0.205008 0.768654 0.364462
O O12 0.000000 0.840166 0.271179
O O13 0.000000 0.177226 0.884666
#
# Coordination Sequence:
#
# PCOD8177584 Si02
#       5
#     8   8   8   8   8
#     4  10  20  35  54  75 102 136 175 213 246 293
#     4  10  19  30  48  74 104 133 162 207 259 305
#     4  10  20  32  48  73 105 135 168 208 256 306
#     4   9  18  31  48  72 100 132 168 204 250 302
#     4  10  18  30  51  74 101 133 166 208 256 305
#
# _framework density 17.172554999999999
#
# number of rings (size 3 to 8) (size 9 to 14) (size 15 to 20)
#    0.000    2.200    2.000    1.800    0.000    3.600 
#    0.000    0.000    0.000    1.200    0.000    2.800 
#    0.000    0.000    0.000    0.000    0.000    0.000 
#
# Total GULP energy -248085.157175 kJ/mol
# GULP energy per Si atom -12404.257859 kJ/mol
# Density = 1.713347 g / cm^3
# Si number density = 17.172555 Si / 1000 Ang^3
#
#
#
# Elastic Constant Matrix: (Units=GPa)
#
#
# Indices 1 2 3 4 5 6 
#
# 1 86.2531 29.7258 72.2243 0.0000 0.0000 0.0000
# 2 29.7258 65.2538 45.4668 0.0000 0.0000 0.0000
# 3 72.2243 45.4668 153.9181 0.0000 0.0000 0.0000
# 4 0.0000 0.0000 0.0000 22.7609 0.0000 0.0000
# 5 0.0000 0.0000 0.0000 0.0000 32.2976 0.0000
# 6 0.0000 0.0000 0.0000 0.0000 0.0000 18.5322
#
#
#
# Elastic Compliance Matrix: (Units=1/GPa)
#
#
# Indices 1 2 3 4 5 6 
#
# 1 0.019606 -0.003175 -0.008262 0.000000 0.000000 0.000000
# 2 -0.003175 0.019810 -0.004362 0.000000 0.000000 0.000000
# 3 -0.008262 -0.004362 0.011663 0.000000 0.000000 0.000000
# 4 0.000000 0.000000 0.000000 0.043935 0.000000 0.000000
# 5 0.000000 0.000000 0.000000 0.000000 0.030962 0.000000
# 6 0.000000 0.000000 0.000000 0.000000 0.000000 0.053960
#
#
# Mechanical properties :
#
#
# Convention : Reuss Voigt Hill
#
# Bulk Modulus (GPa) = 51.33208 66.69540 59.01374
# Shear Modulus (GPa) = 22.93281 25.25204 24.09242
#
# Velocity S-wave (km/s) = 3.65832 3.83885 3.74968
# Velocity P-wave (km/s) = 6.91385 7.65322 7.29291
#
# Compressibility (1/GPa) = 0.01948100
#
# Stress axis : x y z
#
# Youngs Moduli (GPa) = 51.00408 50.47845 85.74469
#
# Poissons Ratio (x) = 0.16025 0.70844
# Poissons Ratio (y) = 0.16192 0.37404
# Poissons Ratio (z) = 0.42141 0.22020
#
# Static dielectric constant tensor:
#      x y z
#    x 3.207440 0.000000 0.000000 
#    y 0.000000 2.844760 0.000000 
#    z 0.000000 0.000000 3.274160 
# 
# 
# High freq. dielectric constant tensor:
#      x y z
#    x 1.671660 0.000000 0.000000 
#    y 0.000000 1.615500 0.000000 
#    z 0.000000 0.000000 1.674700 
# 
# From -- ./inp_files/7771.got.cif
#   From: 2010.03.12/outbox.cif.g09.slc.cpg/sg38_4_cif.got.tgz:7771.got - 2010.04.14 02:38:36.
