data_PCOD8177633
_publ_section_title
;
Structure prediction by ZEFSAII (Michael W. Deem and Ramdas Pophale) SiO2 
 PCOD8177633
Probable space group: A M M 2
;
_chemical_formula_sum "Si O2"
_cell_formula_units_Z 56
_cell_length_a 9.110417
_cell_length_b 18.852937
_cell_length_c 17.890495
_cell_angle_alpha 90.000000
_cell_angle_beta 90.000000
_cell_angle_gamma 90.000000
_cell_volume 3072.837747
_symmetry_space_group_name_H-M "A M M 2"
_symmetry_group_IT_number 38
_symmetry_cell_setting 'orthorhombic'
loop_
_space_group_symop_operation_xyz
x,y,z
-x,-y,z
-x,y,z
x,-y,z
x,1/2+y,1/2+z
-x,1/2-y,1/2+z
-x,1/2+y,1/2+z
x,1/2-y,1/2+z
loop_
_atom_site_type_symbol
_atom_site_label
_atom_site_fract_x
_atom_site_fract_y
_atom_site_fract_z
Si Si1 0.826365 0.788546 0.785480
Si Si2 0.336513 0.292916 0.909102
Si Si3 0.172502 0.080630 0.884529
Si Si4 0.663850 0.341613 0.510865
Si Si5 0.327145 0.802118 0.173487
Si Si6 0.162721 0.921731 0.251489
Si Si7 0.835950 0.922776 0.428051
O O1 0.774716 0.727433 0.842710
O O2 0.776626 0.865894 0.817700
O O3 0.750503 0.769753 0.705865
O O4 0.000000 0.784489 0.776107
O O5 0.500000 0.306248 0.876260
O O6 0.341648 0.232238 0.969350
O O7 0.278015 0.362300 0.953188
O O8 0.242549 0.101403 0.964149
O O9 0.000000 0.087554 0.895611
O O10 0.218102 0.000000 0.863223
O O11 0.500000 0.373224 0.519917
O O12 0.733375 0.323568 0.591552
O O13 0.500000 0.787745 0.171933
O O14 0.288909 0.868767 0.225275
O O15 0.169306 0.927556 0.339592
O O16 0.000000 0.894887 0.226683
O O17 0.192174 0.000000 0.217196
O O18 0.000000 0.903382 0.455763
O O19 0.790371 0.000000 0.461200
#
# Coordination Sequence:
#
# PCOD8177633 Si02
#       7
#     8   8   8   8   8   8   8
#     4  10  19  32  52  75 100 130 166 211 257 299
#     4  10  18  31  50  71  95 126 165 206 244 292
#     4   9  19  36  57  80 103 131 171 216 260 308
#     4   9  21  36  49  71 104 136 165 203 254 303
#     4  11  21  33  49  72 103 137 171 207 246 297
#     4   9  18  31  46  67  98 131 159 192 236 284
#     4   9  17  29  46  69  97 125 153 192 240 285
#
# _framework density 18.224195999999999
#
# number of rings (size 3 to 8) (size 9 to 14) (size 15 to 20)
#    0.000    2.429    1.429    2.143    0.000    3.714 
#    0.000    4.286    0.000    0.857    0.000    4.000 
#    0.000    0.000    0.000    0.000    0.000    0.000 
#
# Total GULP energy -346999.325510 kJ/mol
# GULP energy per Si atom -12392.833054 kJ/mol
# Density = 1.818272 g / cm^3
# Si number density = 18.224196 Si / 1000 Ang^3
#
#
#
# Elastic Constant Matrix: (Units=GPa)
#
#
# Indices 1 2 3 4 5 6 
#
# 1 65.5256 37.1975 15.7191 0.0000 0.0000 0.0000
# 2 37.1975 109.0066 20.6869 0.0000 0.0000 0.0000
# 3 15.7191 20.6869 52.2068 0.0000 0.0000 0.0000
# 4 0.0000 0.0000 0.0000 12.3839 0.0000 0.0000
# 5 0.0000 0.0000 0.0000 0.0000 19.8051 0.0000
# 6 0.0000 0.0000 0.0000 0.0000 0.0000 23.1477
#
#
#
# Elastic Compliance Matrix: (Units=1/GPa)
#
#
# Indices 1 2 3 4 5 6 
#
# 1 0.019501 -0.005991 -0.003498 0.000000 0.000000 0.000000
# 2 -0.005991 0.011760 -0.002856 0.000000 0.000000 0.000000
# 3 -0.003498 -0.002856 0.021340 0.000000 0.000000 0.000000
# 4 0.000000 0.000000 0.000000 0.080750 0.000000 0.000000
# 5 0.000000 0.000000 0.000000 0.000000 0.050492 0.000000
# 6 0.000000 0.000000 0.000000 0.000000 0.000000 0.043201
#
#
# Mechanical properties :
#
#
# Convention : Reuss Voigt Hill
#
# Bulk Modulus (GPa) = 35.82784 41.54956 38.68870
# Shear Modulus (GPa) = 19.15437 21.27636 20.21536
#
# Velocity S-wave (km/s) = 3.24549 3.42055 3.33417
# Velocity P-wave (km/s) = 5.80917 6.20071 6.00813
#
# Compressibility (1/GPa) = 0.02791125
#
# Stress axis : x y z
#
# Youngs Moduli (GPa) = 51.27898 85.03334 46.86142
#
# Poissons Ratio (x) = 0.50942 0.16391
# Poissons Ratio (y) = 0.30720 0.13384
# Poissons Ratio (z) = 0.17936 0.24287
#
# Static dielectric constant tensor:
#      x y z
#    x 3.520500 0.000000 0.000000 
#    y 0.000000 3.819980 0.000000 
#    z 0.000000 0.000000 3.193730 
# 
# 
# High freq. dielectric constant tensor:
#      x y z
#    x 1.706480 0.000000 0.000000 
#    y 0.000000 1.710330 0.000000 
#    z 0.000000 0.000000 1.667520 
# 
# From -- ./inp_files/17074.got.cif
#   From: 2010.03.12/outbox.cif.g09.slc.cpg/sg38_9_cif.got.tgz:17074.got - 2010.04.14 02:38:36.
