data_PCOD8177956
_publ_section_title
;
Structure prediction by ZEFSAII (Michael W. Deem and Ramdas Pophale) SiO2 
 PCOD8177956
Probable space group: A M M 2
;
_chemical_formula_sum "Si O2"
_cell_formula_units_Z 64
_cell_length_a 9.130308
_cell_length_b 22.615125
_cell_length_c 19.989928
_cell_angle_alpha 90.000000
_cell_angle_beta 90.000000
_cell_angle_gamma 90.000000
_cell_volume 4127.581437
_symmetry_space_group_name_H-M "A M M 2"
_symmetry_group_IT_number 38
_symmetry_cell_setting 'orthorhombic'
loop_
_space_group_symop_operation_xyz
x,y,z
-x,-y,z
-x,y,z
x,-y,z
x,1/2+y,1/2+z
-x,1/2-y,1/2+z
-x,1/2+y,1/2+z
x,1/2-y,1/2+z
loop_
_atom_site_type_symbol
_atom_site_label
_atom_site_fract_x
_atom_site_fract_y
_atom_site_fract_z
Si Si1 0.668150 0.169882 0.500000
Si Si2 0.838585 0.344851 0.456771
Si Si3 0.831466 0.864359 0.292485
Si Si4 0.326674 0.648264 0.657273
Si Si5 0.671944 0.066106 0.034923
Si Si6 0.832936 0.265046 0.887849
Si Si7 0.330860 0.567886 0.908389
Si Si8 0.834568 0.743567 0.581026
O O1 0.500000 0.182507 0.517899
O O2 0.710206 0.205804 0.433791
O O3 0.695784 0.101340 0.479648
O O4 0.764298 0.192318 0.563174
O O5 0.728586 0.398911 0.469263
O O6 0.805652 0.306607 0.388847
O O7 0.826158 0.296642 0.515432
O O8 0.000000 0.372990 0.454348
O O9 0.735232 0.875221 0.227035
O O10 0.817311 0.795177 0.314963
O O11 0.773890 0.907316 0.350569
O O12 0.000000 0.880403 0.277247
O O13 0.500000 0.655400 0.661424
O O14 0.279372 0.599728 0.602160
O O15 0.256383 0.711767 0.639819
O O16 0.500000 0.063472 0.028748
O O17 0.738276 0.000000 0.036415
O O18 0.000000 0.276857 0.914973
O O19 0.500000 0.576196 0.886033
O O20 0.290906 0.500000 0.920934
O O21 0.000000 0.752975 0.606189
#
# Coordination Sequence:
#
# PCOD8177956 Si02
#       8
#     8   8   8   8   8   8   8   8
#     4   9  15  24  41  62  80 101 133 171 210 251
#     4   8  14  25  41  59  76  97 127 163 202 242
#     4  10  19  30  43  60  83 111 142 175 210 247
#     4  10  19  30  43  59  81 111 145 176 204 241
#     4   9  18  30  41  55  78 108 138 167 200 235
#     4   8  15  27  41  57  79 104 129 163 209 253
#     4   9  18  31  44  59  83 115 147 177 208 243
#     4   9  16  27  42  59  80 104 131 168 213 253
#
# _framework density 15.505447
#
# number of rings (size 3 to 8) (size 9 to 14) (size 15 to 20)
#    0.000    3.000    0.000    2.250    0.000    5.500 
#    0.000    1.250    0.000    0.000    0.000    0.000 
#    0.000    1.000    0.000    7.250    0.000    4.250 
#
# Total GULP energy -396499.165623 kJ/mol
# GULP energy per Si atom -12390.598926 kJ/mol
# Density = 1.547016 g / cm^3
# Si number density = 15.505447 Si / 1000 Ang^3
#
#
#
# Elastic Constant Matrix: (Units=GPa)
#
#
# Indices 1 2 3 4 5 6 
#
# 1 69.3982 43.4062 19.7288 0.0000 0.0000 0.0000
# 2 43.4062 105.0941 41.4372 0.0000 0.0000 0.0000
# 3 19.7288 41.4372 19.6792 0.0000 0.0000 0.0000
# 4 0.0000 0.0000 0.0000 15.6412 0.0000 0.0000
# 5 0.0000 0.0000 0.0000 0.0000 19.8256 0.0000
# 6 0.0000 0.0000 0.0000 0.0000 0.0000 20.3037
#
#
#
# Elastic Compliance Matrix: (Units=1/GPa)
#
#
# Indices 1 2 3 4 5 6 
#
# 1 0.020233 -0.002114 -0.015832 0.000000 0.000000 0.000000
# 2 -0.002114 0.056267 -0.116357 0.000000 0.000000 0.000000
# 3 -0.015832 -0.116357 0.311691 0.000000 0.000000 0.000000
# 4 0.000000 0.000000 0.000000 0.063934 0.000000 0.000000
# 5 0.000000 0.000000 0.000000 0.000000 0.050440 0.000000
# 6 0.000000 0.000000 0.000000 0.000000 0.000000 0.049252
#
#
# Mechanical properties :
#
#
# Convention : Reuss Voigt Hill
#
# Bulk Modulus (GPa) = 8.36227 44.81287 26.58757
# Shear Modulus (GPa) = 5.81204 17.12739 11.46972
#
# Velocity S-wave (km/s) = 1.93817 3.32717 2.72273
# Velocity P-wave (km/s) = 3.22700 6.61242 5.20277
#
# Compressibility (1/GPa) = 0.11958479
#
# Stress axis : x y z
#
# Youngs Moduli (GPa) = 49.42490 17.77254 3.20830
#
# Poissons Ratio (x) = 0.03758 0.05079
# Poissons Ratio (y) = 0.10450 0.37331
# Poissons Ratio (z) = 0.78247 2.06796
#
# Static dielectric constant tensor:
#      x y z
#    x 3.047500 0.000000 0.000000 
#    y 0.000000 3.157010 0.000000 
#    z 0.000000 0.000000 2.749740 
# 
# 
# High freq. dielectric constant tensor:
#      x y z
#    x 1.607100 0.000000 0.000000 
#    y 0.000000 1.579860 0.000000 
#    z 0.000000 0.000000 1.549250 
# 
# From -- ./inp_files/20230.got.cif
#   From: 2010.03.12/outbox.cif.g09.slc.cpg/sg38_11_cif.got.tgz:20230.got - 2010.04.14 02:38:36.
