data_PCOD8177327
_publ_section_title
;
Structure prediction by ZEFSAII (Michael W. Deem and Ramdas Pophale) SiO2 
 PCOD8177327
Probable space group: A M M 2
;
_chemical_formula_sum "Si O2"
_cell_formula_units_Z 56
_cell_length_a 8.935518
_cell_length_b 15.162144
_cell_length_c 29.572316
_cell_angle_alpha 90.000000
_cell_angle_beta 90.000000
_cell_angle_gamma 90.000000
_cell_volume 4006.505002
_symmetry_space_group_name_H-M "A M M 2"
_symmetry_group_IT_number 38
_symmetry_cell_setting 'orthorhombic'
loop_
_space_group_symop_operation_xyz
x,y,z
-x,-y,z
-x,y,z
x,-y,z
x,1/2+y,1/2+z
-x,1/2-y,1/2+z
-x,1/2+y,1/2+z
x,1/2-y,1/2+z
loop_
_atom_site_type_symbol
_atom_site_label
_atom_site_fract_x
_atom_site_fract_y
_atom_site_fract_z
Si Si1 0.672709 0.896077 0.563880
Si Si2 0.668555 0.104858 0.384018
Si Si3 0.331575 0.185629 0.208613
Si Si4 0.176650 0.766322 0.629966
Si Si5 0.176571 0.101516 0.292477
Si Si6 0.331521 0.903250 0.120104
Si Si7 0.168643 0.395054 0.972861
O O1 0.500000 0.868284 0.565575
O O2 0.761094 0.851682 0.604848
O O3 0.740464 0.862410 0.516543
O O4 0.694031 0.000000 0.569386
O O5 0.500000 0.142089 0.382628
O O6 0.756072 0.136406 0.339540
O O7 0.751756 0.143510 0.428131
O O8 0.667263 0.000000 0.386606
O O9 0.500000 0.215481 0.221491
O O10 0.247549 0.264025 0.180666
O O11 0.240902 0.162910 0.253373
O O12 0.335561 0.101024 0.175087
O O13 0.225944 0.676689 0.602450
O O14 0.000000 0.771579 0.633201
O O15 0.000000 0.112182 0.294398
O O16 0.223162 0.000000 0.283954
O O17 0.500000 0.890001 0.101089
O O18 0.269442 0.000000 0.105930
O O19 0.167258 0.500000 0.970850
O O20 0.000000 0.357993 0.975445
#
# Coordination Sequence:
#
# PCOD8177327 Si02
#       7
#     8   8   8   8   8   8   8
#     4  10  19  31  46  61  78 104 138 172 208 251
#     4   9  16  25  36  51  73 101 132 164 197 235
#     4   9  17  28  39  52  74 103 136 167 198 235
#     4  10  19  29  41  59  81 103 133 172 209 244
#     4  10  18  25  35  53  76 103 136 170 201 234
#     4   8  15  27  41  55  75 104 135 165 197 235
#     4   9  16  26  40  57  76  98 127 165 205 241
#
# _framework density 13.977270000000001
#
# number of rings (size 3 to 8) (size 9 to 14) (size 15 to 20)
#    0.857    1.857    0.000    3.429    0.000    6.000 
#    0.000    0.000    0.000    0.000    0.000    0.000 
#    0.000    0.000    0.000    1.286    0.000   23.714 
#
# Total GULP energy -346958.518353 kJ/mol
# GULP energy per Si atom -12391.375655 kJ/mol
# Density = 1.394546 g / cm^3
# Si number density = 13.977270 Si / 1000 Ang^3
#
#
#
# Elastic Constant Matrix: (Units=GPa)
#
#
# Indices 1 2 3 4 5 6 
#
# 1 117.0028 23.6093 50.8352 0.0000 0.0000 0.0000
# 2 23.6093 24.7997 25.1163 0.0000 0.0000 0.0000
# 3 50.8352 25.1163 95.3586 0.0000 0.0000 0.0000
# 4 0.0000 0.0000 0.0000 15.7027 0.0000 0.0000
# 5 0.0000 0.0000 0.0000 0.0000 28.1058 0.0000
# 6 0.0000 0.0000 0.0000 0.0000 0.0000 16.4057
#
#
#
# Elastic Compliance Matrix: (Units=1/GPa)
#
#
# Indices 1 2 3 4 5 6 
#
# 1 0.011882 -0.006678 -0.004575 0.000000 0.000000 0.000000
# 2 -0.006678 0.058746 -0.011913 0.000000 0.000000 0.000000
# 3 -0.004575 -0.011913 0.016064 0.000000 0.000000 0.000000
# 4 0.000000 0.000000 0.000000 0.063683 0.000000 0.000000
# 5 0.000000 0.000000 0.000000 0.000000 0.035580 0.000000
# 6 0.000000 0.000000 0.000000 0.000000 0.000000 0.060954
#
#
# Mechanical properties :
#
#
# Convention : Reuss Voigt Hill
#
# Bulk Modulus (GPa) = 24.77780 48.47586 36.62683
# Shear Modulus (GPa) = 16.30286 21.21618 18.75952
#
# Velocity S-wave (km/s) = 3.41894 3.90026 3.66750
# Velocity P-wave (km/s) = 5.77505 7.41889 6.64797
#
# Compressibility (1/GPa) = 0.04035870
#
# Stress axis : x y z
#
# Youngs Moduli (GPa) = 84.15901 17.02258 62.25252
#
# Poissons Ratio (x) = 0.11368 0.28484
# Poissons Ratio (y) = 0.56201 0.74161
# Poissons Ratio (z) = 0.38507 0.20279
#
# Static dielectric constant tensor:
#      x y z
#    x 2.897200 0.000000 0.000000 
#    y 0.000000 2.319450 0.000000 
#    z 0.000000 0.000000 2.678490 
# 
# 
# High freq. dielectric constant tensor:
#      x y z
#    x 1.553290 0.000000 0.000000 
#    y 0.000000 1.471660 0.000000 
#    z 0.000000 0.000000 1.520590 
# 
# From -- ./inp_files/24652.got.cif
#   From: 2010.03.12/outbox.cif.g09.slc.cpg/sg38_13_cif.got.tgz:24652.got - 2010.04.14 02:38:36.
