data_PCOD8177037
_publ_section_title
;
Structure prediction by ZEFSAII (Michael W. Deem and Ramdas Pophale) SiO2 
 PCOD8177037
Probable space group: C C C 2
;
_chemical_formula_sum "Si O2"
_cell_formula_units_Z 20
_cell_length_a 6.999046
_cell_length_b 10.985191
_cell_length_c 9.677438
_cell_angle_alpha 90.000000
_cell_angle_beta 90.000000
_cell_angle_gamma 90.000000
_cell_volume 744.058115
_symmetry_space_group_name_H-M "C C C 2"
_symmetry_group_IT_number 37
_symmetry_cell_setting 'orthorhombic'
loop_
_space_group_symop_operation_xyz
x,y,z
-x,-y,z
-x,y,1/2+z
x,-y,1/2+z
1/2+x,1/2+y,z
1/2-x,1/2-y,z
1/2-x,1/2+y,1/2+z
1/2+x,1/2-y,1/2+z
loop_
_atom_site_type_symbol
_atom_site_label
_atom_site_fract_x
_atom_site_fract_y
_atom_site_fract_z
Si Si1 0.000000 0.500000 0.042181
Si Si2 0.967167 0.747302 0.901935
Si Si3 0.627393 0.393654 0.670469
O O1 0.834332 0.549067 0.142765
O O2 0.050258 0.614598 0.944304
O O3 0.750000 0.750000 0.841581
O O4 0.118846 0.789521 0.786977
O O5 0.963721 0.837508 0.032509
O O6 0.500000 0.500000 0.731458
#
# Coordination Sequence:
#
# PCOD8177037 Si02
#       3
#     4   8   8
#     4  10  26  54  80 126 166 228 276 346 424 502
#     4  10  25  51  80 125 169 221 276 348 419 496
#     4  11  25  52  80 119 171 221 281 344 415 502
#
# _framework density 26.879619999999999
#
# number of rings (size 3 to 8) (size 9 to 14) (size 15 to 20)
#    0.000    1.600    0.000    1.200    5.600    1.600 
#   57.600    0.000    0.000    0.000    0.000    0.000 
#    0.000    0.000    0.000    0.000    0.000    0.000 
#
# Total GULP energy -123938.226278 kJ/mol
# GULP energy per Si atom -12393.822628 kJ/mol
# Density = 2.681844 g / cm^3
# Si number density = 26.879620 Si / 1000 Ang^3
#
#
#
# Elastic Constant Matrix: (Units=GPa)
#
#
# Indices 1 2 3 4 5 6 
#
# 1 146.8789 98.3334 91.4918 0.0000 0.0000 0.0000
# 2 98.3334 195.4092 71.7163 0.0000 0.0000 0.0000
# 3 91.4918 71.7163 172.4975 0.0000 0.0000 0.0000
# 4 0.0000 0.0000 0.0000 29.7394 0.0000 0.0000
# 5 0.0000 0.0000 0.0000 0.0000 21.4847 0.0000
# 6 0.0000 0.0000 0.0000 0.0000 0.0000 52.1994
#
#
#
# Elastic Compliance Matrix: (Units=1/GPa)
#
#
# Indices 1 2 3 4 5 6 
#
# 1 0.013089 -0.004766 -0.004961 0.000000 0.000000 0.000000
# 2 -0.004766 0.007774 -0.000704 0.000000 0.000000 0.000000
# 3 -0.004961 -0.000704 0.008721 0.000000 0.000000 0.000000
# 4 0.000000 0.000000 0.000000 0.033625 0.000000 0.000000
# 5 0.000000 0.000000 0.000000 0.000000 0.046545 0.000000
# 6 0.000000 0.000000 0.000000 0.000000 0.000000 0.019157
#
#
# Mechanical properties :
#
#
# Convention : Reuss Voigt Hill
#
# Bulk Modulus (GPa) = 114.64991 115.31873 114.98432
# Shear Modulus (GPa) = 32.74758 37.56762 35.15760
#
# Velocity S-wave (km/s) = 3.49421 3.74254 3.62050
# Velocity P-wave (km/s) = 7.68278 7.85306 7.76838
#
# Compressibility (1/GPa) = 0.00872220
#
# Stress axis : x y z
#
# Youngs Moduli (GPa) = 76.39740 128.62841 114.66166
#
# Poissons Ratio (x) = 0.61306 0.56884
# Poissons Ratio (y) = 0.36412 0.08075
# Poissons Ratio (z) = 0.37901 0.09059
#
# Static dielectric constant tensor:
#      x y z
#    x 4.890420 0.000000 0.000000 
#    y 0.000000 5.393910 0.000000 
#    z 0.000000 0.000000 4.695510 
# 
# 
# High freq. dielectric constant tensor:
#      x y z
#    x 2.091010 0.000000 0.000000 
#    y 0.000000 2.110580 0.000000 
#    z 0.000000 0.000000 2.075800 
# 
# From -- ./inp_files/1825.got.cif
#   From: 2010.03.12/outbox.cif.g09.slc.cpg/sg37_1_cif.got.tgz:1825.got - 2010.04.14 02:25:27.
