data_PCOD8177475
_publ_section_title
;
Structure prediction by ZEFSAII (Michael W. Deem and Ramdas Pophale) SiO2 
 PCOD8177475
Probable space group: A M M 2
;
_chemical_formula_sum "Si O2"
_cell_formula_units_Z 64
_cell_length_a 9.095917
_cell_length_b 20.898157
_cell_length_c 19.677579
_cell_angle_alpha 90.000000
_cell_angle_beta 90.000000
_cell_angle_gamma 90.000000
_cell_volume 3740.469699
_symmetry_space_group_name_H-M "A M M 2"
_symmetry_group_IT_number 38
_symmetry_cell_setting 'orthorhombic'
loop_
_space_group_symop_operation_xyz
x,y,z
-x,-y,z
-x,y,z
x,-y,z
x,1/2+y,1/2+z
-x,1/2-y,1/2+z
-x,1/2+y,1/2+z
x,1/2-y,1/2+z
loop_
_atom_site_type_symbol
_atom_site_label
_atom_site_fract_x
_atom_site_fract_y
_atom_site_fract_z
Si Si1 0.170600 0.693304 0.710730
Si Si2 0.168322 0.241224 0.354947
Si Si3 0.326677 0.627533 0.358459
Si Si4 0.166974 0.727874 0.003765
Si Si5 0.830555 0.378036 0.493227
Si Si6 0.674347 0.070466 0.717991
Si Si7 0.325453 0.308843 0.133938
Si Si8 0.825151 0.429932 0.634529
O O1 0.191736 0.693191 0.792139
O O2 0.258644 0.750106 0.675555
O O3 0.233446 0.625030 0.685243
O O4 0.000000 0.701899 0.690298
O O5 0.275071 0.300572 0.344325
O O6 0.202898 0.205320 0.426353
O O7 0.000000 0.266883 0.357983
O O8 0.500000 0.627762 0.366677
O O9 0.257737 0.598873 0.427103
O O10 0.274357 0.584934 0.294894
O O11 0.274425 0.691882 0.055651
O O12 0.000000 0.711040 0.023867
O O13 0.194573 0.803482 0.008306
O O14 0.769483 0.416424 0.558080
O O15 0.000000 0.393293 0.479513
O O16 0.500000 0.070930 0.715238
O O17 0.733407 0.124802 0.666613
O O18 0.734782 0.000000 0.697112
O O19 0.500000 0.303563 0.137562
O O20 0.766656 0.500000 0.657491
O O21 0.000000 0.428698 0.635092
#
# Coordination Sequence:
#
# PCOD8177475 Si02
#       8
#     8   8   8   8   8   8   8   8
#     4  10  18  32  53  74  97 128 162 201 244 285
#     4   9  18  31  50  72  98 129 159 195 245 293
#     4  10  18  29  47  70  96 128 164 201 237 280
#     4   9  17  31  48  70  98 129 160 197 244 289
#     4   9  17  30  46  68  99 133 163 194 235 283
#     4   9  19  34  48  66  97 132 163 199 245 292
#     4  11  20  31  51  76  96 124 164 204 243 286
#     4   9  17  30  49  72  98 130 166 199 235 286
#
# _framework density 17.110150000000001
#
# number of rings (size 3 to 8) (size 9 to 14) (size 15 to 20)
#    0.000    2.500    2.500    1.500    0.000    2.500 
#    0.000    0.000    0.000    7.500    0.000    1.750 
#    0.000    0.000    0.000    0.000    0.000    0.000 
#
# Total GULP energy -396672.142013 kJ/mol
# GULP energy per Si atom -12396.004438 kJ/mol
# Density = 1.707121 g / cm^3
# Si number density = 17.110150 Si / 1000 Ang^3
#
#
#
# Elastic Constant Matrix: (Units=GPa)
#
#
# Indices 1 2 3 4 5 6 
#
# 1 47.0760 27.9833 35.7809 0.0000 0.0000 0.0000
# 2 27.9833 117.0705 74.9242 0.0000 0.0000 0.0000
# 3 35.7809 74.9242 133.2914 0.0000 0.0000 0.0000
# 4 0.0000 0.0000 0.0000 25.0815 0.0000 0.0000
# 5 0.0000 0.0000 0.0000 0.0000 25.7097 0.0000
# 6 0.0000 0.0000 0.0000 0.0000 0.0000 14.9364
#
#
#
# Elastic Compliance Matrix: (Units=1/GPa)
#
#
# Indices 1 2 3 4 5 6 
#
# 1 0.027289 -0.002865 -0.005715 0.000000 0.000000 0.000000
# 2 -0.002865 0.013642 -0.006899 0.000000 0.000000 0.000000
# 3 -0.005715 -0.006899 0.012915 0.000000 0.000000 0.000000
# 4 0.000000 0.000000 0.000000 0.039870 0.000000 0.000000
# 5 0.000000 0.000000 0.000000 0.000000 0.038896 0.000000
# 6 0.000000 0.000000 0.000000 0.000000 0.000000 0.066951
#
#
# Mechanical properties :
#
#
# Convention : Reuss Voigt Hill
#
# Bulk Modulus (GPa) = 43.69296 63.86828 53.78062
# Shear Modulus (GPa) = 20.99512 23.72880 22.36196
#
# Velocity S-wave (km/s) = 3.50674 3.72805 3.61909
# Velocity P-wave (km/s) = 6.47981 7.47930 6.99742
#
# Compressibility (1/GPa) = 0.02288698
#
# Stress axis : x y z
#
# Youngs Moduli (GPa) = 36.64451 73.30176 77.43201
#
# Poissons Ratio (x) = 0.21004 0.44251
# Poissons Ratio (y) = 0.10500 0.53422
# Poissons Ratio (z) = 0.20942 0.50572
#
# Static dielectric constant tensor:
#      x y z
#    x 2.979010 0.000000 0.000000 
#    y 0.000000 3.213780 0.000000 
#    z 0.000000 0.000000 3.499860 
# 
# 
# High freq. dielectric constant tensor:
#      x y z
#    x 1.636340 0.000000 0.000000 
#    y 0.000000 1.634400 0.000000 
#    z 0.000000 0.000000 1.670550 
# 
# From -- ./inp_files/20040.got.cif
#   From: 2010.03.12/outbox.cif.g09.slc.cpg/sg38_11_cif.got.tgz:20040.got - 2010.04.14 02:38:36.
