data_PCOD8177065
_publ_section_title
;
Structure prediction by ZEFSAII (Michael W. Deem and Ramdas Pophale) SiO2 
 PCOD8177065
Probable space group: C C C 2
;
_chemical_formula_sum "Si O2"
_cell_formula_units_Z 48
_cell_length_a 4.959920
_cell_length_b 28.007507
_cell_length_c 16.524329
_cell_angle_alpha 90.000000
_cell_angle_beta 90.000000
_cell_angle_gamma 90.000000
_cell_volume 2295.477066
_symmetry_space_group_name_H-M "C C C 2"
_symmetry_group_IT_number 37
_symmetry_cell_setting 'orthorhombic'
loop_
_space_group_symop_operation_xyz
x,y,z
-x,-y,z
-x,y,1/2+z
x,-y,1/2+z
1/2+x,1/2+y,z
1/2-x,1/2-y,z
1/2-x,1/2+y,1/2+z
1/2+x,1/2-y,1/2+z
loop_
_atom_site_type_symbol
_atom_site_label
_atom_site_fract_x
_atom_site_fract_y
_atom_site_fract_z
Si Si1 0.752789 0.467335 0.433460
Si Si2 0.250000 0.750000 0.204645
Si Si3 0.164246 0.645621 0.146306
Si Si4 0.750000 0.750000 0.319053
Si Si5 0.427857 0.656948 0.895285
Si Si6 0.352436 0.381870 0.051996
Si Si7 0.424534 0.112883 0.821311
O O1 0.500000 0.500000 0.414109
O O2 0.695266 0.432539 0.509083
O O3 0.811645 0.438354 0.350434
O O4 0.000000 0.500000 0.459913
O O5 0.258870 0.701145 0.152265
O O6 0.504117 0.758074 0.260395
O O7 0.431755 0.614734 0.124873
O O8 0.038762 0.620013 0.225636
O O9 0.931514 0.640829 0.078810
O O10 0.712612 0.706740 0.379524
O O11 0.705624 0.653066 0.845434
O O12 0.211093 0.617295 0.866943
O O13 0.499114 0.653551 0.989322
#
# Coordination Sequence:
#
# PCOD8177065 Si02
#       7
#     8   4   8   4   8   8   8
#     4  11  23  45  70  94 123 171 228 281 337 406
#     4  12  24  39  66  99 136 184 222 266 320 381
#     4  12  23  43  64 101 139 178 213 267 333 395
#     4  12  20  39  64  97 126 178 240 272 294 383
#     4  11  21  40  64  94 127 176 226 266 317 384
#     4  11  25  41  65  96 138 175 210 276 346 390
#     4  11  22  41  68  95 128 168 222 271 330 396
#
# _framework density 20.910684
#
# number of rings (size 3 to 8) (size 9 to 14) (size 15 to 20)
#    0.000    0.667    3.333    7.000    0.000    0.667 
#    0.000    8.333    0.000    0.000    0.000    0.000 
#    0.000    0.000    0.000    0.000    0.000    0.000 
#
# Total GULP energy -297574.300982 kJ/mol
# GULP energy per Si atom -12398.929208 kJ/mol
# Density = 2.086309 g / cm^3
# Si number density = 20.910684 Si / 1000 Ang^3
#
#
#
# Elastic Constant Matrix: (Units=GPa)
#
#
# Indices 1 2 3 4 5 6 
#
# 1 127.0498 34.5021 33.4721 0.0000 0.0000 0.0000
# 2 34.5021 123.7317 54.6599 0.0000 0.0000 0.0000
# 3 33.4721 54.6599 88.4762 0.0000 0.0000 0.0000
# 4 0.0000 0.0000 0.0000 39.5941 0.0000 0.0000
# 5 0.0000 0.0000 0.0000 0.0000 48.7211 0.0000
# 6 0.0000 0.0000 0.0000 0.0000 0.0000 44.5154
#
#
#
# Elastic Compliance Matrix: (Units=1/GPa)
#
#
# Indices 1 2 3 4 5 6 
#
# 1 0.008908 -0.001369 -0.002524 0.000000 0.000000 0.000000
# 2 -0.001369 0.011326 -0.006479 0.000000 0.000000 0.000000
# 3 -0.002524 -0.006479 0.016260 0.000000 0.000000 0.000000
# 4 0.000000 0.000000 0.000000 0.025256 0.000000 0.000000
# 5 0.000000 0.000000 0.000000 0.000000 0.020525 0.000000
# 6 0.000000 0.000000 0.000000 0.000000 0.000000 0.022464
#
#
# Mechanical properties :
#
#
# Convention : Reuss Voigt Hill
#
# Bulk Modulus (GPa) = 63.49497 64.94732 64.22114
# Shear Modulus (GPa) = 38.24563 41.00769 39.62666
#
# Velocity S-wave (km/s) = 4.28132 4.43322 4.35793
# Velocity P-wave (km/s) = 7.40745 7.57175 7.49005
#
# Compressibility (1/GPa) = 0.01574928
#
# Stress axis : x y z
#
# Youngs Moduli (GPa) = 112.26276 88.29264 61.49929
#
# Poissons Ratio (x) = 0.12085 0.15525
# Poissons Ratio (y) = 0.15365 0.39847
# Poissons Ratio (z) = 0.28339 0.57207
#
# Static dielectric constant tensor:
#      x y z
#    x 4.057520 0.000000 0.000000 
#    y 0.000000 3.785740 0.000000 
#    z 0.000000 0.000000 3.759380 
# 
# 
# High freq. dielectric constant tensor:
#      x y z
#    x 1.850130 0.000000 0.000000 
#    y 0.000000 1.808700 0.000000 
#    z 0.000000 0.000000 1.812320 
# 
# From -- ./inp_files/9787.got.cif
#   From: 2010.03.12/outbox.cif.g09.slc.cpg/sg37_5_cif.got.tgz:9787.got - 2010.04.14 02:25:27.
