data_PCOD8177161
_publ_section_title
;
Structure prediction by ZEFSAII (Michael W. Deem and Ramdas Pophale) SiO2 
 PCOD8177161
Probable space group: C C C 2
;
_chemical_formula_sum "Si O2"
_cell_formula_units_Z 56
_cell_length_a 13.331987
_cell_length_b 20.336785
_cell_length_c 8.985881
_cell_angle_alpha 90.000000
_cell_angle_beta 90.000000
_cell_angle_gamma 90.000000
_cell_volume 2436.339698
_symmetry_space_group_name_H-M "C C C 2"
_symmetry_group_IT_number 37
_symmetry_cell_setting 'orthorhombic'
loop_
_space_group_symop_operation_xyz
x,y,z
-x,-y,z
-x,y,1/2+z
x,-y,1/2+z
1/2+x,1/2+y,z
1/2-x,1/2-y,z
1/2-x,1/2+y,1/2+z
1/2+x,1/2-y,1/2+z
loop_
_atom_site_type_symbol
_atom_site_label
_atom_site_fract_x
_atom_site_fract_y
_atom_site_fract_z
Si Si1 0.801602 0.687332 0.722680
Si Si2 0.944758 0.148484 0.669422
Si Si3 0.425318 0.940660 0.685622
Si Si4 0.355086 0.582517 0.287073
Si Si5 0.432076 0.864529 0.986818
Si Si6 0.700353 0.459118 0.606267
Si Si7 0.975355 0.238146 0.397373
O O1 0.750000 0.750000 0.642519
O O2 0.717508 0.645632 0.809200
O O3 0.841330 0.633557 0.604257
O O4 0.883399 0.716965 0.837195
O O5 0.846773 0.102978 0.697216
O O6 0.944248 0.174483 0.497259
O O7 0.039536 0.106644 0.723244
O O8 0.948580 0.214119 0.768420
O O9 0.473351 0.902582 0.549481
O O10 0.320553 0.960882 0.612877
O O11 0.500000 0.000000 0.732505
O O12 0.403765 0.894637 0.827749
O O13 0.350976 0.544755 0.443952
O O14 0.326251 0.530197 0.164115
O O15 0.455997 0.787260 0.989938
#
# Coordination Sequence:
#
# PCOD8177161 Si02
#       7
#     8   8   8   8   8   8   8
#     4  12  23  45  77 109 152 198 262 319 399 465
#     4  12  25  49  74 109 156 201 260 321 393 465
#     4  12  28  48  76 106 155 200 267 328 398 478
#     4  12  28  49  75 111 158 207 263 327 394 465
#     4  12  25  46  72 110 148 197 251 331 387 469
#     4  12  30  47  76 114 151 213 263 325 392 483
#     4  12  23  45  76 108 148 205 254 326 395 466
#
# _framework density 22.985302000000001
#
# number of rings (size 3 to 8) (size 9 to 14) (size 15 to 20)
#    0.000    0.000    5.714    2.571    8.000    2.286 
#    0.000    1.429    0.000    0.000    0.000    0.000 
#    0.000    0.000    0.000    0.000    0.000    0.000 
#
# Total GULP energy -346997.648259 kJ/mol
# GULP energy per Si atom -12392.773152 kJ/mol
# Density = 2.293299 g / cm^3
# Si number density = 22.985302 Si / 1000 Ang^3
#
#
#
# Elastic Constant Matrix: (Units=GPa)
#
#
# Indices 1 2 3 4 5 6 
#
# 1 106.7271 32.9920 24.6541 0.0000 0.0000 0.0000
# 2 32.9920 114.9059 31.2077 0.0000 0.0000 0.0000
# 3 24.6541 31.2077 86.4346 0.0000 0.0000 0.0000
# 4 0.0000 0.0000 0.0000 50.0911 0.0000 0.0000
# 5 0.0000 0.0000 0.0000 0.0000 14.2348 0.0000
# 6 0.0000 0.0000 0.0000 0.0000 0.0000 41.4860
#
#
#
# Elastic Compliance Matrix: (Units=1/GPa)
#
#
# Indices 1 2 3 4 5 6 
#
# 1 0.010628 -0.002470 -0.002139 0.000000 0.000000 0.000000
# 2 -0.002470 0.010223 -0.002987 0.000000 0.000000 0.000000
# 3 -0.002139 -0.002987 0.013258 0.000000 0.000000 0.000000
# 4 0.000000 0.000000 0.000000 0.019964 0.000000 0.000000
# 5 0.000000 0.000000 0.000000 0.000000 0.070250 0.000000
# 6 0.000000 0.000000 0.000000 0.000000 0.000000 0.024104
#
#
# Mechanical properties :
#
#
# Convention : Reuss Voigt Hill
#
# Bulk Modulus (GPa) = 52.86484 53.97502 53.41993
# Shear Modulus (GPa) = 29.42476 35.77665 32.60071
#
# Velocity S-wave (km/s) = 3.58181 3.94953 3.77016
# Velocity P-wave (km/s) = 6.33681 6.65821 6.49950
#
# Compressibility (1/GPa) = 0.01891616
#
# Stress axis : x y z
#
# Youngs Moduli (GPa) = 94.09517 97.81698 75.42639
#
# Poissons Ratio (x) = 0.24164 0.16137
# Poissons Ratio (y) = 0.23245 0.22526
# Poissons Ratio (z) = 0.20131 0.29213
#
# Static dielectric constant tensor:
#      x y z
#    x 4.242980 0.000000 0.000000 
#    y 0.000000 4.422870 0.000000 
#    z 0.000000 0.000000 4.312580 
# 
# 
# High freq. dielectric constant tensor:
#      x y z
#    x 1.906430 0.000000 0.000000 
#    y 0.000000 1.933700 0.000000 
#    z 0.000000 0.000000 1.908820 
# 
# From -- ./inp_files/3660.got.cif
#   From: 2010.03.12/outbox.cif.g09.slc.cpg/sg37_2_cif.got.tgz:3660.got - 2010.04.14 02:25:27.
