data_PCOD8177717
_publ_section_title
;
Structure prediction by ZEFSAII (Michael W. Deem and Ramdas Pophale) SiO2 
 PCOD8177717
Probable space group: A M M 2
;
_chemical_formula_sum "Si O2"
_cell_formula_units_Z 64
_cell_length_a 19.307578
_cell_length_b 9.294072
_cell_length_c 20.676008
_cell_angle_alpha 90.000000
_cell_angle_beta 90.000000
_cell_angle_gamma 90.000000
_cell_volume 3710.227347
_symmetry_space_group_name_H-M "A M M 2"
_symmetry_group_IT_number 38
_symmetry_cell_setting 'orthorhombic'
loop_
_space_group_symop_operation_xyz
x,y,z
-x,-y,z
-x,y,z
x,-y,z
x,1/2+y,1/2+z
-x,1/2-y,1/2+z
-x,1/2+y,1/2+z
x,1/2-y,1/2+z
loop_
_atom_site_type_symbol
_atom_site_label
_atom_site_fract_x
_atom_site_fract_y
_atom_site_fract_z
Si Si1 0.786279 0.670814 0.194710
Si Si2 0.302033 0.831629 0.816940
Si Si3 0.422424 0.335163 0.132879
Si Si4 0.075982 0.170869 0.898177
Si Si5 0.220403 0.668717 0.446618
Si Si6 0.579239 0.166639 0.263499
Si Si7 0.075397 0.828945 0.752705
Si Si8 0.285019 0.167793 0.565279
O O1 0.785342 0.500000 0.193567
O O2 0.739601 0.723535 0.254237
O O3 0.864417 0.730696 0.205683
O O4 0.757041 0.729495 0.127058
O O5 0.257837 0.792799 0.879782
O O6 0.374177 0.744468 0.817839
O O7 0.318551 0.000000 0.813784
O O8 0.500000 0.307235 0.105637
O O9 0.413663 0.500000 0.156472
O O10 0.406385 0.235463 0.193677
O O11 0.366945 0.302597 0.076448
O O12 0.140228 0.224217 0.942396
O O13 0.085715 0.231038 0.825426
O O14 0.000000 0.220480 0.925340
O O15 0.078899 0.000000 0.894963
O O16 0.223277 0.500000 0.460998
O O17 0.260502 0.748859 0.502771
O O18 0.500000 0.189331 0.284534
O O19 0.598934 0.000000 0.259330
O O20 0.000000 0.780261 0.725892
O O21 0.080119 0.000000 0.755618
O O22 0.270154 0.000000 0.554754
#
# Coordination Sequence:
#
# PCOD8177717 Si02
#       8
#     8   8   8   8   8   8   8   8
#     4   9  15  27  46  69  96 126 162 202 244 290
#     4  10  18  32  53  74  97 129 168 208 247 291
#     4   9  17  32  54  75  95 128 172 208 244 297
#     4   8  13  24  45  72  98 124 159 205 252 293
#     4  10  20  33  51  75 102 132 170 212 248 290
#     4  10  20  32  49  77 107 130 158 204 255 298
#     4   8  12  20  40  70  98 122 157 207 250 282
#     4  10  20  33  49  71 103 137 166 202 250 303
#
# _framework density 17.249616
#
# number of rings (size 3 to 8) (size 9 to 14) (size 15 to 20)
#    0.000    2.750    2.500    1.125    0.000    1.750 
#    0.000    1.250    0.000    3.375    0.000    0.000 
#    0.000    0.500    0.000    0.000    0.000    0.250 
#
# Total GULP energy -396591.507996 kJ/mol
# GULP energy per Si atom -12393.484625 kJ/mol
# Density = 1.721036 g / cm^3
# Si number density = 17.249616 Si / 1000 Ang^3
#
#
#
# Elastic Constant Matrix: (Units=GPa)
#
#
# Indices 1 2 3 4 5 6 
#
# 1 157.9016 46.8201 62.9312 0.0000 0.0000 0.0000
# 2 46.8201 42.9871 37.1559 0.0000 0.0000 0.0000
# 3 62.9312 37.1559 86.5927 0.0000 0.0000 0.0000
# 4 0.0000 0.0000 0.0000 23.6334 0.0000 0.0000
# 5 0.0000 0.0000 0.0000 0.0000 27.2449 0.0000
# 6 0.0000 0.0000 0.0000 0.0000 0.0000 15.0015
#
#
#
# Elastic Compliance Matrix: (Units=1/GPa)
#
#
# Indices 1 2 3 4 5 6 
#
# 1 0.010241 -0.007504 -0.004223 0.000000 0.000000 0.000000
# 2 -0.007504 0.042476 -0.012772 0.000000 0.000000 0.000000
# 3 -0.004223 -0.012772 0.020097 0.000000 0.000000 0.000000
# 4 0.000000 0.000000 0.000000 0.042313 0.000000 0.000000
# 5 0.000000 0.000000 0.000000 0.000000 0.036704 0.000000
# 6 0.000000 0.000000 0.000000 0.000000 0.000000 0.066660
#
#
# Mechanical properties :
#
#
# Convention : Reuss Voigt Hill
#
# Bulk Modulus (GPa) = 41.98826 64.58843 53.28835
# Shear Modulus (GPa) = 18.15351 22.54758 20.35054
#
# Velocity S-wave (km/s) = 3.24759 3.61935 3.43850
# Velocity P-wave (km/s) = 6.20136 7.41559 6.83549
#
# Compressibility (1/GPa) = 0.02381618
#
# Stress axis : x y z
#
# Youngs Moduli (GPa) = 97.64499 23.54273 49.75746
#
# Poissons Ratio (x) = 0.17668 0.21011
# Poissons Ratio (y) = 0.73277 0.63551
# Poissons Ratio (z) = 0.41232 0.30069
#
# Static dielectric constant tensor:
#      x y z
#    x 3.749010 0.000000 0.000000 
#    y 0.000000 2.837950 0.000000 
#    z 0.000000 0.000000 3.009680 
# 
# 
# High freq. dielectric constant tensor:
#      x y z
#    x 1.689730 0.000000 0.000000 
#    y 0.000000 1.622290 0.000000 
#    z 0.000000 0.000000 1.635690 
# 
# From -- ./inp_files/18856.got.cif
#   From: 2010.03.12/outbox.cif.g09.slc.cpg/sg38_10_cif.got.tgz:18856.got - 2010.04.14 02:38:36.
