data_PCOD8177884
_publ_section_title
;
Structure prediction by ZEFSAII (Michael W. Deem and Ramdas Pophale) SiO2 
 PCOD8177884
Probable space group: A M M 2
;
_chemical_formula_sum "Si O2"
_cell_formula_units_Z 64
_cell_length_a 8.982145
_cell_length_b 13.625796
_cell_length_c 34.292770
_cell_angle_alpha 90.000000
_cell_angle_beta 90.000000
_cell_angle_gamma 90.000000
_cell_volume 4197.053555
_symmetry_space_group_name_H-M "A M M 2"
_symmetry_group_IT_number 38
_symmetry_cell_setting 'orthorhombic'
loop_
_space_group_symop_operation_xyz
x,y,z
-x,-y,z
-x,y,z
x,-y,z
x,1/2+y,1/2+z
-x,1/2-y,1/2+z
-x,1/2+y,1/2+z
x,1/2-y,1/2+z
loop_
_atom_site_type_symbol
_atom_site_label
_atom_site_fract_x
_atom_site_fract_y
_atom_site_fract_z
Si Si1 0.164690 0.883576 0.662100
Si Si2 0.324467 0.392690 0.930076
Si Si3 0.826693 0.385259 0.314114
Si Si4 0.828290 0.112916 0.961425
Si Si5 0.175631 0.387339 0.075063
Si Si6 0.334336 0.883394 0.736392
Si Si7 0.323263 0.799164 0.888194
Si Si8 0.676260 0.221299 0.505770
O O1 0.222655 0.856075 0.618943
O O2 0.271602 0.840133 0.695652
O O3 0.000000 0.839566 0.668724
O O4 0.155599 0.000000 0.665495
O O5 0.500000 0.402596 0.929776
O O6 0.252276 0.500000 0.921574
O O7 0.275442 0.313265 0.897684
O O8 0.273392 0.356238 0.972714
O O9 0.794200 0.500000 0.320535
O O10 0.770553 0.349793 0.271874
O O11 0.736125 0.323948 0.345688
O O12 0.000000 0.361320 0.317799
O O13 0.748787 0.128988 0.919935
O O14 0.000000 0.144393 0.957344
O O15 0.812711 0.000000 0.973306
O O16 0.750342 0.174439 0.995757
O O17 0.221130 0.500000 0.066953
O O18 0.266433 0.316051 0.047104
O O19 0.000000 0.373494 0.068966
O O20 0.500000 0.841304 0.742851
O O21 0.337977 0.000000 0.734135
O O22 0.500000 0.813012 0.889931
O O23 0.500000 0.235369 0.506885
#
# Coordination Sequence:
#
# PCOD8177884 Si02
#       8
#     8   8   8   8   8   8   8   8
#     4   8  14  25  39  55  79 112 144 170 202 246
#     4   8  15  28  43  59  81 108 136 167 206 248
#     4  10  19  29  41  57  81 114 145 172 206 249
#     4  10  20  33  47  61  81 111 143 175 214 259
#     4   9  17  28  42  61  87 118 148 177 208 246
#     4   9  16  25  38  57  80 106 138 175 210 244
#     4  10  19  29  44  65  85 107 138 176 212 246
#     4  10  19  29  44  65  86 110 142 180 216 250
#
# _framework density 15.248792999999999
#
# number of rings (size 3 to 8) (size 9 to 14) (size 15 to 20)
#    0.000    2.750    0.000    4.125    0.000    6.000 
#    0.000    1.250    0.000    7.500    0.000    0.000 
#    0.000    1.000    0.000    6.500    0.000    3.875 
#
# Total GULP energy -396699.157607 kJ/mol
# GULP energy per Si atom -12396.848675 kJ/mol
# Density = 1.521409 g / cm^3
# Si number density = 15.248793 Si / 1000 Ang^3
#
#
#
# Elastic Constant Matrix: (Units=GPa)
#
#
# Indices 1 2 3 4 5 6 
#
# 1 84.8387 35.8903 52.8899 0.0000 0.0000 0.0000
# 2 35.8903 67.3833 42.8621 0.0000 0.0000 0.0000
# 3 52.8899 42.8621 120.5256 0.0000 0.0000 0.0000
# 4 0.0000 0.0000 0.0000 18.0652 0.0000 0.0000
# 5 0.0000 0.0000 0.0000 0.0000 29.1319 0.0000
# 6 0.0000 0.0000 0.0000 0.0000 0.0000 16.5384
#
#
#
# Elastic Compliance Matrix: (Units=1/GPa)
#
#
# Indices 1 2 3 4 5 6 
#
# 1 0.017847 -0.005847 -0.005752 0.000000 0.000000 0.000000
# 2 -0.005847 0.021094 -0.004936 0.000000 0.000000 0.000000
# 3 -0.005752 -0.004936 0.012577 0.000000 0.000000 0.000000
# 4 0.000000 0.000000 0.000000 0.055355 0.000000 0.000000
# 5 0.000000 0.000000 0.000000 0.000000 0.034327 0.000000
# 6 0.000000 0.000000 0.000000 0.000000 0.000000 0.060465
#
#
# Mechanical properties :
#
#
# Convention : Reuss Voigt Hill
#
# Bulk Modulus (GPa) = 54.20765 59.55912 56.88339
# Shear Modulus (GPa) = 20.75692 22.15413 21.45552
#
# Velocity S-wave (km/s) = 3.69347 3.81575 3.75511
# Velocity P-wave (km/s) = 7.33587 7.65221 7.49571
#
# Compressibility (1/GPa) = 0.01844758
#
# Stress axis : x y z
#
# Youngs Moduli (GPa) = 56.03337 47.40621 79.51226
#
# Poissons Ratio (x) = 0.27716 0.45738
# Poissons Ratio (y) = 0.32760 0.39248
# Poissons Ratio (z) = 0.32232 0.23400
#
# Static dielectric constant tensor:
#      x y z
#    x 3.005040 0.000000 0.000000 
#    y 0.000000 2.754220 0.000000 
#    z 0.000000 0.000000 3.004540 
# 
# 
# High freq. dielectric constant tensor:
#      x y z
#    x 1.590420 0.000000 0.000000 
#    y 0.000000 1.538540 0.000000 
#    z 0.000000 0.000000 1.584660 
# 
# From -- ./inp_files/24817.got.cif
#   From: 2010.03.12/outbox.cif.g09.slc.cpg/sg38_13_cif.got.tgz:24817.got - 2010.04.14 02:38:36.
