data_PCOD8177202
_publ_section_title
;
Structure prediction by ZEFSAII (Michael W. Deem and Ramdas Pophale) SiO2 
 PCOD8177202
Probable space group: A M M 2
;
_chemical_formula_sum "Si O2"
_cell_formula_units_Z 64
_cell_length_a 8.797853
_cell_length_b 23.642919
_cell_length_c 19.241832
_cell_angle_alpha 90.000000
_cell_angle_beta 90.000000
_cell_angle_gamma 90.000000
_cell_volume 4002.434322
_symmetry_space_group_name_H-M "A M M 2"
_symmetry_group_IT_number 38
_symmetry_cell_setting 'orthorhombic'
loop_
_space_group_symop_operation_xyz
x,y,z
-x,-y,z
-x,y,z
x,-y,z
x,1/2+y,1/2+z
-x,1/2-y,1/2+z
-x,1/2+y,1/2+z
x,1/2-y,1/2+z
loop_
_atom_site_type_symbol
_atom_site_label
_atom_site_fract_x
_atom_site_fract_y
_atom_site_fract_z
Si Si1 0.320921 0.668772 0.779000
Si Si2 0.680572 0.437466 0.861200
Si Si3 0.321714 0.767325 0.147963
Si Si4 0.680536 0.881747 0.501712
Si Si5 0.680675 0.436835 0.142504
Si Si6 0.319980 0.837196 0.737850
Si Si7 0.179328 0.273340 0.356894
Si Si8 0.680359 0.747925 0.996920
O O1 0.500000 0.677064 0.791792
O O2 0.267718 0.605772 0.800322
O O3 0.279279 0.679513 0.697809
O O4 0.239988 0.713930 0.828020
O O5 0.500000 0.440022 0.864471
O O6 0.747010 0.500000 0.845311
O O7 0.743849 0.415774 0.935155
O O8 0.500000 0.759717 0.140650
O O9 0.260013 0.709978 0.183398
O O10 0.259380 0.775142 0.069769
O O11 0.500000 0.883913 0.503757
O O12 0.747450 0.910776 0.571134
O O13 0.734128 0.817155 0.496566
O O14 0.500000 0.438003 0.136949
O O15 0.745804 0.500000 0.153666
O O16 0.729624 0.398248 0.208052
O O17 0.500000 0.832531 0.748343
O O18 0.240593 0.826190 0.811777
O O19 0.237616 0.281738 0.435396
O O20 0.000000 0.273327 0.355181
O O21 0.500000 0.753439 0.987409
#
# Coordination Sequence:
#
# PCOD8177202 Si02
#       8
#     8   8   8   8   8   8   8   8
#     4   9  16  29  46  64  86 113 145 180 217 260
#     4   9  15  22  37  63  91 116 142 171 204 245
#     4   8  14  24  43  64  82 108 145 179 212 257
#     4   9  14  21  36  63  94 120 145 174 205 248
#     4   9  15  23  40  68  97 120 147 183 217 254
#     4   9  16  29  46  65  89 118 148 180 220 263
#     4  11  21  30  42  62  87 115 150 189 226 261
#     4  10  16  27  45  64  85 116 149 179 218 264
#
# _framework density 15.990269
#
# number of rings (size 3 to 8) (size 9 to 14) (size 15 to 20)
#    0.000    2.750    2.500    2.250    0.000    1.500 
#    0.000    2.500    0.000    0.750    0.000    0.875 
#    0.000    5.000    0.000    0.000    0.000    0.000 
#
# Total GULP energy -396588.296178 kJ/mol
# GULP energy per Si atom -12393.384256 kJ/mol
# Density = 1.595387 g / cm^3
# Si number density = 15.990269 Si / 1000 Ang^3
#
#
#
# Elastic Constant Matrix: (Units=GPa)
#
#
# Indices 1 2 3 4 5 6 
#
# 1 31.6913 18.2362 28.6415 0.0000 0.0000 0.0000
# 2 18.2362 104.9805 74.8575 0.0000 0.0000 0.0000
# 3 28.6415 74.8575 149.5611 0.0000 0.0000 0.0000
# 4 0.0000 0.0000 0.0000 27.0938 0.0000 0.0000
# 5 0.0000 0.0000 0.0000 0.0000 2.6757 0.0000
# 6 0.0000 0.0000 0.0000 0.0000 0.0000 4.2962
#
#
#
# Elastic Compliance Matrix: (Units=1/GPa)
#
#
# Indices 1 2 3 4 5 6 
#
# 1 0.038490 -0.002224 -0.006258 0.000000 0.000000 0.000000
# 2 -0.002224 0.014940 -0.007052 0.000000 0.000000 0.000000
# 3 -0.006258 -0.007052 0.011414 0.000000 0.000000 0.000000
# 4 0.000000 0.000000 0.000000 0.036909 0.000000 0.000000
# 5 0.000000 0.000000 0.000000 0.000000 0.373738 0.000000
# 6 0.000000 0.000000 0.000000 0.000000 0.000000 0.232765
#
#
# Mechanical properties :
#
#
# Convention : Reuss Voigt Hill
#
# Bulk Modulus (GPa) = 29.60598 58.85592 44.23095
# Shear Modulus (GPa) = 6.66149 17.77963 12.22056
#
# Velocity S-wave (km/s) = 2.04328 3.33814 2.76751
# Velocity P-wave (km/s) = 4.91140 7.19339 6.15900
#
# Compressibility (1/GPa) = 0.03377696
#
# Stress axis : x y z
#
# Youngs Moduli (GPa) = 25.98099 66.93263 87.60963
#
# Poissons Ratio (x) = 0.14885 0.54825
# Poissons Ratio (y) = 0.05778 0.61782
# Poissons Ratio (z) = 0.16259 0.47201
#
# Static dielectric constant tensor:
#      x y z
#    x 2.528220 0.000000 0.000000 
#    y 0.000000 3.104650 0.000000 
#    z 0.000000 0.000000 3.309140 
# 
# 
# High freq. dielectric constant tensor:
#      x y z
#    x 1.563460 0.000000 0.000000 
#    y 0.000000 1.590790 0.000000 
#    z 0.000000 0.000000 1.617200 
# 
# From -- ./inp_files/17309.got.cif
#   From: 2010.03.12/outbox.cif.g09.slc.cpg/sg38_9_cif.got.tgz:17309.got - 2010.04.14 02:38:36.
