data_PCOD8177311
_publ_section_title
;
Structure prediction by ZEFSAII (Michael W. Deem and Ramdas Pophale) SiO2 
 PCOD8177311
Probable space group: A M M 2
;
_chemical_formula_sum "Si O2"
_cell_formula_units_Z 64
_cell_length_a 9.043353
_cell_length_b 15.565648
_cell_length_c 24.070964
_cell_angle_alpha 90.000000
_cell_angle_beta 90.000000
_cell_angle_gamma 90.000000
_cell_volume 3388.364882
_symmetry_space_group_name_H-M "A M M 2"
_symmetry_group_IT_number 38
_symmetry_cell_setting 'orthorhombic'
loop_
_space_group_symop_operation_xyz
x,y,z
-x,-y,z
-x,y,z
x,-y,z
x,1/2+y,1/2+z
-x,1/2-y,1/2+z
-x,1/2+y,1/2+z
x,1/2-y,1/2+z
loop_
_atom_site_type_symbol
_atom_site_label
_atom_site_fract_x
_atom_site_fract_y
_atom_site_fract_z
Si Si1 0.327923 0.901956 0.606500
Si Si2 0.825707 0.406328 0.846698
Si Si3 0.176147 0.746262 0.414782
Si Si4 0.823740 0.747211 0.040420
Si Si5 0.828015 0.666148 0.729062
Si Si6 0.174140 0.405915 0.611413
Si Si7 0.674041 0.346313 0.228159
Si Si8 0.829838 0.904033 0.835877
O O1 0.500000 0.879469 0.600088
O O2 0.236322 0.840608 0.566121
O O3 0.277176 0.888726 0.670058
O O4 0.294732 0.000000 0.589167
O O5 0.760296 0.500000 0.863299
O O6 0.757918 0.331900 0.885651
O O7 0.787389 0.389857 0.782560
O O8 0.000000 0.407023 0.855162
O O9 0.234688 0.743333 0.477603
O O10 0.234579 0.663112 0.381030
O O11 0.000000 0.746999 0.414215
O O12 0.759144 0.829759 0.073548
O O13 0.000000 0.743500 0.043619
O O14 0.786648 0.610268 0.675517
O O15 0.728352 0.749541 0.729904
O O16 0.000000 0.693717 0.728857
O O17 0.238905 0.500000 0.594697
O O18 0.000000 0.407077 0.602501
O O19 0.500000 0.349150 0.235752
O O20 0.744166 0.400018 0.278033
O O21 0.000000 0.881457 0.823454
O O22 0.812722 0.000000 0.860582
#
# Coordination Sequence:
#
# PCOD8177311 Si02
#       8
#     8   8   8   8   8   8   8   8
#     4  10  22  39  56  75 105 144 180 219 274 330
#     4   9  16  27  48  75 102 132 165 207 258 308
#     4   9  18  32  50  78 110 136 169 215 261 305
#     4  10  20  34  55  81 107 138 180 224 261 309
#     4  10  17  30  53  77 102 133 174 216 263 318
#     4   9  17  29  49  79 109 134 167 214 264 312
#     4  11  21  34  55  80 108 140 176 218 271 323
#     4  10  20  35  56  81 109 142 177 215 262 316
#
# _framework density 18.888166999999999
#
# number of rings (size 3 to 8) (size 9 to 14) (size 15 to 20)
#    0.000    2.250    2.500    1.125    0.000    4.000 
#    0.000    4.375    0.000    2.625    0.000    0.000 
#    0.000    0.000    0.000    0.000    0.000    0.000 
#
# Total GULP energy -396745.147231 kJ/mol
# GULP energy per Si atom -12398.285851 kJ/mol
# Density = 1.884518 g / cm^3
# Si number density = 18.888167 Si / 1000 Ang^3
#
#
#
# Elastic Constant Matrix: (Units=GPa)
#
#
# Indices 1 2 3 4 5 6 
#
# 1 23.3964 19.0562 24.4789 0.0000 0.0000 0.0000
# 2 19.0562 160.2465 73.7308 0.0000 0.0000 0.0000
# 3 24.4789 73.7308 151.3962 0.0000 0.0000 0.0000
# 4 0.0000 0.0000 0.0000 16.5454 0.0000 0.0000
# 5 0.0000 0.0000 0.0000 0.0000 13.6519 0.0000
# 6 0.0000 0.0000 0.0000 0.0000 0.0000 12.8130
#
#
#
# Elastic Compliance Matrix: (Units=1/GPa)
#
#
# Indices 1 2 3 4 5 6 
#
# 1 0.052551 -0.003016 -0.007028 0.000000 0.000000 0.000000
# 2 -0.003016 0.008216 -0.003513 0.000000 0.000000 0.000000
# 3 -0.007028 -0.003513 0.009453 0.000000 0.000000 0.000000
# 4 0.000000 0.000000 0.000000 0.060440 0.000000 0.000000
# 5 0.000000 0.000000 0.000000 0.000000 0.073250 0.000000
# 6 0.000000 0.000000 0.000000 0.000000 0.000000 0.078046
#
#
# Mechanical properties :
#
#
# Convention : Reuss Voigt Hill
#
# Bulk Modulus (GPa) = 23.19921 63.28566 43.24243
# Shear Modulus (GPa) = 15.45894 23.12029 19.28961
#
# Velocity S-wave (km/s) = 2.86395 3.50246 3.19917
# Velocity P-wave (km/s) = 4.82135 7.06643 6.04896
#
# Compressibility (1/GPa) = 0.04310492
#
# Stress axis : x y z
#
# Youngs Moduli (GPa) = 19.02903 121.72038 105.79051
#
# Poissons Ratio (x) = 0.36705 0.74353
# Poissons Ratio (y) = 0.05738 0.37169
# Poissons Ratio (z) = 0.13374 0.42766
#
# Static dielectric constant tensor:
#      x y z
#    x 2.998110 0.000000 0.000000 
#    y 0.000000 3.773810 0.000000 
#    z 0.000000 0.000000 3.654550 
# 
# 
# High freq. dielectric constant tensor:
#      x y z
#    x 1.680300 0.000000 0.000000 
#    y 0.000000 1.752130 0.000000 
#    z 0.000000 0.000000 1.735200 
# 
# From -- ./inp_files/22127.got.cif
#   From: 2010.03.12/outbox.cif.g09.slc.cpg/sg38_12_cif.got.tgz:22127.got - 2010.04.14 02:38:36.
