data_PCOD8177047
_publ_section_title
;
Structure prediction by ZEFSAII (Michael W. Deem and Ramdas Pophale) SiO2 
 PCOD8177047
Probable space group: C C C 2
;
_chemical_formula_sum "Si O2"
_cell_formula_units_Z 56
_cell_length_a 7.616993
_cell_length_b 14.901913
_cell_length_c 22.172396
_cell_angle_alpha 90.000000
_cell_angle_beta 90.000000
_cell_angle_gamma 90.000000
_cell_volume 2516.739159
_symmetry_space_group_name_H-M "C C C 2"
_symmetry_group_IT_number 37
_symmetry_cell_setting 'orthorhombic'
loop_
_space_group_symop_operation_xyz
x,y,z
-x,-y,z
-x,y,1/2+z
x,-y,1/2+z
1/2+x,1/2+y,z
1/2-x,1/2-y,z
1/2-x,1/2+y,1/2+z
1/2+x,1/2-y,1/2+z
loop_
_atom_site_type_symbol
_atom_site_label
_atom_site_fract_x
_atom_site_fract_y
_atom_site_fract_z
Si Si1 0.456038 0.098486 0.454460
Si Si2 0.449180 0.597486 0.954270
Si Si3 0.500000 0.000000 0.744502
Si Si4 0.250000 0.250000 0.143939
Si Si5 0.932541 0.653215 0.827182
Si Si6 0.349973 0.435252 0.210954
Si Si7 0.464631 0.647917 0.322594
Si Si8 0.455522 0.751667 0.046838
O O1 0.253504 0.110162 0.438491
O O2 0.570610 0.121954 0.396262
O O3 0.508898 0.162477 0.508418
O O4 0.500000 0.000000 0.477694
O O5 0.500000 0.500000 0.979405
O O6 0.543963 0.612768 0.890870
O O7 0.507779 0.665129 0.007014
O O8 0.458640 0.914036 0.785997
O O9 0.320514 0.000893 0.706430
O O10 0.297510 0.340180 0.181055
O O11 0.426775 0.237568 0.105800
O O12 0.736272 0.649944 0.800600
O O13 0.029320 0.748931 0.821479
O O14 0.500000 0.500000 0.179940
O O15 0.418310 0.414015 0.279068
O O16 0.250000 0.750000 0.065258
#
# Coordination Sequence:
#
# PCOD8177047 Si02
#       8
#     8   8   4   4   8   8   8   8
#     4  11  22  39  63 103 145 182 231 284 362 442
#     4  11  23  38  68 104 147 184 227 298 362 438
#     4  12  24  44  72 104 144 190 242 294 374 436
#     4  12  30  52  80  96 146 200 248 318 368 424
#     4  11  22  36  67 105 146 189 220 288 363 446
#     4  12  27  51  72 106 143 190 254 308 365 443
#     4  11  23  41  66 103 149 185 233 292 365 441
#     4  10  26  50  72 104 141 188 248 300 363 440
#
# _framework density 22.251014000000001
#
# number of rings (size 3 to 8) (size 9 to 14) (size 15 to 20)
#    0.000    0.857    3.571    3.000    4.000    2.857 
#    6.429    0.000    0.000    0.000    0.000    0.000 
#    0.000    0.000    0.000    0.000    0.000    0.000 
#
# Total GULP energy -347077.700213 kJ/mol
# GULP energy per Si atom -12395.632150 kJ/mol
# Density = 2.220037 g / cm^3
# Si number density = 22.251014 Si / 1000 Ang^3
#
#
#
# Elastic Constant Matrix: (Units=GPa)
#
#
# Indices 1 2 3 4 5 6 
#
# 1 115.5449 34.3411 40.4462 0.0000 0.0000 0.0000
# 2 34.3411 163.3479 36.2278 0.0000 0.0000 0.0000
# 3 40.4462 36.2278 79.8283 0.0000 0.0000 0.0000
# 4 0.0000 0.0000 0.0000 2.8709 0.0000 0.0000
# 5 0.0000 0.0000 0.0000 0.0000 27.8163 0.0000
# 6 0.0000 0.0000 0.0000 0.0000 0.0000 39.1865
#
#
#
# Elastic Compliance Matrix: (Units=1/GPa)
#
#
# Indices 1 2 3 4 5 6 
#
# 1 0.010717 -0.001166 -0.004901 0.000000 0.000000 0.000000
# 2 -0.001166 0.006934 -0.002556 0.000000 0.000000 0.000000
# 3 -0.004901 -0.002556 0.016170 0.000000 0.000000 0.000000
# 4 0.000000 0.000000 0.000000 0.348325 0.000000 0.000000
# 5 0.000000 0.000000 0.000000 0.000000 0.035950 0.000000
# 6 0.000000 0.000000 0.000000 0.000000 0.000000 0.025519
#
#
# Mechanical properties :
#
#
# Convention : Reuss Voigt Hill
#
# Bulk Modulus (GPa) = 60.33133 64.52792 62.42962
# Shear Modulus (GPa) = 10.72075 30.48846 20.60461
#
# Velocity S-wave (km/s) = 2.19740 3.70564 3.04634
# Velocity P-wave (km/s) = 5.79749 6.88273 6.36329
#
# Compressibility (1/GPa) = 0.01657514
#
# Stress axis : x y z
#
# Youngs Moduli (GPa) = 93.31272 144.21851 61.84391
#
# Poissons Ratio (x) = 0.16818 0.30307
# Poissons Ratio (y) = 0.10882 0.15807
# Poissons Ratio (z) = 0.45728 0.36861
#
# Static dielectric constant tensor:
#      x y z
#    x 4.177700 0.000000 0.000000 
#    y 0.000000 4.456020 0.000000 
#    z 0.000000 0.000000 3.662900 
# 
# 
# High freq. dielectric constant tensor:
#      x y z
#    x 1.892090 0.000000 0.000000 
#    y 0.000000 1.897390 0.000000 
#    z 0.000000 0.000000 1.841800 
# 
# From -- ./inp_files/16457.got.cif
#   From: 2010.03.12/outbox.cif.g09.slc.cpg/sg37_9_cif.got.tgz:16457.got - 2010.04.14 02:25:27.
