data_PCOD8177962
_publ_section_title
;
Structure prediction by ZEFSAII (Michael W. Deem and Ramdas Pophale) SiO2 
 PCOD8177962
Probable space group: A M M 2
;
_chemical_formula_sum "Si O2"
_cell_formula_units_Z 56
_cell_length_a 8.613458
_cell_length_b 18.556173
_cell_length_c 21.189774
_cell_angle_alpha 90.000000
_cell_angle_beta 90.000000
_cell_angle_gamma 90.000000
_cell_volume 3386.821265
_symmetry_space_group_name_H-M "A M M 2"
_symmetry_group_IT_number 38
_symmetry_cell_setting 'orthorhombic'
loop_
_space_group_symop_operation_xyz
x,y,z
-x,-y,z
-x,y,z
x,-y,z
x,1/2+y,1/2+z
-x,1/2-y,1/2+z
-x,1/2+y,1/2+z
x,1/2-y,1/2+z
loop_
_atom_site_type_symbol
_atom_site_label
_atom_site_fract_x
_atom_site_fract_y
_atom_site_fract_z
Si Si1 0.318509 0.344536 0.939290
Si Si2 0.318253 0.279721 0.753848
Si Si3 0.815672 0.158597 0.685469
Si Si4 0.816069 0.579483 0.311325
Si Si5 0.318282 0.921242 0.312265
Si Si6 0.179959 0.716452 0.377324
Si Si7 0.816567 0.580883 0.060068
O O1 0.500000 0.354088 0.949741
O O2 0.255772 0.388101 0.878171
O O3 0.279312 0.259492 0.929702
O O4 0.230600 0.373772 0.999595
O O5 0.500000 0.266122 0.768365
O O6 0.263825 0.238533 0.690352
O O7 0.284697 0.366314 0.753826
O O8 0.210199 0.248498 0.808497
O O9 0.756164 0.110366 0.744287
O O10 0.752585 0.120976 0.622216
O O11 0.000000 0.167960 0.684322
O O12 0.744102 0.500000 0.322929
O O13 0.770740 0.631895 0.370313
O O14 0.000000 0.574706 0.306615
O O15 0.500000 0.931143 0.320610
O O16 0.241499 0.000000 0.299431
O O17 0.000000 0.724413 0.395051
O O18 0.746450 0.500000 0.056725
O O19 0.000000 0.576321 0.063861
#
# Coordination Sequence:
#
# PCOD8177962 Si02
#       7
#     8   8   8   8   8   8   8
#     4  10  19  30  44  62  88 120 150 180 216 262
#     4   9  16  26  42  63  86 112 143 179 217 259
#     4   9  17  29  44  61  86 119 148 176 212 257
#     4   8  13  23  42  66  87 109 140 176 214 257
#     4   8  14  25  41  61  84 110 139 171 210 255
#     4   9  16  27  44  63  85 114 146 180 218 260
#     4  10  20  32  46  65  88 116 152 188 218 254
#
# _framework density 16.534679000000001
#
# number of rings (size 3 to 8) (size 9 to 14) (size 15 to 20)
#    0.000    3.000    0.000    3.857    0.000    3.143 
#    0.000    0.000    0.000   22.714    0.000    1.000 
#    0.000    1.143    0.000    0.000    0.000    0.000 
#
# Total GULP energy -346878.404782 kJ/mol
# GULP energy per Si atom -12388.514456 kJ/mol
# Density = 1.649705 g / cm^3
# Si number density = 16.534679 Si / 1000 Ang^3
#
#
#
# Elastic Constant Matrix: (Units=GPa)
#
#
# Indices 1 2 3 4 5 6 
#
# 1 13.1462 14.4230 5.5301 0.0000 0.0000 0.0000
# 2 14.4230 155.6516 64.3327 0.0000 0.0000 0.0000
# 3 5.5301 64.3327 73.8809 0.0000 0.0000 0.0000
# 4 0.0000 0.0000 0.0000 25.3574 0.0000 0.0000
# 5 0.0000 0.0000 0.0000 0.0000 16.9357 0.0000
# 6 0.0000 0.0000 0.0000 0.0000 0.0000 17.4385
#
#
#
# Elastic Compliance Matrix: (Units=1/GPa)
#
#
# Indices 1 2 3 4 5 6 
#
# 1 0.084704 -0.008168 0.000772 0.000000 0.000000 0.000000
# 2 -0.008168 0.010824 -0.008814 0.000000 0.000000 0.000000
# 3 0.000772 -0.008814 0.021153 0.000000 0.000000 0.000000
# 4 0.000000 0.000000 0.000000 0.039436 0.000000 0.000000
# 5 0.000000 0.000000 0.000000 0.000000 0.059047 0.000000
# 6 0.000000 0.000000 0.000000 0.000000 0.000000 0.057344
#
#
# Mechanical properties :
#
#
# Convention : Reuss Voigt Hill
#
# Bulk Modulus (GPa) = 11.86790 45.69450 28.78120
# Shear Modulus (GPa) = 15.01431 22.50584 18.76008
#
# Velocity S-wave (km/s) = 3.01666 3.69335 3.37202
# Velocity P-wave (km/s) = 4.39622 6.77372 5.71008
#
# Compressibility (1/GPa) = 0.08426092
#
# Stress axis : x y z
#
# Youngs Moduli (GPa) = 11.80582 92.38335 47.27565
#
# Poissons Ratio (x) = 0.75458 -0.03650
# Poissons Ratio (y) = 0.09643 0.41669
# Poissons Ratio (z) = -0.00912 0.81428
#
# Static dielectric constant tensor:
#      x y z
#    x 2.879720 0.000000 0.000000 
#    y 0.000000 3.798250 0.000000 
#    z 0.000000 0.000000 2.904110 
# 
# 
# High freq. dielectric constant tensor:
#      x y z
#    x 1.617210 0.000000 0.000000 
#    y 0.000000 1.647160 0.000000 
#    z 0.000000 0.000000 1.592200 
# 
# From -- ./inp_files/19976.got.cif
#   From: 2010.03.12/outbox.cif.g09.slc.cpg/sg38_10_cif.got.tgz:19976.got - 2010.04.14 02:38:36.
