data_PCOD8177184
_publ_section_title
;
Structure prediction by ZEFSAII (Michael W. Deem and Ramdas Pophale) SiO2 
 PCOD8177184
Probable space group: C C C 2
;
_chemical_formula_sum "Si O2"
_cell_formula_units_Z 64
_cell_length_a 11.529776
_cell_length_b 10.691755
_cell_length_c 24.300626
_cell_angle_alpha 90.000000
_cell_angle_beta 90.000000
_cell_angle_gamma 90.000000
_cell_volume 2995.624196
_symmetry_space_group_name_H-M "C C C 2"
_symmetry_group_IT_number 37
_symmetry_cell_setting 'orthorhombic'
loop_
_space_group_symop_operation_xyz
x,y,z
-x,-y,z
-x,y,1/2+z
x,-y,1/2+z
1/2+x,1/2+y,z
1/2-x,1/2-y,z
1/2-x,1/2+y,1/2+z
1/2+x,1/2-y,1/2+z
loop_
_atom_site_type_symbol
_atom_site_label
_atom_site_fract_x
_atom_site_fract_y
_atom_site_fract_z
Si Si1 0.059112 0.734592 0.891040
Si Si2 0.499678 0.702087 0.008832
Si Si3 0.345320 0.140988 0.079357
Si Si4 0.683752 0.507228 0.509680
Si Si5 0.501041 0.296694 0.275088
Si Si6 0.844127 0.640688 0.203889
Si Si7 0.686929 0.514928 0.775397
Si Si8 0.247604 0.950200 0.891111
O O1 0.979589 0.742897 0.836669
O O2 0.156268 0.839449 0.886638
O O3 0.121203 0.600331 0.892600
O O4 0.982807 0.752726 0.945923
O O5 0.534930 0.815784 0.049454
O O6 0.367170 0.649483 0.017023
O O7 0.582749 0.588439 0.023636
O O8 0.250000 0.250000 0.075791
O O9 0.376341 0.104612 0.141680
O O10 0.292638 0.016941 0.050090
O O11 0.724517 0.476690 0.447586
O O12 0.461837 0.185923 0.234118
O O13 0.402138 0.400905 0.275529
O O14 0.622468 0.358354 0.255258
O O15 0.750000 0.750000 0.204845
O O16 0.792999 0.518336 0.234669
O O17 0.733463 0.537710 0.837499
#
# Coordination Sequence:
#
# PCOD8177184 Si02
#       8
#     8   8   8   8   8   8   8   8
#     4   9  15  25  42  65  95 124 157 209 264 314
#     4   9  17  29  45  65  92 130 171 210 261 320
#     4   9  18  30  43  61  95 135 173 218 261 309
#     4   9  17  29  45  65  92 130 171 210 261 320
#     4   9  15  23  38  62  94 132 171 212 264 322
#     4   9  16  26  38  59  93 133 171 212 261 312
#     4   9  15  23  38  62  94 132 171 212 264 322
#     4   9  15  25  42  65  95 124 157 209 264 314
#
# _framework density 21.364495999999999
#
# number of rings (size 3 to 8) (size 9 to 14) (size 15 to 20)
#    0.000    3.000    1.250    0.750    0.000    4.000 
#    0.000    5.625    0.000    0.000    0.000    0.000 
#    7.500    0.000    4.500    0.000    2.000    0.000 
#
# Total GULP energy -396535.074064 kJ/mol
# GULP energy per Si atom -12391.721064 kJ/mol
# Density = 2.131587 g / cm^3
# Si number density = 21.364496 Si / 1000 Ang^3
#
#
#
# Elastic Constant Matrix: (Units=GPa)
#
#
# Indices 1 2 3 4 5 6 
#
# 1 68.3876 49.8966 60.2466 0.0000 0.0000 0.0000
# 2 49.8966 40.5304 47.7398 0.0000 0.0000 0.0000
# 3 60.2466 47.7398 194.9187 0.0000 0.0000 0.0000
# 4 0.0000 0.0000 0.0000 6.3425 0.0000 0.0000
# 5 0.0000 0.0000 0.0000 0.0000 8.6854 0.0000
# 6 0.0000 0.0000 0.0000 0.0000 0.0000 28.5346
#
#
#
# Elastic Compliance Matrix: (Units=1/GPa)
#
#
# Indices 1 2 3 4 5 6 
#
# 1 0.143994 -0.175466 -0.001531 0.000000 0.000000 0.000000
# 2 -0.175466 0.248494 -0.006627 0.000000 0.000000 0.000000
# 3 -0.001531 -0.006627 0.007227 0.000000 0.000000 0.000000
# 4 0.000000 0.000000 0.000000 0.157665 0.000000 0.000000
# 5 0.000000 0.000000 0.000000 0.000000 0.115136 0.000000
# 6 0.000000 0.000000 0.000000 0.000000 0.000000 0.035045
#
#
# Mechanical properties :
#
#
# Convention : Reuss Voigt Hill
#
# Bulk Modulus (GPa) = 30.80210 68.84473 49.82342
# Shear Modulus (GPa) = 4.60561 18.44275 11.52418
#
# Velocity S-wave (km/s) = 1.46983 2.94129 2.32504
# Velocity P-wave (km/s) = 4.16284 6.62033 5.52983
#
# Compressibility (1/GPa) = 0.03246532
#
# Stress axis : x y z
#
# Youngs Moduli (GPa) = 6.94474 4.02424 138.37474
#
# Poissons Ratio (x) = 0.70612 0.21185
# Poissons Ratio (y) = 1.21857 0.91707
# Poissons Ratio (z) = 0.01063 0.02667
#
# Static dielectric constant tensor:
#      x y z
#    x 3.714770 0.000000 0.000000 
#    y 0.000000 3.569620 0.000000 
#    z 0.000000 0.000000 3.969740 
# 
# 
# High freq. dielectric constant tensor:
#      x y z
#    x 1.813480 0.000000 0.000000 
#    y 0.000000 1.801000 0.000000 
#    z 0.000000 0.000000 1.832680 
# 
# From -- ./inp_files/18736.got.cif
#   From: 2010.03.12/outbox.cif.g09.slc.cpg/sg37_10_cif.got.tgz:18736.got - 2010.04.14 02:25:27.
