data_PCOD8177748
_publ_section_title
;
Structure prediction by ZEFSAII (Michael W. Deem and Ramdas Pophale) SiO2 
 PCOD8177748
Probable space group: A M M 2
;
_chemical_formula_sum "Si O2"
_cell_formula_units_Z 32
_cell_length_a 10.561361
_cell_length_b 18.558186
_cell_length_c 9.212498
_cell_angle_alpha 90.000000
_cell_angle_beta 90.000000
_cell_angle_gamma 90.000000
_cell_volume 1805.646861
_symmetry_space_group_name_H-M "A M M 2"
_symmetry_group_IT_number 38
_symmetry_cell_setting 'orthorhombic'
loop_
_space_group_symop_operation_xyz
x,y,z
-x,-y,z
-x,y,z
x,-y,z
x,1/2+y,1/2+z
-x,1/2-y,1/2+z
-x,1/2+y,1/2+z
x,1/2-y,1/2+z
loop_
_atom_site_type_symbol
_atom_site_label
_atom_site_fract_x
_atom_site_fract_y
_atom_site_fract_z
Si Si1 0.143670 0.156898 0.790430
Si Si2 0.148113 0.418526 0.590599
Si Si3 0.731787 0.799778 0.278858
Si Si4 0.360925 0.679731 0.092864
O O1 0.155908 0.243011 0.821360
O O2 0.245976 0.133545 0.666309
O O3 0.000000 0.139519 0.739674
O O4 0.180433 0.113657 0.933832
O O5 0.199296 0.500000 0.597125
O O6 0.214649 0.373857 0.716933
O O7 0.000000 0.415249 0.619559
O O8 0.643699 0.761182 0.157848
O O9 0.651938 0.818907 0.420463
O O10 0.500000 0.646958 0.129016
#
# Coordination Sequence:
#
# PCOD8177748 Si02
#       4
#     8   8   8   8
#     4   9  18  34  56  82 107 141 184 228 271 322
#     4  10  20  35  55  83 117 146 178 226 282 330
#     4  10  18  32  56  81 109 141 182 230 267 318
#     4  10  20  33  56  83 109 143 187 231 271 318
#
# _framework density 17.722180000000002
#
# number of rings (size 3 to 8) (size 9 to 14) (size 15 to 20)
#    1.500    0.750    2.500    1.500    0.000    2.000 
#    0.000    1.250    0.000   11.250    0.000    0.000 
#    0.000    0.000    0.000    0.000    0.000    0.000 
#
# Total GULP energy -198232.212120 kJ/mol
# GULP energy per Si atom -12389.513257 kJ/mol
# Density = 1.768184 g / cm^3
# Si number density = 17.722180 Si / 1000 Ang^3
#
#
#
# Elastic Constant Matrix: (Units=GPa)
#
#
# Indices 1 2 3 4 5 6 
#
# 1 105.8423 27.9306 59.0320 0.0000 0.0000 0.0000
# 2 27.9306 90.0907 49.5246 0.0000 0.0000 0.0000
# 3 59.0320 49.5246 117.1607 0.0000 0.0000 0.0000
# 4 0.0000 0.0000 0.0000 25.8778 0.0000 0.0000
# 5 0.0000 0.0000 0.0000 0.0000 26.0037 0.0000
# 6 0.0000 0.0000 0.0000 0.0000 0.0000 10.3104
#
#
#
# Elastic Compliance Matrix: (Units=1/GPa)
#
#
# Indices 1 2 3 4 5 6 
#
# 1 0.013163 -0.000567 -0.006393 0.000000 0.000000 0.000000
# 2 -0.000567 0.014484 -0.005837 0.000000 0.000000 0.000000
# 3 -0.006393 -0.005837 0.014224 0.000000 0.000000 0.000000
# 4 0.000000 0.000000 0.000000 0.038643 0.000000 0.000000
# 5 0.000000 0.000000 0.000000 0.000000 0.038456 0.000000
# 6 0.000000 0.000000 0.000000 0.000000 0.000000 0.096989
#
#
# Mechanical properties :
#
#
# Convention : Reuss Voigt Hill
#
# Bulk Modulus (GPa) = 61.43247 65.11866 63.27556
# Shear Modulus (GPa) = 20.24468 24.21215 22.22841
#
# Velocity S-wave (km/s) = 3.38351 3.70023 3.54541
# Velocity P-wave (km/s) = 7.07132 7.42156 7.24856
#
# Compressibility (1/GPa) = 0.01627804
#
# Stress axis : x y z
#
# Youngs Moduli (GPa) = 75.97053 69.03980 70.30543
#
# Poissons Ratio (x) = 0.03913 0.44944
# Poissons Ratio (y) = 0.04305 0.41038
# Poissons Ratio (z) = 0.48566 0.40299
#
# Static dielectric constant tensor:
#      x y z
#    x 3.205670 0.000000 0.000000 
#    y 0.000000 3.053760 0.000000 
#    z 0.000000 0.000000 3.152100 
# 
# 
# High freq. dielectric constant tensor:
#      x y z
#    x 1.678660 0.000000 0.000000 
#    y 0.000000 1.645310 0.000000 
#    z 0.000000 0.000000 1.687920 
# 
# From -- ./inp_files/3060.got.cif
#   From: 2010.03.12/outbox.cif.g09.slc.cpg/sg38_2_cif.got.tgz:3060.got - 2010.04.14 02:38:36.
