data_PCOD8177596
_publ_section_title
;
Structure prediction by ZEFSAII (Michael W. Deem and Ramdas Pophale) SiO2 
 PCOD8177596
Probable space group: A M M 2
;
_chemical_formula_sum "Si O2"
_cell_formula_units_Z 64
_cell_length_a 19.839981
_cell_length_b 8.882554
_cell_length_c 20.069751
_cell_angle_alpha 90.000000
_cell_angle_beta 90.000000
_cell_angle_gamma 90.000000
_cell_volume 3536.886250
_symmetry_space_group_name_H-M "A M M 2"
_symmetry_group_IT_number 38
_symmetry_cell_setting 'orthorhombic'
loop_
_space_group_symop_operation_xyz
x,y,z
-x,-y,z
-x,y,z
x,-y,z
x,1/2+y,1/2+z
-x,1/2-y,1/2+z
-x,1/2+y,1/2+z
x,1/2-y,1/2+z
loop_
_atom_site_type_symbol
_atom_site_label
_atom_site_fract_x
_atom_site_fract_y
_atom_site_fract_z
Si Si1 0.329039 0.325932 0.138360
Si Si2 0.346424 0.322126 0.919875
Si Si3 0.168591 0.324098 0.316712
Si Si4 0.820592 0.176125 0.592618
Si Si5 0.075118 0.320642 0.203522
Si Si6 0.577074 0.326038 0.533054
Si Si7 0.206912 0.676240 0.459253
Si Si8 0.316630 0.823848 0.788669
O O1 0.342447 0.500000 0.120720
O O2 0.251406 0.284609 0.124830
O O3 0.377231 0.223012 0.094893
O O4 0.346318 0.292452 0.215592
O O5 0.342921 0.500000 0.918753
O O6 0.277862 0.259770 0.952022
O O7 0.359915 0.261460 0.845093
O O8 0.407226 0.268797 0.966750
O O9 0.169982 0.500000 0.301929
O O10 0.108040 0.255954 0.272210
O O11 0.159206 0.289347 0.395245
O O12 0.240459 0.259519 0.292399
O O13 0.879099 0.233073 0.641910
O O14 0.831758 0.264559 0.523879
O O15 0.826955 0.000000 0.578143
O O16 0.071860 0.500000 0.205156
O O17 0.000000 0.252716 0.196490
O O18 0.500000 0.296623 0.553104
O O19 0.591232 0.500000 0.517712
O O20 0.222093 0.500000 0.465257
O O21 0.317604 0.000000 0.806129
#
# Coordination Sequence:
#
# PCOD8177596 Si02
#       8
#     8   8   8   8   8   8   8   8
#     4  10  19  33  56  82 109 142 182 228 271 319
#     4  11  21  34  54  81 109 138 176 224 272 324
#     4   8  14  27  46  70  99 132 175 219 258 305
#     4  10  18  30  51  80 109 138 179 228 268 314
#     4   9  16  28  49  76 106 142 183 224 268 320
#     4  11  24  40  57  79 110 146 183 223 270 328
#     4  10  19  31  51  76 104 138 176 224 276 322
#     4   9  17  32  54  79 108 140 177 223 269 317
#
# _framework density 18.095011
#
# number of rings (size 3 to 8) (size 9 to 14) (size 15 to 20)
#    0.000    2.250    2.500    2.625    0.000    1.500 
#    0.000    1.250    0.000    1.875    0.000    0.000 
#    0.000    0.000    0.000    0.000    0.000    0.000 
#
# Total GULP energy -396743.587953 kJ/mol
# GULP energy per Si atom -12398.237124 kJ/mol
# Density = 1.805383 g / cm^3
# Si number density = 18.095011 Si / 1000 Ang^3
#
#
#
# Elastic Constant Matrix: (Units=GPa)
#
#
# Indices 1 2 3 4 5 6 
#
# 1 90.7336 38.6368 51.7623 0.0000 0.0000 0.0000
# 2 38.6368 75.2813 53.4160 0.0000 0.0000 0.0000
# 3 51.7623 53.4160 137.6425 0.0000 0.0000 0.0000
# 4 0.0000 0.0000 0.0000 31.8678 0.0000 0.0000
# 5 0.0000 0.0000 0.0000 0.0000 25.7903 0.0000
# 6 0.0000 0.0000 0.0000 0.0000 0.0000 14.6608
#
#
#
# Elastic Compliance Matrix: (Units=1/GPa)
#
#
# Indices 1 2 3 4 5 6 
#
# 1 0.015394 -0.005234 -0.003758 0.000000 0.000000 0.000000
# 2 -0.005234 0.020111 -0.005836 0.000000 0.000000 0.000000
# 3 -0.003758 -0.005836 0.010943 0.000000 0.000000 0.000000
# 4 0.000000 0.000000 0.000000 0.031380 0.000000 0.000000
# 5 0.000000 0.000000 0.000000 0.000000 0.038774 0.000000
# 6 0.000000 0.000000 0.000000 0.000000 0.000000 0.068209
#
#
# Mechanical properties :
#
#
# Convention : Reuss Voigt Hill
#
# Bulk Modulus (GPa) = 59.55354 65.69864 62.62609
# Shear Modulus (GPa) = 22.72054 25.11994 23.92024
#
# Velocity S-wave (km/s) = 3.54732 3.72993 3.63977
# Velocity P-wave (km/s) = 7.05415 7.41190 7.23524
#
# Compressibility (1/GPa) = 0.01679161
#
# Stress axis : x y z
#
# Youngs Moduli (GPa) = 64.96051 49.72395 91.38052
#
# Poissons Ratio (x) = 0.26027 0.34339
# Poissons Ratio (y) = 0.34003 0.53331
# Poissons Ratio (z) = 0.24411 0.29020
#
# Static dielectric constant tensor:
#      x y z
#    x 3.266700 0.000000 0.000000 
#    y 0.000000 3.088940 0.000000 
#    z 0.000000 0.000000 3.593570 
# 
# 
# High freq. dielectric constant tensor:
#      x y z
#    x 1.672400 0.000000 0.000000 
#    y 0.000000 1.675970 0.000000 
#    z 0.000000 0.000000 1.717900 
# 
# From -- ./inp_files/21512.got.cif
#   From: 2010.03.12/outbox.cif.g09.slc.cpg/sg38_11_cif.got.tgz:21512.got - 2010.04.14 02:38:36.
