data_PCOD8177086
_publ_section_title
;
Structure prediction by ZEFSAII (Michael W. Deem and Ramdas Pophale) SiO2 
 PCOD8177086
Probable space group: C C C 2
;
_chemical_formula_sum "Si O2"
_cell_formula_units_Z 56
_cell_length_a 8.398573
_cell_length_b 21.508083
_cell_length_c 13.741755
_cell_angle_alpha 90.000000
_cell_angle_beta 90.000000
_cell_angle_gamma 90.000000
_cell_volume 2482.272217
_symmetry_space_group_name_H-M "C C C 2"
_symmetry_group_IT_number 37
_symmetry_cell_setting 'orthorhombic'
loop_
_space_group_symop_operation_xyz
x,y,z
-x,-y,z
-x,y,1/2+z
x,-y,1/2+z
1/2+x,1/2+y,z
1/2-x,1/2-y,z
1/2-x,1/2+y,1/2+z
1/2+x,1/2-y,1/2+z
loop_
_atom_site_type_symbol
_atom_site_label
_atom_site_fract_x
_atom_site_fract_y
_atom_site_fract_z
Si Si1 0.315860 0.044645 0.870370
Si Si2 0.712388 0.426511 0.986575
Si Si3 0.384476 0.552934 0.188553
Si Si4 0.091628 0.629216 0.836595
Si Si5 0.108321 0.860332 0.468330
Si Si6 0.127916 0.843451 0.694732
Si Si7 0.070771 0.755529 0.313694
O O1 0.216116 0.024916 0.776122
O O2 0.496996 0.062052 0.835985
O O3 0.261991 0.109188 0.919653
O O4 0.288190 0.990583 0.948293
O O5 0.804957 0.369661 0.935743
O O6 0.526174 0.414395 0.964654
O O7 0.734917 0.424949 0.103098
O O8 0.500000 0.500000 0.144931
O O9 0.489140 0.609540 0.228713
O O10 0.206225 0.634691 0.742573
O O11 0.972608 0.686079 0.843463
O O12 0.147440 0.840558 0.578893
O O13 0.061230 0.798400 0.409702
O O14 0.060598 0.777631 0.734301
O O15 0.250000 0.750000 0.270456
#
# Coordination Sequence:
#
# PCOD8177086 Si02
#       7
#     8   8   8   8   8   8   8
#     4  12  23  44  70 102 146 181 230 287 356 434
#     4  11  24  41  69 104 134 184 231 287 358 425
#     4  11  22  42  72 101 137 184 233 284 349 434
#     4  12  25  44  69 100 145 183 231 298 355 421
#     4  11  23  45  72 101 136 189 235 289 358 429
#     4  11  24  43  70 105 136 184 241 290 359 420
#     4  12  24  48  67  98 138 187 242 297 353 420
#
# _framework density 22.559977
#
# number of rings (size 3 to 8) (size 9 to 14) (size 15 to 20)
#    0.000    0.571    4.286    4.714    0.000    2.286 
#    7.714    2.857    0.000    0.000    0.000    0.000 
#    0.000    0.000    0.000    0.000    0.000    0.000 
#
# Total GULP energy -347152.775039 kJ/mol
# GULP energy per Si atom -12398.313394 kJ/mol
# Density = 2.250863 g / cm^3
# Si number density = 22.559977 Si / 1000 Ang^3
#
#
#
# Elastic Constant Matrix: (Units=GPa)
#
#
# Indices 1 2 3 4 5 6 
#
# 1 106.1149 30.4945 46.8824 0.0000 0.0000 0.0000
# 2 30.4945 80.8451 24.4378 0.0000 0.0000 0.0000
# 3 46.8824 24.4378 123.8286 0.0000 0.0000 0.0000
# 4 0.0000 0.0000 0.0000 29.1178 0.0000 0.0000
# 5 0.0000 0.0000 0.0000 0.0000 21.4093 0.0000
# 6 0.0000 0.0000 0.0000 0.0000 0.0000 43.9968
#
#
#
# Elastic Compliance Matrix: (Units=1/GPa)
#
#
# Indices 1 2 3 4 5 6 
#
# 1 0.012132 -0.003390 -0.003924 0.000000 0.000000 0.000000
# 2 -0.003390 0.014101 -0.001499 0.000000 0.000000 0.000000
# 3 -0.003924 -0.001499 0.009857 0.000000 0.000000 0.000000
# 4 0.000000 0.000000 0.000000 0.034343 0.000000 0.000000
# 5 0.000000 0.000000 0.000000 0.000000 0.046709 0.000000
# 6 0.000000 0.000000 0.000000 0.000000 0.000000 0.022729
#
#
# Mechanical properties :
#
#
# Convention : Reuss Voigt Hill
#
# Bulk Modulus (GPa) = 54.16159 57.15754 55.65957
# Shear Modulus (GPa) = 30.55259 32.83637 31.69448
#
# Velocity S-wave (km/s) = 3.68405 3.81926 3.75226
# Velocity P-wave (km/s) = 6.49278 6.69625 6.59530
#
# Compressibility (1/GPa) = 0.01846327
#
# Stress axis : x y z
#
# Youngs Moduli (GPa) = 82.42931 70.91578 101.44756
#
# Poissons Ratio (x) = 0.24039 0.39809
# Poissons Ratio (y) = 0.27942 0.15212
# Poissons Ratio (z) = 0.32346 0.10634
#
# Static dielectric constant tensor:
#      x y z
#    x 4.177250 0.000000 0.000000 
#    y 0.000000 4.053670 0.000000 
#    z 0.000000 0.000000 3.923540 
# 
# 
# High freq. dielectric constant tensor:
#      x y z
#    x 1.895020 0.000000 0.000000 
#    y 0.000000 1.895710 0.000000 
#    z 0.000000 0.000000 1.884620 
# 
# From -- ./inp_files/10823.got.cif
#   From: 2010.03.12/outbox.cif.g09.slc.cpg/sg37_6_cif.got.tgz:10823.got - 2010.04.14 02:25:27.
