data_PCOD8177507
_publ_section_title
;
Structure prediction by ZEFSAII (Michael W. Deem and Ramdas Pophale) SiO2 
 PCOD8177507
Probable space group: A M M 2
;
_chemical_formula_sum "Si O2"
_cell_formula_units_Z 56
_cell_length_a 15.708832
_cell_length_b 9.353629
_cell_length_c 20.090353
_cell_angle_alpha 90.000000
_cell_angle_beta 90.000000
_cell_angle_gamma 90.000000
_cell_volume 2951.967712
_symmetry_space_group_name_H-M "A M M 2"
_symmetry_group_IT_number 38
_symmetry_cell_setting 'orthorhombic'
loop_
_space_group_symop_operation_xyz
x,y,z
-x,-y,z
-x,y,z
x,-y,z
x,1/2+y,1/2+z
-x,1/2-y,1/2+z
-x,1/2+y,1/2+z
x,1/2-y,1/2+z
loop_
_atom_site_type_symbol
_atom_site_label
_atom_site_fract_x
_atom_site_fract_y
_atom_site_fract_z
Si Si1 0.745799 0.333275 0.315120
Si Si2 0.094221 0.161138 0.354296
Si Si3 0.139366 0.662855 0.002214
Si Si4 0.729631 0.168743 0.187446
Si Si5 0.407004 0.666325 0.580783
Si Si6 0.298091 0.336448 0.460755
Si Si7 0.906776 0.663507 0.625119
O O1 0.750028 0.500000 0.298076
O O2 0.841656 0.275977 0.324114
O O3 0.701458 0.249126 0.254802
O O4 0.690601 0.303272 0.382150
O O5 0.088034 0.174854 0.433734
O O6 0.000000 0.190977 0.325500
O O7 0.124172 0.000000 0.334495
O O8 0.152031 0.500000 0.024475
O O9 0.087194 0.743296 0.058784
O O10 0.231047 0.732869 0.994374
O O11 0.666479 0.226892 0.129633
O O12 0.827785 0.212486 0.171361
O O13 0.720945 0.000000 0.198378
O O14 0.500000 0.737692 0.593897
O O15 0.413859 0.500000 0.595979
O O16 0.384179 0.690517 0.502689
O O17 0.266565 0.500000 0.469563
O O18 0.890436 0.500000 0.604000
O O19 0.000000 0.679145 0.660995
#
# Coordination Sequence:
#
# PCOD8177507 Si02
#       7
#     8   8   8   8   8   8   8
#     4  10  21  34  52  77 108 144 178 219 272 321
#     4   9  18  32  49  71 102 141 185 227 268 319
#     4  10  18  29  49  77 108 139 174 221 275 320
#     4  10  20  36  55  77 109 145 183 222 264 320
#     4   9  17  33  61  88 105 132 180 228 266 315
#     4   9  17  34  56  79 107 137 176 221 266 320
#     4  10  20  33  50  73 103 143 186 224 265 314
#
# _framework density 18.970397999999999
#
# number of rings (size 3 to 8) (size 9 to 14) (size 15 to 20)
#    0.000    2.429    1.429    1.286    0.000    3.429 
#    0.000    2.143    0.000    2.571    0.000    0.000 
#    0.000    0.000    0.000    0.000    0.000    0.000 
#
# Total GULP energy -347034.508453 kJ/mol
# GULP energy per Si atom -12394.089588 kJ/mol
# Density = 1.892722 g / cm^3
# Si number density = 18.970398 Si / 1000 Ang^3
#
#
#
# Elastic Constant Matrix: (Units=GPa)
#
#
# Indices 1 2 3 4 5 6 
#
# 1 113.2291 26.6801 52.6563 0.0000 0.0000 0.0000
# 2 26.6801 61.6658 40.2378 0.0000 0.0000 0.0000
# 3 52.6563 40.2378 116.7724 0.0000 0.0000 0.0000
# 4 0.0000 0.0000 0.0000 31.4822 0.0000 0.0000
# 5 0.0000 0.0000 0.0000 0.0000 10.4103 0.0000
# 6 0.0000 0.0000 0.0000 0.0000 0.0000 11.3027
#
#
#
# Elastic Compliance Matrix: (Units=1/GPa)
#
#
# Indices 1 2 3 4 5 6 
#
# 1 0.011369 -0.002030 -0.004427 0.000000 0.000000 0.000000
# 2 -0.002030 0.021283 -0.006418 0.000000 0.000000 0.000000
# 3 -0.004427 -0.006418 0.012772 0.000000 0.000000 0.000000
# 4 0.000000 0.000000 0.000000 0.031764 0.000000 0.000000
# 5 0.000000 0.000000 0.000000 0.000000 0.096059 0.000000
# 6 0.000000 0.000000 0.000000 0.000000 0.000000 0.088474
#
#
# Mechanical properties :
#
#
# Convention : Reuss Voigt Hill
#
# Bulk Modulus (GPa) = 50.83259 58.97951 54.90605
# Shear Modulus (GPa) = 17.00518 22.11193 19.55856
#
# Velocity S-wave (km/s) = 2.99725 3.41780 3.21441
# Velocity P-wave (km/s) = 6.23153 6.83614 6.54083
#
# Compressibility (1/GPa) = 0.01967242
#
# Stress axis : x y z
#
# Youngs Moduli (GPa) = 87.96062 46.98637 78.29909
#
# Poissons Ratio (x) = 0.09539 0.34663
# Poissons Ratio (y) = 0.17857 0.50254
# Poissons Ratio (z) = 0.38940 0.30157
#
# Static dielectric constant tensor:
#      x y z
#    x 3.458830 0.000000 0.000000 
#    y 0.000000 3.340240 0.000000 
#    z 0.000000 0.000000 3.522690 
# 
# 
# High freq. dielectric constant tensor:
#      x y z
#    x 1.716740 0.000000 0.000000 
#    y 0.000000 1.718120 0.000000 
#    z 0.000000 0.000000 1.737160 
# 
# From -- ./inp_files/21016.got.cif
#   From: 2010.03.12/outbox.cif.g09.slc.cpg/sg38_11_cif.got.tgz:21016.got - 2010.04.14 02:38:36.
