data_PCOD8177504
_publ_section_title
;
Structure prediction by ZEFSAII (Michael W. Deem and Ramdas Pophale) SiO2 
 PCOD8177504
Probable space group: A M M 2
;
_chemical_formula_sum "Si O2"
_cell_formula_units_Z 36
_cell_length_a 12.716482
_cell_length_b 7.585243
_cell_length_c 21.859473
_cell_angle_alpha 90.000000
_cell_angle_beta 90.000000
_cell_angle_gamma 90.000000
_cell_volume 2108.512436
_symmetry_space_group_name_H-M "A M M 2"
_symmetry_group_IT_number 38
_symmetry_cell_setting 'orthorhombic'
loop_
_space_group_symop_operation_xyz
x,y,z
-x,-y,z
-x,y,z
x,-y,z
x,1/2+y,1/2+z
-x,1/2-y,1/2+z
-x,1/2+y,1/2+z
x,1/2-y,1/2+z
loop_
_atom_site_type_symbol
_atom_site_label
_atom_site_fract_x
_atom_site_fract_y
_atom_site_fract_z
Si Si1 0.379103 0.000000 0.981900
Si Si2 0.620112 0.297463 0.884340
Si Si3 0.879553 0.701239 0.163925
Si Si4 0.218474 0.500000 0.592310
Si Si5 0.704116 0.699864 0.260465
Si Si6 0.389652 0.000000 0.192731
O O1 0.361485 0.176860 0.943277
O O2 0.500000 0.000000 0.008689
O O3 0.282256 0.000000 0.029455
O O4 0.500000 0.270322 0.860655
O O5 0.640259 0.500000 0.903172
O O6 0.705468 0.237614 0.833205
O O7 0.860193 0.500000 0.142942
O O8 0.814550 0.743781 0.226291
O O9 0.000000 0.735787 0.181630
O O10 0.849769 0.823427 0.105302
O O11 0.303226 0.500000 0.643567
O O12 0.670962 0.500000 0.247464
O O13 0.614662 0.826819 0.234569
O O14 0.500000 0.000000 0.157991
#
# Coordination Sequence:
#
# PCOD8177504 Si02
#       6
#     4   8   8   4   8   4
#     4  10  21  35  51  72 105 146 179 207 241 295
#     4  10  19  31  48  72 104 142 175 203 242 296
#     4   9  19  35  55  78 101 128 165 215 269 311
#     4  10  20  34  52  74 100 136 178 212 248 303
#     4  10  18  29  49  76 103 130 165 206 257 310
#     4  10  19  29  45  72 105 134 163 209 257 302
#
# _framework density 17.073647999999999
#
# number of rings (size 3 to 8) (size 9 to 14) (size 15 to 20)
#    0.000    2.222    2.222    1.333    0.000    2.222 
#    0.000    0.000    0.000    6.667    0.000    0.000 
#    0.000    0.000    0.000    0.000    0.000    0.000 
#
# Total GULP energy -223004.577108 kJ/mol
# GULP energy per Si atom -12389.143173 kJ/mol
# Density = 1.703479 g / cm^3
# Si number density = 17.073648 Si / 1000 Ang^3
#
#
#
# Elastic Constant Matrix: (Units=GPa)
#
#
# Indices 1 2 3 4 5 6 
#
# 1 81.6211 48.1053 39.0192 0.0000 0.0000 0.0000
# 2 48.1053 139.8909 47.7459 0.0000 0.0000 0.0000
# 3 39.0192 47.7459 84.8906 0.0000 0.0000 0.0000
# 4 0.0000 0.0000 0.0000 23.8073 0.0000 0.0000
# 5 0.0000 0.0000 0.0000 0.0000 27.7580 0.0000
# 6 0.0000 0.0000 0.0000 0.0000 0.0000 12.8098
#
#
#
# Elastic Compliance Matrix: (Units=1/GPa)
#
#
# Indices 1 2 3 4 5 6 
#
# 1 0.017351 -0.004016 -0.005717 0.000000 0.000000 0.000000
# 2 -0.004016 0.009776 -0.003653 0.000000 0.000000 0.000000
# 3 -0.005717 -0.003653 0.016462 0.000000 0.000000 0.000000
# 4 0.000000 0.000000 0.000000 0.042004 0.000000 0.000000
# 5 0.000000 0.000000 0.000000 0.000000 0.036026 0.000000
# 6 0.000000 0.000000 0.000000 0.000000 0.000000 0.078065
#
#
# Mechanical properties :
#
#
# Convention : Reuss Voigt Hill
#
# Bulk Modulus (GPa) = 59.45624 64.01593 61.73609
# Shear Modulus (GPa) = 21.54609 24.31050 22.92829
#
# Velocity S-wave (km/s) = 3.55625 3.77750 3.66854
# Velocity P-wave (km/s) = 7.19455 7.52339 7.36081
#
# Compressibility (1/GPa) = 0.01681909
#
# Stress axis : x y z
#
# Youngs Moduli (GPa) = 57.63245 102.29167 60.74591
#
# Poissons Ratio (x) = 0.41075 0.34728
# Poissons Ratio (y) = 0.23142 0.22189
# Poissons Ratio (z) = 0.32948 0.37364
#
# Static dielectric constant tensor:
#      x y z
#    x 3.016020 0.000000 0.000000 
#    y 0.000000 3.303410 0.000000 
#    z 0.000000 0.000000 3.142260 
# 
# 
# High freq. dielectric constant tensor:
#      x y z
#    x 1.643310 0.000000 0.000000 
#    y 0.000000 1.683350 0.000000 
#    z 0.000000 0.000000 1.630830 
# 
# From -- ./inp_files/20401.got.cif
#   From: 2010.03.12/outbox.cif.g09.slc.cpg/sg38_11_cif.got.tgz:20401.got - 2010.04.14 02:38:36.
