data_PCOD8177206
_publ_section_title
;
Structure prediction by ZEFSAII (Michael W. Deem and Ramdas Pophale) SiO2 
 PCOD8177206
Probable space group: A M M 2
;
_chemical_formula_sum "Si O2"
_cell_formula_units_Z 64
_cell_length_a 16.604242
_cell_length_b 23.058852
_cell_length_c 9.366128
_cell_angle_alpha 90.000000
_cell_angle_beta 90.000000
_cell_angle_gamma 90.000000
_cell_volume 3586.053999
_symmetry_space_group_name_H-M "A M M 2"
_symmetry_group_IT_number 38
_symmetry_cell_setting 'orthorhombic'
loop_
_space_group_symop_operation_xyz
x,y,z
-x,-y,z
-x,y,z
x,-y,z
x,1/2+y,1/2+z
-x,1/2-y,1/2+z
-x,1/2+y,1/2+z
x,1/2-y,1/2+z
loop_
_atom_site_type_symbol
_atom_site_label
_atom_site_fract_x
_atom_site_fract_y
_atom_site_fract_z
Si Si1 0.653157 0.177283 0.953660
Si Si2 0.743797 0.434396 0.765458
Si Si3 0.174082 0.140056 0.036216
Si Si4 0.681270 0.268649 0.171356
Si Si5 0.591356 0.934597 0.091348
Si Si6 0.796039 0.649466 0.008129
Si Si7 0.152593 0.225129 0.268764
Si Si8 0.091430 0.647383 0.258014
O O1 0.628313 0.201425 0.797071
O O2 0.750252 0.171633 0.959709
O O3 0.627599 0.223620 0.077386
O O4 0.610294 0.114921 0.973927
O O5 0.766926 0.500000 0.795171
O O6 0.796703 0.413781 0.630855
O O7 0.649622 0.425767 0.727326
O O8 0.762727 0.401146 0.909756
O O9 0.124434 0.184753 0.136689
O O10 0.115807 0.118522 0.909384
O O11 0.751683 0.232870 0.248856
O O12 0.718580 0.317843 0.070164
O O13 0.500000 0.927617 0.145178
O O14 0.604878 0.000000 0.027178
O O15 0.855256 0.692742 0.920685
O O16 0.850685 0.622619 0.134320
O O17 0.100825 0.283118 0.270463
O O18 0.000000 0.630943 0.222247
#
# Coordination Sequence:
#
# PCOD8177206 Si02
#       8
#     8   8   8   8   8   8   8   8
#     4  10  17  29  53  78 104 143 178 205 251 319
#     4   9  19  36  59  78  92 130 186 224 256 319
#     4   9  17  30  49  71  99 133 176 213 252 305
#     4  10  16  27  48  78 106 140 173 211 253 304
#     4   9  19  36  58  83 108 133 170 226 279 314
#     4  10  18  31  50  76 107 141 173 223 264 308
#     4   9  16  28  44  69 102 139 170 201 258 310
#     4  11  20  29  45  75 109 136 167 215 274 325
#
# _framework density 17.846914999999999
#
# number of rings (size 3 to 8) (size 9 to 14) (size 15 to 20)
#    0.000    2.375    3.750    2.250    0.000    2.000 
#    0.000    3.750    0.000    3.000    0.000    1.750 
#    0.000    0.000    0.000    0.000    0.000    0.000 
#
# Total GULP energy -396659.135849 kJ/mol
# GULP energy per Si atom -12395.597995 kJ/mol
# Density = 1.780629 g / cm^3
# Si number density = 17.846915 Si / 1000 Ang^3
#
#
#
# Elastic Constant Matrix: (Units=GPa)
#
#
# Indices 1 2 3 4 5 6 
#
# 1 60.9777 34.0863 33.4044 0.0000 0.0000 0.0000
# 2 34.0863 96.6742 59.9932 0.0000 0.0000 0.0000
# 3 33.4044 59.9932 130.6865 0.0000 0.0000 0.0000
# 4 0.0000 0.0000 0.0000 18.7573 0.0000 0.0000
# 5 0.0000 0.0000 0.0000 0.0000 13.2353 0.0000
# 6 0.0000 0.0000 0.0000 0.0000 0.0000 13.4101
#
#
#
# Elastic Compliance Matrix: (Units=1/GPa)
#
#
# Indices 1 2 3 4 5 6 
#
# 1 0.021118 -0.005728 -0.002768 0.000000 0.000000 0.000000
# 2 -0.005728 0.016018 -0.005889 0.000000 0.000000 0.000000
# 3 -0.002768 -0.005889 0.011063 0.000000 0.000000 0.000000
# 4 0.000000 0.000000 0.000000 0.053313 0.000000 0.000000
# 5 0.000000 0.000000 0.000000 0.000000 0.075555 0.000000
# 6 0.000000 0.000000 0.000000 0.000000 0.000000 0.074571
#
#
# Mechanical properties :
#
#
# Convention : Reuss Voigt Hill
#
# Bulk Modulus (GPa) = 51.47210 60.36738 55.91974
# Shear Modulus (GPa) = 17.42855 19.80417 18.61636
#
# Velocity S-wave (km/s) = 3.12838 3.33478 3.23323
# Velocity P-wave (km/s) = 6.47708 6.98042 6.73345
#
# Compressibility (1/GPa) = 0.01942800
#
# Stress axis : x y z
#
# Youngs Moduli (GPa) = 47.35319 62.42825 90.39075
#
# Poissons Ratio (x) = 0.35759 0.25024
# Poissons Ratio (y) = 0.27124 0.53234
# Poissons Ratio (z) = 0.13109 0.36766
#
# Static dielectric constant tensor:
#      x y z
#    x 2.906670 0.000000 0.000000 
#    y 0.000000 3.230600 0.000000 
#    z 0.000000 0.000000 3.435440 
# 
# 
# High freq. dielectric constant tensor:
#      x y z
#    x 1.645890 0.000000 0.000000 
#    y 0.000000 1.674110 0.000000 
#    z 0.000000 0.000000 1.697210 
# 
# From -- ./inp_files/6550.got.cif
#   From: 2010.03.12/outbox.cif.g09.slc.cpg/sg38_4_cif.got.tgz:6550.got - 2010.04.14 02:38:36.
