data_PCOD8177741
_publ_section_title
;
Structure prediction by ZEFSAII (Michael W. Deem and Ramdas Pophale) SiO2 
 PCOD8177741
Probable space group: A M M 2
;
_chemical_formula_sum "Si O2"
_cell_formula_units_Z 64
_cell_length_a 9.057741
_cell_length_b 30.985302
_cell_length_c 12.058432
_cell_angle_alpha 90.000000
_cell_angle_beta 90.000000
_cell_angle_gamma 90.000000
_cell_volume 3384.281424
_symmetry_space_group_name_H-M "A M M 2"
_symmetry_group_IT_number 38
_symmetry_cell_setting 'orthorhombic'
loop_
_space_group_symop_operation_xyz
x,y,z
-x,-y,z
-x,y,z
x,-y,z
x,1/2+y,1/2+z
-x,1/2-y,1/2+z
-x,1/2+y,1/2+z
x,1/2-y,1/2+z
loop_
_atom_site_type_symbol
_atom_site_label
_atom_site_fract_x
_atom_site_fract_y
_atom_site_fract_z
Si Si1 0.328047 0.450417 0.472520
Si Si2 0.830528 0.837359 0.730937
Si Si3 0.829703 0.293628 0.003427
Si Si4 0.673944 0.574527 0.227597
Si Si5 0.824234 0.378451 0.614626
Si Si6 0.825422 0.199539 0.964807
Si Si7 0.176041 0.125701 0.366581
Si Si8 0.169345 0.047608 0.515755
O O1 0.500000 0.438761 0.481586
O O2 0.297825 0.500000 0.503790
O O3 0.271147 0.441801 0.347553
O O4 0.238897 0.421230 0.558188
O O5 0.810628 0.803459 0.632650
O O6 0.724084 0.876836 0.706938
O O7 0.778314 0.814364 0.842435
O O8 0.000000 0.853498 0.739304
O O9 0.754176 0.246882 0.984399
O O10 0.759301 0.331387 0.926819
O O11 0.000000 0.290497 0.969264
O O12 0.500000 0.570467 0.218116
O O13 0.744300 0.545700 0.131557
O O14 0.764241 0.335721 0.551909
O O15 0.766364 0.375934 0.740700
O O16 0.000000 0.381303 0.608639
O O17 0.000000 0.202297 0.979076
O O18 0.235140 0.083320 0.431519
O O19 0.000000 0.126061 0.369376
O O20 0.000000 0.059176 0.542397
O O21 0.183265 0.000000 0.460823
#
# Coordination Sequence:
#
# PCOD8177741 Si02
#       8
#     8   8   8   8   8   8   8   8
#     4  10  22  39  56  75 103 140 177 214 265 323
#     4  10  18  32  55  80 109 141 178 219 268 321
#     4   9  17  29  50  79 110 140 171 215 267 312
#     4  11  21  35  56  80 109 139 176 221 269 317
#     4  10  20  34  54  81 109 135 174 222 263 309
#     4   9  18  29  48  82 112 135 172 221 262 307
#     4   9  18  32  51  78 110 141 173 215 266 315
#     4  10  20  35  55  79 107 140 178 219 267 322
#
# _framework density 18.910955999999999
#
# number of rings (size 3 to 8) (size 9 to 14) (size 15 to 20)
#    0.000    2.250    2.500    0.750    1.750    2.000 
#    0.000    1.875    0.000    1.500    0.000    0.000 
#    0.000    0.000    0.000    0.000    0.000    0.000 
#
# Total GULP energy -396764.814648 kJ/mol
# GULP energy per Si atom -12398.900458 kJ/mol
# Density = 1.886791 g / cm^3
# Si number density = 18.910956 Si / 1000 Ang^3
#
#
#
# Elastic Constant Matrix: (Units=GPa)
#
#
# Indices 1 2 3 4 5 6 
#
# 1 23.6555 18.4244 21.6212 0.0000 0.0000 0.0000
# 2 18.4244 147.5539 65.2784 0.0000 0.0000 0.0000
# 3 21.6212 65.2784 149.3851 0.0000 0.0000 0.0000
# 4 0.0000 0.0000 0.0000 24.7384 0.0000 0.0000
# 5 0.0000 0.0000 0.0000 0.0000 14.9961 0.0000
# 6 0.0000 0.0000 0.0000 0.0000 0.0000 10.3326
#
#
#
# Elastic Compliance Matrix: (Units=1/GPa)
#
#
# Indices 1 2 3 4 5 6 
#
# 1 0.050380 -0.003799 -0.005632 0.000000 0.000000 0.000000
# 2 -0.003799 0.008688 -0.003247 0.000000 0.000000 0.000000
# 3 -0.005632 -0.003247 0.008928 0.000000 0.000000 0.000000
# 4 0.000000 0.000000 0.000000 0.040423 0.000000 0.000000
# 5 0.000000 0.000000 0.000000 0.000000 0.066684 0.000000
# 6 0.000000 0.000000 0.000000 0.000000 0.000000 0.096781
#
#
# Mechanical properties :
#
#
# Convention : Reuss Voigt Hill
#
# Bulk Modulus (GPa) = 23.45164 59.02693 41.23928
# Shear Modulus (GPa) = 16.05384 24.36480 20.20932
#
# Velocity S-wave (km/s) = 2.91678 3.59332 3.27258
# Velocity P-wave (km/s) = 4.87560 6.96396 6.01117
#
# Compressibility (1/GPa) = 0.04264095
#
# Stress axis : x y z
#
# Youngs Moduli (GPa) = 19.84918 115.10307 112.00893
#
# Poissons Ratio (x) = 0.43731 0.63078
# Poissons Ratio (y) = 0.07541 0.36364
# Poissons Ratio (z) = 0.11178 0.37369
#
# Static dielectric constant tensor:
#      x y z
#    x 3.005100 0.000000 0.000000 
#    y 0.000000 3.724820 0.000000 
#    z 0.000000 0.000000 3.622580 
# 
# 
# High freq. dielectric constant tensor:
#      x y z
#    x 1.679220 0.000000 0.000000 
#    y 0.000000 1.750670 0.000000 
#    z 0.000000 0.000000 1.741760 
# 
# From -- ./inp_files/8572.got.cif
#   From: 2010.03.12/outbox.cif.g09.slc.cpg/sg38_5_cif.got.tgz:8572.got - 2010.04.14 02:38:36.
