data_PCOD8177057
_publ_section_title
;
Structure prediction by ZEFSAII (Michael W. Deem and Ramdas Pophale) SiO2 
 PCOD8177057
Probable space group: C C C 2
;
_chemical_formula_sum "Si O2"
_cell_formula_units_Z 64
_cell_length_a 13.589116
_cell_length_b 13.697842
_cell_length_c 16.940836
_cell_angle_alpha 90.000000
_cell_angle_beta 90.000000
_cell_angle_gamma 90.000000
_cell_volume 3153.393707
_symmetry_space_group_name_H-M "C C C 2"
_symmetry_group_IT_number 37
_symmetry_cell_setting 'orthorhombic'
loop_
_space_group_symop_operation_xyz
x,y,z
-x,-y,z
-x,y,1/2+z
x,-y,1/2+z
1/2+x,1/2+y,z
1/2-x,1/2-y,z
1/2-x,1/2+y,1/2+z
1/2+x,1/2-y,1/2+z
loop_
_atom_site_type_symbol
_atom_site_label
_atom_site_fract_x
_atom_site_fract_y
_atom_site_fract_z
Si Si1 0.844700 0.186365 0.193760
Si Si2 0.584738 0.922833 0.217390
Si Si3 0.420175 0.582127 0.878896
Si Si4 0.662552 0.178844 0.412722
Si Si5 0.358449 0.775653 0.585256
Si Si6 0.749875 0.528605 0.802629
Si Si7 0.498121 0.762932 0.308330
Si Si8 0.023876 0.112660 0.555773
O O1 0.750000 0.250000 0.171308
O O2 0.821794 0.101406 0.256352
O O3 0.924043 0.256944 0.234298
O O4 0.888864 0.143884 0.113564
O O5 0.588619 0.848006 0.144834
O O6 0.561256 0.860453 0.295837
O O7 0.500000 0.000000 0.197533
O O8 0.688832 0.973572 0.234726
O O9 0.500000 0.500000 0.861205
O O10 0.312389 0.540951 0.860377
O O11 0.433107 0.668546 0.815258
O O12 0.431545 0.621810 0.967865
O O13 0.750000 0.250000 0.386462
O O14 0.661059 0.161760 0.505922
O O15 0.674249 0.080375 0.362523
O O16 0.560149 0.229583 0.390470
O O17 0.250000 0.750000 0.619144
O O18 0.425764 0.679561 0.568237
O O19 0.000000 0.000000 0.574069
#
# Coordination Sequence:
#
# PCOD8177057 Si02
#       8
#     8   8   8   8   8   8   8   8
#     4  12  23  42  70  94 129 177 224 265 326 398
#     4  12  27  46  65  99 140 177 226 276 334 406
#     4  11  24  43  70 101 134 168 222 283 333 392
#     4  11  20  43  71  95 127 179 227 265 329 406
#     4  11  27  45  68  96 140 181 220 278 342 403
#     4  12  25  41  71 102 127 177 228 278 327 398
#     4  12  21  43  70  95 129 179 223 270 325 396
#     4  11  27  45  66 101 135 173 223 282 337 394
#
# _framework density 20.295594999999999
#
# number of rings (size 3 to 8) (size 9 to 14) (size 15 to 20)
#    0.000    0.500    7.500    0.000   10.500    0.000 
#    4.500    0.000    0.000    0.000    0.000    0.000 
#    0.000    0.000    0.000    0.000    0.000    0.000 
#
# Total GULP energy -396843.277784 kJ/mol
# GULP energy per Si atom -12401.352431 kJ/mol
# Density = 2.024940 g / cm^3
# Si number density = 20.295595 Si / 1000 Ang^3
#
#
#
# Elastic Constant Matrix: (Units=GPa)
#
#
# Indices 1 2 3 4 5 6 
#
# 1 92.4787 48.3476 47.6038 0.0000 0.0000 0.0000
# 2 48.3476 105.8973 43.9954 0.0000 0.0000 0.0000
# 3 47.6038 43.9954 75.8160 0.0000 0.0000 0.0000
# 4 0.0000 0.0000 0.0000 24.5445 0.0000 0.0000
# 5 0.0000 0.0000 0.0000 0.0000 3.9295 0.0000
# 6 0.0000 0.0000 0.0000 0.0000 0.0000 29.6137
#
#
#
# Elastic Compliance Matrix: (Units=1/GPa)
#
#
# Indices 1 2 3 4 5 6 
#
# 1 0.017469 -0.004504 -0.008354 0.000000 0.000000 0.000000
# 2 -0.004504 0.013604 -0.005066 0.000000 0.000000 0.000000
# 3 -0.008354 -0.005066 0.021375 0.000000 0.000000 0.000000
# 4 0.000000 0.000000 0.000000 0.040742 0.000000 0.000000
# 5 0.000000 0.000000 0.000000 0.000000 0.254488 0.000000
# 6 0.000000 0.000000 0.000000 0.000000 0.000000 0.033768
#
#
# Mechanical properties :
#
#
# Convention : Reuss Voigt Hill
#
# Bulk Modulus (GPa) = 60.24758 61.56506 60.90632
# Shear Modulus (GPa) = 11.82509 20.56722 16.19615
#
# Velocity S-wave (km/s) = 2.41642 3.18682 2.82798
# Velocity P-wave (km/s) = 6.12658 6.62881 6.38264
#
# Compressibility (1/GPa) = 0.01659818
#
# Stress axis : x y z
#
# Youngs Moduli (GPa) = 57.24517 73.50545 46.78283
#
# Poissons Ratio (x) = 0.33110 0.39084
# Poissons Ratio (y) = 0.25786 0.23701
# Poissons Ratio (z) = 0.47825 0.37240
#
# Static dielectric constant tensor:
#      x y z
#    x 3.742300 0.000000 0.000000 
#    y 0.000000 3.710660 0.000000 
#    z 0.000000 0.000000 3.618160 
# 
# 
# High freq. dielectric constant tensor:
#      x y z
#    x 1.795690 0.000000 0.000000 
#    y 0.000000 1.795620 0.000000 
#    z 0.000000 0.000000 1.792840 
# 
# From -- ./inp_files/15300.got.cif
#   From: 2010.03.12/outbox.cif.g09.slc.cpg/sg37_8_cif.got.tgz:15300.got - 2010.04.14 02:25:27.
