data_PCOD8177932
_publ_section_title
;
Structure prediction by ZEFSAII (Michael W. Deem and Ramdas Pophale) SiO2 
 PCOD8177932
Probable space group: A M M 2
;
_chemical_formula_sum "Si O2"
_cell_formula_units_Z 64
_cell_length_a 8.981411
_cell_length_b 23.447632
_cell_length_c 19.133318
_cell_angle_alpha 90.000000
_cell_angle_beta 90.000000
_cell_angle_gamma 90.000000
_cell_volume 4029.339393
_symmetry_space_group_name_H-M "A M M 2"
_symmetry_group_IT_number 38
_symmetry_cell_setting 'orthorhombic'
loop_
_space_group_symop_operation_xyz
x,y,z
-x,-y,z
-x,y,z
x,-y,z
x,1/2+y,1/2+z
-x,1/2-y,1/2+z
-x,1/2+y,1/2+z
x,1/2-y,1/2+z
loop_
_atom_site_type_symbol
_atom_site_label
_atom_site_fract_x
_atom_site_fract_y
_atom_site_fract_z
Si Si1 0.324447 0.728992 0.195570
Si Si2 0.171263 0.329180 0.617411
Si Si3 0.323567 0.877071 0.331514
Si Si4 0.825516 0.745867 0.830399
Si Si5 0.828499 0.764217 0.984375
Si Si6 0.676518 0.562955 0.973017
Si Si7 0.828459 0.064673 0.204056
Si Si8 0.324853 0.164681 0.562017
O O1 0.500000 0.730226 0.206893
O O2 0.273970 0.790357 0.166593
O O3 0.245372 0.715594 0.269114
O O4 0.274187 0.679614 0.140929
O O5 0.209299 0.317805 0.535363
O O6 0.202089 0.395133 0.636430
O O7 0.000000 0.312685 0.632758
O O8 0.500000 0.867858 0.330434
O O9 0.245116 0.816423 0.327111
O O10 0.267837 0.908482 0.401476
O O11 0.276540 0.916807 0.267316
O O12 0.789254 0.777819 0.903682
O O13 0.000000 0.739707 0.817524
O O14 0.000000 0.747222 0.990978
O O15 0.737526 0.709107 0.006501
O O16 0.500000 0.558156 0.970937
O O17 0.747593 0.500000 0.981301
O O18 0.728163 0.601465 0.039272
O O19 0.000000 0.070160 0.227999
O O20 0.789620 0.000000 0.182046
O O21 0.500000 0.170354 0.555696
#
# Coordination Sequence:
#
# PCOD8177932 Si02
#       8
#     8   8   8   8   8   8   8   8
#     4  10  19  29  45  67  90 116 148 185 229 272
#     4   9  17  31  47  64  88 117 148 184 224 266
#     4  11  20  30  45  65  92 124 157 188 217 259
#     4  11  20  30  45  66  92 122 153 186 225 271
#     4   9  18  30  46  65  87 116 149 183 224 271
#     4   9  17  29  45  65  90 121 153 184 220 260
#     4  10  20  32  46  65  92 124 154 185 222 265
#     4   9  17  30  46  66  90 115 147 188 225 264
#
# _framework density 15.883497
#
# number of rings (size 3 to 8) (size 9 to 14) (size 15 to 20)
#    0.000    2.250    2.500    1.500    0.000    1.750 
#    0.000    0.000    0.000    1.125    0.000    0.875 
#    0.000    1.000    0.000    0.000    0.000    0.000 
#
# Total GULP energy -396664.509993 kJ/mol
# GULP energy per Si atom -12395.765937 kJ/mol
# Density = 1.584735 g / cm^3
# Si number density = 15.883497 Si / 1000 Ang^3
#
#
#
# Elastic Constant Matrix: (Units=GPa)
#
#
# Indices 1 2 3 4 5 6 
#
# 1 43.6360 21.5190 37.5275 0.0000 0.0000 0.0000
# 2 21.5190 84.6765 65.5524 0.0000 0.0000 0.0000
# 3 37.5275 65.5524 138.6656 0.0000 0.0000 0.0000
# 4 0.0000 0.0000 0.0000 22.8941 0.0000 0.0000
# 5 0.0000 0.0000 0.0000 0.0000 21.1434 0.0000
# 6 0.0000 0.0000 0.0000 0.0000 0.0000 13.2721
#
#
#
# Elastic Compliance Matrix: (Units=1/GPa)
#
#
# Indices 1 2 3 4 5 6 
#
# 1 0.030108 -0.002119 -0.007147 0.000000 0.000000 0.000000
# 2 -0.002119 0.018775 -0.008302 0.000000 0.000000 0.000000
# 3 -0.007147 -0.008302 0.013071 0.000000 0.000000 0.000000
# 4 0.000000 0.000000 0.000000 0.043679 0.000000 0.000000
# 5 0.000000 0.000000 0.000000 0.000000 0.047296 0.000000
# 6 0.000000 0.000000 0.000000 0.000000 0.000000 0.075346
#
#
# Mechanical properties :
#
#
# Convention : Reuss Voigt Hill
#
# Bulk Modulus (GPa) = 37.28807 57.35288 47.32047
# Shear Modulus (GPa) = 18.35870 20.95386 19.65628
#
# Velocity S-wave (km/s) = 3.40345 3.63605 3.52167
# Velocity P-wave (km/s) = 6.24272 7.33585 6.81125
#
# Compressibility (1/GPa) = 0.02681823
#
# Stress axis : x y z
#
# Youngs Moduli (GPa) = 33.21392 53.26101 76.50797
#
# Poissons Ratio (x) = 0.11285 0.54676
# Poissons Ratio (y) = 0.07038 0.63520
# Poissons Ratio (z) = 0.23736 0.44219
#
# Static dielectric constant tensor:
#      x y z
#    x 2.997020 0.000000 0.000000 
#    y 0.000000 3.095790 0.000000 
#    z 0.000000 0.000000 3.356740 
# 
# 
# High freq. dielectric constant tensor:
#      x y z
#    x 1.607770 0.000000 0.000000 
#    y 0.000000 1.581210 0.000000 
#    z 0.000000 0.000000 1.611020 
# 
# From -- ./inp_files/17295.got.cif
#   From: 2010.03.12/outbox.cif.g09.slc.cpg/sg38_9_cif.got.tgz:17295.got - 2010.04.14 02:38:36.
