data_PCOD8177060
_publ_section_title
;
Structure prediction by ZEFSAII (Michael W. Deem and Ramdas Pophale) SiO2 
 PCOD8177060
Probable space group: C C C 2
;
_chemical_formula_sum "Si O2"
_cell_formula_units_Z 56
_cell_length_a 20.478809
_cell_length_b 9.569012
_cell_length_c 13.572157
_cell_angle_alpha 90.000000
_cell_angle_beta 90.000000
_cell_angle_gamma 90.000000
_cell_volume 2659.626610
_symmetry_space_group_name_H-M "C C C 2"
_symmetry_group_IT_number 37
_symmetry_cell_setting 'orthorhombic'
loop_
_space_group_symop_operation_xyz
x,y,z
-x,-y,z
-x,y,1/2+z
x,-y,1/2+z
1/2+x,1/2+y,z
1/2-x,1/2-y,z
1/2-x,1/2+y,1/2+z
1/2+x,1/2-y,1/2+z
loop_
_atom_site_type_symbol
_atom_site_label
_atom_site_fract_x
_atom_site_fract_y
_atom_site_fract_z
Si Si1 0.151148 0.208078 0.115360
Si Si2 0.691144 0.453667 0.796359
Si Si3 0.019946 0.836731 0.518162
Si Si4 0.057275 0.112684 0.807058
Si Si5 0.697887 0.565830 0.520672
Si Si6 0.905582 0.738700 0.622893
Si Si7 0.694634 0.987358 0.650548
O O1 0.166080 0.172055 0.228953
O O2 0.180985 0.361292 0.104491
O O3 0.074017 0.203909 0.098402
O O4 0.185018 0.099761 0.039514
O O5 0.632618 0.563998 0.803457
O O6 0.701383 0.394496 0.906231
O O7 0.759420 0.513286 0.749406
O O8 0.047669 0.805886 0.409522
O O9 0.958521 0.731624 0.534239
O O10 0.000000 0.000000 0.529852
O O11 0.049963 0.212574 0.714225
O O12 0.000000 0.000000 0.798020
O O13 0.645623 0.646526 0.586452
O O14 0.768620 0.600457 0.565277
O O15 0.873562 0.594598 0.660957
#
# Coordination Sequence:
#
# PCOD8177060 Si02
#       7
#     8   8   8   8   8   8   8
#     4  11  22  43  64  95 131 172 217 278 335 393
#     4  11  21  40  66  95 127 172 229 276 324 392
#     4  11  21  41  68  97 122 167 230 280 332 384
#     4  11  21  37  68 102 121 164 232 287 320 382
#     4  11  21  41  68  92 126 176 231 273 316 395
#     4  12  23  41  65 100 132 173 222 280 327 401
#     4  11  27  40  59  98 143 176 211 267 351 401
#
# _framework density 21.055586999999999
#
# number of rings (size 3 to 8) (size 9 to 14) (size 15 to 20)
#    0.000    0.857    5.714    4.286    0.000    4.000 
#    2.571    0.000    0.000    5.143    0.000    0.000 
#    0.000    0.000    0.000    0.000    0.000    0.000 
#
# Total GULP energy -346934.522974 kJ/mol
# GULP energy per Si atom -12390.518678 kJ/mol
# Density = 2.100766 g / cm^3
# Si number density = 21.055587 Si / 1000 Ang^3
#
#
#
# Elastic Constant Matrix: (Units=GPa)
#
#
# Indices 1 2 3 4 5 6 
#
# 1 116.6341 37.1177 42.2182 0.0000 0.0000 0.0000
# 2 37.1177 59.2535 35.1664 0.0000 0.0000 0.0000
# 3 42.2182 35.1664 149.9935 0.0000 0.0000 0.0000
# 4 0.0000 0.0000 0.0000 10.0339 0.0000 0.0000
# 5 0.0000 0.0000 0.0000 0.0000 35.8076 0.0000
# 6 0.0000 0.0000 0.0000 0.0000 0.0000 32.1720
#
#
#
# Elastic Compliance Matrix: (Units=1/GPa)
#
#
# Indices 1 2 3 4 5 6 
#
# 1 0.011083 -0.005914 -0.001733 0.000000 0.000000 0.000000
# 2 -0.005914 0.022761 -0.003672 0.000000 0.000000 0.000000
# 3 -0.001733 -0.003672 0.008016 0.000000 0.000000 0.000000
# 4 0.000000 0.000000 0.000000 0.099662 0.000000 0.000000
# 5 0.000000 0.000000 0.000000 0.000000 0.027927 0.000000
# 6 0.000000 0.000000 0.000000 0.000000 0.000000 0.031083
#
#
# Mechanical properties :
#
#
# Convention : Reuss Voigt Hill
#
# Bulk Modulus (GPa) = 52.02469 61.65398 56.83933
# Shear Modulus (GPa) = 21.77923 29.69462 25.73692
#
# Velocity S-wave (km/s) = 3.21965 3.75947 3.49998
# Velocity P-wave (km/s) = 6.21155 6.94189 6.58685
#
# Compressibility (1/GPa) = 0.01922164
#
# Stress axis : x y z
#
# Youngs Moduli (GPa) = 90.22603 43.93569 124.75769
#
# Poissons Ratio (x) = 0.25985 0.21620
# Poissons Ratio (y) = 0.53363 0.45806
# Poissons Ratio (z) = 0.15636 0.16131
#
# Static dielectric constant tensor:
#      x y z
#    x 4.179200 0.000000 0.000000 
#    y 0.000000 3.403160 0.000000 
#    z 0.000000 0.000000 4.040690 
# 
# 
# High freq. dielectric constant tensor:
#      x y z
#    x 1.845230 0.000000 0.000000 
#    y 0.000000 1.783570 0.000000 
#    z 0.000000 0.000000 1.829820 
# 
# From -- ./inp_files/12924.got.cif
#   From: 2010.03.12/outbox.cif.g09.slc.cpg/sg37_7_cif.got.tgz:12924.got - 2010.04.14 02:25:27.
