data_PCOD8177579
_publ_section_title
;
Structure prediction by ZEFSAII (Michael W. Deem and Ramdas Pophale) SiO2 
 PCOD8177579
Probable space group: A M M 2
;
_chemical_formula_sum "Si O2"
_cell_formula_units_Z 56
_cell_length_a 11.696870
_cell_length_b 23.011630
_cell_length_c 11.892601
_cell_angle_alpha 90.000000
_cell_angle_beta 90.000000
_cell_angle_gamma 90.000000
_cell_volume 3201.060586
_symmetry_space_group_name_H-M "A M M 2"
_symmetry_group_IT_number 38
_symmetry_cell_setting 'orthorhombic'
loop_
_space_group_symop_operation_xyz
x,y,z
-x,-y,z
-x,y,z
x,-y,z
x,1/2+y,1/2+z
-x,1/2-y,1/2+z
-x,1/2+y,1/2+z
x,1/2-y,1/2+z
loop_
_atom_site_type_symbol
_atom_site_label
_atom_site_fract_x
_atom_site_fract_y
_atom_site_fract_z
Si Si1 0.629839 0.358937 0.911340
Si Si2 0.631862 0.275440 0.108338
Si Si3 0.000000 0.432302 0.412789
Si Si4 0.233669 0.434339 0.066424
Si Si5 0.364148 0.618405 0.258231
Si Si6 0.633186 0.649396 0.650029
Si Si7 0.000000 0.069778 0.663090
Si Si8 0.249229 0.930473 0.979675
O O1 0.500000 0.380366 0.932080
O O2 0.654760 0.349022 0.782219
O O3 0.651588 0.300530 0.983449
O O4 0.718042 0.406943 0.953031
O O5 0.500000 0.266379 0.136736
O O6 0.678027 0.319470 0.205569
O O7 0.686434 0.211049 0.108807
O O8 0.000000 0.403599 0.289040
O O9 0.114319 0.415438 0.480763
O O10 0.000000 0.500000 0.390643
O O11 0.211138 0.500000 0.035835
O O12 0.323981 0.429788 0.168651
O O13 0.112399 0.405646 0.100824
O O14 0.500000 0.616080 0.271770
O O15 0.307802 0.604199 0.377380
O O16 0.500000 0.642044 0.619516
O O17 0.699506 0.595324 0.594607
O O18 0.000000 0.000000 0.666811
O O19 0.272496 0.000000 0.972052
#
# Coordination Sequence:
#
# PCOD8177579 Si02
#       8
#     8   8   4   8   8   8   4   8
#     4   9  19  34  50  75 107 139 175 212 262 325
#     4   8  17  33  53  77 104 138 181 215 256 315
#     4   9  18  36  55  72 104 147 185 223 266 327
#     4  10  18  30  50  75 103 136 174 218 266 313
#     4  10  19  30  50  82 110 134 171 221 266 315
#     4  10  21  35  54  78 110 146 175 216 267 327
#     4   9  16  30  51  74  98 133 183 225 262 313
#     4  11  22  35  54  81 110 143 182 224 277 328
#
# _framework density 17.494201
#
# number of rings (size 3 to 8) (size 9 to 14) (size 15 to 20)
#    0.000    2.429    1.429    2.143    2.000    3.429 
#    0.000    2.143    0.000    6.857    0.000    0.000 
#    0.000    0.000    0.000    0.000    0.000    0.000 
#
# Total GULP energy -347013.209560 kJ/mol
# GULP energy per Si atom -12393.328913 kJ/mol
# Density = 1.745438 g / cm^3
# Si number density = 17.494201 Si / 1000 Ang^3
#
#
#
# Elastic Constant Matrix: (Units=GPa)
#
#
# Indices 1 2 3 4 5 6 
#
# 1 99.2402 42.2891 51.5709 0.0000 0.0000 0.0000
# 2 42.2891 79.1637 46.0866 0.0000 0.0000 0.0000
# 3 51.5709 46.0866 108.4457 0.0000 0.0000 0.0000
# 4 0.0000 0.0000 0.0000 21.5221 0.0000 0.0000
# 5 0.0000 0.0000 0.0000 0.0000 22.2019 0.0000
# 6 0.0000 0.0000 0.0000 0.0000 0.0000 4.1982
#
#
#
# Elastic Compliance Matrix: (Units=1/GPa)
#
#
# Indices 1 2 3 4 5 6 
#
# 1 0.014760 -0.005047 -0.004874 0.000000 0.000000 0.000000
# 2 -0.005047 0.018511 -0.005466 0.000000 0.000000 0.000000
# 3 -0.004874 -0.005466 0.013862 0.000000 0.000000 0.000000
# 4 0.000000 0.000000 0.000000 0.046464 0.000000 0.000000
# 5 0.000000 0.000000 0.000000 0.000000 0.045041 0.000000
# 6 0.000000 0.000000 0.000000 0.000000 0.000000 0.238197
#
#
# Mechanical properties :
#
#
# Convention : Reuss Voigt Hill
#
# Bulk Modulus (GPa) = 61.13439 62.97143 62.05291
# Shear Modulus (GPa) = 12.10470 19.37798 15.74134
#
# Velocity S-wave (km/s) = 2.63330 3.33179 3.00293
# Velocity P-wave (km/s) = 6.65335 7.13266 6.89717
#
# Compressibility (1/GPa) = 0.01635740
#
# Stress axis : x y z
#
# Youngs Moduli (GPa) = 67.74934 54.02304 72.13885
#
# Poissons Ratio (x) = 0.27267 0.35162
# Poissons Ratio (y) = 0.34195 0.39433
# Poissons Ratio (z) = 0.33023 0.29531
#
# Static dielectric constant tensor:
#      x y z
#    x 3.318420 0.000000 0.000000 
#    y 0.000000 3.260260 0.000000 
#    z 0.000000 0.000000 3.193140 
# 
# 
# High freq. dielectric constant tensor:
#      x y z
#    x 1.659790 0.000000 0.000000 
#    y 0.000000 1.661750 0.000000 
#    z 0.000000 0.000000 1.672540 
# 
# From -- ./inp_files/9529.got.cif
#   From: 2010.03.12/outbox.cif.g09.slc.cpg/sg38_5_cif.got.tgz:9529.got - 2010.04.14 02:38:36.
