data_PCOD8177155
_publ_section_title
;
Structure prediction by ZEFSAII (Michael W. Deem and Ramdas Pophale) SiO2 
 PCOD8177155
Probable space group: C C C 2
;
_chemical_formula_sum "Si O2"
_cell_formula_units_Z 28
_cell_length_a 6.871741
_cell_length_b 16.566550
_cell_length_c 9.650129
_cell_angle_alpha 90.000000
_cell_angle_beta 90.000000
_cell_angle_gamma 90.000000
_cell_volume 1098.580730
_symmetry_space_group_name_H-M "C C C 2"
_symmetry_group_IT_number 37
_symmetry_cell_setting 'orthorhombic'
loop_
_space_group_symop_operation_xyz
x,y,z
-x,-y,z
-x,y,1/2+z
x,-y,1/2+z
1/2+x,1/2+y,z
1/2-x,1/2-y,z
1/2-x,1/2+y,1/2+z
1/2+x,1/2-y,1/2+z
loop_
_atom_site_type_symbol
_atom_site_label
_atom_site_fract_x
_atom_site_fract_y
_atom_site_fract_z
Si Si1 0.716193 0.063125 0.125000
Si Si2 0.952849 0.370585 0.404115
Si Si3 0.750000 0.250000 0.827500
Si Si4 0.360159 0.386090 0.117284
O O1 0.585474 0.101962 0.246753
O O2 0.909430 0.113654 0.089896
O O3 0.777236 0.972862 0.165824
O O4 0.582528 0.063851 0.987785
O O5 0.743427 0.358459 0.475734
O O6 0.067491 0.284634 0.415037
O O7 0.677788 0.325328 0.739940
#
# Coordination Sequence:
#
# PCOD8177155 Si02
#       4
#     8   8   4   8
#     4  11  29  52  86 118 162 219 278 324 410 501
#     4  12  28  51  85 117 168 209 273 334 412 485
#     4  12  30  48  76 120 164 212 260 344 410 466
#     4  11  29  51  81 120 162 215 273 336 402 492
#
# _framework density 25.48743
#
# number of rings (size 3 to 8) (size 9 to 14) (size 15 to 20)
#    0.000    0.571    2.857    0.857   16.000    3.429 
#    0.000    0.000    0.000    0.000    0.000    0.000 
#    0.000    0.000    0.000    0.000    0.000    0.000 
#
# Total GULP energy -173634.895972 kJ/mol
# GULP energy per Si atom -12402.492569 kJ/mol
# Density = 2.542942 g / cm^3
# Si number density = 25.487430 Si / 1000 Ang^3
#
#
#
# Elastic Constant Matrix: (Units=GPa)
#
#
# Indices 1 2 3 4 5 6 
#
# 1 211.1393 63.7915 70.8487 0.0000 0.0000 0.0000
# 2 63.7915 118.5385 31.5769 0.0000 0.0000 0.0000
# 3 70.8487 31.5769 111.7085 0.0000 0.0000 0.0000
# 4 0.0000 0.0000 0.0000 8.9708 0.0000 0.0000
# 5 0.0000 0.0000 0.0000 0.0000 -2.3072 0.0000
# 6 0.0000 0.0000 0.0000 0.0000 0.0000 48.6725
#
#
#
# Elastic Compliance Matrix: (Units=1/GPa)
#
#
# Indices 1 2 3 4 5 6 
#
# 1 0.006724 -0.002684 -0.003505 0.000000 0.000000 0.000000
# 2 -0.002684 0.010195 -0.001179 0.000000 0.000000 0.000000
# 3 -0.003505 -0.001179 0.011508 0.000000 0.000000 0.000000
# 4 0.000000 0.000000 0.000000 0.111473 0.000000 0.000000
# 5 0.000000 0.000000 0.000000 0.000000 -0.433423 0.000000
# 6 0.000000 0.000000 0.000000 0.000000 0.000000 0.020545
#
#
# Mechanical properties :
#
#
# Convention : Reuss Voigt Hill
#
# Bulk Modulus (GPa) = 73.05366 85.98003 79.51685
# Shear Modulus (GPa) = -19.71014 29.41183 4.85085
#
# Velocity S-wave (km/s) = -2.78389 3.40070 1.38107
# Velocity P-wave (km/s) = 4.28852 7.01621 5.81458
#
# Compressibility (1/GPa) = 0.01368857
#
# Stress axis : x y z
#
# Youngs Moduli (GPa) = 148.73141 98.08868 86.89268
#
# Poissons Ratio (x) = 0.26332 0.30460
# Poissons Ratio (y) = 0.39927 0.10247
# Poissons Ratio (z) = 0.52137 0.11567
#
# Static dielectric constant tensor:
#      x y z
#    x 5.373880 0.000000 0.000000 
#    y 0.000000 4.846400 0.000000 
#    z 0.000000 0.000000 4.308970 
# 
# 
# High freq. dielectric constant tensor:
#      x y z
#    x 2.050300 0.000000 0.000000 
#    y 0.000000 2.022640 0.000000 
#    z 0.000000 0.000000 2.004510 
# 
# From -- ./inp_files/2028.got.cif
#   From: 2010.03.12/outbox.cif.g09.slc.cpg/sg37_2_cif.got.tgz:2028.got - 2010.04.14 02:25:27.
