data_PCOD8177482
_publ_section_title
;
Structure prediction by ZEFSAII (Michael W. Deem and Ramdas Pophale) SiO2 
 PCOD8177482
Probable space group: A M M 2
;
_chemical_formula_sum "Si O2"
_cell_formula_units_Z 40
_cell_length_a 13.001041
_cell_length_b 8.361674
_cell_length_c 19.799007
_cell_angle_alpha 90.000000
_cell_angle_beta 90.000000
_cell_angle_gamma 90.000000
_cell_volume 2152.359287
_symmetry_space_group_name_H-M "A M M 2"
_symmetry_group_IT_number 38
_symmetry_cell_setting 'orthorhombic'
loop_
_space_group_symop_operation_xyz
x,y,z
-x,-y,z
-x,y,z
x,-y,z
x,1/2+y,1/2+z
-x,1/2-y,1/2+z
-x,1/2+y,1/2+z
x,1/2-y,1/2+z
loop_
_atom_site_type_symbol
_atom_site_label
_atom_site_fract_x
_atom_site_fract_y
_atom_site_fract_z
Si Si1 0.614151 0.309768 0.089300
Si Si2 0.000000 0.315399 0.836066
Si Si3 0.000000 0.685302 0.482168
Si Si4 0.786021 0.311429 0.342024
Si Si5 0.209244 0.688184 0.992230
Si Si6 0.614650 0.189943 0.740249
O O1 0.500000 0.248997 0.068722
O O2 0.615714 0.500000 0.088226
O O3 0.696745 0.241029 0.036251
O O4 0.641103 0.248380 0.164803
O O5 0.103697 0.231718 0.808229
O O6 0.000000 0.500000 0.815191
O O7 0.000000 0.297894 0.916650
O O8 0.895083 0.728983 0.521544
O O9 0.000000 0.500000 0.460849
O O10 0.777685 0.500000 0.352066
O O11 0.771468 0.228475 0.414196
O O12 0.697525 0.241672 0.293120
O O13 0.199095 0.500000 0.001916
O O14 0.500000 0.247845 0.761110
O O15 0.619292 0.000000 0.740907
#
# Coordination Sequence:
#
# PCOD8177482 Si02
#       6
#     8   4   4   8   8   8
#     4   8  15  29  48  69  93 122 156 192 228 267
#     4  10  18  30  47  66  93 125 155 189 229 274
#     4  10  18  30  47  66  93 125 155 189 229 274
#     4  10  18  29  48  72  96 121 152 191 231 273
#     4  10  18  29  48  72  96 121 152 191 231 273
#     4   8  15  29  48  69  93 122 156 192 228 267
#
# _framework density 18.584256
#
# number of rings (size 3 to 8) (size 9 to 14) (size 15 to 20)
#    0.000    2.800    0.000    6.600    0.000    0.800 
#    0.000    1.000    0.000   14.400    0.000   11.200 
#    0.000    0.000    0.000    0.000    0.000    0.000 
#
# Total GULP energy -247864.545085 kJ/mol
# GULP energy per Si atom -12393.227254 kJ/mol
# Density = 1.854196 g / cm^3
# Si number density = 18.584256 Si / 1000 Ang^3
#
#
#
# Elastic Constant Matrix: (Units=GPa)
#
#
# Indices 1 2 3 4 5 6 
#
# 1 199.7333 17.1061 93.3720 0.0000 0.0000 0.0000
# 2 17.1061 37.2214 9.7321 0.0000 0.0000 0.0000
# 3 93.3720 9.7321 86.0473 0.0000 0.0000 0.0000
# 4 0.0000 0.0000 0.0000 15.2115 0.0000 0.0000
# 5 0.0000 0.0000 0.0000 0.0000 20.2020 0.0000
# 6 0.0000 0.0000 0.0000 0.0000 0.0000 19.6663
#
#
#
# Elastic Compliance Matrix: (Units=1/GPa)
#
#
# Indices 1 2 3 4 5 6 
#
# 1 0.010285 -0.001864 -0.010950 0.000000 0.000000 0.000000
# 2 -0.001864 0.028023 -0.001147 0.000000 0.000000 0.000000
# 3 -0.010950 -0.001147 0.023633 0.000000 0.000000 0.000000
# 4 0.000000 0.000000 0.000000 0.065740 0.000000 0.000000
# 5 0.000000 0.000000 0.000000 0.000000 0.049500 0.000000
# 6 0.000000 0.000000 0.000000 0.000000 0.000000 0.050849
#
#
# Mechanical properties :
#
#
# Convention : Reuss Voigt Hill
#
# Bulk Modulus (GPa) = 29.39467 62.60249 45.99858
# Shear Modulus (GPa) = 18.70624 24.53542 21.62083
#
# Velocity S-wave (km/s) = 3.17608 3.63743 3.41456
# Velocity P-wave (km/s) = 5.41307 7.16939 6.35222
#
# Compressibility (1/GPa) = 0.03401978
#
# Stress axis : x y z
#
# Youngs Moduli (GPa) = 97.22697 35.68536 42.31321
#
# Poissons Ratio (x) = 0.06651 0.46333
# Poissons Ratio (y) = 0.18121 0.04853
# Poissons Ratio (z) = 1.06463 0.04093
#
# Static dielectric constant tensor:
#      x y z
#    x 4.162670 0.000000 0.000000 
#    y 0.000000 3.055180 0.000000 
#    z 0.000000 0.000000 3.344460 
# 
# 
# High freq. dielectric constant tensor:
#      x y z
#    x 1.742420 0.000000 0.000000 
#    y 0.000000 1.694880 0.000000 
#    z 0.000000 0.000000 1.687210 
# 
# From -- ./inp_files/14285.got.cif
#   From: 2010.03.12/outbox.cif.g09.slc.cpg/sg38_8_cif.got.tgz:14285.got - 2010.04.14 02:38:36.
