data_PCOD8177209
_publ_section_title
;
Structure prediction by ZEFSAII (Michael W. Deem and Ramdas Pophale) SiO2 
 PCOD8177209
Probable space group: A M M 2
;
_chemical_formula_sum "Si O2"
_cell_formula_units_Z 52
_cell_length_a 9.192666
_cell_length_b 11.929412
_cell_length_c 24.748101
_cell_angle_alpha 90.000000
_cell_angle_beta 90.000000
_cell_angle_gamma 90.000000
_cell_volume 2713.953477
_symmetry_space_group_name_H-M "A M M 2"
_symmetry_group_IT_number 38
_symmetry_cell_setting 'orthorhombic'
loop_
_space_group_symop_operation_xyz
x,y,z
-x,-y,z
-x,y,z
x,-y,z
x,1/2+y,1/2+z
-x,1/2-y,1/2+z
-x,1/2+y,1/2+z
x,1/2-y,1/2+z
loop_
_atom_site_type_symbol
_atom_site_label
_atom_site_fract_x
_atom_site_fract_y
_atom_site_fract_z
Si Si1 0.329154 0.629439 0.420360
Si Si2 0.660805 0.243005 0.522431
Si Si3 0.167201 0.130436 0.227178
Si Si4 0.249440 0.000000 0.515390
Si Si5 0.165085 0.000000 0.635017
Si Si6 0.325534 0.226723 0.641376
Si Si7 0.839210 0.000000 0.398908
Si Si8 0.169805 0.218188 0.344116
O O1 0.500000 0.652903 0.414883
O O2 0.292469 0.500000 0.427109
O O3 0.259429 0.692956 0.473001
O O4 0.253462 0.672627 0.365592
O O5 0.500000 0.293867 0.523865
O O6 0.650600 0.109794 0.512430
O O7 0.730631 0.264299 0.581552
O O8 0.274644 0.176150 0.181459
O O9 0.199387 0.201585 0.280894
O O10 0.000000 0.146173 0.208958
O O11 0.201570 0.000000 0.237852
O O12 0.155271 0.000000 0.569928
O O13 0.145316 0.000000 0.463468
O O14 0.250536 0.891198 0.657113
O O15 0.000000 0.000000 0.657658
O O16 0.500000 0.211749 0.642801
O O17 0.762077 0.888087 0.376654
O O18 0.000000 0.000000 0.372588
O O19 0.000000 0.233765 0.356595
#
# Coordination Sequence:
#
# PCOD8177209 Si02
#       8
#     8   8   8   4   4   8   4   8
#     4  10  21  37  55  79 113 150 186 224 271 328
#     4   9  18  32  52  79 111 147 183 225 275 330
#     4  10  21  39  61  83 110 144 186 235 287 341
#     4  10  16  28  53  83 112 142 182 226 274 326
#     4  10  20  35  56  85 118 151 187 228 278 334
#     4  10  21  37  58  84 114 149 190 235 282 332
#     4  10  17  29  53  84 111 139 172 218 275 326
#     4  10  20  37  59  82 110 143 181 224 279 335
#
# _framework density 19.160240999999999
#
# number of rings (size 3 to 8) (size 9 to 14) (size 15 to 20)
#    0.000    2.154    2.308    1.154    0.000    3.692 
#    1.385    2.692    0.000    0.000    0.000    0.000 
#    0.000    0.000    0.000    0.000    0.000    0.000 
#
# Total GULP energy -322295.121524 kJ/mol
# GULP energy per Si atom -12395.966212 kJ/mol
# Density = 1.911663 g / cm^3
# Si number density = 19.160241 Si / 1000 Ang^3
#
#
#
# Elastic Constant Matrix: (Units=GPa)
#
#
# Indices 1 2 3 4 5 6 
#
# 1 69.1882 39.5717 36.5860 0.0000 0.0000 0.0000
# 2 39.5717 109.3886 59.7220 0.0000 0.0000 0.0000
# 3 36.5860 59.7220 108.8341 0.0000 0.0000 0.0000
# 4 0.0000 0.0000 0.0000 35.1290 0.0000 0.0000
# 5 0.0000 0.0000 0.0000 0.0000 25.5685 0.0000
# 6 0.0000 0.0000 0.0000 0.0000 0.0000 29.4008
#
#
#
# Elastic Compliance Matrix: (Units=1/GPa)
#
#
# Indices 1 2 3 4 5 6 
#
# 1 0.019257 -0.004900 -0.003785 0.000000 0.000000 0.000000
# 2 -0.004900 0.014299 -0.006199 0.000000 0.000000 0.000000
# 3 -0.003785 -0.006199 0.013862 0.000000 0.000000 0.000000
# 4 0.000000 0.000000 0.000000 0.028466 0.000000 0.000000
# 5 0.000000 0.000000 0.000000 0.000000 0.039111 0.000000
# 6 0.000000 0.000000 0.000000 0.000000 0.000000 0.034013
#
#
# Mechanical properties :
#
#
# Convention : Reuss Voigt Hill
#
# Bulk Modulus (GPa) = 56.65556 62.13003 59.39279
# Shear Modulus (GPa) = 27.07687 28.12176 27.59931
#
# Velocity S-wave (km/s) = 3.76331 3.83523 3.79944
# Velocity P-wave (km/s) = 6.96540 7.21865 7.09316
#
# Compressibility (1/GPa) = 0.01765052
#
# Stress axis : x y z
#
# Youngs Moduli (GPa) = 51.92867 69.93569 72.13792
#
# Poissons Ratio (x) = 0.34269 0.27302
# Poissons Ratio (y) = 0.25445 0.44720
# Poissons Ratio (z) = 0.19653 0.43354
#
# Static dielectric constant tensor:
#      x y z
#    x 3.188510 0.000000 0.000000 
#    y 0.000000 3.463600 0.000000 
#    z 0.000000 0.000000 3.510700 
# 
# 
# High freq. dielectric constant tensor:
#      x y z
#    x 1.719350 0.000000 0.000000 
#    y 0.000000 1.742460 0.000000 
#    z 0.000000 0.000000 1.746660 
# 
# From -- ./inp_files/23429.got.cif
#   From: 2010.03.12/outbox.cif.g09.slc.cpg/sg38_12_cif.got.tgz:23429.got - 2010.04.14 02:38:36.
