data_PCOD8177052
_publ_section_title
;
Structure prediction by ZEFSAII (Michael W. Deem and Ramdas Pophale) SiO2 
 PCOD8177052
Probable space group: C C C 2
;
_chemical_formula_sum "Si O2"
_cell_formula_units_Z 48
_cell_length_a 9.520096
_cell_length_b 14.851831
_cell_length_c 15.901284
_cell_angle_alpha 90.000000
_cell_angle_beta 90.000000
_cell_angle_gamma 90.000000
_cell_volume 2248.296171
_symmetry_space_group_name_H-M "C C C 2"
_symmetry_group_IT_number 37
_symmetry_cell_setting 'orthorhombic'
loop_
_space_group_symop_operation_xyz
x,y,z
-x,-y,z
-x,y,1/2+z
x,-y,1/2+z
1/2+x,1/2+y,z
1/2-x,1/2-y,z
1/2-x,1/2+y,1/2+z
1/2+x,1/2-y,1/2+z
loop_
_atom_site_type_symbol
_atom_site_label
_atom_site_fract_x
_atom_site_fract_y
_atom_site_fract_z
Si Si1 0.765240 0.345854 0.699810
Si Si2 0.666026 0.981602 0.051631
Si Si3 0.035675 0.397005 0.770709
Si Si4 0.745695 0.353368 0.133637
Si Si5 0.478489 0.395286 0.772005
Si Si6 0.756450 0.150189 0.407081
O O1 0.750000 0.250000 0.651332
O O2 0.797449 0.427734 0.637028
O O3 0.631977 0.355659 0.760085
O O4 0.893069 0.340362 0.765888
O O5 0.500000 0.000000 0.038655
O O6 0.750627 0.077125 0.054881
O O7 0.734953 0.926278 0.976106
O O8 0.114560 0.384049 0.682491
O O9 0.128260 0.353921 0.842853
O O10 0.000000 0.500000 0.790155
O O11 0.750000 0.250000 0.102092
O O12 0.609247 0.365949 0.190363
O O13 0.500000 0.500000 0.776056
O O14 0.403240 0.363015 0.857691
O O15 0.750000 0.250000 0.447976
#
# Coordination Sequence:
#
# PCOD8177052 Si02
#       6
#     8   8   8   8   8   8
#     4  12  21  37  69 105 130 166 224 279 323 394
#     4  12  24  44  66 100 131 180 226 275 333 398
#     4  11  19  41  71  97 131 173 229 267 317 406
#     4  11  21  41  68  97 129 176 224 272 330 395
#     4  11  22  41  67  99 134 169 215 274 337 389
#     4  11  25  45  66  97 138 183 218 270 341 403
#
# _framework density 21.349499000000002
#
# number of rings (size 3 to 8) (size 9 to 14) (size 15 to 20)
#    0.000    0.667    5.000    6.000    0.000    0.000 
#    3.000    0.000    0.000    2.000    0.000    0.000 
#    0.000    0.000    0.000    0.000    0.000    0.000 
#
# Total GULP energy -297491.755566 kJ/mol
# GULP energy per Si atom -12395.489815 kJ/mol
# Density = 2.130091 g / cm^3
# Si number density = 21.349499 Si / 1000 Ang^3
#
#
#
# Elastic Constant Matrix: (Units=GPa)
#
#
# Indices 1 2 3 4 5 6 
#
# 1 137.2095 15.1348 34.9392 0.0000 0.0000 0.0000
# 2 15.1348 167.4694 31.9792 0.0000 0.0000 0.0000
# 3 34.9392 31.9792 84.6469 0.0000 0.0000 0.0000
# 4 0.0000 0.0000 0.0000 27.8684 0.0000 0.0000
# 5 0.0000 0.0000 0.0000 0.0000 12.1962 0.0000
# 6 0.0000 0.0000 0.0000 0.0000 0.0000 28.0149
#
#
#
# Elastic Compliance Matrix: (Units=1/GPa)
#
#
# Indices 1 2 3 4 5 6 
#
# 1 0.008146 -0.000101 -0.003324 0.000000 0.000000 0.000000
# 2 -0.000101 0.006437 -0.002390 0.000000 0.000000 0.000000
# 3 -0.003324 -0.002390 0.014089 0.000000 0.000000 0.000000
# 4 0.000000 0.000000 0.000000 0.035883 0.000000 0.000000
# 5 0.000000 0.000000 0.000000 0.000000 0.081993 0.000000
# 6 0.000000 0.000000 0.000000 0.000000 0.000000 0.035695
#
#
# Mechanical properties :
#
#
# Convention : Reuss Voigt Hill
#
# Bulk Modulus (GPa) = 58.68335 61.49246 60.08791
# Shear Modulus (GPa) = 25.05603 34.10074 29.57838
#
# Velocity S-wave (km/s) = 3.42952 4.00091 3.72618
# Velocity P-wave (km/s) = 6.57486 7.08578 6.83510
#
# Compressibility (1/GPa) = 0.01704061
#
# Stress axis : x y z
#
# Youngs Moduli (GPa) = 122.76382 155.35732 70.97900
#
# Poissons Ratio (x) = 0.01576 0.23593
# Poissons Ratio (y) = 0.01245 0.16963
# Poissons Ratio (z) = 0.40806 0.37129
#
# Static dielectric constant tensor:
#      x y z
#    x 4.095920 0.000000 0.000000 
#    y 0.000000 4.148610 0.000000 
#    z 0.000000 0.000000 3.615100 
# 
# 
# High freq. dielectric constant tensor:
#      x y z
#    x 1.849830 0.000000 0.000000 
#    y 0.000000 1.865820 0.000000 
#    z 0.000000 0.000000 1.797250 
# 
# From -- ./inp_files/14504.got.cif
#   From: 2010.03.12/outbox.cif.g09.slc.cpg/sg37_8_cif.got.tgz:14504.got - 2010.04.14 02:25:27.
