data_PCOD8177424
_publ_section_title
;
Structure prediction by ZEFSAII (Michael W. Deem and Ramdas Pophale) SiO2 
 PCOD8177424
Probable space group: A M M 2
;
_chemical_formula_sum "Si O2"
_cell_formula_units_Z 64
_cell_length_a 9.473707
_cell_length_b 14.417839
_cell_length_c 28.147727
_cell_angle_alpha 90.000000
_cell_angle_beta 90.000000
_cell_angle_gamma 90.000000
_cell_volume 3844.708791
_symmetry_space_group_name_H-M "A M M 2"
_symmetry_group_IT_number 38
_symmetry_cell_setting 'orthorhombic'
loop_
_space_group_symop_operation_xyz
x,y,z
-x,-y,z
-x,y,z
x,-y,z
x,1/2+y,1/2+z
-x,1/2-y,1/2+z
-x,1/2+y,1/2+z
x,1/2-y,1/2+z
loop_
_atom_site_type_symbol
_atom_site_label
_atom_site_fract_x
_atom_site_fract_y
_atom_site_fract_z
Si Si1 0.834807 0.606604 0.595320
Si Si2 0.335681 0.217097 0.171567
Si Si3 0.836916 0.393442 0.314543
Si Si4 0.833169 0.269523 0.403914
Si Si5 0.332635 0.398074 0.760571
Si Si6 0.664436 0.607606 0.866549
Si Si7 0.662922 0.104104 0.722700
Si Si8 0.167062 0.102298 0.987865
O O1 0.794682 0.500000 0.607432
O O2 0.750315 0.678523 0.627459
O O3 0.790976 0.630464 0.541374
O O4 0.000000 0.622553 0.603563
O O5 0.500000 0.194266 0.163207
O O6 0.278238 0.171325 0.220281
O O7 0.308566 0.327316 0.178159
O O8 0.805707 0.500000 0.328061
O O9 0.789634 0.331335 0.358795
O O10 0.749624 0.362929 0.268457
O O11 0.000000 0.378320 0.302222
O O12 0.755068 0.170689 0.402210
O O13 0.775405 0.322026 0.450812
O O14 0.000000 0.252564 0.406294
O O15 0.500000 0.401215 0.762046
O O16 0.273134 0.500000 0.747937
O O17 0.281162 0.368987 0.813119
O O18 0.500000 0.631396 0.872606
O O19 0.692466 0.500000 0.878553
O O20 0.500000 0.110093 0.737858
O O21 0.705429 0.000000 0.706780
O O22 0.000000 0.096256 0.983354
O O23 0.229251 0.000000 0.975996
#
# Coordination Sequence:
#
# PCOD8177424 Si02
#       8
#     8   8   8   8   8   8   8   8
#     4   9  18  32  49  69  92 116 143 179 224 272
#     4  10  18  28  46  68  89 117 152 188 224 262
#     4   9  17  28  43  67  97 123 148 182 224 266
#     4  10  18  28  47  71  91 116 152 189 221 259
#     4   8  14  25  41  61  85 115 149 178 209 259
#     4   9  18  32  47  63  89 125 158 186 219 261
#     4   9  18  31  45  63  90 124 158 187 217 259
#     4   8  15  30  50  69  91 119 146 173 216 276
#
# _framework density 16.646253999999999
#
# number of rings (size 3 to 8) (size 9 to 14) (size 15 to 20)
#    0.000    3.000    0.000    3.000    0.000    4.500 
#    0.000    1.250    0.000    3.375    0.000    3.500 
#    0.000    0.000    0.000    0.000    0.000    0.000 
#
# Total GULP energy -396673.803832 kJ/mol
# GULP energy per Si atom -12396.056370 kJ/mol
# Density = 1.660837 g / cm^3
# Si number density = 16.646254 Si / 1000 Ang^3
#
#
#
# Elastic Constant Matrix: (Units=GPa)
#
#
# Indices 1 2 3 4 5 6 
#
# 1 40.9534 41.9661 40.9604 0.0000 0.0000 0.0000
# 2 41.9661 108.9590 75.2169 0.0000 0.0000 0.0000
# 3 40.9604 75.2169 107.0242 0.0000 0.0000 0.0000
# 4 0.0000 0.0000 0.0000 28.6016 0.0000 0.0000
# 5 0.0000 0.0000 0.0000 0.0000 18.2357 0.0000
# 6 0.0000 0.0000 0.0000 0.0000 0.0000 25.4706
#
#
#
# Elastic Compliance Matrix: (Units=1/GPa)
#
#
# Indices 1 2 3 4 5 6 
#
# 1 0.045084 -0.010592 -0.009811 0.000000 0.000000 0.000000
# 2 -0.010592 0.020315 -0.010224 0.000000 0.000000 0.000000
# 3 -0.009811 -0.010224 0.020284 0.000000 0.000000 0.000000
# 4 0.000000 0.000000 0.000000 0.034963 0.000000 0.000000
# 5 0.000000 0.000000 0.000000 0.000000 0.054838 0.000000
# 6 0.000000 0.000000 0.000000 0.000000 0.000000 0.039261
#
#
# Mechanical properties :
#
#
# Convention : Reuss Voigt Hill
#
# Bulk Modulus (GPa) = 40.93269 63.69147 52.31208
# Shear Modulus (GPa) = 17.59697 21.04778 19.32238
#
# Velocity S-wave (km/s) = 3.25485 3.55972 3.41070
# Velocity P-wave (km/s) = 6.22644 7.43238 6.85598
#
# Compressibility (1/GPa) = 0.02443035
#
# Stress axis : x y z
#
# Youngs Moduli (GPa) = 22.18078 49.22500 49.30094
#
# Poissons Ratio (x) = 0.52138 0.48367
# Poissons Ratio (y) = 0.23494 0.50403
# Poissons Ratio (z) = 0.21761 0.50326
#
# Static dielectric constant tensor:
#      x y z
#    x 2.829090 0.000000 0.000000 
#    y 0.000000 3.265270 0.000000 
#    z 0.000000 0.000000 3.103670 
# 
# 
# High freq. dielectric constant tensor:
#      x y z
#    x 1.613920 0.000000 0.000000 
#    y 0.000000 1.645410 0.000000 
#    z 0.000000 0.000000 1.623330 
# 
# From -- ./inp_files/24766.got.cif
#   From: 2010.03.12/outbox.cif.g09.slc.cpg/sg38_13_cif.got.tgz:24766.got - 2010.04.14 02:38:36.
