data_PCOD8177765
_publ_section_title
;
Structure prediction by ZEFSAII (Michael W. Deem and Ramdas Pophale) SiO2 
 PCOD8177765
Probable space group: A M M 2
;
_chemical_formula_sum "Si O2"
_cell_formula_units_Z 48
_cell_length_a 8.797289
_cell_length_b 18.247157
_cell_length_c 14.985763
_cell_angle_alpha 90.000000
_cell_angle_beta 90.000000
_cell_angle_gamma 90.000000
_cell_volume 2405.597302
_symmetry_space_group_name_H-M "A M M 2"
_symmetry_group_IT_number 38
_symmetry_cell_setting 'orthorhombic'
loop_
_space_group_symop_operation_xyz
x,y,z
-x,-y,z
-x,y,z
x,-y,z
x,1/2+y,1/2+z
-x,1/2-y,1/2+z
-x,1/2+y,1/2+z
x,1/2-y,1/2+z
loop_
_atom_site_type_symbol
_atom_site_label
_atom_site_fract_x
_atom_site_fract_y
_atom_site_fract_z
Si Si1 0.180485 0.500000 0.944440
Si Si2 0.678475 0.771057 0.868637
Si Si3 0.172471 0.877020 0.118717
Si Si4 0.828042 0.081240 0.921440
Si Si5 0.819952 0.342932 0.009416
Si Si6 0.819020 0.500000 0.746857
Si Si7 0.676946 0.765108 0.665053
O O1 0.249601 0.500000 0.845246
O O2 0.000000 0.500000 0.939928
O O3 0.238182 0.574361 0.990970
O O4 0.500000 0.759033 0.879361
O O5 0.716939 0.855925 0.886526
O O6 0.733444 0.756902 0.766994
O O7 0.759234 0.714812 0.935944
O O8 0.238661 0.927405 0.197414
O O9 0.284870 0.808642 0.111492
O O10 0.000000 0.849958 0.138333
O O11 0.177760 0.922358 0.028071
O O12 0.000000 0.098695 0.889597
O O13 0.778423 0.000000 0.886715
O O14 0.763303 0.328286 0.110014
O O15 0.000000 0.337028 0.005249
O O16 0.000000 0.500000 0.743594
O O17 0.500000 0.782745 0.661070
#
# Coordination Sequence:
#
# PCOD8177765 Si02
#       7
#     4   8   8   8   8   4   8
#     4   9  20  36  57  88 119 150 192 246 300 350
#     4  11  24  41  61  87 122 161 202 246 298 363
#     4  10  18  32  58  88 116 149 188 236 295 353
#     4  10  20  36  59  90 122 153 195 245 297 352
#     4  11  22  40  65  90 119 154 200 252 302 355
#     4   9  16  30  55  88 121 146 180 236 300 358
#     4  11  24  40  58  85 119 159 202 243 294 356
#
# _framework density 19.953464
#
# number of rings (size 3 to 8) (size 9 to 14) (size 15 to 20)
#    0.000    1.667    2.500    2.500    0.000    4.333 
#    1.500    2.083    0.000    4.000    0.000    0.000 
#    0.000    0.000    0.000    0.000    0.000    0.000 
#
# Total GULP energy -297541.013282 kJ/mol
# GULP energy per Si atom -12397.542220 kJ/mol
# Density = 1.990805 g / cm^3
# Si number density = 19.953464 Si / 1000 Ang^3
#
#
#
# Elastic Constant Matrix: (Units=GPa)
#
#
# Indices 1 2 3 4 5 6 
#
# 1 58.7583 31.0129 34.4415 0.0000 0.0000 0.0000
# 2 31.0129 132.6089 34.7447 0.0000 0.0000 0.0000
# 3 34.4415 34.7447 87.6932 0.0000 0.0000 0.0000
# 4 0.0000 0.0000 0.0000 34.2241 0.0000 0.0000
# 5 0.0000 0.0000 0.0000 0.0000 28.8770 0.0000
# 6 0.0000 0.0000 0.0000 0.0000 0.0000 2.1505
#
#
#
# Elastic Compliance Matrix: (Units=1/GPa)
#
#
# Indices 1 2 3 4 5 6 
#
# 1 0.023423 -0.003423 -0.007843 0.000000 0.000000 0.000000
# 2 -0.003423 0.008915 -0.002188 0.000000 0.000000 0.000000
# 3 -0.007843 -0.002188 0.015351 0.000000 0.000000 0.000000
# 4 0.000000 0.000000 0.000000 0.029219 0.000000 0.000000
# 5 0.000000 0.000000 0.000000 0.000000 0.034630 0.000000
# 6 0.000000 0.000000 0.000000 0.000000 0.000000 0.464998
#
#
# Mechanical properties :
#
#
# Convention : Reuss Voigt Hill
#
# Bulk Modulus (GPa) = 48.12185 53.27317 50.69751
# Shear Modulus (GPa) = 8.19176 24.97443 16.58310
#
# Velocity S-wave (km/s) = 2.02839 3.54168 2.88599
# Velocity P-wave (km/s) = 5.44566 6.59404 6.04717
#
# Compressibility (1/GPa) = 0.02078058
#
# Stress axis : x y z
#
# Youngs Moduli (GPa) = 42.69351 112.17464 65.14408
#
# Poissons Ratio (x) = 0.38396 0.51093
# Poissons Ratio (y) = 0.14613 0.14252
# Poissons Ratio (z) = 0.33485 0.24541
#
# Static dielectric constant tensor:
#      x y z
#    x 3.376840 0.000000 0.000000 
#    y 0.000000 3.738900 0.000000 
#    z 0.000000 0.000000 3.797550 
# 
# 
# High freq. dielectric constant tensor:
#      x y z
#    x 1.756230 0.000000 0.000000 
#    y 0.000000 1.786610 0.000000 
#    z 0.000000 0.000000 1.778510 
# 
# From -- ./inp_files/12107.got.cif
#   From: 2010.03.12/outbox.cif.g09.slc.cpg/sg38_7_cif.got.tgz:12107.got - 2010.04.14 02:38:36.
