data_PCOD8177535
_publ_section_title
;
Structure prediction by ZEFSAII (Michael W. Deem and Ramdas Pophale) SiO2 
 PCOD8177535
Probable space group: A M M 2
;
_chemical_formula_sum "Si O2"
_cell_formula_units_Z 64
_cell_length_a 9.409273
_cell_length_b 18.316180
_cell_length_c 21.495319
_cell_angle_alpha 90.000000
_cell_angle_beta 90.000000
_cell_angle_gamma 90.000000
_cell_volume 3704.544933
_symmetry_space_group_name_H-M "A M M 2"
_symmetry_group_IT_number 38
_symmetry_cell_setting 'orthorhombic'
loop_
_space_group_symop_operation_xyz
x,y,z
-x,-y,z
-x,y,z
x,-y,z
x,1/2+y,1/2+z
-x,1/2-y,1/2+z
-x,1/2+y,1/2+z
x,1/2-y,1/2+z
loop_
_atom_site_type_symbol
_atom_site_label
_atom_site_fract_x
_atom_site_fract_y
_atom_site_fract_z
Si Si1 0.334534 0.582755 0.938490
Si Si2 0.664542 0.918014 0.174723
Si Si3 0.661061 0.580425 0.272676
Si Si4 0.337027 0.147175 0.306381
Si Si5 0.167837 0.780202 0.763895
Si Si6 0.836357 0.334085 0.039340
Si Si7 0.836217 0.213734 0.132908
Si Si8 0.652606 0.080462 0.626742
O O1 0.500000 0.589926 0.954105
O O2 0.281532 0.500000 0.952549
O O3 0.303652 0.598999 0.866645
O O4 0.254601 0.644144 0.979224
O O5 0.500000 0.907824 0.158872
O O6 0.694301 0.903895 0.247347
O O7 0.749383 0.861351 0.131780
O O8 0.715287 0.000000 0.159001
O O9 0.500000 0.599411 0.293819
O O10 0.704532 0.500000 0.299855
O O11 0.768412 0.644614 0.292101
O O12 0.671462 0.575393 0.199363
O O13 0.500000 0.174908 0.305888
O O14 0.232931 0.216319 0.306164
O O15 0.211720 0.765429 0.691387
O O16 0.000000 0.782778 0.773018
O O17 0.811723 0.251825 0.065489
O O18 0.789518 0.382076 0.097834
O O19 0.000000 0.348606 0.023822
O O20 0.000000 0.193900 0.142899
O O21 0.500000 0.119360 0.610617
O O22 0.646773 0.000000 0.597538
#
# Coordination Sequence:
#
# PCOD8177535 Si02
#       8
#     8   8   8   8   8   8   8   8
#     4  10  21  36  52  71  97 131 171 209 243 284
#     4   9  17  30  51  77  98 119 153 198 245 291
#     4   9  17  28  43  65  93 125 161 198 237 286
#     4   9  18  33  52  71  95 128 163 202 247 291
#     4  10  18  30  47  69  97 127 162 203 245 292
#     4  11  21  32  45  65  96 131 166 202 238 282
#     4   9  19  32  44  65  97 130 160 192 237 292
#     4   9  17  28  42  61  87 122 162 198 232 274
#
# _framework density 17.276077000000001
#
# number of rings (size 3 to 8) (size 9 to 14) (size 15 to 20)
#    0.000    2.500    1.250    2.250    0.000    6.000 
#    0.000    1.250    0.000    2.250    0.000    0.875 
#    0.000    5.000    0.000    0.000    0.000    0.125 
#
# Total GULP energy -396559.856399 kJ/mol
# GULP energy per Si atom -12392.495512 kJ/mol
# Density = 1.723676 g / cm^3
# Si number density = 17.276077 Si / 1000 Ang^3
#
#
#
# Elastic Constant Matrix: (Units=GPa)
#
#
# Indices 1 2 3 4 5 6 
#
# 1 78.9235 62.5567 27.1190 0.0000 0.0000 0.0000
# 2 62.5567 121.0722 25.1323 0.0000 0.0000 0.0000
# 3 27.1190 25.1323 49.8558 0.0000 0.0000 0.0000
# 4 0.0000 0.0000 0.0000 19.4292 0.0000 0.0000
# 5 0.0000 0.0000 0.0000 0.0000 20.5924 0.0000
# 6 0.0000 0.0000 0.0000 0.0000 0.0000 23.1173
#
#
#
# Elastic Compliance Matrix: (Units=1/GPa)
#
#
# Indices 1 2 3 4 5 6 
#
# 1 0.023738 -0.010705 -0.007516 0.000000 0.000000 0.000000
# 2 -0.010705 0.014052 -0.001261 0.000000 0.000000 0.000000
# 3 -0.007516 -0.001261 0.024782 0.000000 0.000000 0.000000
# 4 0.000000 0.000000 0.000000 0.051469 0.000000 0.000000
# 5 0.000000 0.000000 0.000000 0.000000 0.048562 0.000000
# 6 0.000000 0.000000 0.000000 0.000000 0.000000 0.043258
#
#
# Mechanical properties :
#
#
# Convention : Reuss Voigt Hill
#
# Bulk Modulus (GPa) = 42.35735 53.27419 47.81577
# Shear Modulus (GPa) = 19.78681 21.63069 20.70875
#
# Velocity S-wave (km/s) = 3.38794 3.54228 3.46597
# Velocity P-wave (km/s) = 6.31469 6.90176 6.61474
#
# Compressibility (1/GPa) = 0.02360865
#
# Stress axis : x y z
#
# Youngs Moduli (GPa) = 42.12628 71.16195 40.35237
#
# Poissons Ratio (x) = 0.76179 0.30329
# Poissons Ratio (y) = 0.45097 0.05088
# Poissons Ratio (z) = 0.31662 0.08972
#
# Static dielectric constant tensor:
#      x y z
#    x 3.225560 0.000000 0.000000 
#    y 0.000000 3.415280 0.000000 
#    z 0.000000 0.000000 2.880690 
# 
# 
# High freq. dielectric constant tensor:
#      x y z
#    x 1.667530 0.000000 0.000000 
#    y 0.000000 1.664790 0.000000 
#    z 0.000000 0.000000 1.623560 
# 
# From -- ./inp_files/20010.got.cif
#   From: 2010.03.12/outbox.cif.g09.slc.cpg/sg38_11_cif.got.tgz:20010.got - 2010.04.14 02:38:36.
