data_PCOD8177844
_publ_section_title
;
Structure prediction by ZEFSAII (Michael W. Deem and Ramdas Pophale) SiO2 
 PCOD8177844
Probable space group: A M M 2
;
_chemical_formula_sum "Si O2"
_cell_formula_units_Z 48
_cell_length_a 10.112284
_cell_length_b 8.931002
_cell_length_c 27.629512
_cell_angle_alpha 90.000000
_cell_angle_beta 90.000000
_cell_angle_gamma 90.000000
_cell_volume 2495.299382
_symmetry_space_group_name_H-M "A M M 2"
_symmetry_group_IT_number 38
_symmetry_cell_setting 'orthorhombic'
loop_
_space_group_symop_operation_xyz
x,y,z
-x,-y,z
-x,y,z
x,-y,z
x,1/2+y,1/2+z
-x,1/2-y,1/2+z
-x,1/2+y,1/2+z
x,1/2-y,1/2+z
loop_
_atom_site_type_symbol
_atom_site_label
_atom_site_fract_x
_atom_site_fract_y
_atom_site_fract_z
Si Si1 0.273086 0.677915 0.535440
Si Si2 0.000000 0.177955 0.185448
Si Si3 0.241678 0.675118 0.749671
Si Si4 0.500000 0.177473 0.107225
Si Si5 0.849180 0.173725 0.357824
Si Si6 0.648383 0.177454 0.930476
Si Si7 0.000000 0.821388 0.076635
Si Si8 0.500000 0.677090 0.211899
O O1 0.275238 0.500000 0.533263
O O2 0.372216 0.731313 0.577335
O O3 0.315997 0.742984 0.483468
O O4 0.127817 0.739400 0.548306
O O5 0.868260 0.234902 0.212162
O O6 0.000000 0.242045 0.131154
O O7 0.000000 0.000000 0.186901
O O8 0.272104 0.500000 0.741764
O O9 0.187309 0.707846 0.802794
O O10 0.373524 0.768735 0.741718
O O11 0.500000 0.256735 0.158411
O O12 0.500000 0.000000 0.115790
O O13 0.752087 0.265180 0.391771
O O14 0.000000 0.225078 0.367246
O O15 0.831925 0.000000 0.369735
O O16 0.500000 0.230481 0.916702
O O17 0.656222 0.000000 0.931545
O O18 0.000000 0.000000 0.078617
O O19 0.500000 0.500000 0.208883
#
# Coordination Sequence:
#
# PCOD8177844 Si02
#       8
#     8   4   8   4   8   8   4   4
#     4   9  17  31  53  83 113 143 186 238 280 326
#     4   9  16  32  60  89 109 135 187 247 288 323
#     4  10  20  39  63  84 110 149 194 239 285 334
#     4  10  18  36  61  80 105 147 196 241 285 328
#     4  10  22  40  61  86 114 145 190 243 289 340
#     4  10  21  37  57  85 120 153 188 233 286 342
#     4   9  16  24  45  83 113 133 173 233 284 325
#     4  12  26  38  53  86 125 155 186 229 281 346
#
# _framework density 19.236170000000001
#
# number of rings (size 3 to 8) (size 9 to 14) (size 15 to 20)
#    0.000    2.167    1.667    1.750    2.333    4.000 
#    0.000    1.250    0.000    0.000    0.000    0.000 
#    0.000    0.000    0.000    0.000    0.000    0.000 
#
# Total GULP energy -297619.533725 kJ/mol
# GULP energy per Si atom -12400.813905 kJ/mol
# Density = 1.919239 g / cm^3
# Si number density = 19.236170 Si / 1000 Ang^3
#
#
#
# Elastic Constant Matrix: (Units=GPa)
#
#
# Indices 1 2 3 4 5 6 
#
# 1 184.4405 37.1893 63.1109 0.0000 0.0000 0.0000
# 2 37.1893 37.8889 29.2475 0.0000 0.0000 0.0000
# 3 63.1109 29.2475 101.4181 0.0000 0.0000 0.0000
# 4 0.0000 0.0000 0.0000 24.3796 0.0000 0.0000
# 5 0.0000 0.0000 0.0000 0.0000 42.2788 0.0000
# 6 0.0000 0.0000 0.0000 0.0000 0.0000 15.4443
#
#
#
# Elastic Compliance Matrix: (Units=1/GPa)
#
#
# Indices 1 2 3 4 5 6 
#
# 1 0.007523 -0.004850 -0.003283 0.000000 0.000000 0.000000
# 2 -0.004850 0.037078 -0.007675 0.000000 0.000000 0.000000
# 3 -0.003283 -0.007675 0.014116 0.000000 0.000000 0.000000
# 4 0.000000 0.000000 0.000000 0.041018 0.000000 0.000000
# 5 0.000000 0.000000 0.000000 0.000000 0.023653 0.000000
# 6 0.000000 0.000000 0.000000 0.000000 0.000000 0.064749
#
#
# Mechanical properties :
#
#
# Convention : Reuss Voigt Hill
#
# Bulk Modulus (GPa) = 36.89740 64.76031 50.82886
# Shear Modulus (GPa) = 21.85457 29.36718 25.61087
#
# Velocity S-wave (km/s) = 3.37429 3.91149 3.65278
# Velocity P-wave (km/s) = 5.86550 7.35790 6.65367
#
# Compressibility (1/GPa) = 0.02710218
#
# Stress axis : x y z
#
# Youngs Moduli (GPa) = 132.92547 26.97040 70.84052
#
# Poissons Ratio (x) = 0.13081 0.23255
# Poissons Ratio (y) = 0.64469 0.54367
# Poissons Ratio (z) = 0.43636 0.20699
#
# Static dielectric constant tensor:
#      x y z
#    x 3.853970 0.000000 0.000000 
#    y 0.000000 3.081930 0.000000 
#    z 0.000000 0.000000 3.659530 
# 
# 
# High freq. dielectric constant tensor:
#      x y z
#    x 1.770330 0.000000 0.000000 
#    y 0.000000 1.695300 0.000000 
#    z 0.000000 0.000000 1.762070 
# 
# From -- ./inp_files/24475.got.cif
#   From: 2010.03.12/outbox.cif.g09.slc.cpg/sg38_13_cif.got.tgz:24475.got - 2010.04.14 02:38:36.
