data_PCOD8177770
_publ_section_title
;
Structure prediction by ZEFSAII (Michael W. Deem and Ramdas Pophale) SiO2 
 PCOD8177770
Probable space group: A M M 2
;
_chemical_formula_sum "Si O2"
_cell_formula_units_Z 56
_cell_length_a 8.867269
_cell_length_b 19.077355
_cell_length_c 18.116145
_cell_angle_alpha 90.000000
_cell_angle_beta 90.000000
_cell_angle_gamma 90.000000
_cell_volume 3064.600252
_symmetry_space_group_name_H-M "A M M 2"
_symmetry_group_IT_number 38
_symmetry_cell_setting 'orthorhombic'
loop_
_space_group_symop_operation_xyz
x,y,z
-x,-y,z
-x,y,z
x,-y,z
x,1/2+y,1/2+z
-x,1/2-y,1/2+z
-x,1/2+y,1/2+z
x,1/2-y,1/2+z
loop_
_atom_site_type_symbol
_atom_site_label
_atom_site_fract_x
_atom_site_fract_y
_atom_site_fract_z
Si Si1 0.676114 0.807617 0.814320
Si Si2 0.672064 0.205624 0.435231
Si Si3 0.320629 0.419783 0.033582
Si Si4 0.169112 0.423347 0.571721
Si Si5 0.832873 0.077743 0.897438
Si Si6 0.824294 0.334504 0.159152
Si Si7 0.329491 0.286623 0.580125
O O1 0.500000 0.799721 0.795794
O O2 0.737235 0.736612 0.857441
O O3 0.700555 0.872750 0.868620
O O4 0.768628 0.827204 0.742293
O O5 0.500000 0.187532 0.419881
O O6 0.743926 0.133291 0.469182
O O7 0.688027 0.269137 0.493661
O O8 0.500000 0.412240 0.038517
O O9 0.272385 0.500000 0.015874
O O10 0.256774 0.396826 0.113385
O O11 0.214354 0.500000 0.603432
O O12 0.175146 0.425602 0.484567
O O13 0.288735 0.366420 0.599937
O O14 0.000000 0.403713 0.598054
O O15 0.000000 0.104763 0.873361
O O16 0.806226 0.000000 0.864828
O O17 0.789774 0.260423 0.122648
O O18 0.000000 0.350960 0.158358
O O19 0.500000 0.271299 0.607073
#
# Coordination Sequence:
#
# PCOD8177770 Si02
#       7
#     8   8   8   8   8   8   8
#     4  11  20  33  51  74 104 139 177 218 262 314
#     4   8  16  30  51  78 102 128 167 216 265 308
#     4   9  18  36  60  83 107 136 173 219 272 328
#     4   9  17  29  47  73 104 135 165 201 249 301
#     4   9  18  31  46  69 103 137 168 202 241 293
#     4  11  23  36  51  74 104 140 177 217 267 319
#     4  10  18  33  53  75 100 130 173 220 260 308
#
# _framework density 18.273181999999998
#
# number of rings (size 3 to 8) (size 9 to 14) (size 15 to 20)
#    0.000    2.429    1.429    3.857    0.000    1.429 
#    0.000    2.143    0.000    0.857    0.000    2.000 
#    0.000    0.000    0.000    0.000    0.000    0.000 
#
# Total GULP energy -346870.360462 kJ/mol
# GULP energy per Si atom -12388.227159 kJ/mol
# Density = 1.823159 g / cm^3
# Si number density = 18.273182 Si / 1000 Ang^3
#
#
#
# Elastic Constant Matrix: (Units=GPa)
#
#
# Indices 1 2 3 4 5 6 
#
# 1 47.7691 26.7796 7.7813 0.0000 0.0000 0.0000
# 2 26.7796 124.3651 24.9284 0.0000 0.0000 0.0000
# 3 7.7813 24.9284 38.3866 0.0000 0.0000 0.0000
# 4 0.0000 0.0000 0.0000 13.9051 0.0000 0.0000
# 5 0.0000 0.0000 0.0000 0.0000 16.0008 0.0000
# 6 0.0000 0.0000 0.0000 0.0000 0.0000 27.1445
#
#
#
# Elastic Compliance Matrix: (Units=1/GPa)
#
#
# Indices 1 2 3 4 5 6 
#
# 1 0.023907 -0.004802 -0.001728 0.000000 0.000000 0.000000
# 2 -0.004802 0.010209 -0.005656 0.000000 0.000000 0.000000
# 3 -0.001728 -0.005656 0.030074 0.000000 0.000000 0.000000
# 4 0.000000 0.000000 0.000000 0.071916 0.000000 0.000000
# 5 0.000000 0.000000 0.000000 0.000000 0.062497 0.000000
# 6 0.000000 0.000000 0.000000 0.000000 0.000000 0.036840
#
#
# Mechanical properties :
#
#
# Convention : Reuss Voigt Hill
#
# Bulk Modulus (GPa) = 25.11398 36.61105 30.86251
# Shear Modulus (GPa) = 18.30917 21.47885 19.89401
#
# Velocity S-wave (km/s) = 3.16882 3.43217 3.30312
# Velocity P-wave (km/s) = 5.21172 5.98208 5.61014
#
# Compressibility (1/GPa) = 0.03981847
#
# Stress axis : x y z
#
# Youngs Moduli (GPa) = 41.82821 97.95743 33.25114
#
# Poissons Ratio (x) = 0.47035 0.05746
# Poissons Ratio (y) = 0.20084 0.18807
# Poissons Ratio (z) = 0.07228 0.55406
#
# Static dielectric constant tensor:
#      x y z
#    x 3.290970 0.000000 0.000000 
#    y 0.000000 3.861760 0.000000 
#    z 0.000000 0.000000 3.311090 
# 
# 
# High freq. dielectric constant tensor:
#      x y z
#    x 1.693570 0.000000 0.000000 
#    y 0.000000 1.711130 0.000000 
#    z 0.000000 0.000000 1.677100 
# 
# From -- ./inp_files/17086.got.cif
#   From: 2010.03.12/outbox.cif.g09.slc.cpg/sg38_9_cif.got.tgz:17086.got - 2010.04.14 02:38:36.
