data_PCOD8177519
_publ_section_title
;
Structure prediction by ZEFSAII (Michael W. Deem and Ramdas Pophale) SiO2 
 PCOD8177519
Probable space group: A M M 2
;
_chemical_formula_sum "Si O2"
_cell_formula_units_Z 40
_cell_length_a 13.434913
_cell_length_b 12.956946
_cell_length_c 8.277284
_cell_angle_alpha 90.000000
_cell_angle_beta 90.000000
_cell_angle_gamma 90.000000
_cell_volume 1440.871873
_symmetry_space_group_name_H-M "A M M 2"
_symmetry_group_IT_number 38
_symmetry_cell_setting 'orthorhombic'
loop_
_space_group_symop_operation_xyz
x,y,z
-x,-y,z
-x,y,z
x,-y,z
x,1/2+y,1/2+z
-x,1/2-y,1/2+z
-x,1/2+y,1/2+z
x,1/2-y,1/2+z
loop_
_atom_site_type_symbol
_atom_site_label
_atom_site_fract_x
_atom_site_fract_y
_atom_site_fract_z
Si Si1 0.116117 0.315073 0.580230
Si Si2 0.294558 0.880941 0.909462
Si Si3 0.381969 0.382813 0.735682
Si Si4 0.387744 0.876333 0.584253
Si Si5 0.116299 0.388318 0.923338
O O1 0.175423 0.371380 0.435194
O O2 0.161508 0.352170 0.750930
O O3 0.136860 0.192035 0.566485
O O4 0.000000 0.340831 0.554779
O O5 0.346435 0.826015 0.068978
O O6 0.327366 0.000000 0.898673
O O7 0.329448 0.828915 0.740227
O O8 0.500000 0.377882 0.752022
O O9 0.344828 0.500000 0.715990
O O10 0.338501 0.340511 0.910271
O O11 0.500000 0.834810 0.602543
O O12 0.387021 0.000000 0.583517
O O13 0.160767 0.500000 0.974575
O O14 0.000000 0.396998 0.889208
#
# Coordination Sequence:
#
# PCOD8177519 Si02
#       5
#     8   8   8   8   8
#     4  10  21  39  63  93 129 172 223 273 330 405
#     4  10  18  29  51  87 131 176 221 274 336 401
#     4   8  14  26  46  77 121 171 221 276 339 400
#     4   8  14  26  46  78 123 171 221 278 337 399
#     4   9  19  40  67  92 126 173 223 280 341 395
#
# _framework density 27.760967999999998
#
# number of rings (size 3 to 8) (size 9 to 14) (size 15 to 20)
#    0.000    3.000    0.000    2.400    0.000    3.600 
#    3.600    2.000    0.000    9.600    0.000    5.600 
#    0.000    9.600    0.000    4.600    0.000    0.400 
#
# Total GULP energy -247915.704425 kJ/mol
# GULP energy per Si atom -12395.785221 kJ/mol
# Density = 2.769778 g / cm^3
# Si number density = 27.760968 Si / 1000 Ang^3
#
#
#
# Elastic Constant Matrix: (Units=GPa)
#
#
# Indices 1 2 3 4 5 6 
#
# 1 80.1748 -1.4830 76.5914 0.0000 0.0000 0.0000
# 2 -1.4830 61.4567 69.1523 0.0000 0.0000 0.0000
# 3 76.5914 69.1523 226.0322 0.0000 0.0000 0.0000
# 4 0.0000 0.0000 0.0000 45.1472 0.0000 0.0000
# 5 0.0000 0.0000 0.0000 0.0000 40.7641 0.0000
# 6 0.0000 0.0000 0.0000 0.0000 0.0000 5.1359
#
#
#
# Elastic Compliance Matrix: (Units=1/GPa)
#
#
# Indices 1 2 3 4 5 6 
#
# 1 0.025761 0.015927 -0.013602 0.000000 0.000000 0.000000
# 2 0.015927 0.034660 -0.016001 0.000000 0.000000 0.000000
# 3 -0.013602 -0.016001 0.013928 0.000000 0.000000 0.000000
# 4 0.000000 0.000000 0.000000 0.022150 0.000000 0.000000
# 5 0.000000 0.000000 0.000000 0.000000 0.024531 0.000000
# 6 0.000000 0.000000 0.000000 0.000000 0.000000 0.194708
#
#
# Mechanical properties :
#
#
# Convention : Reuss Voigt Hill
#
# Bulk Modulus (GPa) = 21.27740 72.90943 47.09342
# Shear Modulus (GPa) = 13.93702 33.10297 23.51999
#
# Velocity S-wave (km/s) = 2.24305 3.45690 2.91388
# Velocity P-wave (km/s) = 3.79335 6.50030 5.32181
#
# Compressibility (1/GPa) = 0.04699822
#
# Stress axis : x y z
#
# Youngs Moduli (GPa) = 38.81792 28.85145 71.79554
#
# Poissons Ratio (x) = -0.45951 0.97655
# Poissons Ratio (y) = -0.61824 1.14878
# Poissons Ratio (z) = 0.52800 0.46165
#
# Static dielectric constant tensor:
#      x y z
#    x 4.758360 0.000000 0.000000 
#    y 0.000000 5.044030 0.000000 
#    z 0.000000 0.000000 5.393370 
# 
# 
# High freq. dielectric constant tensor:
#      x y z
#    x 2.116180 0.000000 0.000000 
#    y 0.000000 2.127880 0.000000 
#    z 0.000000 0.000000 2.131330 
# 
# From -- ./inp_files/5236.got.cif
#   From: 2010.03.12/outbox.cif.g09.slc.cpg/sg38_3_cif.got.tgz:5236.got - 2010.04.14 02:38:36.
