data_PCOD8177939
_publ_section_title
;
Structure prediction by ZEFSAII (Michael W. Deem and Ramdas Pophale) SiO2 
 PCOD8177939
Probable space group: A M M 2
;
_chemical_formula_sum "Si O2"
_cell_formula_units_Z 64
_cell_length_a 19.324005
_cell_length_b 9.105060
_cell_length_c 20.411666
_cell_angle_alpha 90.000000
_cell_angle_beta 90.000000
_cell_angle_gamma 90.000000
_cell_volume 3591.355578
_symmetry_space_group_name_H-M "A M M 2"
_symmetry_group_IT_number 38
_symmetry_cell_setting 'orthorhombic'
loop_
_space_group_symop_operation_xyz
x,y,z
-x,-y,z
-x,y,z
x,-y,z
x,1/2+y,1/2+z
-x,1/2-y,1/2+z
-x,1/2+y,1/2+z
x,1/2-y,1/2+z
loop_
_atom_site_type_symbol
_atom_site_label
_atom_site_fract_x
_atom_site_fract_y
_atom_site_fract_z
Si Si1 0.159531 0.174434 0.742630
Si Si2 0.710524 0.327488 0.689626
Si Si3 0.076655 0.174417 0.616377
Si Si4 0.159084 0.171743 0.491597
Si Si5 0.575818 0.835272 0.535253
Si Si6 0.710383 0.327731 0.537369
Si Si7 0.919158 0.329509 0.858052
Si Si8 0.424008 0.664737 0.190636
O O1 0.234825 0.246272 0.736156
O O2 0.115334 0.229482 0.680872
O O3 0.120324 0.228724 0.806677
O O4 0.167362 0.000000 0.745166
O O5 0.717514 0.500000 0.699782
O O6 0.721917 0.282350 0.613500
O O7 0.634915 0.276776 0.714970
O O8 0.115834 0.234353 0.552777
O O9 0.000000 0.242525 0.617206
O O10 0.072894 0.000000 0.614194
O O11 0.232150 0.254734 0.490998
O O12 0.114539 0.206650 0.427749
O O13 0.174417 0.000000 0.499148
O O14 0.500000 0.783842 0.508911
O O15 0.635977 0.726867 0.510669
O O16 0.573880 0.833822 0.612948
O O17 0.591794 0.000000 0.510168
O O18 0.713691 0.500000 0.528225
O O19 0.909503 0.500000 0.839665
O O20 0.000000 0.287203 0.860347
O O21 0.500000 0.713547 0.217320
O O22 0.406643 0.500000 0.215308
#
# Coordination Sequence:
#
# PCOD8177939 Si02
#       8
#     8   8   8   8   8   8   8   8
#     4  11  21  34  54  77 103 136 173 215 259 308
#     4  10  19  30  46  71 105 139 173 214 260 308
#     4   9  17  30  51  77  98 122 165 212 251 299
#     4  10  19  34  55  75  99 135 174 211 254 309
#     4   8  14  25  42  65  96 135 175 210 247 298
#     4  10  19  29  45  72 106 137 168 213 262 304
#     4  10  22  39  57  77 103 134 169 214 266 316
#     4   8  14  25  42  66  98 135 173 211 253 302
#
# _framework density 17.820568999999999
#
# number of rings (size 3 to 8) (size 9 to 14) (size 15 to 20)
#    0.000    2.500    1.250    2.625    0.000    4.250 
#    0.000    2.500    0.000    1.875    0.000    0.875 
#    0.000    1.000    0.000    0.000    0.000    0.000 
#
# Total GULP energy -396727.802824 kJ/mol
# GULP energy per Si atom -12397.743838 kJ/mol
# Density = 1.778001 g / cm^3
# Si number density = 17.820569 Si / 1000 Ang^3
#
#
#
# Elastic Constant Matrix: (Units=GPa)
#
#
# Indices 1 2 3 4 5 6 
#
# 1 161.7956 62.0619 40.9638 0.0000 0.0000 0.0000
# 2 62.0619 74.6460 33.7687 0.0000 0.0000 0.0000
# 3 40.9638 33.7687 61.0850 0.0000 0.0000 0.0000
# 4 0.0000 0.0000 0.0000 21.2013 0.0000 0.0000
# 5 0.0000 0.0000 0.0000 0.0000 21.3577 0.0000
# 6 0.0000 0.0000 0.0000 0.0000 0.0000 26.1075
#
#
#
# Elastic Compliance Matrix: (Units=1/GPa)
#
#
# Indices 1 2 3 4 5 6 
#
# 1 0.009383 -0.006607 -0.002640 0.000000 0.000000 0.000000
# 2 -0.006607 0.022517 -0.008017 0.000000 0.000000 0.000000
# 3 -0.002640 -0.008017 0.022573 0.000000 0.000000 0.000000
# 4 0.000000 0.000000 0.000000 0.047167 0.000000 0.000000
# 5 0.000000 0.000000 0.000000 0.000000 0.046822 0.000000
# 6 0.000000 0.000000 0.000000 0.000000 0.000000 0.038303
#
#
# Mechanical properties :
#
#
# Convention : Reuss Voigt Hill
#
# Bulk Modulus (GPa) = 50.13795 63.45726 56.79760
# Shear Modulus (GPa) = 21.93556 24.44879 23.19217
#
# Velocity S-wave (km/s) = 3.51224 3.70799 3.61144
# Velocity P-wave (km/s) = 6.68160 7.34973 7.02361
#
# Compressibility (1/GPa) = 0.01994497
#
# Stress axis : x y z
#
# Youngs Moduli (GPa) = 106.57046 44.41176 44.30131
#
# Poissons Ratio (x) = 0.29344 0.11695
# Poissons Ratio (y) = 0.70414 0.35515
# Poissons Ratio (z) = 0.28134 0.35603
#
# Static dielectric constant tensor:
#      x y z
#    x 3.722800 0.000000 0.000000 
#    y 0.000000 3.144850 0.000000 
#    z 0.000000 0.000000 2.933990 
# 
# 
# High freq. dielectric constant tensor:
#      x y z
#    x 1.710390 0.000000 0.000000 
#    y 0.000000 1.677590 0.000000 
#    z 0.000000 0.000000 1.641510 
# 
# From -- ./inp_files/18845.got.cif
#   From: 2010.03.12/outbox.cif.g09.slc.cpg/sg38_10_cif.got.tgz:18845.got - 2010.04.14 02:38:36.
