data_PCOD8177830
_publ_section_title
;
Structure prediction by ZEFSAII (Michael W. Deem and Ramdas Pophale) SiO2 
 PCOD8177830
Probable space group: A M M 2
;
_chemical_formula_sum "Si O2"
_cell_formula_units_Z 48
_cell_length_a 8.640104
_cell_length_b 16.578183
_cell_length_c 18.707284
_cell_angle_alpha 90.000000
_cell_angle_beta 90.000000
_cell_angle_gamma 90.000000
_cell_volume 2679.579452
_symmetry_space_group_name_H-M "A M M 2"
_symmetry_group_IT_number 38
_symmetry_cell_setting 'orthorhombic'
loop_
_space_group_symop_operation_xyz
x,y,z
-x,-y,z
-x,y,z
x,-y,z
x,1/2+y,1/2+z
-x,1/2-y,1/2+z
-x,1/2+y,1/2+z
x,1/2-y,1/2+z
loop_
_atom_site_type_symbol
_atom_site_label
_atom_site_fract_x
_atom_site_fract_y
_atom_site_fract_z
Si Si1 0.179966 0.309983 0.661010
Si Si2 0.674997 0.269287 0.437856
Si Si3 0.316709 0.837647 0.313656
Si Si4 0.316230 0.407931 0.534770
Si Si5 0.674901 0.171196 0.578402
Si Si6 0.319269 0.500000 0.030088
Si Si7 0.818445 0.500000 0.874864
O O1 0.274507 0.315911 0.733537
O O2 0.237502 0.380344 0.608252
O O3 0.209593 0.221517 0.628132
O O4 0.000000 0.321646 0.676487
O O5 0.500000 0.291226 0.419054
O O6 0.752498 0.233095 0.365954
O O7 0.749492 0.352168 0.469588
O O8 0.687300 0.199545 0.496788
O O9 0.500000 0.842957 0.323425
O O10 0.247153 0.922829 0.334630
O O11 0.500000 0.395378 0.543813
O O12 0.272031 0.500000 0.518316
O O13 0.500000 0.184098 0.606772
O O14 0.722225 0.077298 0.578900
O O15 0.500000 0.500000 0.008607
O O16 0.221496 0.500000 0.958137
O O17 0.000000 0.500000 0.865700
#
# Coordination Sequence:
#
# PCOD8177830 Si02
#       7
#     8   8   8   8   8   4   4
#     4  11  23  36  51  77 113 146 177 219 273 325
#     4   8  15  30  55  80 100 130 175 222 261 306
#     4  11  21  37  57  76 106 147 185 219 263 320
#     4   9  18  35  58  81 103 133 176 225 271 320
#     4   9  17  34  57  81 105 138 183 222 262 315
#     4  10  18  34  60  84 108 139 182 227 262 316
#     4  12  24  34  50  84 120 141 170 217 276 332
#
# _framework density 17.913257999999999
#
# number of rings (size 3 to 8) (size 9 to 14) (size 15 to 20)
#    0.000    2.167    1.667    3.750    1.167    1.000 
#    0.000    0.833    1.833    0.000    0.000    0.000 
#    0.000    0.000    0.000    0.000    0.000    0.000 
#
# Total GULP energy -297514.270873 kJ/mol
# GULP energy per Si atom -12396.427953 kJ/mol
# Density = 1.787249 g / cm^3
# Si number density = 17.913258 Si / 1000 Ang^3
#
#
#
# Elastic Constant Matrix: (Units=GPa)
#
#
# Indices 1 2 3 4 5 6 
#
# 1 60.5796 24.7483 23.3263 0.0000 0.0000 0.0000
# 2 24.7483 147.5434 55.1994 0.0000 0.0000 0.0000
# 3 23.3263 55.1994 101.1144 0.0000 0.0000 0.0000
# 4 0.0000 0.0000 0.0000 12.8069 0.0000 0.0000
# 5 0.0000 0.0000 0.0000 0.0000 12.6220 0.0000
# 6 0.0000 0.0000 0.0000 0.0000 0.0000 9.1743
#
#
#
# Elastic Compliance Matrix: (Units=1/GPa)
#
#
# Indices 1 2 3 4 5 6 
#
# 1 0.018529 -0.001896 -0.003239 0.000000 0.000000 0.000000
# 2 -0.001896 0.008711 -0.004318 0.000000 0.000000 0.000000
# 3 -0.003239 -0.004318 0.012994 0.000000 0.000000 0.000000
# 4 0.000000 0.000000 0.000000 0.078083 0.000000 0.000000
# 5 0.000000 0.000000 0.000000 0.000000 0.079227 0.000000
# 6 0.000000 0.000000 0.000000 0.000000 0.000000 0.109000
#
#
# Mechanical properties :
#
#
# Convention : Reuss Voigt Hill
#
# Bulk Modulus (GPa) = 46.88785 57.30951 52.09868
# Shear Modulus (GPa) = 15.03481 20.65152 17.84317
#
# Velocity S-wave (km/s) = 2.90023 3.39907 3.15951
# Velocity P-wave (km/s) = 6.11939 6.88964 6.51590
#
# Compressibility (1/GPa) = 0.02132749
#
# Stress axis : x y z
#
# Youngs Moduli (GPa) = 53.96903 114.79452 76.95608
#
# Poissons Ratio (x) = 0.21766 0.24930
# Poissons Ratio (y) = 0.10233 0.33231
# Poissons Ratio (z) = 0.17483 0.49570
#
# Static dielectric constant tensor:
#      x y z
#    x 3.126490 0.000000 0.000000 
#    y 0.000000 3.547390 0.000000 
#    z 0.000000 0.000000 3.278660 
# 
# 
# High freq. dielectric constant tensor:
#      x y z
#    x 1.673540 0.000000 0.000000 
#    y 0.000000 1.701530 0.000000 
#    z 0.000000 0.000000 1.679010 
# 
# From -- ./inp_files/12109.got.cif
#   From: 2010.03.12/outbox.cif.g09.slc.cpg/sg38_7_cif.got.tgz:12109.got - 2010.04.14 02:38:36.
