data_PCOD8177138
_publ_section_title
;
Structure prediction by ZEFSAII (Michael W. Deem and Ramdas Pophale) SiO2 
 PCOD8177138
Probable space group: C C C 2
;
_chemical_formula_sum "Si O2"
_cell_formula_units_Z 32
_cell_length_a 5.926433
_cell_length_b 22.965461
_cell_length_c 9.449089
_cell_angle_alpha 90.000000
_cell_angle_beta 90.000000
_cell_angle_gamma 90.000000
_cell_volume 1286.051873
_symmetry_space_group_name_H-M "C C C 2"
_symmetry_group_IT_number 37
_symmetry_cell_setting 'orthorhombic'
loop_
_space_group_symop_operation_xyz
x,y,z
-x,-y,z
-x,y,1/2+z
x,-y,1/2+z
1/2+x,1/2+y,z
1/2-x,1/2-y,z
1/2-x,1/2+y,1/2+z
1/2+x,1/2-y,1/2+z
loop_
_atom_site_type_symbol
_atom_site_label
_atom_site_fract_x
_atom_site_fract_y
_atom_site_fract_z
Si Si1 0.981359 0.423940 0.927680
Si Si2 0.213738 0.815365 0.502336
Si Si3 0.100322 0.861693 0.782056
Si Si4 0.291806 0.543468 0.193604
O O1 0.783104 0.411565 0.815656
O O2 0.088765 0.360946 0.964571
O O3 0.162982 0.466027 0.845494
O O4 0.889408 0.457598 0.066022
O O5 0.250000 0.750000 0.447552
O O6 0.192101 0.813824 0.672449
O O7 0.979861 0.833526 0.428073
O O8 0.894311 0.891936 0.698540
O O9 0.500000 0.500000 0.168103
#
# Coordination Sequence:
#
# PCOD8177138 Si02
#       4
#     8   8   8   8
#     4  11  24  50  73 110 151 194 255 315 373 459
#     4  11  26  43  75 109 151 202 248 314 380 443
#     4  11  24  48  69 111 150 191 260 308 365 466
#     4  11  26  50  79 108 149 203 253 316 386 453
#
# _framework density 24.882356000000001
#
# number of rings (size 3 to 8) (size 9 to 14) (size 15 to 20)
#    0.000    1.000    5.000    0.000    3.500    2.000 
#    4.500    1.250    0.000    0.000    0.000    0.000 
#    0.000    0.000    0.000    0.000    0.000    0.000 
#
# Total GULP energy -198356.716471 kJ/mol
# GULP energy per Si atom -12397.294779 kJ/mol
# Density = 2.482572 g / cm^3
# Si number density = 24.882356 Si / 1000 Ang^3
#
#
#
# Elastic Constant Matrix: (Units=GPa)
#
#
# Indices 1 2 3 4 5 6 
#
# 1 123.6285 52.8718 60.8709 0.0000 0.0000 0.0000
# 2 52.8718 113.7139 45.8929 0.0000 0.0000 0.0000
# 3 60.8709 45.8929 161.7284 0.0000 0.0000 0.0000
# 4 0.0000 0.0000 0.0000 29.3473 0.0000 0.0000
# 5 0.0000 0.0000 0.0000 0.0000 52.7718 0.0000
# 6 0.0000 0.0000 0.0000 0.0000 0.0000 28.3822
#
#
#
# Elastic Compliance Matrix: (Units=1/GPa)
#
#
# Indices 1 2 3 4 5 6 
#
# 1 0.011347 -0.004012 -0.003132 0.000000 0.000000 0.000000
# 2 -0.004012 0.011350 -0.001711 0.000000 0.000000 0.000000
# 3 -0.003132 -0.001711 0.007848 0.000000 0.000000 0.000000
# 4 0.000000 0.000000 0.000000 0.034075 0.000000 0.000000
# 5 0.000000 0.000000 0.000000 0.000000 0.018950 0.000000
# 6 0.000000 0.000000 0.000000 0.000000 0.000000 0.035233
#
#
# Mechanical properties :
#
#
# Convention : Reuss Voigt Hill
#
# Bulk Modulus (GPa) = 77.91414 79.81578 78.86496
# Shear Modulus (GPa) = 35.51424 38.06261 36.78842
#
# Velocity S-wave (km/s) = 3.78204 3.91538 3.84929
# Velocity P-wave (km/s) = 7.10301 7.25170 7.17774
#
# Compressibility (1/GPa) = 0.01283464
#
# Stress axis : x y z
#
# Youngs Moduli (GPa) = 88.13235 88.10871 127.42786
#
# Poissons Ratio (x) = 0.35345 0.39914
# Poissons Ratio (y) = 0.35354 0.21800
# Poissons Ratio (z) = 0.27605 0.15073
#
# Static dielectric constant tensor:
#      x y z
#    x 4.707700 0.000000 0.000000 
#    y 0.000000 4.201980 0.000000 
#    z 0.000000 0.000000 4.417600 
# 
# 
# High freq. dielectric constant tensor:
#      x y z
#    x 2.000410 0.000000 0.000000 
#    y 0.000000 1.985360 0.000000 
#    z 0.000000 0.000000 2.001420 
# 
# From -- ./inp_files/1707.got.cif
#   From: 2010.03.12/outbox.cif.g09.slc.cpg/sg37_1_cif.got.tgz:1707.got - 2010.04.14 02:25:27.
