data_PCOD8177470
_publ_section_title
;
Structure prediction by ZEFSAII (Michael W. Deem and Ramdas Pophale) SiO2 
 PCOD8177470
Probable space group: A M M 2
;
_chemical_formula_sum "Si O2"
_cell_formula_units_Z 64
_cell_length_a 14.147489
_cell_length_b 9.125191
_cell_length_c 31.005722
_cell_angle_alpha 90.000000
_cell_angle_beta 90.000000
_cell_angle_gamma 90.000000
_cell_volume 4002.793420
_symmetry_space_group_name_H-M "A M M 2"
_symmetry_group_IT_number 38
_symmetry_cell_setting 'orthorhombic'
loop_
_space_group_symop_operation_xyz
x,y,z
-x,-y,z
-x,y,z
x,-y,z
x,1/2+y,1/2+z
-x,1/2-y,1/2+z
-x,1/2+y,1/2+z
x,1/2-y,1/2+z
loop_
_atom_site_type_symbol
_atom_site_label
_atom_site_fract_x
_atom_site_fract_y
_atom_site_fract_z
Si Si1 0.394596 0.326259 0.615740
Si Si2 0.894168 0.167267 0.073621
Si Si3 0.390821 0.671025 0.781443
Si Si4 0.292389 0.669836 0.528616
Si Si5 0.723051 0.326634 0.697236
Si Si6 0.107855 0.670973 0.161486
Si Si7 0.390729 0.827623 0.451232
Si Si8 0.387752 0.665033 0.365923
O O1 0.500000 0.259604 0.616938
O O2 0.398766 0.500000 0.618546
O O3 0.345002 0.276582 0.571729
O O4 0.336820 0.266259 0.656647
O O5 0.819924 0.196284 0.035142
O O6 0.870256 0.269833 0.113790
O O7 0.000000 0.197087 0.055845
O O8 0.882963 0.000000 0.090042
O O9 0.500000 0.709527 0.772014
O O10 0.378995 0.500000 0.791083
O O11 0.330378 0.721681 0.740468
O O12 0.350187 0.757552 0.822649
O O13 0.315171 0.500000 0.518453
O O14 0.326921 0.769704 0.489872
O O15 0.736257 0.500000 0.695145
O O16 0.825655 0.250839 0.696325
O O17 0.129629 0.500000 0.161673
O O18 0.000000 0.705074 0.174557
O O19 0.500000 0.785743 0.459979
O O20 0.352170 0.753357 0.407616
O O21 0.377691 0.000000 0.446460
O O22 0.500000 0.666906 0.365110
O O23 0.347976 0.500000 0.368034
#
# Coordination Sequence:
#
# PCOD8177470 Si02
#       8
#     8   8   8   8   8   8   8   8
#     4   9  16  26  41  63  92 124 157 188 217 259
#     4   9  17  31  50  69  89 116 154 197 235 275
#     4   9  17  29  47  71  98 125 154 190 230 273
#     4  10  18  29  46  68  92 122 157 191 230 275
#     4  10  18  30  47  68  92 124 161 191 225 272
#     4  10  20  32  46  65  90 120 154 197 244 279
#     4  10  20  32  46  66  94 125 157 194 233 272
#     4   9  17  30  48  68  91 121 157 194 231 272
#
# _framework density 15.988834000000001
#
# number of rings (size 3 to 8) (size 9 to 14) (size 15 to 20)
#    0.000    2.500    1.250    1.875    0.000    6.000 
#    0.000    0.000    0.000    1.125    0.000    0.875 
#    0.000    5.000    0.000    0.000    0.000    0.000 
#
# Total GULP energy -396804.302415 kJ/mol
# GULP energy per Si atom -12400.134450 kJ/mol
# Density = 1.595244 g / cm^3
# Si number density = 15.988834 Si / 1000 Ang^3
#
#
#
# Elastic Constant Matrix: (Units=GPa)
#
#
# Indices 1 2 3 4 5 6 
#
# 1 91.9163 39.2861 56.4768 0.0000 0.0000 0.0000
# 2 39.2861 65.5515 54.6072 0.0000 0.0000 0.0000
# 3 56.4768 54.6072 132.3998 0.0000 0.0000 0.0000
# 4 0.0000 0.0000 0.0000 27.8893 0.0000 0.0000
# 5 0.0000 0.0000 0.0000 0.0000 12.1526 0.0000
# 6 0.0000 0.0000 0.0000 0.0000 0.0000 19.2444
#
#
#
# Elastic Compliance Matrix: (Units=1/GPa)
#
#
# Indices 1 2 3 4 5 6 
#
# 1 0.016160 -0.006006 -0.004416 0.000000 0.000000 0.000000
# 2 -0.006006 0.025472 -0.007944 0.000000 0.000000 0.000000
# 3 -0.004416 -0.007944 0.012713 0.000000 0.000000 0.000000
# 4 0.000000 0.000000 0.000000 0.035856 0.000000 0.000000
# 5 0.000000 0.000000 0.000000 0.000000 0.082287 0.000000
# 6 0.000000 0.000000 0.000000 0.000000 0.000000 0.051963
#
#
# Mechanical properties :
#
#
# Convention : Reuss Voigt Hill
#
# Bulk Modulus (GPa) = 56.77576 65.62309 61.19943
# Shear Modulus (GPa) = 18.72277 21.15709 19.93993
#
# Velocity S-wave (km/s) = 3.42569 3.64159 3.53528
# Velocity P-wave (km/s) = 7.15778 7.66901 7.41780
#
# Compressibility (1/GPa) = 0.01761315
#
# Stress axis : x y z
#
# Youngs Moduli (GPa) = 61.88139 39.25828 78.65975
#
# Poissons Ratio (x) = 0.23579 0.34736
# Poissons Ratio (y) = 0.37167 0.62486
# Poissons Ratio (z) = 0.27327 0.31186
#
# Static dielectric constant tensor:
#      x y z
#    x 3.065310 0.000000 0.000000 
#    y 0.000000 2.963570 0.000000 
#    z 0.000000 0.000000 2.985620 
# 
# 
# High freq. dielectric constant tensor:
#      x y z
#    x 1.597590 0.000000 0.000000 
#    y 0.000000 1.606970 0.000000 
#    z 0.000000 0.000000 1.602040 
# 
# From -- ./inp_files/25030.got.cif
#   From: 2010.03.12/outbox.cif.g09.slc.cpg/sg38_13_cif.got.tgz:25030.got - 2010.04.14 02:38:36.
