data_PCOD8177975
_publ_section_title
;
Structure prediction by ZEFSAII (Michael W. Deem and Ramdas Pophale) SiO2 
 PCOD8177975
Probable space group: A M M 2
;
_chemical_formula_sum "Si O2"
_cell_formula_units_Z 64
_cell_length_a 14.167562
_cell_length_b 9.352001
_cell_length_c 30.899663
_cell_angle_alpha 90.000000
_cell_angle_beta 90.000000
_cell_angle_gamma 90.000000
_cell_volume 4094.052518
_symmetry_space_group_name_H-M "A M M 2"
_symmetry_group_IT_number 38
_symmetry_cell_setting 'orthorhombic'
loop_
_space_group_symop_operation_xyz
x,y,z
-x,-y,z
-x,y,z
x,-y,z
x,1/2+y,1/2+z
-x,1/2-y,1/2+z
-x,1/2+y,1/2+z
x,1/2-y,1/2+z
loop_
_atom_site_type_symbol
_atom_site_label
_atom_site_fract_x
_atom_site_fract_y
_atom_site_fract_z
Si Si1 0.390182 0.832951 0.570180
Si Si2 0.892978 0.334682 0.780763
Si Si3 0.612135 0.658098 0.973626
Si Si4 0.608328 0.167591 0.892898
Si Si5 0.897734 0.330729 0.683198
Si Si6 0.277435 0.168406 0.809732
Si Si7 0.701995 0.829465 0.146823
Si Si8 0.609913 0.335546 0.224274
O O1 0.500000 0.797190 0.577271
O O2 0.356418 0.792799 0.521619
O O3 0.328975 0.733718 0.601198
O O4 0.371908 0.000000 0.579873
O O5 0.863484 0.500000 0.783258
O O6 0.881962 0.274578 0.731952
O O7 0.824053 0.244046 0.811220
O O8 0.000000 0.312987 0.797114
O O9 0.500000 0.655484 0.973372
O O10 0.651829 0.500000 0.963992
O O11 0.651236 0.762554 0.936485
O O12 0.500000 0.213193 0.885950
O O13 0.665290 0.222949 0.851424
O O14 0.618312 0.000000 0.898873
O O15 0.901549 0.500000 0.685606
O O16 0.811109 0.280647 0.653332
O O17 0.000000 0.274078 0.665620
O O18 0.334388 0.213912 0.766916
O O19 0.262397 0.000000 0.811534
O O20 0.637724 0.765484 0.184675
O O21 0.690628 0.000000 0.146954
O O22 0.500000 0.316400 0.234320
O O23 0.632983 0.500000 0.212221
#
# Coordination Sequence:
#
# PCOD8177975 Si02
#       8
#     8   8   8   8   8   8   8   8
#     4   9  18  32  47  63  90 125 152 177 219 272
#     4   9  17  31  49  65  85 116 151 188 231 272
#     4   8  15  29  47  65  85 114 152 188 221 261
#     4   9  17  29  45  66  93 122 150 183 224 266
#     4   8  15  29  46  62  84 114 145 182 229 270
#     4  10  19  30  45  66  91 120 153 186 220 262
#     4  11  20  29  45  68  89 113 151 192 224 258
#     4  10  20  32  43  57  87 129 159 176 207 260
#
# _framework density 15.632433000000001
#
# number of rings (size 3 to 8) (size 9 to 14) (size 15 to 20)
#    0.000    2.750    1.250    2.625    0.000    4.750 
#    0.000    1.250    0.000    3.750    0.000    0.875 
#    0.000    3.000    0.000    0.000    0.000    0.000 
#
# Total GULP energy -396687.954280 kJ/mol
# GULP energy per Si atom -12396.498571 kJ/mol
# Density = 1.559685 g / cm^3
# Si number density = 15.632433 Si / 1000 Ang^3
#
#
#
# Elastic Constant Matrix: (Units=GPa)
#
#
# Indices 1 2 3 4 5 6 
#
# 1 85.6678 35.6587 47.4901 0.0000 0.0000 0.0000
# 2 35.6587 46.3216 45.5060 0.0000 0.0000 0.0000
# 3 47.4901 45.5060 114.4963 0.0000 0.0000 0.0000
# 4 0.0000 0.0000 0.0000 27.7570 0.0000 0.0000
# 5 0.0000 0.0000 0.0000 0.0000 11.5603 0.0000
# 6 0.0000 0.0000 0.0000 0.0000 0.0000 22.5272
#
#
#
# Elastic Compliance Matrix: (Units=1/GPa)
#
#
# Indices 1 2 3 4 5 6 
#
# 1 0.017859 -0.010616 -0.003188 0.000000 0.000000 0.000000
# 2 -0.010616 0.041727 -0.012181 0.000000 0.000000 0.000000
# 3 -0.003188 -0.012181 0.014898 0.000000 0.000000 0.000000
# 4 0.000000 0.000000 0.000000 0.036027 0.000000 0.000000
# 5 0.000000 0.000000 0.000000 0.000000 0.086503 0.000000
# 6 0.000000 0.000000 0.000000 0.000000 0.000000 0.044391
#
#
# Mechanical properties :
#
#
# Convention : Reuss Voigt Hill
#
# Bulk Modulus (GPa) = 44.41814 55.97727 50.19770
# Shear Modulus (GPa) = 16.61796 20.22431 18.42113
#
# Velocity S-wave (km/s) = 3.26397 3.60076 3.43650
# Velocity P-wave (km/s) = 6.53303 7.29201 6.92293
#
# Compressibility (1/GPa) = 0.02251333
#
# Stress axis : x y z
#
# Youngs Moduli (GPa) = 55.99323 23.96528 67.12513
#
# Poissons Ratio (x) = 0.25442 0.21401
# Poissons Ratio (y) = 0.59443 0.81765
# Poissons Ratio (z) = 0.17852 0.29192
#
# Static dielectric constant tensor:
#      x y z
#    x 3.033230 0.000000 0.000000 
#    y 0.000000 2.892090 0.000000 
#    z 0.000000 0.000000 3.046430 
# 
# 
# High freq. dielectric constant tensor:
#      x y z
#    x 1.582750 0.000000 0.000000 
#    y 0.000000 1.590840 0.000000 
#    z 0.000000 0.000000 1.589720 
# 
# From -- ./inp_files/25032.got.cif
#   From: 2010.03.12/outbox.cif.g09.slc.cpg/sg38_13_cif.got.tgz:25032.got - 2010.04.14 02:38:36.
