data_PCOD8177197
_publ_section_title
;
Structure prediction by ZEFSAII (Michael W. Deem and Ramdas Pophale) SiO2 
 PCOD8177197
Probable space group: A M M 2
;
_chemical_formula_sum "Si O2"
_cell_formula_units_Z 40
_cell_length_a 22.715916
_cell_length_b 16.013386
_cell_length_c 5.286236
_cell_angle_alpha 90.000000
_cell_angle_beta 90.000000
_cell_angle_gamma 90.000000
_cell_volume 1922.914500
_symmetry_space_group_name_H-M "A M M 2"
_symmetry_group_IT_number 38
_symmetry_cell_setting 'orthorhombic'
loop_
_space_group_symop_operation_xyz
x,y,z
-x,-y,z
-x,y,z
x,-y,z
x,1/2+y,1/2+z
-x,1/2-y,1/2+z
-x,1/2+y,1/2+z
x,1/2-y,1/2+z
loop_
_atom_site_type_symbol
_atom_site_label
_atom_site_fract_x
_atom_site_fract_y
_atom_site_fract_z
Si Si1 0.119039 0.845905 0.091130
Si Si2 0.433463 0.400486 0.109203
Si Si3 0.750386 0.695857 0.584314
Si Si4 0.069368 0.840213 0.591151
Si Si5 0.632193 0.099121 0.109097
O O1 0.189091 0.855681 0.105024
O O2 0.088971 0.889171 0.336645
O O3 0.101075 0.748994 0.076001
O O4 0.093254 0.889739 0.837587
O O5 0.500000 0.366293 0.109013
O O6 0.433324 0.500000 0.109414
O O7 0.400858 0.366218 0.359685
O O8 0.400792 0.366332 0.858810
O O9 0.746454 0.737649 0.309521
O O10 0.698840 0.629311 0.612125
O O11 0.000000 0.828049 0.605436
O O12 0.632168 0.000000 0.108675
#
# Coordination Sequence:
#
# PCOD8177197 Si02
#       5
#     8   8   8   8   8
#     4  10  16  27  39  63  92 130 158 195 245 305
#     4   9  17  33  57  81 102 128 168 218 260 295
#     4  12  21  35  52  72 107 144 172 203 248 315
#     4  10  16  25  41  63  96 124 156 210 258 288
#     4  10  21  35  55  82 105 131 172 214 252 300
#
# _framework density 20.801755
#
# number of rings (size 3 to 8) (size 9 to 14) (size 15 to 20)
#    0.000    1.800    4.000    4.800    0.000    2.400 
#    0.000    0.000    0.000   12.000    0.000    0.000 
#    0.000    8.800    0.000    0.000    0.000    0.000 
#
# Total GULP energy -247930.288172 kJ/mol
# GULP energy per Si atom -12396.514409 kJ/mol
# Density = 2.075441 g / cm^3
# Si number density = 20.801755 Si / 1000 Ang^3
#
#
#
# Elastic Constant Matrix: (Units=GPa)
#
#
# Indices 1 2 3 4 5 6 
#
# 1 193.9951 11.2150 66.8798 0.0000 0.0000 0.0000
# 2 11.2150 5.1455 8.5306 0.0000 0.0000 0.0000
# 3 66.8798 8.5306 202.0295 0.0000 0.0000 0.0000
# 4 0.0000 0.0000 0.0000 1.8227 0.0000 0.0000
# 5 0.0000 0.0000 0.0000 0.0000 43.6326 0.0000
# 6 0.0000 0.0000 0.0000 0.0000 0.0000 1.5822
#
#
#
# Elastic Compliance Matrix: (Units=1/GPa)
#
#
# Indices 1 2 3 4 5 6 
#
# 1 0.006364 -0.011159 -0.001635 0.000000 0.000000 0.000000
# 2 -0.011159 0.228540 -0.005956 0.000000 0.000000 0.000000
# 3 -0.001635 -0.005956 0.005743 0.000000 0.000000 0.000000
# 4 0.000000 0.000000 0.000000 0.548634 0.000000 0.000000
# 5 0.000000 0.000000 0.000000 0.000000 0.022919 0.000000
# 6 0.000000 0.000000 0.000000 0.000000 0.000000 0.632023
#
#
# Mechanical properties :
#
#
# Convention : Reuss Voigt Hill
#
# Bulk Modulus (GPa) = 4.92256 63.82454 34.37355
# Shear Modulus (GPa) = 3.22698 30.37714 16.80206
#
# Velocity S-wave (km/s) = 1.24686 3.82555 2.84513
# Velocity P-wave (km/s) = 2.10819 7.08957 5.23003
#
# Compressibility (1/GPa) = 0.20314623
#
# Stress axis : x y z
#
# Youngs Moduli (GPa) = 157.14146 4.37559 174.13509
#
# Poissons Ratio (x) = 0.04883 0.28479
# Poissons Ratio (y) = 1.75350 1.03715
# Poissons Ratio (z) = 0.25700 0.02606
#
# Static dielectric constant tensor:
#      x y z
#    x 3.930480 0.000000 0.000000 
#    y 0.000000 2.868110 0.000000 
#    z 0.000000 0.000000 7.374340 
# 
# 
# High freq. dielectric constant tensor:
#      x y z
#    x 1.832100 0.000000 0.000000 
#    y 0.000000 1.729530 0.000000 
#    z 0.000000 0.000000 1.854130 
# 
# From -- ./inp_files/1536.got.cif
#   From: 2010.03.12/outbox.cif.g09.slc.cpg/sg38_1_cif.got.tgz:1536.got - 2010.04.14 02:38:36.
