data_PCOD8177864
_publ_section_title
;
Structure prediction by ZEFSAII (Michael W. Deem and Ramdas Pophale) SiO2 
 PCOD8177864
Probable space group: A M M 2
;
_chemical_formula_sum "Si O2"
_cell_formula_units_Z 64
_cell_length_a 9.330847
_cell_length_b 13.575452
_cell_length_c 34.093803
_cell_angle_alpha 90.000000
_cell_angle_beta 90.000000
_cell_angle_gamma 90.000000
_cell_volume 4318.677899
_symmetry_space_group_name_H-M "A M M 2"
_symmetry_group_IT_number 38
_symmetry_cell_setting 'orthorhombic'
loop_
_space_group_symop_operation_xyz
x,y,z
-x,-y,z
-x,y,z
x,-y,z
x,1/2+y,1/2+z
-x,1/2-y,1/2+z
-x,1/2+y,1/2+z
x,1/2-y,1/2+z
loop_
_atom_site_type_symbol
_atom_site_label
_atom_site_fract_x
_atom_site_fract_y
_atom_site_fract_z
Si Si1 0.166440 0.888024 0.616720
Si Si2 0.333915 0.886172 0.158648
Si Si3 0.831717 0.718529 0.197100
Si Si4 0.162068 0.616634 0.427647
Si Si5 0.666985 0.279021 0.579071
Si Si6 0.331555 0.386883 0.501261
Si Si7 0.839360 0.383008 0.341379
Si Si8 0.333908 0.883645 0.766990
O O1 0.200300 0.852774 0.660647
O O2 0.252111 0.823778 0.585216
O O3 0.000000 0.876797 0.607146
O O4 0.218705 0.000000 0.612828
O O5 0.500000 0.865897 0.168484
O O6 0.235727 0.825604 0.188828
O O7 0.299081 0.854776 0.114144
O O8 0.294184 0.000000 0.163542
O O9 0.755828 0.671556 0.234234
O O10 0.000000 0.729866 0.205373
O O11 0.177416 0.500000 0.427598
O O12 0.261352 0.660142 0.462150
O O13 0.208601 0.656489 0.384504
O O14 0.000000 0.649054 0.436446
O O15 0.500000 0.255318 0.576650
O O16 0.723644 0.327200 0.538983
O O17 0.500000 0.377640 0.496378
O O18 0.284803 0.500000 0.507203
O O19 0.842250 0.500000 0.342512
O O20 0.726579 0.346475 0.308902
O O21 0.000000 0.344740 0.331360
O O22 0.500000 0.854240 0.764160
O O23 0.311642 0.000000 0.761764
#
# Coordination Sequence:
#
# PCOD8177864 Si02
#       8
#     8   8   8   8   8   8   8   8
#     4   9  18  31  44  58  78 105 136 170 208 245
#     4   9  17  30  46  61  81 109 138 171 209 244
#     4  10  19  30  44  61  82 108 138 171 206 246
#     4   8  14  24  37  54  77 106 138 167 196 234
#     4   9  17  28  42  61  82 106 138 170 202 242
#     4   9  16  25  38  57  82 110 137 166 199 235
#     4   8  14  25  39  54  76 107 138 166 199 238
#     4  10  19  28  40  60  84 109 139 173 205 241
#
# _framework density 14.819349000000001
#
# number of rings (size 3 to 8) (size 9 to 14) (size 15 to 20)
#    0.000    3.000    0.000    2.250    0.000    4.750 
#    0.000    2.500    0.000    2.250    0.000    0.000 
#    0.000    1.000    0.000    7.000    0.000    6.000 
#
# Total GULP energy -396702.172576 kJ/mol
# GULP energy per Si atom -12396.942893 kJ/mol
# Density = 1.478562 g / cm^3
# Si number density = 14.819349 Si / 1000 Ang^3
#
#
#
# Elastic Constant Matrix: (Units=GPa)
#
#
# Indices 1 2 3 4 5 6 
#
# 1 72.6673 42.0531 62.2918 0.0000 0.0000 0.0000
# 2 42.0531 73.6944 45.9361 0.0000 0.0000 0.0000
# 3 62.2918 45.9361 122.7446 0.0000 0.0000 0.0000
# 4 0.0000 0.0000 0.0000 17.5281 0.0000 0.0000
# 5 0.0000 0.0000 0.0000 0.0000 29.9786 0.0000
# 6 0.0000 0.0000 0.0000 0.0000 0.0000 20.3552
#
#
#
# Elastic Compliance Matrix: (Units=1/GPa)
#
#
# Indices 1 2 3 4 5 6 
#
# 1 0.028704 -0.009520 -0.011004 0.000000 0.000000 0.000000
# 2 -0.009520 0.020856 -0.002974 0.000000 0.000000 0.000000
# 3 -0.011004 -0.002974 0.014844 0.000000 0.000000 0.000000
# 4 0.000000 0.000000 0.000000 0.057051 0.000000 0.000000
# 5 0.000000 0.000000 0.000000 0.000000 0.033357 0.000000
# 6 0.000000 0.000000 0.000000 0.000000 0.000000 0.049127
#
#
# Mechanical properties :
#
#
# Convention : Reuss Voigt Hill
#
# Bulk Modulus (GPa) = 57.44527 63.29650 60.37089
# Shear Modulus (GPa) = 19.47511 21.49408 20.48460
#
# Velocity S-wave (km/s) = 3.62908 3.81255 3.72195
# Velocity P-wave (km/s) = 7.51053 7.88578 7.70044
#
# Compressibility (1/GPa) = 0.01740787
#
# Stress axis : x y z
#
# Youngs Moduli (GPa) = 34.83877 47.94823 67.36617
#
# Poissons Ratio (x) = 0.45649 0.74129
# Poissons Ratio (y) = 0.33168 0.20032
# Poissons Ratio (z) = 0.38336 0.14258
#
# Static dielectric constant tensor:
#      x y z
#    x 2.929840 0.000000 0.000000 
#    y 0.000000 2.612010 0.000000 
#    z 0.000000 0.000000 3.117240 
# 
# 
# High freq. dielectric constant tensor:
#      x y z
#    x 1.571980 0.000000 0.000000 
#    y 0.000000 1.522440 0.000000 
#    z 0.000000 0.000000 1.568110 
# 
# From -- ./inp_files/24699.got.cif
#   From: 2010.03.12/outbox.cif.g09.slc.cpg/sg38_13_cif.got.tgz:24699.got - 2010.04.14 02:38:36.
