data_PCOD8177955
_publ_section_title
;
Structure prediction by ZEFSAII (Michael W. Deem and Ramdas Pophale) SiO2 
 PCOD8177955
Probable space group: A M M 2
;
_chemical_formula_sum "Si O2"
_cell_formula_units_Z 56
_cell_length_a 9.040725
_cell_length_b 29.764105
_cell_length_c 13.555850
_cell_angle_alpha 90.000000
_cell_angle_beta 90.000000
_cell_angle_gamma 90.000000
_cell_volume 3647.731316
_symmetry_space_group_name_H-M "A M M 2"
_symmetry_group_IT_number 38
_symmetry_cell_setting 'orthorhombic'
loop_
_space_group_symop_operation_xyz
x,y,z
-x,-y,z
-x,y,z
x,-y,z
x,1/2+y,1/2+z
-x,1/2-y,1/2+z
-x,1/2+y,1/2+z
x,1/2-y,1/2+z
loop_
_atom_site_type_symbol
_atom_site_label
_atom_site_fract_x
_atom_site_fract_y
_atom_site_fract_z
Si Si1 0.830264 0.902519 0.712190
Si Si2 0.674849 0.403866 0.004919
Si Si3 0.671938 0.812494 0.411571
Si Si4 0.672652 0.265536 0.711972
Si Si5 0.831610 0.000000 0.698975
Si Si6 0.826554 0.767315 0.013713
Si Si7 0.672434 0.500000 0.999424
Si Si8 0.827565 0.185972 0.815388
O O1 0.740780 0.894658 0.612309
O O2 0.806539 0.953029 0.758333
O O3 0.783275 0.865762 0.793975
O O4 0.000000 0.895024 0.683523
O O5 0.500000 0.406356 0.019450
O O6 0.734154 0.451884 0.958551
O O7 0.718791 0.364078 0.930321
O O8 0.500000 0.803978 0.435735
O O9 0.707114 0.801415 0.297965
O O10 0.766896 0.781639 0.484289
O O11 0.500000 0.260016 0.692385
O O12 0.749505 0.284164 0.613539
O O13 0.736749 0.217041 0.740591
O O14 0.709820 0.000000 0.614479
O O15 0.000000 0.000000 0.656106
O O16 0.785629 0.803126 0.928420
O O17 0.000000 0.763771 0.031767
O O18 0.500000 0.500000 0.981858
O O19 0.000000 0.195738 0.797153
#
# Coordination Sequence:
#
# PCOD8177955 Si02
#       8
#     8   8   8   8   4   8   4   8
#     4   9  16  26  40  59  82 106 131 159 193 233
#     4   9  16  26  40  59  82 106 131 159 193 233
#     4   9  18  30  43  60  81 106 136 166 197 235
#     4  10  19  30  43  59  81 107 135 167 200 235
#     4   8  14  24  38  56  79 104 128 156 191 232
#     4  10  19  30  43  59  81 107 135 167 200 235
#     4   8  14  24  38  56  79 104 128 156 191 232
#     4   9  18  30  43  60  81 106 136 166 197 235
#
# _framework density 15.352007
#
# number of rings (size 3 to 8) (size 9 to 14) (size 15 to 20)
#    0.000    2.857    0.000    1.714    0.000    4.571 
#    0.000    0.000    0.000    0.000    0.000    1.000 
#    0.000    0.000    0.000    0.000    0.000    0.000 
#
# Total GULP energy -346928.018598 kJ/mol
# GULP energy per Si atom -12390.286378 kJ/mol
# Density = 1.531707 g / cm^3
# Si number density = 15.352007 Si / 1000 Ang^3
#
#
#
# Elastic Constant Matrix: (Units=GPa)
#
#
# Indices 1 2 3 4 5 6 
#
# 1 38.1652 29.1511 31.0902 0.0000 0.0000 0.0000
# 2 29.1511 155.4523 58.8608 0.0000 0.0000 0.0000
# 3 31.0902 58.8608 84.6463 0.0000 0.0000 0.0000
# 4 0.0000 0.0000 0.0000 20.6972 0.0000 0.0000
# 5 0.0000 0.0000 0.0000 0.0000 22.9832 0.0000
# 6 0.0000 0.0000 0.0000 0.0000 0.0000 16.9935
#
#
#
# Elastic Compliance Matrix: (Units=1/GPa)
#
#
# Indices 1 2 3 4 5 6 
#
# 1 0.038094 -0.002505 -0.012250 0.000000 0.000000 0.000000
# 2 -0.002505 0.008897 -0.005266 0.000000 0.000000 0.000000
# 3 -0.012250 -0.005266 0.019975 0.000000 0.000000 0.000000
# 4 0.000000 0.000000 0.000000 0.048316 0.000000 0.000000
# 5 0.000000 0.000000 0.000000 0.000000 0.043510 0.000000
# 6 0.000000 0.000000 0.000000 0.000000 0.000000 0.058846
#
#
# Mechanical properties :
#
#
# Convention : Reuss Voigt Hill
#
# Bulk Modulus (GPa) = 37.14233 57.38535 47.26384
# Shear Modulus (GPa) = 18.75076 22.74555 20.74816
#
# Velocity S-wave (km/s) = 3.49863 3.85333 3.68026
# Velocity P-wave (km/s) = 6.36921 7.56693 6.99376
#
# Compressibility (1/GPa) = 0.02692346
#
# Stress axis : x y z
#
# Youngs Moduli (GPa) = 26.25053 112.40109 50.06201
#
# Poissons Ratio (x) = 0.28161 0.61325
# Poissons Ratio (y) = 0.06577 0.26364
# Poissons Ratio (z) = 0.32156 0.59194
#
# Static dielectric constant tensor:
#      x y z
#    x 2.988820 0.000000 0.000000 
#    y 0.000000 3.390170 0.000000 
#    z 0.000000 0.000000 2.761700 
# 
# 
# High freq. dielectric constant tensor:
#      x y z
#    x 1.593400 0.000000 0.000000 
#    y 0.000000 1.594160 0.000000 
#    z 0.000000 0.000000 1.551120 
# 
# From -- ./inp_files/13013.got.cif
#   From: 2010.03.12/outbox.cif.g09.slc.cpg/sg38_7_cif.got.tgz:13013.got - 2010.04.14 02:38:36.
