data_PCOD8177230
_publ_section_title
;
Structure prediction by ZEFSAII (Michael W. Deem and Ramdas Pophale) SiO2 
 PCOD8177230
Probable space group: A M M 2
;
_chemical_formula_sum "Si O2"
_cell_formula_units_Z 56
_cell_length_a 12.369453
_cell_length_b 29.549285
_cell_length_c 9.604056
_cell_angle_alpha 90.000000
_cell_angle_beta 90.000000
_cell_angle_gamma 90.000000
_cell_volume 3510.364026
_symmetry_space_group_name_H-M "A M M 2"
_symmetry_group_IT_number 38
_symmetry_cell_setting 'orthorhombic'
loop_
_space_group_symop_operation_xyz
x,y,z
-x,-y,z
-x,y,z
x,-y,z
x,1/2+y,1/2+z
-x,1/2-y,1/2+z
-x,1/2+y,1/2+z
x,1/2-y,1/2+z
loop_
_atom_site_type_symbol
_atom_site_label
_atom_site_fract_x
_atom_site_fract_y
_atom_site_fract_z
Si Si1 0.125419 0.648146 0.703700
Si Si2 0.871569 0.948900 0.727301
Si Si3 0.375492 0.296052 0.428416
Si Si4 0.873964 0.893148 0.477795
Si Si5 0.805310 0.634796 0.395070
Si Si6 0.121249 0.310697 0.149359
Si Si7 0.726656 0.768006 0.204361
O O1 0.153047 0.606926 0.812829
O O2 0.148607 0.630513 0.550114
O O3 0.200380 0.689686 0.751030
O O4 0.000000 0.662432 0.718742
O O5 0.837448 0.937340 0.566160
O O6 0.806612 0.915616 0.830703
O O7 0.000000 0.942935 0.751210
O O8 0.834825 0.000000 0.758499
O O9 0.500000 0.304714 0.395304
O O10 0.314529 0.343311 0.395159
O O11 0.332904 0.254373 0.335112
O O12 0.360929 0.283263 0.590066
O O13 0.824466 0.848163 0.548896
O O14 0.000000 0.888467 0.503505
O O15 0.879885 0.669064 0.306474
O O16 0.192538 0.266554 0.130140
O O17 0.000000 0.297192 0.107064
#
# Coordination Sequence:
#
# PCOD8177230 Si02
#       7
#     8   8   8   8   8   8   8
#     4  10  17  26  40  63  95 120 143 177 215 257
#     4   9  16  29  48  67  88 114 141 168 207 267
#     4  10  20  33  45  59  85 117 154 195 224 248
#     4   8  15  25  38  57  85 118 142 165 200 247
#     4   9  18  29  44  64  86 116 149 180 220 263
#     4   9  15  26  41  60  88 117 147 176 207 254
#     4  10  19  28  43  64  84 117 154 184 217 253
#
# _framework density 15.952761000000001
#
# number of rings (size 3 to 8) (size 9 to 14) (size 15 to 20)
#    0.000    2.714    0.000    3.857    0.000    0.000 
#    0.000    5.000    0.000    3.000    0.000    0.000 
#    0.000    0.000    0.000    0.000    0.000    0.000 
#
# Total GULP energy -346947.749174 kJ/mol
# GULP energy per Si atom -12390.991042 kJ/mol
# Density = 1.591645 g / cm^3
# Si number density = 15.952761 Si / 1000 Ang^3
#
#
#
# Elastic Constant Matrix: (Units=GPa)
#
#
# Indices 1 2 3 4 5 6 
#
# 1 72.9878 29.4915 25.7101 0.0000 0.0000 0.0000
# 2 29.4915 94.2584 37.5116 0.0000 0.0000 0.0000
# 3 25.7101 37.5116 101.6149 0.0000 0.0000 0.0000
# 4 0.0000 0.0000 0.0000 19.1446 0.0000 0.0000
# 5 0.0000 0.0000 0.0000 0.0000 15.8248 0.0000
# 6 0.0000 0.0000 0.0000 0.0000 0.0000 11.9679
#
#
#
# Elastic Compliance Matrix: (Units=1/GPa)
#
#
# Indices 1 2 3 4 5 6 
#
# 1 0.016258 -0.004044 -0.002621 0.000000 0.000000 0.000000
# 2 -0.004044 0.013442 -0.003939 0.000000 0.000000 0.000000
# 3 -0.002621 -0.003939 0.011958 0.000000 0.000000 0.000000
# 4 0.000000 0.000000 0.000000 0.052234 0.000000 0.000000
# 5 0.000000 0.000000 0.000000 0.000000 0.063192 0.000000
# 6 0.000000 0.000000 0.000000 0.000000 0.000000 0.083557
#
#
# Mechanical properties :
#
#
# Convention : Reuss Voigt Hill
#
# Bulk Modulus (GPa) = 48.89713 50.47641 49.68677
# Shear Modulus (GPa) = 18.61052 21.13064 19.87058
#
# Velocity S-wave (km/s) = 3.41926 3.64342 3.53312
# Velocity P-wave (km/s) = 6.80487 7.02917 6.91793
#
# Compressibility (1/GPa) = 0.02045110
#
# Stress axis : x y z
#
# Youngs Moduli (GPa) = 61.50805 74.39392 83.62419
#
# Poissons Ratio (x) = 0.30084 0.21916
# Poissons Ratio (y) = 0.24873 0.32940
# Poissons Ratio (z) = 0.16120 0.29304
#
# Static dielectric constant tensor:
#      x y z
#    x 2.737180 0.000000 0.000000 
#    y 0.000000 2.909920 0.000000 
#    z 0.000000 0.000000 3.147030 
# 
# 
# High freq. dielectric constant tensor:
#      x y z
#    x 1.574320 0.000000 0.000000 
#    y 0.000000 1.590010 0.000000 
#    z 0.000000 0.000000 1.625950 
# 
# From -- ./inp_files/5965.got.cif
#   From: 2010.03.12/outbox.cif.g09.slc.cpg/sg38_3_cif.got.tgz:5965.got - 2010.04.14 02:38:36.
