data_PCOD8177841
_publ_section_title
;
Structure prediction by ZEFSAII (Michael W. Deem and Ramdas Pophale) SiO2 
 PCOD8177841
Probable space group: A M M 2
;
_chemical_formula_sum "Si O2"
_cell_formula_units_Z 36
_cell_length_a 15.573850
_cell_length_b 7.472851
_cell_length_c 16.452694
_cell_angle_alpha 90.000000
_cell_angle_beta 90.000000
_cell_angle_gamma 90.000000
_cell_volume 1914.781977
_symmetry_space_group_name_H-M "A M M 2"
_symmetry_group_IT_number 38
_symmetry_cell_setting 'orthorhombic'
loop_
_space_group_symop_operation_xyz
x,y,z
-x,-y,z
-x,y,z
x,-y,z
x,1/2+y,1/2+z
-x,1/2-y,1/2+z
-x,1/2+y,1/2+z
x,1/2-y,1/2+z
loop_
_atom_site_type_symbol
_atom_site_label
_atom_site_fract_x
_atom_site_fract_y
_atom_site_fract_z
Si Si1 0.842018 0.000000 0.182460
Si Si2 0.313071 0.207001 0.427245
Si Si3 0.500000 0.300043 0.939207
Si Si4 0.000000 0.795752 0.429799
Si Si5 0.313952 0.500000 0.564610
Si Si6 0.500000 0.500000 0.568064
Si Si7 0.000000 0.000000 0.063242
Si Si8 0.842294 0.296262 0.315667
O O1 0.751648 0.000000 0.137817
O O2 0.850581 0.823259 0.236180
O O3 0.915993 0.000000 0.116943
O O4 0.410440 0.233643 0.390704
O O5 0.300715 0.324752 0.508423
O O6 0.249948 0.270318 0.356860
O O7 0.295239 0.000000 0.449968
O O8 0.500000 0.500000 0.973771
O O9 0.500000 0.177951 0.016597
O O10 0.915425 0.756075 0.378747
O O11 0.000000 0.677432 0.509788
O O12 0.000000 0.000000 0.458424
O O13 0.407054 0.500000 0.612159
O O14 0.853804 0.500000 0.287790
#
# Coordination Sequence:
#
# PCOD8177841 Si02
#       8
#     4   8   4   4   4   2   2   8
#     4  12  26  40  58  90 129 154 190 242 301 356
#     4  10  18  35  61  88 116 157 204 247 290 346
#     4   8  16  28  53  89 115 143 202 257 284 326
#     4  12  23  43  71  91 110 151 200 244 289 350
#     4  10  20  36  60  88 120 154 204 248 290 350
#     4   8  16  32  54  82 118 158 188 244 304 336
#     4  12  26  42  66  94 118 148 200 244 288 356
#     4  12  23  40  62  87 121 160 193 239 299 352
#
# _framework density 18.801096999999999
#
# number of rings (size 3 to 8) (size 9 to 14) (size 15 to 20)
#    0.000    1.333    4.444    2.000    0.000    1.778 
#    0.000    1.111    0.000    0.000    0.000    0.000 
#    0.000    0.000    0.000    0.000    0.000    0.000 
#
# Total GULP energy -223088.556410 kJ/mol
# GULP energy per Si atom -12393.808689 kJ/mol
# Density = 1.875830 g / cm^3
# Si number density = 18.801097 Si / 1000 Ang^3
#
#
#
# Elastic Constant Matrix: (Units=GPa)
#
#
# Indices 1 2 3 4 5 6 
#
# 1 160.3724 47.2531 68.7394 0.0000 0.0000 0.0000
# 2 47.2531 167.8483 60.1532 0.0000 0.0000 0.0000
# 3 68.7394 60.1532 106.5556 0.0000 0.0000 0.0000
# 4 0.0000 0.0000 0.0000 23.2400 0.0000 0.0000
# 5 0.0000 0.0000 0.0000 0.0000 -23.2004 0.0000
# 6 0.0000 0.0000 0.0000 0.0000 0.0000 24.8874
#
#
#
# Elastic Compliance Matrix: (Units=1/GPa)
#
#
# Indices 1 2 3 4 5 6 
#
# 1 0.008658 -0.000546 -0.005277 0.000000 0.000000 0.000000
# 2 -0.000546 0.007503 -0.003883 0.000000 0.000000 0.000000
# 3 -0.005277 -0.003883 0.014981 0.000000 0.000000 0.000000
# 4 0.000000 0.000000 0.000000 0.043029 0.000000 0.000000
# 5 0.000000 0.000000 0.000000 0.000000 -0.043103 0.000000
# 6 0.000000 0.000000 0.000000 0.000000 0.000000 0.040181
#
#
# Mechanical properties :
#
#
# Convention : Reuss Voigt Hill
#
# Bulk Modulus (GPa) = 85.25617 87.45196 86.35407
# Shear Modulus (GPa) = 52.86872 22.22743 37.54808
#
# Velocity S-wave (km/s) = 5.30858 3.44210 4.47376
# Velocity P-wave (km/s) = 9.11151 7.90017 8.52738
#
# Compressibility (1/GPa) = 0.01172936
#
# Stress axis : x y z
#
# Youngs Moduli (GPa) = 115.49527 133.27526 66.74978
#
# Poissons Ratio (x) = 0.07281 0.35225
# Poissons Ratio (y) = 0.06310 0.25921
# Poissons Ratio (z) = 0.60948 0.51755
#
# Static dielectric constant tensor:
#      x y z
#    x 4.188720 0.000000 0.000000 
#    y 0.000000 5.420320 0.000000 
#    z 0.000000 0.000000 3.061240 
# 
# 
# High freq. dielectric constant tensor:
#      x y z
#    x 1.764540 0.000000 0.000000 
#    y 0.000000 1.756210 0.000000 
#    z 0.000000 0.000000 1.682870 
# 
# From -- ./inp_files/14254.got.cif
#   From: 2010.03.12/outbox.cif.g09.slc.cpg/sg38_8_cif.got.tgz:14254.got - 2010.04.14 02:38:36.
