data_PCOD8177218
_publ_section_title
;
Structure prediction by ZEFSAII (Michael W. Deem and Ramdas Pophale) SiO2 
 PCOD8177218
Probable space group: A M M 2
;
_chemical_formula_sum "Si O2"
_cell_formula_units_Z 40
_cell_length_a 9.153885
_cell_length_b 11.550652
_cell_length_c 20.084390
_cell_angle_alpha 90.000000
_cell_angle_beta 90.000000
_cell_angle_gamma 90.000000
_cell_volume 2123.589638
_symmetry_space_group_name_H-M "A M M 2"
_symmetry_group_IT_number 38
_symmetry_cell_setting 'orthorhombic'
loop_
_space_group_symop_operation_xyz
x,y,z
-x,-y,z
-x,y,z
x,-y,z
x,1/2+y,1/2+z
-x,1/2-y,1/2+z
-x,1/2+y,1/2+z
x,1/2-y,1/2+z
loop_
_atom_site_type_symbol
_atom_site_label
_atom_site_fract_x
_atom_site_fract_y
_atom_site_fract_z
Si Si1 0.668834 0.364527 0.220400
Si Si2 0.830911 0.245256 0.598782
Si Si3 0.328202 0.368158 0.977702
Si Si4 0.673362 0.500000 0.438152
Si Si5 0.834824 0.500000 0.572355
Si Si6 0.328520 0.783706 0.859338
O O1 0.500000 0.337148 0.204908
O O2 0.690099 0.500000 0.236670
O O3 0.760863 0.330790 0.156406
O O4 0.729542 0.288557 0.283216
O O5 0.757083 0.213877 0.528495
O O6 0.808868 0.382348 0.614812
O O7 0.000000 0.212273 0.593957
O O8 0.500000 0.352077 0.991303
O O9 0.278531 0.500000 0.987803
O O10 0.291549 0.332880 0.900779
O O11 0.500000 0.500000 0.437222
O O12 0.720414 0.500000 0.513715
O O13 0.739852 0.611384 0.401405
O O14 0.000000 0.500000 0.543943
O O15 0.500000 0.804025 0.853464
#
# Coordination Sequence:
#
# PCOD8177218 Si02
#       6
#     8   8   8   4   4   8
#     4  10  20  36  57  81 110 142 177 220 268 315
#     4  11  23  38  55  77 108 144 182 223 266 316
#     4  10  20  35  57  84 112 141 175 218 267 318
#     4  10  16  30  60  86 102 129 174 221 266 321
#     4  10  22  38  54  76 108 141 176 223 272 313
#     4   9  17  32  56  84 110 135 171 221 270 315
#
# _framework density 18.836030999999998
#
# number of rings (size 3 to 8) (size 9 to 14) (size 15 to 20)
#    0.000    2.000    3.000    1.200    0.000    4.000 
#    1.800    2.000    0.000    0.000    0.000    0.000 
#    0.000    0.000    0.000    0.000    0.000    0.000 
#
# Total GULP energy -247897.819502 kJ/mol
# GULP energy per Si atom -12394.890975 kJ/mol
# Density = 1.879316 g / cm^3
# Si number density = 18.836031 Si / 1000 Ang^3
#
#
#
# Elastic Constant Matrix: (Units=GPa)
#
#
# Indices 1 2 3 4 5 6 
#
# 1 53.5806 32.6181 35.8299 0.0000 0.0000 0.0000
# 2 32.6181 92.7136 28.6234 0.0000 0.0000 0.0000
# 3 35.8299 28.6234 110.5148 0.0000 0.0000 0.0000
# 4 0.0000 0.0000 0.0000 35.3294 0.0000 0.0000
# 5 0.0000 0.0000 0.0000 0.0000 -5.8620 0.0000
# 6 0.0000 0.0000 0.0000 0.0000 0.0000 21.7740
#
#
#
# Elastic Compliance Matrix: (Units=1/GPa)
#
#
# Indices 1 2 3 4 5 6 
#
# 1 0.028107 -0.007690 -0.007121 0.000000 0.000000 0.000000
# 2 -0.007690 0.013827 -0.001088 0.000000 0.000000 0.000000
# 3 -0.007121 -0.001088 0.011639 0.000000 0.000000 0.000000
# 4 0.000000 0.000000 0.000000 0.028305 0.000000 0.000000
# 5 0.000000 0.000000 0.000000 0.000000 -0.170591 0.000000
# 6 0.000000 0.000000 0.000000 0.000000 0.000000 0.045926
#
#
# Mechanical properties :
#
#
# Convention : Reuss Voigt Hill
#
# Bulk Modulus (GPa) = 45.92366 50.10576 48.01471
# Shear Modulus (GPa) = -1340.34851 20.89745 -659.72553
#
# Velocity S-wave (km/s) = -26.70454 3.33444 -18.73518
# Velocity P-wave (km/s) = 30.43697 6.44076 21.03480
#
# Compressibility (1/GPa) = 0.02177527
#
# Stress axis : x y z
#
# Youngs Moduli (GPa) = 35.57885 72.32068 85.91816
#
# Poissons Ratio (x) = 0.55614 0.61180
# Poissons Ratio (y) = 0.27360 0.09349
# Poissons Ratio (z) = 0.25335 0.07869
#
# Static dielectric constant tensor:
#      x y z
#    x 3.212600 0.000000 0.000000 
#    y 0.000000 3.603360 0.000000 
#    z 0.000000 0.000000 3.462330 
# 
# 
# High freq. dielectric constant tensor:
#      x y z
#    x 1.703060 0.000000 0.000000 
#    y 0.000000 1.735830 0.000000 
#    z 0.000000 0.000000 1.729850 
# 
# From -- ./inp_files/19480.got.cif
#   From: 2010.03.12/outbox.cif.g09.slc.cpg/sg38_10_cif.got.tgz:19480.got - 2010.04.14 02:38:36.
