data_PCOD8177320
_publ_section_title
;
Structure prediction by ZEFSAII (Michael W. Deem and Ramdas Pophale) SiO2 
 PCOD8177320
Probable space group: A M M 2
;
_chemical_formula_sum "Si O2"
_cell_formula_units_Z 64
_cell_length_a 15.504373
_cell_length_b 8.962472
_cell_length_c 23.886875
_cell_angle_alpha 90.000000
_cell_angle_beta 90.000000
_cell_angle_gamma 90.000000
_cell_volume 3319.260645
_symmetry_space_group_name_H-M "A M M 2"
_symmetry_group_IT_number 38
_symmetry_cell_setting 'orthorhombic'
loop_
_space_group_symop_operation_xyz
x,y,z
-x,-y,z
-x,y,z
x,-y,z
x,1/2+y,1/2+z
-x,1/2-y,1/2+z
-x,1/2+y,1/2+z
x,1/2-y,1/2+z
loop_
_atom_site_type_symbol
_atom_site_label
_atom_site_fract_x
_atom_site_fract_y
_atom_site_fract_z
Si Si1 0.096316 0.170409 0.788670
Si Si2 0.097457 0.670276 0.017578
Si Si3 0.157453 0.171576 0.394975
Si Si4 0.595114 0.677353 0.514613
Si Si5 0.753620 0.323685 0.205349
Si Si6 0.339151 0.822917 0.896892
Si Si7 0.595321 0.677281 0.278956
Si Si8 0.244469 0.676468 0.585771
O O1 0.100393 0.273256 0.843240
O O2 0.164527 0.224883 0.742457
O O3 0.000000 0.183972 0.763250
O O4 0.117400 0.000000 0.805832
O O5 0.121372 0.500000 0.033123
O O6 0.102708 0.694636 0.951121
O O7 0.000000 0.707388 0.036538
O O8 0.161855 0.779587 0.049390
O O9 0.241818 0.270666 0.398732
O O10 0.183078 0.000000 0.386021
O O11 0.500000 0.732369 0.534084
O O12 0.599259 0.500000 0.513921
O O13 0.611806 0.738047 0.451809
O O14 0.668257 0.739402 0.556515
O O15 0.750980 0.500000 0.196111
O O16 0.666505 0.263770 0.235248
O O17 0.763097 0.245132 0.146529
O O18 0.385158 0.760117 0.841119
O O19 0.339591 0.000000 0.896252
O O20 0.500000 0.732397 0.260390
O O21 0.599467 0.500000 0.280748
O O22 0.247519 0.500000 0.590685
#
# Coordination Sequence:
#
# PCOD8177320 Si02
#       8
#     8   8   8   8   8   8   8   8
#     4  10  21  38  60  84 109 144 189 231 273 329
#     4  10  22  40  60  82 112 151 188 224 279 344
#     4  11  21  34  57  87 120 149 177 220 282 341
#     4   9  18  33  56  85 115 148 185 228 280 335
#     4  10  21  38  57  79 111 149 191 233 279 330
#     4  10  17  32  58  85 113 146 186 228 276 332
#     4   9  17  31  56  86 111 141 186 233 273 324
#     4  11  23  38  58  84 113 146 192 241 282 326
#
# _framework density 19.281402
#
# number of rings (size 3 to 8) (size 9 to 14) (size 15 to 20)
#    0.000    2.000    2.500    1.500    0.000    4.500 
#    0.000    1.250    0.000    4.875    0.000    0.000 
#    0.000    0.000    0.000    0.000    0.000    0.000 
#
# Total GULP energy -396796.974111 kJ/mol
# GULP energy per Si atom -12399.905441 kJ/mol
# Density = 1.923752 g / cm^3
# Si number density = 19.281402 Si / 1000 Ang^3
#
#
#
# Elastic Constant Matrix: (Units=GPa)
#
#
# Indices 1 2 3 4 5 6 
#
# 1 146.7924 17.8810 59.2033 0.0000 0.0000 0.0000
# 2 17.8810 25.0522 36.9542 0.0000 0.0000 0.0000
# 3 59.2033 36.9542 135.3415 0.0000 0.0000 0.0000
# 4 0.0000 0.0000 0.0000 24.7315 0.0000 0.0000
# 5 0.0000 0.0000 0.0000 0.0000 14.7242 0.0000
# 6 0.0000 0.0000 0.0000 0.0000 0.0000 15.5123
#
#
#
# Elastic Compliance Matrix: (Units=1/GPa)
#
#
# Indices 1 2 3 4 5 6 
#
# 1 0.008285 -0.000950 -0.003365 0.000000 0.000000 0.000000
# 2 -0.000950 0.066944 -0.017863 0.000000 0.000000 0.000000
# 3 -0.003365 -0.017863 0.013738 0.000000 0.000000 0.000000
# 4 0.000000 0.000000 0.000000 0.040434 0.000000 0.000000
# 5 0.000000 0.000000 0.000000 0.000000 0.067915 0.000000
# 6 0.000000 0.000000 0.000000 0.000000 0.000000 0.064465
#
#
# Mechanical properties :
#
#
# Convention : Reuss Voigt Hill
#
# Bulk Modulus (GPa) = 22.41578 59.47368 40.94473
# Shear Modulus (GPa) = 15.57590 23.87013 19.72301
#
# Velocity S-wave (km/s) = 2.84530 3.52232 3.20176
# Velocity P-wave (km/s) = 4.73763 6.88871 5.91183
#
# Compressibility (1/GPa) = 0.04461144
#
# Stress axis : x y z
#
# Youngs Moduli (GPa) = 120.69799 14.93775 72.79061
#
# Poissons Ratio (x) = 0.01419 0.24493
# Poissons Ratio (y) = 0.11468 1.30027
# Poissons Ratio (z) = 0.40612 0.26684
#
# Static dielectric constant tensor:
#      x y z
#    x 3.782510 0.000000 0.000000 
#    y 0.000000 3.233650 0.000000 
#    z 0.000000 0.000000 3.599270 
# 
# 
# High freq. dielectric constant tensor:
#      x y z
#    x 1.766270 0.000000 0.000000 
#    y 0.000000 1.715880 0.000000 
#    z 0.000000 0.000000 1.749440 
# 
# From -- ./inp_files/22895.got.cif
#   From: 2010.03.12/outbox.cif.g09.slc.cpg/sg38_12_cif.got.tgz:22895.got - 2010.04.14 02:38:36.
