data_PCOD8177659
_publ_section_title
;
Structure prediction by ZEFSAII (Michael W. Deem and Ramdas Pophale) SiO2 
 PCOD8177659
Probable space group: A M M 2
;
_chemical_formula_sum "Si O2"
_cell_formula_units_Z 64
_cell_length_a 19.171586
_cell_length_b 18.958892
_cell_length_c 10.100863
_cell_angle_alpha 90.000000
_cell_angle_beta 90.000000
_cell_angle_gamma 90.000000
_cell_volume 3671.381164
_symmetry_space_group_name_H-M "A M M 2"
_symmetry_group_IT_number 38
_symmetry_cell_setting 'orthorhombic'
loop_
_space_group_symop_operation_xyz
x,y,z
-x,-y,z
-x,y,z
x,-y,z
x,1/2+y,1/2+z
-x,1/2-y,1/2+z
-x,1/2+y,1/2+z
x,1/2-y,1/2+z
loop_
_atom_site_type_symbol
_atom_site_label
_atom_site_fract_x
_atom_site_fract_y
_atom_site_fract_z
Si Si1 0.575367 0.916136 0.291540
Si Si2 0.191912 0.082986 0.409518
Si Si3 0.199223 0.916049 0.929734
Si Si4 0.726001 0.416168 0.167625
Si Si5 0.080860 0.188816 0.325407
Si Si6 0.081256 0.183048 0.017699
Si Si7 0.288239 0.916659 0.168895
Si Si8 0.576628 0.083934 0.590987
O O1 0.500000 0.892314 0.235795
O O2 0.634720 0.884482 0.195094
O O3 0.585395 0.888580 0.440898
O O4 0.581323 0.000000 0.295112
O O5 0.232280 0.110060 0.539225
O O6 0.118576 0.121246 0.388347
O O7 0.239501 0.106367 0.288328
O O8 0.176934 0.000000 0.415147
O O9 0.229267 0.887988 0.790992
O O10 0.124273 0.884522 0.967308
O O11 0.190217 0.000000 0.932926
O O12 0.256596 0.887453 0.033506
O O13 0.722929 0.500000 0.169451
O O14 0.645132 0.387871 0.170631
O O15 0.101807 0.254702 0.417127
O O16 0.000000 0.171647 0.339332
O O17 0.099890 0.202659 0.170478
O O18 0.000000 0.163496 0.005112
O O19 0.293042 0.000000 0.160533
O O20 0.500000 0.109785 0.646602
O O21 0.576914 0.000000 0.593146
#
# Coordination Sequence:
#
# PCOD8177659 Si02
#       8
#     8   8   8   8   8   8   8   8
#     4   8  12  19  35  60  91 129 167 200 239 288
#     4  10  18  31  52  75  99 129 166 206 246 289
#     4  10  20  33  50  74 103 134 166 204 251 297
#     4   9  17  28  43  69 102 134 166 203 248 290
#     4  10  22  38  55  75 100 130 162 202 250 298
#     4  10  22  39  56  74  99 130 163 202 249 299
#     4   9  15  26  43  66  97 127 160 204 247 285
#     4   8  12  20  36  59  91 131 168 197 234 290
#
# _framework density 17.432130999999998
#
# number of rings (size 3 to 8) (size 9 to 14) (size 15 to 20)
#    0.000    2.750    2.500    0.750    1.750    0.500 
#    0.000    1.875    0.000    6.000    0.000    0.000 
#    0.000    6.000    0.000    0.000    0.000    0.000 
#
# Total GULP energy -396469.991296 kJ/mol
# GULP energy per Si atom -12389.687228 kJ/mol
# Density = 1.739245 g / cm^3
# Si number density = 17.432131 Si / 1000 Ang^3
#
#
#
# Elastic Constant Matrix: (Units=GPa)
#
#
# Indices 1 2 3 4 5 6 
#
# 1 118.7723 39.0509 54.9667 0.0000 0.0000 0.0000
# 2 39.0509 29.1289 23.5095 0.0000 0.0000 0.0000
# 3 54.9667 23.5095 106.3536 0.0000 0.0000 0.0000
# 4 0.0000 0.0000 0.0000 14.9832 0.0000 0.0000
# 5 0.0000 0.0000 0.0000 0.0000 18.4771 0.0000
# 6 0.0000 0.0000 0.0000 0.0000 0.0000 4.3647
#
#
#
# Elastic Compliance Matrix: (Units=1/GPa)
#
#
# Indices 1 2 3 4 5 6 
#
# 1 0.016631 -0.018694 -0.004463 0.000000 0.000000 0.000000
# 2 -0.018694 0.062798 -0.004220 0.000000 0.000000 0.000000
# 3 -0.004463 -0.004220 0.012642 0.000000 0.000000 0.000000
# 4 0.000000 0.000000 0.000000 0.066742 0.000000 0.000000
# 5 0.000000 0.000000 0.000000 0.000000 0.054121 0.000000
# 6 0.000000 0.000000 0.000000 0.000000 0.000000 0.229111
#
#
# Mechanical properties :
#
#
# Convention : Reuss Voigt Hill
#
# Bulk Modulus (GPa) = 26.79752 54.36767 40.58259
# Shear Modulus (GPa) = 9.81858 16.68018 13.24938
#
# Velocity S-wave (km/s) = 2.37586 3.09668 2.75990
# Velocity P-wave (km/s) = 4.78875 6.63640 5.78679
#
# Compressibility (1/GPa) = 0.03731688
#
# Stress axis : x y z
#
# Youngs Moduli (GPa) = 60.12692 15.92409 79.10066
#
# Poissons Ratio (x) = 0.29769 0.35305
# Poissons Ratio (y) = 1.12403 0.33378
# Poissons Ratio (z) = 0.26836 0.06720
#
# Static dielectric constant tensor:
#      x y z
#    x 3.614260 0.000000 0.000000 
#    y 0.000000 2.649920 0.000000 
#    z 0.000000 0.000000 3.786540 
# 
# 
# High freq. dielectric constant tensor:
#      x y z
#    x 1.691170 0.000000 0.000000 
#    y 0.000000 1.607010 0.000000 
#    z 0.000000 0.000000 1.673730 
# 
# From -- ./inp_files/10655.got.cif
#   From: 2010.03.12/outbox.cif.g09.slc.cpg/sg38_6_cif.got.tgz:10655.got - 2010.04.14 02:38:36.
