data_PCOD8177042
_publ_section_title
;
Structure prediction by ZEFSAII (Michael W. Deem and Ramdas Pophale) SiO2 
 PCOD8177042
Probable space group: C C C 2
;
_chemical_formula_sum "Si O2"
_cell_formula_units_Z 40
_cell_length_a 19.870573
_cell_length_b 8.192453
_cell_length_c 10.262309
_cell_angle_alpha 90.000000
_cell_angle_beta 90.000000
_cell_angle_gamma 90.000000
_cell_volume 1670.588304
_symmetry_space_group_name_H-M "C C C 2"
_symmetry_group_IT_number 37
_symmetry_cell_setting 'orthorhombic'
loop_
_space_group_symop_operation_xyz
x,y,z
-x,-y,z
-x,y,1/2+z
x,-y,1/2+z
1/2+x,1/2+y,z
1/2-x,1/2-y,z
1/2-x,1/2+y,1/2+z
1/2+x,1/2-y,1/2+z
loop_
_atom_site_type_symbol
_atom_site_label
_atom_site_fract_x
_atom_site_fract_y
_atom_site_fract_z
Si Si1 0.953597 0.355783 0.121590
Si Si2 0.428417 0.653698 0.532682
Si Si3 0.105717 0.934885 0.267683
Si Si4 0.663536 0.048544 0.505626
Si Si5 0.745163 0.057372 0.760224
O O1 0.915055 0.251996 0.232600
O O2 0.898374 0.426063 0.023469
O O3 0.000000 0.500000 0.186205
O O4 0.001408 0.248258 0.029519
O O5 0.424596 0.528928 0.411118
O O6 0.428330 0.558514 0.668153
O O7 0.362447 0.766633 0.520745
O O8 0.185255 0.961183 0.271208
O O9 0.719562 0.020147 0.615382
O O10 0.693902 0.020278 0.363536
O O11 0.750000 0.250000 0.789200
#
# Coordination Sequence:
#
# PCOD8177042 Si02
#       5
#     8   8   8   8   8
#     4  10  26  47  75 108 148 196 250 314 382 453
#     4  11  26  49  72 109 149 195 255 311 376 457
#     4  12  26  46  77 107 149 197 251 313 381 444
#     4  11  26  49  75 109 150 195 251 311 384 457
#     4  12  27  47  77 111 154 194 257 313 381 465
#
# _framework density 23.943660000000001
#
# number of rings (size 3 to 8) (size 9 to 14) (size 15 to 20)
#    0.000    0.800    2.000    3.000    5.600   10.400 
#    0.000    0.000    0.000    0.000    0.000    0.000 
#    0.000    0.000    0.000    0.000    0.000    0.000 
#
# Total GULP energy -248071.971824 kJ/mol
# GULP energy per Si atom -12403.598591 kJ/mol
# Density = 2.388916 g / cm^3
# Si number density = 23.943660 Si / 1000 Ang^3
#
#
#
# Elastic Constant Matrix: (Units=GPa)
#
#
# Indices 1 2 3 4 5 6 
#
# 1 139.8533 66.0216 32.0407 0.0000 0.0000 0.0000
# 2 66.0216 112.2976 41.6453 0.0000 0.0000 0.0000
# 3 32.0407 41.6453 127.8071 0.0000 0.0000 0.0000
# 4 0.0000 0.0000 0.0000 36.8131 0.0000 0.0000
# 5 0.0000 0.0000 0.0000 0.0000 20.6944 0.0000
# 6 0.0000 0.0000 0.0000 0.0000 0.0000 55.9399
#
#
#
# Elastic Compliance Matrix: (Units=1/GPa)
#
#
# Indices 1 2 3 4 5 6 
#
# 1 0.009947 -0.005600 -0.000669 0.000000 0.000000 0.000000
# 2 -0.005600 0.013282 -0.002924 0.000000 0.000000 0.000000
# 3 -0.000669 -0.002924 0.008945 0.000000 0.000000 0.000000
# 4 0.000000 0.000000 0.000000 0.027164 0.000000 0.000000
# 5 0.000000 0.000000 0.000000 0.000000 0.048322 0.000000
# 6 0.000000 0.000000 0.000000 0.000000 0.000000 0.017876
#
#
# Mechanical properties :
#
#
# Convention : Reuss Voigt Hill
#
# Bulk Modulus (GPa) = 72.52781 73.26367 72.89574
# Shear Modulus (GPa) = 33.66592 38.70617 36.18605
#
# Velocity S-wave (km/s) = 3.75380 4.02500 3.89176
# Velocity P-wave (km/s) = 7.01033 7.22950 7.12076
#
# Compressibility (1/GPa) = 0.01378781
#
# Stress axis : x y z
#
# Youngs Moduli (GPa) = 100.52996 75.29221 111.79783
#
# Poissons Ratio (x) = 0.42164 0.07479
# Poissons Ratio (y) = 0.56298 0.32688
# Poissons Ratio (z) = 0.06725 0.22014
#
# Static dielectric constant tensor:
#      x y z
#    x 4.576000 0.000000 0.000000 
#    y 0.000000 4.511290 0.000000 
#    z 0.000000 0.000000 4.200960 
# 
# 
# High freq. dielectric constant tensor:
#      x y z
#    x 1.973820 0.000000 0.000000 
#    y 0.000000 1.954510 0.000000 
#    z 0.000000 0.000000 1.947260 
# 
# From -- ./inp_files/6134.got.cif
#   From: 2010.03.12/outbox.cif.g09.slc.cpg/sg37_4_cif.got.tgz:6134.got - 2010.04.14 02:25:27.
