data_PCOD8177369
_publ_section_title
;
Structure prediction by ZEFSAII (Michael W. Deem and Ramdas Pophale) SiO2 
 PCOD8177369
Probable space group: A M M 2
;
_chemical_formula_sum "Si O2"
_cell_formula_units_Z 64
_cell_length_a 9.199640
_cell_length_b 13.723795
_cell_length_c 34.122680
_cell_angle_alpha 90.000000
_cell_angle_beta 90.000000
_cell_angle_gamma 90.000000
_cell_volume 4308.123934
_symmetry_space_group_name_H-M "A M M 2"
_symmetry_group_IT_number 38
_symmetry_cell_setting 'orthorhombic'
loop_
_space_group_symop_operation_xyz
x,y,z
-x,-y,z
-x,y,z
x,-y,z
x,1/2+y,1/2+z
-x,1/2-y,1/2+z
-x,1/2+y,1/2+z
x,1/2-y,1/2+z
loop_
_atom_site_type_symbol
_atom_site_label
_atom_site_fract_x
_atom_site_fract_y
_atom_site_fract_z
Si Si1 0.162277 0.883831 0.668660
Si Si2 0.332915 0.389532 0.938149
Si Si3 0.829261 0.612468 0.319350
Si Si4 0.668398 0.110820 0.971048
Si Si5 0.172717 0.391816 0.082997
Si Si6 0.337044 0.884106 0.742341
Si Si7 0.334087 0.792987 0.889215
Si Si8 0.172536 0.215288 0.506122
O O1 0.223810 0.852428 0.625771
O O2 0.265352 0.841285 0.702715
O O3 0.000000 0.842265 0.675474
O O4 0.157153 0.000000 0.670306
O O5 0.500000 0.376245 0.951635
O O6 0.299129 0.500000 0.925180
O O7 0.302653 0.319132 0.901165
O O8 0.231822 0.361153 0.974426
O O9 0.787995 0.500000 0.327566
O O10 0.754469 0.650993 0.279758
O O11 0.774191 0.678515 0.354803
O O12 0.000000 0.626091 0.314466
O O13 0.500000 0.128348 0.980926
O O14 0.699310 0.137874 0.926084
O O15 0.715585 0.000000 0.978158
O O16 0.763885 0.177166 0.999721
O O17 0.236861 0.500000 0.074955
O O18 0.225502 0.319302 0.048984
O O19 0.000000 0.398931 0.083570
O O20 0.500000 0.842726 0.745786
O O21 0.337367 0.000000 0.740411
O O22 0.500000 0.807131 0.875020
O O23 0.000000 0.218435 0.502497
#
# Coordination Sequence:
#
# PCOD8177369 Si02
#       8
#     8   8   8   8   8   8   8   8
#     4   8  13  23  38  53  73 104 137 163 190 231
#     4   9  18  32  46  59  80 111 142 170 204 246
#     4  10  19  28  39  57  81 108 136 165 198 238
#     4   9  18  32  46  58  78 110 142 171 208 251
#     4   8  14  24  38  57  82 111 138 164 198 239
#     4   9  16  25  37  54  77 104 133 164 197 233
#     4   9  17  29  44  60  77 101 135 171 204 238
#     4  10  18  27  42  64  86 107 137 175 209 243
#
# _framework density 14.855653999999999
#
# number of rings (size 3 to 8) (size 9 to 14) (size 15 to 20)
#    0.000    3.000    0.000    3.375    0.000    5.750 
#    0.000    1.250    0.000    3.000    0.000    0.000 
#    0.000    1.000    0.000    7.250    0.000    4.000 
#
# Total GULP energy -396694.670190 kJ/mol
# GULP energy per Si atom -12396.708443 kJ/mol
# Density = 1.482184 g / cm^3
# Si number density = 14.855654 Si / 1000 Ang^3
#
#
#
# Elastic Constant Matrix: (Units=GPa)
#
#
# Indices 1 2 3 4 5 6 
#
# 1 75.3533 34.3727 58.6732 0.0000 0.0000 0.0000
# 2 34.3727 80.3429 49.2721 0.0000 0.0000 0.0000
# 3 58.6732 49.2721 124.8486 0.0000 0.0000 0.0000
# 4 0.0000 0.0000 0.0000 17.2565 0.0000 0.0000
# 5 0.0000 0.0000 0.0000 0.0000 15.8343 0.0000
# 6 0.0000 0.0000 0.0000 0.0000 0.0000 17.4747
#
#
#
# Elastic Compliance Matrix: (Units=1/GPa)
#
#
# Indices 1 2 3 4 5 6 
#
# 1 0.021875 -0.004029 -0.008690 0.000000 0.000000 0.000000
# 2 -0.004029 0.017163 -0.004880 0.000000 0.000000 0.000000
# 3 -0.008690 -0.004880 0.014020 0.000000 0.000000 0.000000
# 4 0.000000 0.000000 0.000000 0.057949 0.000000 0.000000
# 5 0.000000 0.000000 0.000000 0.000000 0.063154 0.000000
# 6 0.000000 0.000000 0.000000 0.000000 0.000000 0.057226
#
#
# Mechanical properties :
#
#
# Convention : Reuss Voigt Hill
#
# Bulk Modulus (GPa) = 55.99362 62.79786 59.39574
# Shear Modulus (GPa) = 18.34598 19.32822 18.83710
#
# Velocity S-wave (km/s) = 3.51800 3.61095 3.56477
# Velocity P-wave (km/s) = 7.36718 7.72975 7.55064
#
# Compressibility (1/GPa) = 0.01785918
#
# Stress axis : x y z
#
# Youngs Moduli (GPa) = 45.71342 58.26398 71.32864
#
# Poissons Ratio (x) = 0.23477 0.61986
# Poissons Ratio (y) = 0.18420 0.34808
# Poissons Ratio (z) = 0.39726 0.28433
#
# Static dielectric constant tensor:
#      x y z
#    x 2.864860 0.000000 0.000000 
#    y 0.000000 2.684900 0.000000 
#    z 0.000000 0.000000 2.997570 
# 
# 
# High freq. dielectric constant tensor:
#      x y z
#    x 1.567350 0.000000 0.000000 
#    y 0.000000 1.525770 0.000000 
#    z 0.000000 0.000000 1.566950 
# 
# From -- ./inp_files/24741.got.cif
#   From: 2010.03.12/outbox.cif.g09.slc.cpg/sg38_13_cif.got.tgz:24741.got - 2010.04.14 02:38:36.
