data_PCOD8177721
_publ_section_title
;
Structure prediction by ZEFSAII (Michael W. Deem and Ramdas Pophale) SiO2 
 PCOD8177721
Probable space group: A M M 2
;
_chemical_formula_sum "Si O2"
_cell_formula_units_Z 48
_cell_length_a 8.931001
_cell_length_b 18.337672
_cell_length_c 15.081832
_cell_angle_alpha 90.000000
_cell_angle_beta 90.000000
_cell_angle_gamma 90.000000
_cell_volume 2470.008439
_symmetry_space_group_name_H-M "A M M 2"
_symmetry_group_IT_number 38
_symmetry_cell_setting 'orthorhombic'
loop_
_space_group_symop_operation_xyz
x,y,z
-x,-y,z
-x,y,z
x,-y,z
x,1/2+y,1/2+z
-x,1/2-y,1/2+z
-x,1/2+y,1/2+z
x,1/2-y,1/2+z
loop_
_atom_site_type_symbol
_atom_site_label
_atom_site_fract_x
_atom_site_fract_y
_atom_site_fract_z
Si Si1 0.169087 0.604444 0.960690
Si Si2 0.178345 0.231889 0.202701
Si Si3 0.322770 0.000000 0.783848
Si Si4 0.822663 0.077843 0.266477
Si Si5 0.677461 0.342199 0.343789
Si Si6 0.676072 0.500000 0.086599
Si Si7 0.169584 0.732489 0.500914
O O1 0.229559 0.573543 0.868225
O O2 0.177986 0.690830 0.951692
O O3 0.000000 0.578804 0.979826
O O4 0.270924 0.573509 0.038716
O O5 0.243060 0.150294 0.221147
O O6 0.251525 0.291105 0.267704
O O7 0.000000 0.237690 0.215756
O O8 0.227149 0.245199 0.101124
O O9 0.267886 0.925893 0.831672
O O10 0.255651 0.000000 0.684903
O O11 0.500000 0.000000 0.780310
O O12 0.000000 0.084614 0.262259
O O13 0.771232 0.000000 0.222085
O O14 0.500000 0.334549 0.336037
O O15 0.728459 0.321604 0.443279
O O16 0.500000 0.500000 0.089778
O O17 0.000000 0.701754 0.502505
#
# Coordination Sequence:
#
# PCOD8177721 Si02
#       7
#     8   8   4   8   8   4   8
#     4  10  18  32  53  77 111 147 178 219 287 350
#     4  10  20  37  60  85 114 147 189 239 288 339
#     4   9  22  41  55  76 113 156 188 230 292 342
#     4   9  16  30  53  76 106 144 175 212 272 340
#     4  11  22  39  62  82 113 156 197 237 286 345
#     4  11  21  33  53  82 113 140 188 244 280 334
#     4  10  21  37  58  85 114 147 190 239 287 339
#
# _framework density 19.433132000000001
#
# number of rings (size 3 to 8) (size 9 to 14) (size 15 to 20)
#    0.000    2.000    2.500    1.750    0.000    1.333 
#    1.500    4.167    0.000    0.000    0.000    0.000 
#    0.000    0.000    0.000    0.000    0.000    0.000 
#
# Total GULP energy -297449.648688 kJ/mol
# GULP energy per Si atom -12393.735362 kJ/mol
# Density = 1.938890 g / cm^3
# Si number density = 19.433132 Si / 1000 Ang^3
#
#
#
# Elastic Constant Matrix: (Units=GPa)
#
#
# Indices 1 2 3 4 5 6 
#
# 1 50.8530 28.2909 33.6828 0.0000 0.0000 0.0000
# 2 28.2909 144.9240 46.6601 0.0000 0.0000 0.0000
# 3 33.6828 46.6601 87.7427 0.0000 0.0000 0.0000
# 4 0.0000 0.0000 0.0000 32.6371 0.0000 0.0000
# 5 0.0000 0.0000 0.0000 0.0000 26.9138 0.0000
# 6 0.0000 0.0000 0.0000 0.0000 0.0000 23.7940
#
#
#
# Elastic Compliance Matrix: (Units=1/GPa)
#
#
# Indices 1 2 3 4 5 6 
#
# 1 0.027008 -0.002334 -0.009127 0.000000 0.000000 0.000000
# 2 -0.002334 0.008527 -0.003639 0.000000 0.000000 0.000000
# 3 -0.009127 -0.003639 0.016836 0.000000 0.000000 0.000000
# 4 0.000000 0.000000 0.000000 0.030640 0.000000 0.000000
# 5 0.000000 0.000000 0.000000 0.000000 0.037156 0.000000
# 6 0.000000 0.000000 0.000000 0.000000 0.000000 0.042027
#
#
# Mechanical properties :
#
#
# Convention : Reuss Voigt Hill
#
# Bulk Modulus (GPa) = 45.10153 55.64303 50.37228
# Shear Modulus (GPa) = 25.02710 28.32805 26.67757
#
# Velocity S-wave (km/s) = 3.59257 3.82215 3.70914
# Velocity P-wave (km/s) = 6.36142 6.94073 6.65738
#
# Compressibility (1/GPa) = 0.02217220
#
# Stress axis : x y z
#
# Youngs Moduli (GPa) = 37.02602 117.27040 59.39794
#
# Poissons Ratio (x) = 0.27369 0.54211
# Poissons Ratio (y) = 0.08641 0.21614
# Poissons Ratio (z) = 0.33793 0.42672
#
# Static dielectric constant tensor:
#      x y z
#    x 3.214710 0.000000 0.000000 
#    y 0.000000 3.814980 0.000000 
#    z 0.000000 0.000000 3.564300 
# 
# 
# High freq. dielectric constant tensor:
#      x y z
#    x 1.718770 0.000000 0.000000 
#    y 0.000000 1.773280 0.000000 
#    z 0.000000 0.000000 1.753920 
# 
# From -- ./inp_files/12145.got.cif
#   From: 2010.03.12/outbox.cif.g09.slc.cpg/sg38_7_cif.got.tgz:12145.got - 2010.04.14 02:38:36.
