data_PCOD8177621
_publ_section_title
;
Structure prediction by ZEFSAII (Michael W. Deem and Ramdas Pophale) SiO2 
 PCOD8177621
Probable space group: A M M 2
;
_chemical_formula_sum "Si O2"
_cell_formula_units_Z 64
_cell_length_a 9.346678
_cell_length_b 28.703206
_cell_length_c 12.753993
_cell_angle_alpha 90.000000
_cell_angle_beta 90.000000
_cell_angle_gamma 90.000000
_cell_volume 3421.636447
_symmetry_space_group_name_H-M "A M M 2"
_symmetry_group_IT_number 38
_symmetry_cell_setting 'orthorhombic'
loop_
_space_group_symop_operation_xyz
x,y,z
-x,-y,z
-x,y,z
x,-y,z
x,1/2+y,1/2+z
-x,1/2-y,1/2+z
-x,1/2+y,1/2+z
x,1/2-y,1/2+z
loop_
_atom_site_type_symbol
_atom_site_label
_atom_site_fract_x
_atom_site_fract_y
_atom_site_fract_z
Si Si1 0.669774 0.700905 0.006170
Si Si2 0.330373 0.602502 0.926076
Si Si3 0.830186 0.612882 0.531233
Si Si4 0.168195 0.054225 0.235770
Si Si5 0.840664 0.948805 0.841008
Si Si6 0.329608 0.196154 0.948857
Si Si7 0.343345 0.177123 0.724145
Si Si8 0.344209 0.426959 0.153261
O O1 0.500000 0.695486 0.019748
O O2 0.737388 0.699679 0.124037
O O3 0.720531 0.656927 0.935361
O O4 0.715660 0.750083 0.959615
O O5 0.500000 0.599699 0.906534
O O6 0.249344 0.577323 0.832703
O O7 0.287677 0.575749 0.033674
O O8 0.785904 0.582513 0.632036
O O9 0.773547 0.585725 0.427566
O O10 0.749452 0.662877 0.533330
O O11 0.000000 0.620570 0.528709
O O12 0.000000 0.058648 0.256166
O O13 0.212656 0.000000 0.223595
O O14 0.760572 0.954132 0.730195
O O15 0.000000 0.931493 0.814721
O O16 0.842706 0.000000 0.893132
O O17 0.500000 0.188651 0.961004
O O18 0.263820 0.183931 0.834528
O O19 0.500000 0.200611 0.738440
O O20 0.360637 0.123422 0.701850
O O21 0.500000 0.451442 0.153761
#
# Coordination Sequence:
#
# PCOD8177621 Si02
#       8
#     8   8   8   8   8   8   8   8
#     4   8  16  30  50  79 110 142 177 218 270 324
#     4   9  19  36  57  81 110 142 180 225 272 322
#     4  10  21  37  54  74 105 141 179 225 277 325
#     4  10  22  40  59  77 105 150 193 230 280 338
#     4  10  20  33  51  75 101 131 171 216 260 315
#     4  10  18  30  54  81 104 138 184 224 264 321
#     4   8  14  27  46  70 103 134 162 204 257 310
#     4   9  17  32  52  74 104 136 165 208 267 319
#
# _framework density 18.704501
#
# number of rings (size 3 to 8) (size 9 to 14) (size 15 to 20)
#    0.000    2.750    1.250    1.875    0.000    4.500 
#    0.000    5.625    0.000    3.750    0.000    0.000 
#    0.000    0.000    0.000    0.000    0.000    0.000 
#
# Total GULP energy -396465.867215 kJ/mol
# GULP energy per Si atom -12389.558350 kJ/mol
# Density = 1.866193 g / cm^3
# Si number density = 18.704501 Si / 1000 Ang^3
#
#
#
# Elastic Constant Matrix: (Units=GPa)
#
#
# Indices 1 2 3 4 5 6 
#
# 1 37.8412 30.7328 39.0579 0.0000 0.0000 0.0000
# 2 30.7328 107.7418 63.5419 0.0000 0.0000 0.0000
# 3 39.0579 63.5419 131.5437 0.0000 0.0000 0.0000
# 4 0.0000 0.0000 0.0000 23.2051 0.0000 0.0000
# 5 0.0000 0.0000 0.0000 0.0000 26.2979 0.0000
# 6 0.0000 0.0000 0.0000 0.0000 0.0000 23.2627
#
#
#
# Elastic Compliance Matrix: (Units=1/GPa)
#
#
# Indices 1 2 3 4 5 6 
#
# 1 0.040956 -0.006307 -0.009114 0.000000 0.000000 0.000000
# 2 -0.006307 0.013950 -0.004866 0.000000 0.000000 0.000000
# 3 -0.009114 -0.004866 0.012659 0.000000 0.000000 0.000000
# 4 0.000000 0.000000 0.000000 0.043094 0.000000 0.000000
# 5 0.000000 0.000000 0.000000 0.000000 0.038026 0.000000
# 6 0.000000 0.000000 0.000000 0.000000 0.000000 0.042987
#
#
# Mechanical properties :
#
#
# Convention : Reuss Voigt Hill
#
# Bulk Modulus (GPa) = 37.05030 60.42132 48.73581
# Shear Modulus (GPa) = 20.72605 24.13941 22.43273
#
# Velocity S-wave (km/s) = 3.33239 3.59634 3.46688
# Velocity P-wave (km/s) = 5.88708 7.04401 6.49137
#
# Compressibility (1/GPa) = 0.02699033
#
# Stress axis : x y z
#
# Youngs Moduli (GPa) = 24.41672 71.68298 78.99816
#
# Poissons Ratio (x) = 0.45214 0.71997
# Poissons Ratio (y) = 0.15401 0.38439
# Poissons Ratio (z) = 0.22253 0.34880
#
# Static dielectric constant tensor:
#      x y z
#    x 3.443790 0.000000 0.000000 
#    y 0.000000 3.452900 0.000000 
#    z 0.000000 0.000000 3.628150 
# 
# 
# High freq. dielectric constant tensor:
#      x y z
#    x 1.684680 0.000000 0.000000 
#    y 0.000000 1.730490 0.000000 
#    z 0.000000 0.000000 1.731920 
# 
# From -- ./inp_files/8611.got.cif
#   From: 2010.03.12/outbox.cif.g09.slc.cpg/sg38_5_cif.got.tgz:8611.got - 2010.04.14 02:38:36.
