data_PCOD8177484
_publ_section_title
;
Structure prediction by ZEFSAII (Michael W. Deem and Ramdas Pophale) SiO2 
 PCOD8177484
Probable space group: A M M 2
;
_chemical_formula_sum "Si O2"
_cell_formula_units_Z 64
_cell_length_a 19.621821
_cell_length_b 8.887737
_cell_length_c 20.294213
_cell_angle_alpha 90.000000
_cell_angle_beta 90.000000
_cell_angle_gamma 90.000000
_cell_volume 3539.180550
_symmetry_space_group_name_H-M "A M M 2"
_symmetry_group_IT_number 38
_symmetry_cell_setting 'orthorhombic'
loop_
_space_group_symop_operation_xyz
x,y,z
-x,-y,z
-x,y,z
x,-y,z
x,1/2+y,1/2+z
-x,1/2-y,1/2+z
-x,1/2+y,1/2+z
x,1/2-y,1/2+z
loop_
_atom_site_type_symbol
_atom_site_label
_atom_site_fract_x
_atom_site_fract_y
_atom_site_fract_z
Si Si1 0.071746 0.675823 0.470450
Si Si2 0.421266 0.825796 0.783319
Si Si3 0.072785 0.171125 0.606868
Si Si4 0.651749 0.176797 0.163366
Si Si5 0.780088 0.174147 0.622278
Si Si6 0.782429 0.323300 0.480813
Si Si7 0.359306 0.825079 0.920935
Si Si8 0.578852 0.326348 0.043231
O O1 0.066766 0.500000 0.459883
O O2 0.072450 0.711887 0.547628
O O3 0.146356 0.729433 0.444128
O O4 0.000000 0.745627 0.440041
O O5 0.500000 0.789479 0.796994
O O6 0.396339 0.730649 0.721724
O O7 0.378029 0.777287 0.846998
O O8 0.410343 0.000000 0.766134
O O9 0.141914 0.201790 0.648737
O O10 0.000000 0.190017 0.646276
O O11 0.077657 0.000000 0.579134
O O12 0.728614 0.239910 0.171104
O O13 0.622979 0.229602 0.093455
O O14 0.654687 0.000000 0.164055
O O15 0.771183 0.231336 0.547601
O O16 0.760436 0.000000 0.623962
O O17 0.786031 0.500000 0.499058
O O18 0.720638 0.289653 0.431245
O O19 0.376123 0.000000 0.933035
O O20 0.405692 0.728129 0.969613
O O21 0.500000 0.300879 0.059315
O O22 0.599194 0.500000 0.050503
#
# Coordination Sequence:
#
# PCOD8177484 Si02
#       8
#     8   8   8   8   8   8   8   8
#     4   8  13  21  35  59  95 135 168 199 238 284
#     4  10  22  40  58  75  99 132 172 217 266 319
#     4   8  14  24  39  63  96 132 167 202 244 296
#     4  12  24  37  54  76 102 134 173 217 263 311
#     4  10  18  29  48  73 103 137 170 209 256 303
#     4   9  16  27  45  72 103 134 169 207 247 296
#     4  10  20  35  56  80 105 135 169 210 258 310
#     4  11  23  37  55  79 105 132 165 207 257 314
#
# _framework density 18.083282000000001
#
# number of rings (size 3 to 8) (size 9 to 14) (size 15 to 20)
#    0.000    2.250    1.250    2.625    0.000    4.250 
#    0.000    0.000    0.000    0.000    0.000    0.875 
#    0.000    5.000    0.000    0.000    0.000    1.000 
#
# Total GULP energy -396443.025061 kJ/mol
# GULP energy per Si atom -12388.844533 kJ/mol
# Density = 1.804212 g / cm^3
# Si number density = 18.083282 Si / 1000 Ang^3
#
#
#
# Elastic Constant Matrix: (Units=GPa)
#
#
# Indices 1 2 3 4 5 6 
#
# 1 137.4661 44.6310 27.8390 0.0000 0.0000 0.0000
# 2 44.6310 69.6745 25.8379 0.0000 0.0000 0.0000
# 3 27.8390 25.8379 48.4712 0.0000 0.0000 0.0000
# 4 0.0000 0.0000 0.0000 20.9924 0.0000 0.0000
# 5 0.0000 0.0000 0.0000 0.0000 19.4951 0.0000
# 6 0.0000 0.0000 0.0000 0.0000 0.0000 22.2861
#
#
#
# Elastic Compliance Matrix: (Units=1/GPa)
#
#
# Indices 1 2 3 4 5 6 
#
# 1 0.009470 -0.005047 -0.002749 0.000000 0.000000 0.000000
# 2 -0.005047 0.020578 -0.008071 0.000000 0.000000 0.000000
# 3 -0.002749 -0.008071 0.026512 0.000000 0.000000 0.000000
# 4 0.000000 0.000000 0.000000 0.047636 0.000000 0.000000
# 5 0.000000 0.000000 0.000000 0.000000 0.051295 0.000000
# 6 0.000000 0.000000 0.000000 0.000000 0.000000 0.044871
#
#
# Mechanical properties :
#
#
# Convention : Reuss Voigt Hill
#
# Bulk Modulus (GPa) = 40.27835 50.24750 45.26293
# Shear Modulus (GPa) = 20.80130 23.04165 21.92147
#
# Velocity S-wave (km/s) = 3.39529 3.57346 3.48552
# Velocity P-wave (km/s) = 6.13945 6.69875 6.42519
#
# Compressibility (1/GPa) = 0.02482723
#
# Stress axis : x y z
#
# Youngs Moduli (GPa) = 105.60058 48.59533 37.71914
#
# Poissons Ratio (x) = 0.24524 0.10368
# Poissons Ratio (y) = 0.53292 0.30443
# Poissons Ratio (z) = 0.29026 0.39221
#
# Static dielectric constant tensor:
#      x y z
#    x 4.190770 0.000000 0.000000 
#    y 0.000000 3.339040 0.000000 
#    z 0.000000 0.000000 2.842600 
# 
# 
# High freq. dielectric constant tensor:
#      x y z
#    x 1.738350 0.000000 0.000000 
#    y 0.000000 1.699050 0.000000 
#    z 0.000000 0.000000 1.633600 
# 
# From -- ./inp_files/18846.got.cif
#   From: 2010.03.12/outbox.cif.g09.slc.cpg/sg38_10_cif.got.tgz:18846.got - 2010.04.14 02:38:36.
