data_PCOD8177672
_publ_section_title
;
Structure prediction by ZEFSAII (Michael W. Deem and Ramdas Pophale) SiO2 
 PCOD8177672
Probable space group: A M M 2
;
_chemical_formula_sum "Si O2"
_cell_formula_units_Z 56
_cell_length_a 15.502346
_cell_length_b 8.671351
_cell_length_c 20.560477
_cell_angle_alpha 90.000000
_cell_angle_beta 90.000000
_cell_angle_gamma 90.000000
_cell_volume 2763.868510
_symmetry_space_group_name_H-M "A M M 2"
_symmetry_group_IT_number 38
_symmetry_cell_setting 'orthorhombic'
loop_
_space_group_symop_operation_xyz
x,y,z
-x,-y,z
-x,y,z
x,-y,z
x,1/2+y,1/2+z
-x,1/2-y,1/2+z
-x,1/2+y,1/2+z
x,1/2-y,1/2+z
loop_
_atom_site_type_symbol
_atom_site_label
_atom_site_fract_x
_atom_site_fract_y
_atom_site_fract_z
Si Si1 0.595231 0.823773 0.139020
Si Si2 0.234787 0.182270 0.962012
Si Si3 0.820364 0.173348 0.732759
Si Si4 0.095808 0.315754 0.358230
Si Si5 0.627313 0.325893 0.270563
Si Si6 0.764483 0.318116 0.095858
Si Si7 0.404029 0.178349 0.406818
O O1 0.500000 0.801041 0.108373
O O2 0.589300 0.783172 0.215060
O O3 0.662177 0.712972 0.102391
O O4 0.626169 0.000000 0.131065
O O5 0.166108 0.247720 0.909529
O O6 0.330101 0.252464 0.953101
O O7 0.242183 0.000000 0.957576
O O8 0.198764 0.232275 0.032645
O O9 0.885850 0.250768 0.784917
O O10 0.730217 0.177332 0.770349
O O11 0.812684 0.250420 0.660799
O O12 0.850666 0.000000 0.719137
O O13 0.102453 0.500000 0.356105
O O14 0.000000 0.262054 0.379323
O O15 0.594001 0.500000 0.259433
O O16 0.594389 0.266538 0.338998
O O17 0.778313 0.500000 0.089098
O O18 0.500000 0.198899 0.438186
O O19 0.382739 0.000000 0.394852
#
# Coordination Sequence:
#
# PCOD8177672 Si02
#       7
#     8   8   8   8   8   8   8
#     4  10  20  33  50  76 110 148 194 244 291 340
#     4  11  22  38  59  84 116 153 194 239 290 348
#     4   8  15  31  54  82 110 139 181 228 274 331
#     4   9  17  33  61  92 116 143 186 237 287 343
#     4  10  18  31  52  79 112 149 190 238 289 340
#     4  10  21  36  56  79 111 153 191 234 290 344
#     4  11  23  36  52  78 113 154 198 244 293 341
#
# _framework density 20.261455000000002
#
# number of rings (size 3 to 8) (size 9 to 14) (size 15 to 20)
#    0.000    2.143    1.429    3.429    0.000    4.571 
#    0.000    0.714    0.000    2.571    0.000    0.000 
#    0.000    0.000    0.000    0.000    0.000    0.000 
#
# Total GULP energy -347015.017871 kJ/mol
# GULP energy per Si atom -12393.393495 kJ/mol
# Density = 2.021534 g / cm^3
# Si number density = 20.261455 Si / 1000 Ang^3
#
#
#
# Elastic Constant Matrix: (Units=GPa)
#
#
# Indices 1 2 3 4 5 6 
#
# 1 97.7523 20.4834 55.1645 0.0000 0.0000 0.0000
# 2 20.4834 49.3564 10.6531 0.0000 0.0000 0.0000
# 3 55.1645 10.6531 127.9398 0.0000 0.0000 0.0000
# 4 0.0000 0.0000 0.0000 32.0952 0.0000 0.0000
# 5 0.0000 0.0000 0.0000 0.0000 10.4514 0.0000
# 6 0.0000 0.0000 0.0000 0.0000 0.0000 11.7049
#
#
#
# Elastic Compliance Matrix: (Units=1/GPa)
#
#
# Indices 1 2 3 4 5 6 
#
# 1 0.014544 -0.004768 -0.005874 0.000000 0.000000 0.000000
# 2 -0.004768 0.022195 0.000208 0.000000 0.000000 0.000000
# 3 -0.005874 0.000208 0.010332 0.000000 0.000000 0.000000
# 4 0.000000 0.000000 0.000000 0.031157 0.000000 0.000000
# 5 0.000000 0.000000 0.000000 0.000000 0.095681 0.000000
# 6 0.000000 0.000000 0.000000 0.000000 0.000000 0.085435
#
#
# Mechanical properties :
#
#
# Convention : Reuss Voigt Hill
#
# Bulk Modulus (GPa) = 38.16532 49.73896 43.95214
# Shear Modulus (GPa) = 17.30430 23.43346 20.36888
#
# Velocity S-wave (km/s) = 2.92558 3.40450 3.17409
# Velocity P-wave (km/s) = 5.50358 6.32898 5.93066
#
# Compressibility (1/GPa) = 0.02620179
#
# Stress axis : x y z
#
# Youngs Moduli (GPa) = 68.75739 45.05574 96.79058
#
# Poissons Ratio (x) = 0.21483 0.56854
# Poissons Ratio (y) = 0.32784 -0.02011
# Poissons Ratio (z) = 0.40388 -0.00936
#
# Static dielectric constant tensor:
#      x y z
#    x 3.672730 0.000000 0.000000 
#    y 0.000000 3.440050 0.000000 
#    z 0.000000 0.000000 3.814870 
# 
# 
# High freq. dielectric constant tensor:
#      x y z
#    x 1.773830 0.000000 0.000000 
#    y 0.000000 1.765040 0.000000 
#    z 0.000000 0.000000 1.794320 
# 
# From -- ./inp_files/21051.got.cif
#   From: 2010.03.12/outbox.cif.g09.slc.cpg/sg38_11_cif.got.tgz:21051.got - 2010.04.14 02:38:36.
