data_PCOD8177824
_publ_section_title
;
Structure prediction by ZEFSAII (Michael W. Deem and Ramdas Pophale) SiO2 
 PCOD8177824
Probable space group: A M M 2
;
_chemical_formula_sum "Si O2"
_cell_formula_units_Z 40
_cell_length_a 8.867034
_cell_length_b 28.618305
_cell_length_c 7.832284
_cell_angle_alpha 90.000000
_cell_angle_beta 90.000000
_cell_angle_gamma 90.000000
_cell_volume 1987.516342
_symmetry_space_group_name_H-M "A M M 2"
_symmetry_group_IT_number 38
_symmetry_cell_setting 'orthorhombic'
loop_
_space_group_symop_operation_xyz
x,y,z
-x,-y,z
-x,y,z
x,-y,z
x,1/2+y,1/2+z
-x,1/2-y,1/2+z
-x,1/2+y,1/2+z
x,1/2-y,1/2+z
loop_
_atom_site_type_symbol
_atom_site_label
_atom_site_fract_x
_atom_site_fract_y
_atom_site_fract_z
Si Si1 0.326248 0.945075 0.505430
Si Si2 0.677807 0.700325 0.806839
Si Si3 0.678798 0.800332 0.693443
Si Si4 0.177931 0.108409 0.814309
Si Si5 0.678182 0.603935 0.658836
O O1 0.500000 0.930503 0.534148
O O2 0.229291 0.921788 0.653397
O O3 0.272111 0.927391 0.320095
O O4 0.302106 0.000000 0.513886
O O5 0.500000 0.704546 0.794925
O O6 0.745396 0.749549 0.743655
O O7 0.732654 0.657323 0.691076
O O8 0.726172 0.689516 0.999699
O O9 0.500000 0.803041 0.723478
O O10 0.756432 0.839246 0.809421
O O11 0.000000 0.109978 0.817666
O O12 0.238723 0.085067 0.989548
O O13 0.500000 0.600483 0.629682
#
# Coordination Sequence:
#
# PCOD8177824 Si02
#       5
#     8   8   8   8   8
#     4  10  22  43  71  96 117 151 205 265 313 355
#     4   9  17  31  59  90 117 153 204 262 310 348
#     4  10  18  34  58  87 119 158 209 257 300 355
#     4  12  25  39  58  89 130 171 200 240 304 372
#     4  10  20  39  65  92 121 156 205 261 306 358
#
# _framework density 20.125620999999999
#
# number of rings (size 3 to 8) (size 9 to 14) (size 15 to 20)
#    0.000    1.800    2.000    3.000    0.000    5.200 
#    0.000    6.000    0.000    0.000    0.000    0.000 
#    0.000    0.000    0.000    0.000    0.000    0.000 
#
# Total GULP energy -248026.037357 kJ/mol
# GULP energy per Si atom -12401.301868 kJ/mol
# Density = 2.007981 g / cm^3
# Si number density = 20.125621 Si / 1000 Ang^3
#
#
#
# Elastic Constant Matrix: (Units=GPa)
#
#
# Indices 1 2 3 4 5 6 
#
# 1 75.8596 32.5198 58.0825 0.0000 0.0000 0.0000
# 2 32.5198 81.8625 36.3424 0.0000 0.0000 0.0000
# 3 58.0825 36.3424 132.8677 0.0000 0.0000 0.0000
# 4 0.0000 0.0000 0.0000 28.5722 0.0000 0.0000
# 5 0.0000 0.0000 0.0000 0.0000 11.1877 0.0000
# 6 0.0000 0.0000 0.0000 0.0000 0.0000 8.3743
#
#
#
# Elastic Compliance Matrix: (Units=1/GPa)
#
#
# Indices 1 2 3 4 5 6 
#
# 1 0.021449 -0.004960 -0.008020 0.000000 0.000000 0.000000
# 2 -0.004960 0.015051 -0.001948 0.000000 0.000000 0.000000
# 3 -0.008020 -0.001948 0.011565 0.000000 0.000000 0.000000
# 4 0.000000 0.000000 0.000000 0.034999 0.000000 0.000000
# 5 0.000000 0.000000 0.000000 0.000000 0.089384 0.000000
# 6 0.000000 0.000000 0.000000 0.000000 0.000000 0.119413
#
#
# Mechanical properties :
#
#
# Convention : Reuss Voigt Hill
#
# Bulk Modulus (GPa) = 54.91996 60.49770 57.70883
# Shear Modulus (GPa) = 15.25382 20.53653 17.89517
#
# Velocity S-wave (km/s) = 2.75604 3.19786 2.98514
# Velocity P-wave (km/s) = 6.12172 6.61516 6.37322
#
# Compressibility (1/GPa) = 0.01820832
#
# Stress axis : x y z
#
# Youngs Moduli (GPa) = 46.62250 66.44042 86.46840
#
# Poissons Ratio (x) = 0.32957 0.69343
# Poissons Ratio (y) = 0.23126 0.16848
# Poissons Ratio (z) = 0.37389 0.12945
#
# Static dielectric constant tensor:
#      x y z
#    x 3.206850 0.000000 0.000000 
#    y 0.000000 3.791700 0.000000 
#    z 0.000000 0.000000 3.843160 
# 
# 
# High freq. dielectric constant tensor:
#      x y z
#    x 1.738980 0.000000 0.000000 
#    y 0.000000 1.789520 0.000000 
#    z 0.000000 0.000000 1.804250 
# 
# From -- ./inp_files/3452.got.cif
#   From: 2010.03.12/outbox.cif.g09.slc.cpg/sg38_2_cif.got.tgz:3452.got - 2010.04.14 02:38:36.
