data_PCOD8177660
_publ_section_title
;
Structure prediction by ZEFSAII (Michael W. Deem and Ramdas Pophale) SiO2 
 PCOD8177660
Probable space group: A M M 2
;
_chemical_formula_sum "Si O2"
_cell_formula_units_Z 64
_cell_length_a 19.326480
_cell_length_b 9.142671
_cell_length_c 20.612211
_cell_angle_alpha 90.000000
_cell_angle_beta 90.000000
_cell_angle_gamma 90.000000
_cell_volume 3642.087984
_symmetry_space_group_name_H-M "A M M 2"
_symmetry_group_IT_number 38
_symmetry_cell_setting 'orthorhombic'
loop_
_space_group_symop_operation_xyz
x,y,z
-x,-y,z
-x,y,z
x,-y,z
x,1/2+y,1/2+z
-x,1/2-y,1/2+z
-x,1/2+y,1/2+z
x,1/2-y,1/2+z
loop_
_atom_site_type_symbol
_atom_site_label
_atom_site_fract_x
_atom_site_fract_y
_atom_site_fract_z
Si Si1 0.423955 0.673381 0.028430
Si Si2 0.078996 0.328766 0.251205
Si Si3 0.798380 0.828874 0.451000
Si Si4 0.719133 0.327891 0.082119
Si Si5 0.921774 0.669938 0.399579
Si Si6 0.792218 0.174206 0.200394
Si Si7 0.714644 0.326217 0.827614
Si Si8 0.575340 0.173999 0.382646
O O1 0.500000 0.724397 0.054844
O O2 0.421310 0.500000 0.024385
O O3 0.361094 0.724667 0.074814
O O4 0.412785 0.734843 0.955581
O O5 0.094578 0.500000 0.243040
O O6 0.090915 0.278786 0.325477
O O7 0.130105 0.237500 0.204927
O O8 0.000000 0.294648 0.230451
O O9 0.758365 0.788227 0.516055
O O10 0.873638 0.755269 0.450114
O O11 0.756229 0.766328 0.389599
O O12 0.809267 0.000000 0.444774
O O13 0.724495 0.500000 0.098111
O O14 0.754167 0.233532 0.137489
O O15 0.905656 0.500000 0.405461
O O16 0.000000 0.704900 0.420134
O O17 0.748204 0.233541 0.261722
O O18 0.796069 0.000000 0.197523
O O19 0.716233 0.500000 0.827339
O O20 0.635472 0.268080 0.834637
O O21 0.500000 0.226095 0.356647
O O22 0.578306 0.000000 0.385676
#
# Coordination Sequence:
#
# PCOD8177660 Si02
#       8
#     8   8   8   8   8   8   8   8
#     4   8  13  24  46  74  98 124 165 214 257 297
#     4   9  18  34  55  77 101 130 167 209 254 306
#     4  10  18  31  52  76 100 129 166 210 254 295
#     4  10  20  34  52  74 104 138 174 215 256 301
#     4   9  18  32  51  77 106 132 161 204 255 305
#     4  11  22  34  50  74 107 140 171 210 255 307
#     4   9  16  28  45  70 101 128 160 206 254 295
#     4   8  12  21  42  71  99 126 162 210 257 296
#
# _framework density 17.572337000000001
#
# number of rings (size 3 to 8) (size 9 to 14) (size 15 to 20)
#    0.000    2.750    2.500    1.875    0.000    1.000 
#    0.000    2.500    0.000    1.875    0.000    0.000 
#    0.000    1.500    0.000    0.000    0.000    0.000 
#
# Total GULP energy -396610.576352 kJ/mol
# GULP energy per Si atom -12394.080511 kJ/mol
# Density = 1.753234 g / cm^3
# Si number density = 17.572337 Si / 1000 Ang^3
#
#
#
# Elastic Constant Matrix: (Units=GPa)
#
#
# Indices 1 2 3 4 5 6 
#
# 1 163.0121 45.6815 68.8661 0.0000 0.0000 0.0000
# 2 45.6815 34.7821 37.4888 0.0000 0.0000 0.0000
# 3 68.8661 37.4888 85.3372 0.0000 0.0000 0.0000
# 4 0.0000 0.0000 0.0000 22.0093 0.0000 0.0000
# 5 0.0000 0.0000 0.0000 0.0000 30.6354 0.0000
# 6 0.0000 0.0000 0.0000 0.0000 0.0000 16.1029
#
#
#
# Elastic Compliance Matrix: (Units=1/GPa)
#
#
# Indices 1 2 3 4 5 6 
#
# 1 0.010589 -0.008921 -0.004626 0.000000 0.000000 0.000000
# 2 -0.008921 0.062121 -0.020091 0.000000 0.000000 0.000000
# 3 -0.004626 -0.020091 0.024277 0.000000 0.000000 0.000000
# 4 0.000000 0.000000 0.000000 0.045435 0.000000 0.000000
# 5 0.000000 0.000000 0.000000 0.000000 0.032642 0.000000
# 6 0.000000 0.000000 0.000000 0.000000 0.000000 0.062101
#
#
# Mechanical properties :
#
#
# Convention : Reuss Voigt Hill
#
# Bulk Modulus (GPa) = 33.65684 65.24490 49.45087
# Shear Modulus (GPa) = 15.90609 22.48918 19.19764
#
# Velocity S-wave (km/s) = 3.01188 3.58132 3.30887
# Velocity P-wave (km/s) = 5.59376 7.36960 6.54222
#
# Compressibility (1/GPa) = 0.02971164
#
# Stress axis : x y z
#
# Youngs Moduli (GPa) = 94.43985 16.09755 41.19058
#
# Poissons Ratio (x) = 0.14360 0.19055
# Poissons Ratio (y) = 0.84248 0.82756
# Poissons Ratio (z) = 0.43688 0.32342
#
# Static dielectric constant tensor:
#      x y z
#    x 3.654490 0.000000 0.000000 
#    y 0.000000 2.814400 0.000000 
#    z 0.000000 0.000000 3.115800 
# 
# 
# High freq. dielectric constant tensor:
#      x y z
#    x 1.700320 0.000000 0.000000 
#    y 0.000000 1.636820 0.000000 
#    z 0.000000 0.000000 1.652620 
# 
# From -- ./inp_files/18912.got.cif
#   From: 2010.03.12/outbox.cif.g09.slc.cpg/sg38_10_cif.got.tgz:18912.got - 2010.04.14 02:38:36.
