data_PCOD8177837
_publ_section_title
;
Structure prediction by ZEFSAII (Michael W. Deem and Ramdas Pophale) SiO2 
 PCOD8177837
Probable space group: A M M 2
;
_chemical_formula_sum "Si O2"
_cell_formula_units_Z 32
_cell_length_a 11.431263
_cell_length_b 18.768034
_cell_length_c 7.395413
_cell_angle_alpha 90.000000
_cell_angle_beta 90.000000
_cell_angle_gamma 90.000000
_cell_volume 1586.629156
_symmetry_space_group_name_H-M "A M M 2"
_symmetry_group_IT_number 38
_symmetry_cell_setting 'orthorhombic'
loop_
_space_group_symop_operation_xyz
x,y,z
-x,-y,z
-x,y,z
x,-y,z
x,1/2+y,1/2+z
-x,1/2-y,1/2+z
-x,1/2+y,1/2+z
x,1/2-y,1/2+z
loop_
_atom_site_type_symbol
_atom_site_label
_atom_site_fract_x
_atom_site_fract_y
_atom_site_fract_z
Si Si1 0.500000 0.782480 0.755720
Si Si2 0.136941 0.681219 0.669556
Si Si3 0.250330 0.325918 0.298717
Si Si4 0.746911 0.081673 0.452289
Si Si5 0.500000 0.863346 0.382840
O O1 0.384034 0.810558 0.857973
O O2 0.500000 0.812262 0.555233
O O3 0.500000 0.696420 0.725920
O O4 0.178328 0.651394 0.475610
O O5 0.199903 0.755687 0.704449
O O6 0.165222 0.624518 0.824387
O O7 0.000000 0.695338 0.665237
O O8 0.243289 0.390420 0.156886
O O9 0.614566 0.087651 0.376863
O O10 0.785718 0.000000 0.450375
#
# Coordination Sequence:
#
# PCOD8177837 Si02
#       5
#     4   8   8   8   4
#     4  10  18  34  63  99 119 154 214 263 315 367
#     4  12  24  40  65  95 123 169 224 264 308 380
#     4  11  22  40  67  96 126 165 213 271 316 381
#     4  11  25  42  63  96 134 168 205 265 331 381
#     4  10  19  36  65  95 128 158 206 263 326 385
#
# _framework density 20.168543
#
# number of rings (size 3 to 8) (size 9 to 14) (size 15 to 20)
#    0.000    1.000    5.000    2.625    0.000    2.500 
#    0.000    0.000    0.000    3.000    0.000    0.000 
#    0.000    0.000    0.000    0.000    0.000    0.000 
#
# Total GULP energy -198451.885574 kJ/mol
# GULP energy per Si atom -12403.242848 kJ/mol
# Density = 2.012264 g / cm^3
# Si number density = 20.168543 Si / 1000 Ang^3
#
#
#
# Elastic Constant Matrix: (Units=GPa)
#
#
# Indices 1 2 3 4 5 6 
#
# 1 108.6515 12.9700 22.3639 0.0000 0.0000 0.0000
# 2 12.9700 96.6535 6.3180 0.0000 0.0000 0.0000
# 3 22.3639 6.3180 62.7598 0.0000 0.0000 0.0000
# 4 0.0000 0.0000 0.0000 26.6879 0.0000 0.0000
# 5 0.0000 0.0000 0.0000 0.0000 29.7640 0.0000
# 6 0.0000 0.0000 0.0000 0.0000 0.0000 9.1741
#
#
#
# Elastic Compliance Matrix: (Units=1/GPa)
#
#
# Indices 1 2 3 4 5 6 
#
# 1 0.010052 -0.001122 -0.003469 0.000000 0.000000 0.000000
# 2 -0.001122 0.010540 -0.000661 0.000000 0.000000 0.000000
# 3 -0.003469 -0.000661 0.017236 0.000000 0.000000 0.000000
# 4 0.000000 0.000000 0.000000 0.037470 0.000000 0.000000
# 5 0.000000 0.000000 0.000000 0.000000 0.033598 0.000000
# 6 0.000000 0.000000 0.000000 0.000000 0.000000 0.109002
#
#
# Mechanical properties :
#
#
# Convention : Reuss Voigt Hill
#
# Bulk Modulus (GPa) = 36.59811 39.04094 37.81952
# Shear Modulus (GPa) = 21.05172 28.21940 24.63556
#
# Velocity S-wave (km/s) = 3.23428 3.74462 3.49877
# Velocity P-wave (km/s) = 5.66859 6.17216 5.92573
#
# Compressibility (1/GPa) = 0.02732381
#
# Stress axis : x y z
#
# Youngs Moduli (GPa) = 99.48581 94.87636 58.01670
#
# Poissons Ratio (x) = 0.10646 0.20125
# Poissons Ratio (y) = 0.11163 0.03836
# Poissons Ratio (z) = 0.34510 0.06273
#
# Static dielectric constant tensor:
#      x y z
#    x 3.860270 0.000000 0.000000 
#    y 0.000000 3.393040 0.000000 
#    z 0.000000 0.000000 3.740160 
# 
# 
# High freq. dielectric constant tensor:
#      x y z
#    x 1.799310 0.000000 0.000000 
#    y 0.000000 1.762960 0.000000 
#    z 0.000000 0.000000 1.793690 
# 
# From -- ./inp_files/4248.got.cif
#   From: 2010.03.12/outbox.cif.g09.slc.cpg/sg38_3_cif.got.tgz:4248.got - 2010.04.14 02:38:36.
