data_PCOD8177712
_publ_section_title
;
Structure prediction by ZEFSAII (Michael W. Deem and Ramdas Pophale) SiO2 
 PCOD8177712
Probable space group: A M M 2
;
_chemical_formula_sum "Si O2"
_cell_formula_units_Z 56
_cell_length_a 8.869809
_cell_length_b 19.046355
_cell_length_c 17.945088
_cell_angle_alpha 90.000000
_cell_angle_beta 90.000000
_cell_angle_gamma 90.000000
_cell_volume 3031.598860
_symmetry_space_group_name_H-M "A M M 2"
_symmetry_group_IT_number 38
_symmetry_cell_setting 'orthorhombic'
loop_
_space_group_symop_operation_xyz
x,y,z
-x,-y,z
-x,y,z
x,-y,z
x,1/2+y,1/2+z
-x,1/2-y,1/2+z
-x,1/2+y,1/2+z
x,1/2-y,1/2+z
loop_
_atom_site_type_symbol
_atom_site_label
_atom_site_fract_x
_atom_site_fract_y
_atom_site_fract_z
Si Si1 0.321850 0.704962 0.218590
Si Si2 0.833197 0.661371 0.446721
Si Si3 0.176895 0.801924 0.106079
Si Si4 0.820345 0.418947 0.306186
Si Si5 0.833374 0.290554 0.842834
Si Si6 0.331914 0.576032 0.858567
Si Si7 0.666872 0.422754 0.682610
O O1 0.500000 0.696452 0.213385
O O2 0.257468 0.731919 0.139010
O O3 0.250991 0.629598 0.241478
O O4 0.281314 0.764682 0.279164
O O5 0.750975 0.674268 0.525994
O O6 0.757709 0.606250 0.387868
O O7 0.840246 0.736685 0.409484
O O8 0.000000 0.632338 0.464447
O O9 0.205281 0.868145 0.159244
O O10 0.000000 0.785468 0.099416
O O11 0.775257 0.500000 0.292720
O O12 0.000000 0.407434 0.303726
O O13 0.780485 0.362349 0.882525
O O14 0.000000 0.299488 0.807000
O O15 0.500000 0.592393 0.888375
O O16 0.278107 0.500000 0.890246
O O17 0.332077 0.572029 0.770384
O O18 0.500000 0.397889 0.655706
O O19 0.702962 0.500000 0.648980
#
# Coordination Sequence:
#
# PCOD8177712 Si02
#       7
#     8   8   8   8   8   8   8
#     4  11  21  33  51  75 105 137 172 215 259 304
#     4   8  18  33  50  75 105 133 164 209 263 310
#     4  11  20  32  51  75 103 137 176 213 251 303
#     4   9  18  36  60  82 105 135 174 219 267 316
#     4  10  18  32  52  73  96 126 169 214 251 297
#     4   9  17  29  46  69  99 130 156 192 245 295
#     4   9  18  31  45  66 101 136 161 193 241 292
#
# _framework density 18.472100999999999
#
# number of rings (size 3 to 8) (size 9 to 14) (size 15 to 20)
#    0.000    2.429    1.429    3.857    0.000    1.429 
#    0.000   10.000    0.000    0.857    0.000    2.000 
#    0.000    0.000    0.000    0.000    0.000    0.000 
#
# Total GULP energy -346919.876388 kJ/mol
# GULP energy per Si atom -12389.995585 kJ/mol
# Density = 1.843006 g / cm^3
# Si number density = 18.472101 Si / 1000 Ang^3
#
#
#
# Elastic Constant Matrix: (Units=GPa)
#
#
# Indices 1 2 3 4 5 6 
#
# 1 73.0139 38.8869 15.6932 0.0000 0.0000 0.0000
# 2 38.8869 128.4601 20.0762 0.0000 0.0000 0.0000
# 3 15.6932 20.0762 51.0122 0.0000 0.0000 0.0000
# 4 0.0000 0.0000 0.0000 12.2825 0.0000 0.0000
# 5 0.0000 0.0000 0.0000 0.0000 6.0933 0.0000
# 6 0.0000 0.0000 0.0000 0.0000 0.0000 26.4445
#
#
#
# Elastic Compliance Matrix: (Units=1/GPa)
#
#
# Indices 1 2 3 4 5 6 
#
# 1 0.016860 -0.004575 -0.003386 0.000000 0.000000 0.000000
# 2 -0.004575 0.009536 -0.002346 0.000000 0.000000 0.000000
# 3 -0.003386 -0.002346 0.021568 0.000000 0.000000 0.000000
# 4 0.000000 0.000000 0.000000 0.081416 0.000000 0.000000
# 5 0.000000 0.000000 0.000000 0.000000 0.164116 0.000000
# 6 0.000000 0.000000 0.000000 0.000000 0.000000 0.037815
#
#
# Mechanical properties :
#
#
# Convention : Reuss Voigt Hill
#
# Bulk Modulus (GPa) = 36.56185 44.64430 40.60308
# Shear Modulus (GPa) = 13.84880 20.81939 17.33410
#
# Velocity S-wave (km/s) = 2.74106 3.36083 3.06664
# Velocity P-wave (km/s) = 5.46387 6.26747 5.87942
#
# Compressibility (1/GPa) = 0.02735091
#
# Stress axis : x y z
#
# Youngs Moduli (GPa) = 59.31086 104.86685 46.36481
#
# Poissons Ratio (x) = 0.47973 0.15701
# Poissons Ratio (y) = 0.27133 0.10875
# Poissons Ratio (z) = 0.20085 0.24597
#
# Static dielectric constant tensor:
#      x y z
#    x 3.389310 0.000000 0.000000 
#    y 0.000000 3.798490 0.000000 
#    z 0.000000 0.000000 3.236320 
# 
# 
# High freq. dielectric constant tensor:
#      x y z
#    x 1.700630 0.000000 0.000000 
#    y 0.000000 1.721920 0.000000 
#    z 0.000000 0.000000 1.680250 
# 
# From -- ./inp_files/17060.got.cif
#   From: 2010.03.12/outbox.cif.g09.slc.cpg/sg38_9_cif.got.tgz:17060.got - 2010.04.14 02:38:36.
