data_PCOD8177971
_publ_section_title
;
Structure prediction by ZEFSAII (Michael W. Deem and Ramdas Pophale) SiO2 
 PCOD8177971
Probable space group: A M M 2
;
_chemical_formula_sum "Si O2"
_cell_formula_units_Z 56
_cell_length_a 9.088588
_cell_length_b 13.655828
_cell_length_c 28.895231
_cell_angle_alpha 90.000000
_cell_angle_beta 90.000000
_cell_angle_gamma 90.000000
_cell_volume 3586.250530
_symmetry_space_group_name_H-M "A M M 2"
_symmetry_group_IT_number 38
_symmetry_cell_setting 'orthorhombic'
loop_
_space_group_symop_operation_xyz
x,y,z
-x,-y,z
-x,y,z
x,-y,z
x,1/2+y,1/2+z
-x,1/2-y,1/2+z
-x,1/2+y,1/2+z
x,1/2-y,1/2+z
loop_
_atom_site_type_symbol
_atom_site_label
_atom_site_fract_x
_atom_site_fract_y
_atom_site_fract_z
Si Si1 0.171521 0.112742 0.222650
Si Si2 0.672449 0.610639 0.175153
Si Si3 0.334047 0.383667 0.445931
Si Si4 0.673164 0.282856 0.269204
Si Si5 0.171980 0.219355 0.129268
Si Si6 0.172077 0.386428 0.536841
Si Si7 0.827239 0.614148 0.353964
O O1 0.267317 0.173912 0.259269
O O2 0.212132 0.144929 0.170570
O O3 0.000000 0.131117 0.232701
O O4 0.214690 0.000000 0.228669
O O5 0.500000 0.617852 0.166991
O O6 0.729941 0.500000 0.169872
O O7 0.714490 0.647499 0.226277
O O8 0.749718 0.676539 0.136333
O O9 0.500000 0.342924 0.442572
O O10 0.332496 0.500000 0.447225
O O11 0.258610 0.343775 0.492653
O O12 0.241342 0.347126 0.401937
O O13 0.500000 0.279269 0.278490
O O14 0.753767 0.324560 0.313588
O O15 0.228272 0.172254 0.081620
O O16 0.000000 0.239278 0.127294
O O17 0.207935 0.500000 0.545397
O O18 0.000000 0.370901 0.527866
O O19 0.791521 0.500000 0.346229
O O20 0.000000 0.634205 0.355032
#
# Coordination Sequence:
#
# PCOD8177971 Si02
#       7
#     8   8   8   8   8   8   8
#     4   9  17  30  46  64  89 119 150 184 219 256
#     4   9  18  31  44  60  86 118 148 180 219 259
#     4   9  17  28  42  62  88 116 145 177 214 257
#     4  10  19  30  45  65  89 117 149 183 220 262
#     4   9  17  28  44  66  88 114 149 183 216 254
#     4   9  16  27  43  63  89 118 145 175 213 257
#     4  10  19  30  45  65  89 117 148 181 218 262
#
# _framework density 15.615194000000001
#
# number of rings (size 3 to 8) (size 9 to 14) (size 15 to 20)
#    0.000    2.714    0.000    2.143    0.000    6.571 
#    0.000    0.000    0.000    2.571    0.000    1.000 
#    0.000    3.429    0.000    0.000    0.000    0.000 
#
# Total GULP energy -347227.114213 kJ/mol
# GULP energy per Si atom -12400.968365 kJ/mol
# Density = 1.557965 g / cm^3
# Si number density = 15.615194 Si / 1000 Ang^3
#
#
#
# Elastic Constant Matrix: (Units=GPa)
#
#
# Indices 1 2 3 4 5 6 
#
# 1 72.1254 44.9126 62.4536 0.0000 0.0000 0.0000
# 2 44.9126 95.7507 59.9336 0.0000 0.0000 0.0000
# 3 62.4536 59.9336 136.4815 0.0000 0.0000 0.0000
# 4 0.0000 0.0000 0.0000 24.8697 0.0000 0.0000
# 5 0.0000 0.0000 0.0000 0.0000 28.1578 0.0000
# 6 0.0000 0.0000 0.0000 0.0000 0.0000 23.2550
#
#
#
# Elastic Compliance Matrix: (Units=1/GPa)
#
#
# Indices 1 2 3 4 5 6 
#
# 1 0.025548 -0.006434 -0.008865 0.000000 0.000000 0.000000
# 2 -0.006434 0.016023 -0.004092 0.000000 0.000000 0.000000
# 3 -0.008865 -0.004092 0.013180 0.000000 0.000000 0.000000
# 4 0.000000 0.000000 0.000000 0.040210 0.000000 0.000000
# 5 0.000000 0.000000 0.000000 0.000000 0.035514 0.000000
# 6 0.000000 0.000000 0.000000 0.000000 0.000000 0.043002
#
#
# Mechanical properties :
#
#
# Convention : Reuss Voigt Hill
#
# Bulk Modulus (GPa) = 62.62267 70.99524 66.80895
# Shear Modulus (GPa) = 22.97983 24.39370 23.68676
#
# Velocity S-wave (km/s) = 3.84035 3.95673 3.89897
# Velocity P-wave (km/s) = 7.73661 8.15098 7.94649
#
# Compressibility (1/GPa) = 0.01596866
#
# Stress axis : x y z
#
# Youngs Moduli (GPa) = 39.14252 62.40955 75.86975
#
# Poissons Ratio (x) = 0.40157 0.67258
# Poissons Ratio (y) = 0.25186 0.31045
# Poissons Ratio (z) = 0.34700 0.25538
#
# Static dielectric constant tensor:
#      x y z
#    x 3.033940 0.000000 0.000000 
#    y 0.000000 2.846000 0.000000 
#    z 0.000000 0.000000 3.028340 
# 
# 
# High freq. dielectric constant tensor:
#      x y z
#    x 1.606090 0.000000 0.000000 
#    y 0.000000 1.569340 0.000000 
#    z 0.000000 0.000000 1.596190 
# 
# From -- ./inp_files/24645.got.cif
#   From: 2010.03.12/outbox.cif.g09.slc.cpg/sg38_13_cif.got.tgz:24645.got - 2010.04.14 02:38:36.
