data_PCOD8177022
_publ_section_title
;
Structure prediction by ZEFSAII (Michael W. Deem and Ramdas Pophale) SiO2 
 PCOD8177022
Probable space group: C C C 2
;
_chemical_formula_sum "Si O2"
_cell_formula_units_Z 48
_cell_length_a 5.290117
_cell_length_b 13.907336
_cell_length_c 26.061669
_cell_angle_alpha 90.000000
_cell_angle_beta 90.000000
_cell_angle_gamma 90.000000
_cell_volume 1917.394376
_symmetry_space_group_name_H-M "C C C 2"
_symmetry_group_IT_number 37
_symmetry_cell_setting 'orthorhombic'
loop_
_space_group_symop_operation_xyz
x,y,z
-x,-y,z
-x,y,1/2+z
x,-y,1/2+z
1/2+x,1/2+y,z
1/2-x,1/2-y,z
1/2-x,1/2+y,1/2+z
1/2+x,1/2-y,1/2+z
loop_
_atom_site_type_symbol
_atom_site_label
_atom_site_fract_x
_atom_site_fract_y
_atom_site_fract_z
Si Si1 0.872322 0.901160 0.460200
Si Si2 0.000000 0.500000 0.719759
Si Si3 0.320283 0.642150 0.153942
Si Si4 0.876671 0.148340 0.745047
Si Si5 0.750000 0.250000 0.875995
Si Si6 0.500000 0.000000 0.030597
Si Si7 0.875085 0.849406 0.058645
Si Si8 0.750000 0.750000 0.810606
O O1 0.814574 0.842152 0.409693
O O2 0.053741 0.841145 0.498670
O O3 0.624282 0.921383 0.493247
O O4 0.000000 0.000000 0.442241
O O5 0.885234 0.574687 0.679254
O O6 0.803528 0.443280 0.758323
O O7 0.250000 0.750000 0.165545
O O8 0.582157 0.627953 0.184805
O O9 0.376895 0.626535 0.093322
O O10 0.750000 0.250000 0.757387
O O11 0.148822 0.157896 0.775832
O O12 0.497902 0.220892 0.844068
O O13 0.309090 0.059414 0.066721
O O14 0.750000 0.750000 0.077704
#
# Coordination Sequence:
#
# PCOD8177022 Si02
#       8
#     8   4   8   8   4   4   8   4
#     4  10  25  47  78 113 155 199 264 327 389 487
#     4  12  28  49  85 110 164 216 265 326 421 470
#     4  12  27  47  76 115 162 209 267 321 390 492
#     4  12  24  54  82 115 157 209 269 338 401 485
#     4  12  28  50  87 114 155 214 260 336 434 464
#     4  10  24  47  71 104 164 194 269 318 389 478
#     4  11  26  45  72 112 156 211 257 319 391 472
#     4  12  28  52  89 116 159 208 276 348 412 496
#
# _framework density 25.033971999999999
#
# number of rings (size 3 to 8) (size 9 to 14) (size 15 to 20)
#    0.000    0.667    3.333    2.000    9.333    5.333 
#    0.000    4.167    0.000    0.000    0.000    0.000 
#    0.000    0.000    0.000    0.000    0.000    0.000 
#
# Total GULP energy -297363.186574 kJ/mol
# GULP energy per Si atom -12390.132774 kJ/mol
# Density = 2.497699 g / cm^3
# Si number density = 25.033972 Si / 1000 Ang^3
#
#
#
# Elastic Constant Matrix: (Units=GPa)
#
#
# Indices 1 2 3 4 5 6 
#
# 1 144.1955 63.0593 49.3932 0.0000 0.0000 0.0000
# 2 63.0593 151.2763 54.9608 0.0000 0.0000 0.0000
# 3 49.3932 54.9608 123.4354 0.0000 0.0000 0.0000
# 4 0.0000 0.0000 0.0000 30.6171 0.0000 0.0000
# 5 0.0000 0.0000 0.0000 0.0000 17.1369 0.0000
# 6 0.0000 0.0000 0.0000 0.0000 0.0000 38.9255
#
#
#
# Elastic Compliance Matrix: (Units=1/GPa)
#
#
# Indices 1 2 3 4 5 6 
#
# 1 0.008998 -0.002914 -0.002303 0.000000 0.000000 0.000000
# 2 -0.002914 0.008830 -0.002765 0.000000 0.000000 0.000000
# 3 -0.002303 -0.002765 0.010254 0.000000 0.000000 0.000000
# 4 0.000000 0.000000 0.000000 0.032661 0.000000 0.000000
# 5 0.000000 0.000000 0.000000 0.000000 0.058354 0.000000
# 6 0.000000 0.000000 0.000000 0.000000 0.000000 0.025690
#
#
# Mechanical properties :
#
#
# Convention : Reuss Voigt Hill
#
# Bulk Modulus (GPa) = 82.52859 83.74820 83.13840
# Shear Modulus (GPa) = 30.34116 34.10216 32.22166
#
# Velocity S-wave (km/s) = 3.48516 3.69485 3.59153
# Velocity P-wave (km/s) = 7.01664 7.19229 7.10501
#
# Compressibility (1/GPa) = 0.01211701
#
# Stress axis : x y z
#
# Youngs Moduli (GPa) = 111.13093 113.25114 97.51924
#
# Poissons Ratio (x) = 0.33004 0.22460
# Poissons Ratio (y) = 0.32386 0.26969
# Poissons Ratio (z) = 0.25595 0.31319
#
# Static dielectric constant tensor:
#      x y z
#    x 4.989380 0.000000 0.000000 
#    y 0.000000 4.493930 0.000000 
#    z 0.000000 0.000000 4.435410 
# 
# 
# High freq. dielectric constant tensor:
#      x y z
#    x 2.016610 0.000000 0.000000 
#    y 0.000000 2.001280 0.000000 
#    z 0.000000 0.000000 1.983940 
# 
# From -- ./inp_files/19409.got.cif
#   From: 2010.03.12/outbox.cif.g09.slc.cpg/sg37_10_cif.got.tgz:19409.got - 2010.04.14 02:25:27.
