data_PCOD8177474
_publ_section_title
;
Structure prediction by ZEFSAII (Michael W. Deem and Ramdas Pophale) SiO2 
 PCOD8177474
Probable space group: A M M 2
;
_chemical_formula_sum "Si O2"
_cell_formula_units_Z 64
_cell_length_a 19.476639
_cell_length_b 9.297217
_cell_length_c 20.748159
_cell_angle_alpha 90.000000
_cell_angle_beta 90.000000
_cell_angle_gamma 90.000000
_cell_volume 3757.046323
_symmetry_space_group_name_H-M "A M M 2"
_symmetry_group_IT_number 38
_symmetry_cell_setting 'orthorhombic'
loop_
_space_group_symop_operation_xyz
x,y,z
-x,-y,z
-x,y,z
x,-y,z
x,1/2+y,1/2+z
-x,1/2-y,1/2+z
-x,1/2+y,1/2+z
x,1/2-y,1/2+z
loop_
_atom_site_type_symbol
_atom_site_label
_atom_site_fract_x
_atom_site_fract_y
_atom_site_fract_z
Si Si1 0.717378 0.171057 0.839460
Si Si2 0.200604 0.168364 0.715278
Si Si3 0.925538 0.829552 0.021330
Si Si4 0.713567 0.168924 0.588174
Si Si5 0.782661 0.328811 0.471358
Si Si6 0.078077 0.334029 0.666672
Si Si7 0.575036 0.670252 0.147581
Si Si8 0.574913 0.171162 0.792276
O O1 0.758451 0.227816 0.777236
O O2 0.752972 0.230571 0.904085
O O3 0.638234 0.227551 0.836054
O O4 0.718555 0.000000 0.839881
O O5 0.242776 0.206723 0.651329
O O6 0.126878 0.244849 0.713976
O O7 0.187741 0.000000 0.721715
O O8 0.913030 0.773455 0.093961
O O9 0.000000 0.771484 0.995807
O O10 0.929065 0.000000 0.024362
O O11 0.862679 0.779261 0.976037
O O12 0.739821 0.259133 0.528368
O O13 0.635544 0.223430 0.600712
O O14 0.717420 0.000000 0.572147
O O15 0.776049 0.500000 0.477220
O O16 0.099790 0.500000 0.669854
O O17 0.000000 0.312643 0.690106
O O18 0.500000 0.717648 0.120462
O O19 0.580051 0.500000 0.152569
O O20 0.584949 0.731619 0.219820
O O21 0.500000 0.222286 0.819284
O O22 0.576836 0.000000 0.790142
#
# Coordination Sequence:
#
# PCOD8177474 Si02
#       8
#     8   8   8   8   8   8   8   8
#     4   9  17  29  43  66  97 125 154 191 234 275
#     4  10  18  29  47  71  97 119 146 194 245 276
#     4   8  14  26  44  64  85 114 155 191 215 256
#     4  10  18  29  47  70  95 119 149 196 239 272
#     4  10  19  31  48  68  94 126 157 189 228 282
#     4   9  17  30  48  69  93 122 158 194 225 272
#     4   8  13  23  42  67  91 119 156 193 228 269
#     4   8  12  21  40  64  90 120 155 192 228 270
#
# _framework density 17.034658
#
# number of rings (size 3 to 8) (size 9 to 14) (size 15 to 20)
#    0.000    3.000    2.500    1.500    0.000    0.250 
#    0.000    1.875    0.000    3.750    0.000    0.000 
#    0.000    1.500    0.000    0.000    0.000    0.000 
#
# Total GULP energy -396525.727042 kJ/mol
# GULP energy per Si atom -12391.428970 kJ/mol
# Density = 1.699589 g / cm^3
# Si number density = 17.034658 Si / 1000 Ang^3
#
#
#
# Elastic Constant Matrix: (Units=GPa)
#
#
# Indices 1 2 3 4 5 6 
#
# 1 178.4131 26.9088 78.3883 0.0000 0.0000 0.0000
# 2 26.9088 17.7898 21.2636 0.0000 0.0000 0.0000
# 3 78.3883 21.2636 106.7931 0.0000 0.0000 0.0000
# 4 0.0000 0.0000 0.0000 16.4460 0.0000 0.0000
# 5 0.0000 0.0000 0.0000 0.0000 28.7065 0.0000
# 6 0.0000 0.0000 0.0000 0.0000 0.0000 16.1658
#
#
#
# Elastic Compliance Matrix: (Units=1/GPa)
#
#
# Indices 1 2 3 4 5 6 
#
# 1 0.008972 -0.007480 -0.005097 0.000000 0.000000 0.000000
# 2 -0.007480 0.080004 -0.010439 0.000000 0.000000 0.000000
# 3 -0.005097 -0.010439 0.015183 0.000000 0.000000 0.000000
# 4 0.000000 0.000000 0.000000 0.060805 0.000000 0.000000
# 5 0.000000 0.000000 0.000000 0.000000 0.034835 0.000000
# 6 0.000000 0.000000 0.000000 0.000000 0.000000 0.061859
#
#
# Mechanical properties :
#
#
# Convention : Reuss Voigt Hill
#
# Bulk Modulus (GPa) = 17.20332 61.79084 39.49708
# Shear Modulus (GPa) = 15.28742 24.02600 19.65671
#
# Velocity S-wave (km/s) = 2.99896 3.75963 3.40063
# Velocity P-wave (km/s) = 4.70241 7.42959 6.21737
#
# Compressibility (1/GPa) = 0.05812831
#
# Stress axis : x y z
#
# Youngs Moduli (GPa) = 111.45346 12.49942 65.86115
#
# Poissons Ratio (x) = 0.09349 0.33567
# Poissons Ratio (y) = 0.83365 0.68754
# Poissons Ratio (z) = 0.56803 0.13048
#
# Static dielectric constant tensor:
#      x y z
#    x 3.762930 0.000000 0.000000 
#    y 0.000000 2.651690 0.000000 
#    z 0.000000 0.000000 3.094510 
# 
# 
# High freq. dielectric constant tensor:
#      x y z
#    x 1.681080 0.000000 0.000000 
#    y 0.000000 1.599480 0.000000 
#    z 0.000000 0.000000 1.630290 
# 
# From -- ./inp_files/18762.got.cif
#   From: 2010.03.12/outbox.cif.g09.slc.cpg/sg38_10_cif.got.tgz:18762.got - 2010.04.14 02:38:36.
