data_PCOD8177095
_publ_section_title
;
Structure prediction by ZEFSAII (Michael W. Deem and Ramdas Pophale) SiO2 
 PCOD8177095
Probable space group: C C C 2
;
_chemical_formula_sum "Si O2"
_cell_formula_units_Z 48
_cell_length_a 8.406575
_cell_length_b 14.119908
_cell_length_c 18.558437
_cell_angle_alpha 90.000000
_cell_angle_beta 90.000000
_cell_angle_gamma 90.000000
_cell_volume 2202.887689
_symmetry_space_group_name_H-M "C C C 2"
_symmetry_group_IT_number 37
_symmetry_cell_setting 'orthorhombic'
loop_
_space_group_symop_operation_xyz
x,y,z
-x,-y,z
-x,y,1/2+z
x,-y,1/2+z
1/2+x,1/2+y,z
1/2-x,1/2-y,z
1/2-x,1/2+y,1/2+z
1/2+x,1/2-y,1/2+z
loop_
_atom_site_type_symbol
_atom_site_label
_atom_site_fract_x
_atom_site_fract_y
_atom_site_fract_z
Si Si1 0.162053 0.560057 0.359650
Si Si2 0.380998 0.576938 0.098298
Si Si3 0.672662 0.602789 0.435635
Si Si4 0.002991 0.709976 0.947271
Si Si5 0.064441 0.266333 0.110781
Si Si6 0.395180 0.088097 0.704269
O O1 0.310975 0.490961 0.383981
O O2 0.196163 0.604305 0.280163
O O3 0.000000 0.500000 0.366270
O O4 0.142685 0.655478 0.408335
O O5 0.500000 0.500000 0.128816
O O6 0.454935 0.675978 0.118619
O O7 0.217239 0.563266 0.138656
O O8 0.346029 0.560083 0.014838
O O9 0.832217 0.661762 0.427082
O O10 0.524052 0.677705 0.423837
O O11 0.970191 0.692644 0.031792
O O12 0.250000 0.250000 0.120586
O O13 0.010961 0.328658 0.178645
O O14 0.500000 0.000000 0.723570
#
# Coordination Sequence:
#
# PCOD8177095 Si02
#       6
#     8   8   8   8   8   8
#     4   9  20  37  61  93 130 168 214 263 338 400
#     4  11  23  40  65  95 128 168 217 271 318 384
#     4   9  18  36  64  90 126 164 220 271 322 392
#     4   9  18  36  63  92 121 171 214 275 327 385
#     4  11  23  40  65  97 125 166 226 271 323 392
#     4  11  23  41  63  97 132 173 209 263 336 399
#
# _framework density 21.789580999999998
#
# number of rings (size 3 to 8) (size 9 to 14) (size 15 to 20)
#    0.000    2.000    1.667    1.500    4.667    0.000 
#   12.000    2.500    0.000    0.000    0.000    0.000 
#    0.000    0.000    0.000    0.000    0.000    0.000 
#
# Total GULP energy -297337.979470 kJ/mol
# GULP energy per Si atom -12389.082478 kJ/mol
# Density = 2.173999 g / cm^3
# Si number density = 21.789581 Si / 1000 Ang^3
#
#
#
# Elastic Constant Matrix: (Units=GPa)
#
#
# Indices 1 2 3 4 5 6 
#
# 1 52.0794 25.6477 23.3302 0.0000 0.0000 0.0000
# 2 25.6477 108.8334 77.6457 0.0000 0.0000 0.0000
# 3 23.3302 77.6457 132.8576 0.0000 0.0000 0.0000
# 4 0.0000 0.0000 0.0000 20.5251 0.0000 0.0000
# 5 0.0000 0.0000 0.0000 0.0000 -29.2256 0.0000
# 6 0.0000 0.0000 0.0000 0.0000 0.0000 18.4221
#
#
#
# Elastic Compliance Matrix: (Units=1/GPa)
#
#
# Indices 1 2 3 4 5 6 
#
# 1 0.021878 -0.004142 -0.001421 0.000000 0.000000 0.000000
# 2 -0.004142 0.016543 -0.008941 0.000000 0.000000 0.000000
# 3 -0.001421 -0.008941 0.013002 0.000000 0.000000 0.000000
# 4 0.000000 0.000000 0.000000 0.048721 0.000000 0.000000
# 5 0.000000 0.000000 0.000000 0.000000 -0.034217 0.000000
# 6 0.000000 0.000000 0.000000 0.000000 0.000000 0.054283
#
#
# Mechanical properties :
#
#
# Convention : Reuss Voigt Hill
#
# Bulk Modulus (GPa) = 44.61333 60.77973 52.69653
# Shear Modulus (GPa) = 31.91023 13.08745 22.49884
#
# Velocity S-wave (km/s) = 3.83099 2.45343 3.21682
# Velocity P-wave (km/s) = 6.33149 5.99836 6.16717
#
# Compressibility (1/GPa) = 0.02241482
#
# Stress axis : x y z
#
# Youngs Moduli (GPa) = 45.70835 60.44750 76.91222
#
# Poissons Ratio (x) = 0.25036 0.10931
# Poissons Ratio (y) = 0.18931 0.68768
# Poissons Ratio (z) = 0.06496 0.54046
#
# Static dielectric constant tensor:
#      x y z
#    x 3.911050 0.000000 0.000000 
#    y 0.000000 4.251550 0.000000 
#    z 0.000000 0.000000 3.955990 
# 
# 
# High freq. dielectric constant tensor:
#      x y z
#    x 1.848140 0.000000 0.000000 
#    y 0.000000 1.865780 0.000000 
#    z 0.000000 0.000000 1.844840 
# 
# From -- ./inp_files/14508.got.cif
#   From: 2010.03.12/outbox.cif.g09.slc.cpg/sg37_8_cif.got.tgz:14508.got - 2010.04.14 02:25:27.
