data_PCOD8177929
_publ_section_title
;
Structure prediction by ZEFSAII (Michael W. Deem and Ramdas Pophale) SiO2 
 PCOD8177929
Probable space group: A M M 2
;
_chemical_formula_sum "Si O2"
_cell_formula_units_Z 64
_cell_length_a 9.351464
_cell_length_b 29.670983
_cell_length_c 14.313379
_cell_angle_alpha 90.000000
_cell_angle_beta 90.000000
_cell_angle_gamma 90.000000
_cell_volume 3971.492183
_symmetry_space_group_name_H-M "A M M 2"
_symmetry_group_IT_number 38
_symmetry_cell_setting 'orthorhombic'
loop_
_space_group_symop_operation_xyz
x,y,z
-x,-y,z
-x,y,z
x,-y,z
x,1/2+y,1/2+z
-x,1/2-y,1/2+z
-x,1/2+y,1/2+z
x,1/2-y,1/2+z
loop_
_atom_site_type_symbol
_atom_site_label
_atom_site_fract_x
_atom_site_fract_y
_atom_site_fract_z
Si Si1 0.663277 0.803553 0.460640
Si Si2 0.662506 0.269526 0.764469
Si Si3 0.836547 0.050684 0.697579
Si Si4 0.834411 0.365106 0.085438
Si Si5 0.669471 0.789867 0.056546
Si Si6 0.666904 0.448444 0.386501
Si Si7 0.160173 0.315465 0.271222
Si Si8 0.835434 0.368925 0.454558
O O1 0.500000 0.809612 0.490642
O O2 0.681806 0.805276 0.348282
O O3 0.748137 0.847083 0.496754
O O4 0.718338 0.756309 0.505351
O O5 0.500000 0.254578 0.752684
O O6 0.717090 0.288064 0.665361
O O7 0.741901 0.225522 0.800788
O O8 0.795315 0.083280 0.611185
O O9 0.730334 0.058198 0.783320
O O10 0.000000 0.061455 0.730730
O O11 0.824234 0.000000 0.659025
O O12 0.788070 0.334744 0.172929
O O13 0.000000 0.360076 0.061316
O O14 0.500000 0.798319 0.043702
O O15 0.757228 0.831743 0.016913
O O16 0.500000 0.435246 0.384191
O O17 0.688331 0.500000 0.419734
O O18 0.750744 0.416485 0.460215
O O19 0.171631 0.354867 0.346590
O O20 0.000000 0.296803 0.264292
O O21 0.000000 0.374634 0.487963
#
# Coordination Sequence:
#
# PCOD8177929 Si02
#       8
#     8   8   8   8   8   8   8   8
#     4  10  20  32  48  70  94 127 165 199 241 287
#     4  10  20  34  48  66  95 128 163 201 242 282
#     4   9  17  31  49  69  97 130 162 198 242 290
#     4  10  19  31  46  69  97 128 162 196 237 286
#     4  10  20  33  49  69  94 125 162 202 241 285
#     4  10  20  32  48  72 100 129 161 197 238 286
#     4  10  19  29  44  68  97 126 161 197 235 279
#     4  11  21  33  49  71  98 131 165 198 240 286
#
# _framework density 16.114850000000001
#
# number of rings (size 3 to 8) (size 9 to 14) (size 15 to 20)
#    0.000    2.000    3.750    0.750    0.000    3.250 
#    0.000    0.000    0.000    0.000    0.000    0.875 
#    0.000    5.000    0.000    0.000    0.000    0.000 
#
# Total GULP energy -396737.995030 kJ/mol
# GULP energy per Si atom -12398.062345 kJ/mol
# Density = 1.607817 g / cm^3
# Si number density = 16.114850 Si / 1000 Ang^3
#
#
#
# Elastic Constant Matrix: (Units=GPa)
#
#
# Indices 1 2 3 4 5 6 
#
# 1 71.3597 51.4171 28.3963 0.0000 0.0000 0.0000
# 2 51.4171 100.4490 29.5863 0.0000 0.0000 0.0000
# 3 28.3963 29.5863 68.7750 0.0000 0.0000 0.0000
# 4 0.0000 0.0000 0.0000 23.9562 0.0000 0.0000
# 5 0.0000 0.0000 0.0000 0.0000 22.8597 0.0000
# 6 0.0000 0.0000 0.0000 0.0000 0.0000 25.8570
#
#
#
# Elastic Compliance Matrix: (Units=1/GPa)
#
#
# Indices 1 2 3 4 5 6 
#
# 1 0.023744 -0.010611 -0.005239 0.000000 0.000000 0.000000
# 2 -0.010611 0.016141 -0.002563 0.000000 0.000000 0.000000
# 3 -0.005239 -0.002563 0.017806 0.000000 0.000000 0.000000
# 4 0.000000 0.000000 0.000000 0.041743 0.000000 0.000000
# 5 0.000000 0.000000 0.000000 0.000000 0.043745 0.000000
# 6 0.000000 0.000000 0.000000 0.000000 0.000000 0.038674
#
#
# Mechanical properties :
#
#
# Convention : Reuss Voigt Hill
#
# Bulk Modulus (GPa) = 47.92476 51.04260 49.48368
# Shear Modulus (GPa) = 22.15989 23.28019 22.72004
#
# Velocity S-wave (km/s) = 3.71229 3.80497 3.75891
# Velocity P-wave (km/s) = 6.94110 7.14470 7.04363
#
# Compressibility (1/GPa) = 0.02086604
#
# Stress axis : x y z
#
# Youngs Moduli (GPa) = 42.11678 61.95227 56.16166
#
# Poissons Ratio (x) = 0.65735 0.29422
# Poissons Ratio (y) = 0.44688 0.14394
# Poissons Ratio (z) = 0.22064 0.15878
#
# Static dielectric constant tensor:
#      x y z
#    x 3.098540 0.000000 0.000000 
#    y 0.000000 3.038430 0.000000 
#    z 0.000000 0.000000 2.913320 
# 
# 
# High freq. dielectric constant tensor:
#      x y z
#    x 1.625130 0.000000 0.000000 
#    y 0.000000 1.609470 0.000000 
#    z 0.000000 0.000000 1.592660 
# 
# From -- ./inp_files/13040.got.cif
#   From: 2010.03.12/outbox.cif.g09.slc.cpg/sg38_7_cif.got.tgz:13040.got - 2010.04.14 02:38:36.
