data_PCOD8177616
_publ_section_title
;
Structure prediction by ZEFSAII (Michael W. Deem and Ramdas Pophale) SiO2 
 PCOD8177616
Probable space group: A M M 2
;
_chemical_formula_sum "Si O2"
_cell_formula_units_Z 46
_cell_length_a 7.513065
_cell_length_b 16.081584
_cell_length_c 21.157933
_cell_angle_alpha 90.000000
_cell_angle_beta 90.000000
_cell_angle_gamma 90.000000
_cell_volume 2556.343482
_symmetry_space_group_name_H-M "A M M 2"
_symmetry_group_IT_number 38
_symmetry_cell_setting 'orthorhombic'
loop_
_space_group_symop_operation_xyz
x,y,z
-x,-y,z
-x,y,z
x,-y,z
x,1/2+y,1/2+z
-x,1/2-y,1/2+z
-x,1/2+y,1/2+z
x,1/2-y,1/2+z
loop_
_atom_site_type_symbol
_atom_site_label
_atom_site_fract_x
_atom_site_fract_y
_atom_site_fract_z
Si Si1 0.000000 0.903242 0.093320
Si Si2 0.000000 0.500000 0.379503
Si Si3 0.208231 0.406421 0.814227
Si Si4 0.708283 0.000000 0.774712
Si Si5 0.296333 0.252419 0.381244
Si Si6 0.000000 0.832861 0.957373
Si Si7 0.708148 0.179134 0.749141
Si Si8 0.299155 0.837302 0.182513
O O1 0.823401 0.883833 0.132776
O O2 0.000000 0.845520 0.032097
O O3 0.000000 0.000000 0.074998
O O4 0.179131 0.500000 0.338363
O O5 0.000000 0.579098 0.423758
O O6 0.254090 0.500000 0.835211
O O7 0.279753 0.346516 0.869689
O O8 0.305064 0.386686 0.748429
O O9 0.000000 0.393298 0.803391
O O10 0.754896 0.082673 0.733505
O O11 0.500000 0.000000 0.794119
O O12 0.500000 0.276662 0.396289
O O13 0.218129 0.299168 0.318903
O O14 0.176137 0.280411 0.439964
O O15 0.500000 0.195722 0.752623
O O16 0.779861 0.243491 0.696213
O O17 0.500000 0.834280 0.155079
#
# Coordination Sequence:
#
# PCOD8177616 Si02
#       8
#     4   2   8   4   8   4   8   8
#     4  12  26  40  55  76 103 145 194 229 263 308
#     4  12  22  32  54  72 106 148 172 214 268 308
#     4  10  18  31  56  90 118 142 170 217 276 334
#     4  10  18  30  52  86 114 132 164 209 264 334
#     4  10  20  35  55  79 111 146 177 216 272 326
#     4  12  24  39  52  76 106 143 190 228 259 316
#     4   8  16  30  52  81 109 136 165 207 267 327
#     4  10  21  37  55  78 111 146 180 221 270 321
#
# _framework density 17.994453
#
# number of rings (size 3 to 8) (size 9 to 14) (size 15 to 20)
#    0.000    1.913    3.913    2.087    0.000    3.826 
#    0.000    0.000    0.000    0.000    4.522    0.000 
#    0.000    0.000    0.000    0.000    0.000    0.000 
#
# Total GULP energy -285124.377919 kJ/mol
# GULP energy per Si atom -12396.712083 kJ/mol
# Density = 1.795350 g / cm^3
# Si number density = 17.994453 Si / 1000 Ang^3
#
#
#
# Elastic Constant Matrix: (Units=GPa)
#
#
# Indices 1 2 3 4 5 6 
#
# 1 92.8780 30.4036 31.5014 0.0000 0.0000 0.0000
# 2 30.4036 132.4941 34.7269 0.0000 0.0000 0.0000
# 3 31.5014 34.7269 72.5559 0.0000 0.0000 0.0000
# 4 0.0000 0.0000 0.0000 22.7521 0.0000 0.0000
# 5 0.0000 0.0000 0.0000 0.0000 -1.1337 0.0000
# 6 0.0000 0.0000 0.0000 0.0000 0.0000 21.1813
#
#
#
# Elastic Compliance Matrix: (Units=1/GPa)
#
#
# Indices 1 2 3 4 5 6 
#
# 1 0.012958 -0.001714 -0.004806 0.000000 0.000000 0.000000
# 2 -0.001714 0.008857 -0.003495 0.000000 0.000000 0.000000
# 3 -0.004806 -0.003495 0.017542 0.000000 0.000000 0.000000
# 4 0.000000 0.000000 0.000000 0.043952 0.000000 0.000000
# 5 0.000000 0.000000 0.000000 0.000000 -0.882103 0.000000
# 6 0.000000 0.000000 0.000000 0.000000 0.000000 0.047212
#
#
# Mechanical properties :
#
#
# Convention : Reuss Voigt Hill
#
# Bulk Modulus (GPa) = 51.73986 54.57687 53.15837
# Shear Modulus (GPa) = -6.89549 21.97970 7.54210
#
# Velocity S-wave (km/s) = -1.95968 3.49875 2.04950
# Velocity P-wave (km/s) = 4.86777 6.83501 5.93349
#
# Compressibility (1/GPa) = 0.01932746
#
# Stress axis : x y z
#
# Youngs Moduli (GPa) = 77.17395 112.90725 57.00718
#
# Poissons Ratio (x) = 0.19351 0.27395
# Poissons Ratio (y) = 0.13227 0.19924
# Poissons Ratio (z) = 0.37086 0.39461
#
# Static dielectric constant tensor:
#      x y z
#    x 3.372530 0.000000 0.000000 
#    y 0.000000 3.676430 0.000000 
#    z 0.000000 0.000000 2.866580 
# 
# 
# High freq. dielectric constant tensor:
#      x y z
#    x 1.708450 0.000000 0.000000 
#    y 0.000000 1.714750 0.000000 
#    z 0.000000 0.000000 1.630870 
# 
# From -- ./inp_files/19676.got.cif
#   From: 2010.03.12/outbox.cif.g09.slc.cpg/sg38_10_cif.got.tgz:19676.got - 2010.04.14 02:38:36.
