data_PCOD8177732
_publ_section_title
;
Structure prediction by ZEFSAII (Michael W. Deem and Ramdas Pophale) SiO2 
 PCOD8177732
Probable space group: A M M 2
;
_chemical_formula_sum "Si O2"
_cell_formula_units_Z 64
_cell_length_a 9.445060
_cell_length_b 24.753206
_cell_length_c 15.116879
_cell_angle_alpha 90.000000
_cell_angle_beta 90.000000
_cell_angle_gamma 90.000000
_cell_volume 3534.258524
_symmetry_space_group_name_H-M "A M M 2"
_symmetry_group_IT_number 38
_symmetry_cell_setting 'orthorhombic'
loop_
_space_group_symop_operation_xyz
x,y,z
-x,-y,z
-x,y,z
x,-y,z
x,1/2+y,1/2+z
-x,1/2-y,1/2+z
-x,1/2+y,1/2+z
x,1/2-y,1/2+z
loop_
_atom_site_type_symbol
_atom_site_label
_atom_site_fract_x
_atom_site_fract_y
_atom_site_fract_z
Si Si1 0.338962 0.781363 0.454590
Si Si2 0.162671 0.562016 0.156341
Si Si3 0.163510 0.617088 0.975183
Si Si4 0.669126 0.856107 0.775459
Si Si5 0.339620 0.262953 0.751176
Si Si6 0.164981 0.437075 0.793226
Si Si7 0.666148 0.337057 0.469339
Si Si8 0.667683 0.632261 0.658667
O O1 0.500000 0.788770 0.487423
O O2 0.248023 0.828646 0.498607
O O3 0.327999 0.786099 0.349375
O O4 0.273463 0.723606 0.483997
O O5 0.202436 0.500000 0.172781
O O6 0.261595 0.597333 0.218548
O O7 0.000000 0.573772 0.180935
O O8 0.190639 0.574727 0.053584
O O9 0.217401 0.590620 0.883880
O O10 0.000000 0.632663 0.967074
O O11 0.500000 0.860076 0.767334
O O12 0.727285 0.797153 0.742951
O O13 0.719812 0.863904 0.877930
O O14 0.500000 0.255929 0.721020
O O15 0.271428 0.308819 0.688350
O O16 0.197188 0.500000 0.801445
O O17 0.252589 0.414835 0.710192
O O18 0.000000 0.425789 0.776431
O O19 0.500000 0.327743 0.457696
O O20 0.701897 0.374326 0.553967
O O21 0.500000 0.627665 0.677622
#
# Coordination Sequence:
#
# PCOD8177732 Si02
#       8
#     8   8   8   8   8   8   8   8
#     4   9  16  30  51  77 107 138 169 203 249 307
#     4  10  22  39  55  73 101 138 178 219 266 314
#     4  10  20  34  52  75 103 137 173 211 259 315
#     4   9  18  35  56  79 104 134 175 217 258 306
#     4   8  15  28  49  78 108 134 161 203 256 305
#     4  10  21  37  54  73 103 142 178 215 261 309
#     4   8  17  32  53  78 109 142 168 202 258 317
#     4  10  18  32  54  80 107 138 175 211 253 308
#
# _framework density 18.108467000000001
#
# number of rings (size 3 to 8) (size 9 to 14) (size 15 to 20)
#    0.000    2.750    1.250    1.875    1.750    2.500 
#    0.000    5.000    0.000    6.000    0.000    0.000 
#    0.000    0.000    0.000    0.000    0.000    0.000 
#
# Total GULP energy -396630.958311 kJ/mol
# GULP energy per Si atom -12394.717447 kJ/mol
# Density = 1.806725 g / cm^3
# Si number density = 18.108467 Si / 1000 Ang^3
#
#
#
# Elastic Constant Matrix: (Units=GPa)
#
#
# Indices 1 2 3 4 5 6 
#
# 1 43.1565 39.5261 33.0036 0.0000 0.0000 0.0000
# 2 39.5261 94.1545 40.6999 0.0000 0.0000 0.0000
# 3 33.0036 40.6999 84.8178 0.0000 0.0000 0.0000
# 4 0.0000 0.0000 0.0000 30.0835 0.0000 0.0000
# 5 0.0000 0.0000 0.0000 0.0000 24.1404 0.0000
# 6 0.0000 0.0000 0.0000 0.0000 0.0000 23.9222
#
#
#
# Elastic Compliance Matrix: (Units=1/GPa)
#
#
# Indices 1 2 3 4 5 6 
#
# 1 0.043871 -0.013927 -0.010388 0.000000 0.000000 0.000000
# 2 -0.013927 0.017821 -0.003133 0.000000 0.000000 0.000000
# 3 -0.010388 -0.003133 0.017335 0.000000 0.000000 0.000000
# 4 0.000000 0.000000 0.000000 0.033241 0.000000 0.000000
# 5 0.000000 0.000000 0.000000 0.000000 0.041424 0.000000
# 6 0.000000 0.000000 0.000000 0.000000 0.000000 0.041802
#
#
# Mechanical properties :
#
#
# Convention : Reuss Voigt Hill
#
# Bulk Modulus (GPa) = 41.43693 49.84309 45.64001
# Shear Modulus (GPa) = 19.34739 22.88918 21.11828
#
# Velocity S-wave (km/s) = 3.27221 3.55914 3.41869
# Velocity P-wave (km/s) = 6.09990 6.66892 6.39075
#
# Compressibility (1/GPa) = 0.02413306
#
# Stress axis : x y z
#
# Youngs Moduli (GPa) = 22.79431 56.11253 57.68608
#
# Poissons Ratio (x) = 0.78145 0.59924
# Poissons Ratio (y) = 0.31745 0.18071
# Poissons Ratio (z) = 0.23678 0.17578
#
# Static dielectric constant tensor:
#      x y z
#    x 3.011770 0.000000 0.000000 
#    y 0.000000 3.285940 0.000000 
#    z 0.000000 0.000000 3.417300 
# 
# 
# High freq. dielectric constant tensor:
#      x y z
#    x 1.662970 0.000000 0.000000 
#    y 0.000000 1.696510 0.000000 
#    z 0.000000 0.000000 1.707490 
# 
# From -- ./inp_files/13107.got.cif
#   From: 2010.03.12/outbox.cif.g09.slc.cpg/sg38_7_cif.got.tgz:13107.got - 2010.04.14 02:38:36.
