data_PCOD8177588
_publ_section_title
;
Structure prediction by ZEFSAII (Michael W. Deem and Ramdas Pophale) SiO2 
 PCOD8177588
Probable space group: A M M 2
;
_chemical_formula_sum "Si O2"
_cell_formula_units_Z 64
_cell_length_a 9.137993
_cell_length_b 25.127431
_cell_length_c 15.185776
_cell_angle_alpha 90.000000
_cell_angle_beta 90.000000
_cell_angle_gamma 90.000000
_cell_volume 3486.871153
_symmetry_space_group_name_H-M "A M M 2"
_symmetry_group_IT_number 38
_symmetry_cell_setting 'orthorhombic'
loop_
_space_group_symop_operation_xyz
x,y,z
-x,-y,z
-x,y,z
x,-y,z
x,1/2+y,1/2+z
-x,1/2-y,1/2+z
-x,1/2+y,1/2+z
x,1/2-y,1/2+z
loop_
_atom_site_type_symbol
_atom_site_label
_atom_site_fract_x
_atom_site_fract_y
_atom_site_fract_z
Si Si1 0.169111 0.240808 0.195840
Si Si2 0.326181 0.559409 0.647112
Si Si3 0.168431 0.718699 0.494218
Si Si4 0.331520 0.646497 0.782657
Si Si5 0.666748 0.176506 0.470688
Si Si6 0.327016 0.887587 0.966853
Si Si7 0.327944 0.347755 0.164808
Si Si8 0.326584 0.558707 0.287328
O O1 0.240153 0.198972 0.261717
O O2 0.248049 0.297240 0.207148
O O3 0.000000 0.248479 0.219700
O O4 0.191824 0.217993 0.098551
O O5 0.500000 0.556281 0.645190
O O6 0.260704 0.500000 0.658329
O O7 0.271437 0.595400 0.729168
O O8 0.268651 0.584498 0.555830
O O9 0.231862 0.772696 0.453696
O O10 0.253277 0.669340 0.452777
O O11 0.000000 0.714799 0.467211
O O12 0.500000 0.656886 0.756186
O O13 0.315178 0.636339 0.887818
O O14 0.500000 0.196945 0.477960
O O15 0.710336 0.146369 0.560988
O O16 0.500000 0.878905 0.970598
O O17 0.278774 0.923884 0.885025
O O18 0.500000 0.340279 0.181026
O O19 0.267496 0.400324 0.213681
O O20 0.500000 0.556577 0.281992
O O21 0.260887 0.500000 0.268483
#
# Coordination Sequence:
#
# PCOD8177588 Si02
#       8
#     8   8   8   8   8   8   8   8
#     4  10  20  33  50  74 104 135 167 206 256 308
#     4   9  17  30  50  75 102 132 168 211 255 300
#     4  10  20  33  49  73 105 137 168 205 252 303
#     4  10  19  32  51  75 103 135 172 210 250 300
#     4   9  19  33  50  72 102 138 173 207 251 305
#     4  10  18  30  51  76 102 135 170 206 249 304
#     4   9  18  34  53  73 101 135 172 213 254 297
#     4   9  18  32  52  78 103 130 171 216 255 300
#
# _framework density 18.354562999999999
#
# number of rings (size 3 to 8) (size 9 to 14) (size 15 to 20)
#    0.000    2.500    1.250    1.125    1.750    3.000 
#    0.000    0.625    0.000    7.500    0.000    0.000 
#    0.000    3.000    0.000    0.000    0.000    0.000 
#
# Total GULP energy -396773.105308 kJ/mol
# GULP energy per Si atom -12399.159541 kJ/mol
# Density = 1.831279 g / cm^3
# Si number density = 18.354563 Si / 1000 Ang^3
#
#
#
# Elastic Constant Matrix: (Units=GPa)
#
#
# Indices 1 2 3 4 5 6 
#
# 1 45.4262 35.6544 25.2267 0.0000 0.0000 0.0000
# 2 35.6544 149.4658 78.6957 0.0000 0.0000 0.0000
# 3 25.2267 78.6957 115.6917 0.0000 0.0000 0.0000
# 4 0.0000 0.0000 0.0000 29.2343 0.0000 0.0000
# 5 0.0000 0.0000 0.0000 0.0000 12.8410 0.0000
# 6 0.0000 0.0000 0.0000 0.0000 0.0000 0.7164
#
#
#
# Elastic Compliance Matrix: (Units=1/GPa)
#
#
# Indices 1 2 3 4 5 6 
#
# 1 0.027503 -0.005302 -0.002390 0.000000 0.000000 0.000000
# 2 -0.005302 0.011446 -0.006630 0.000000 0.000000 0.000000
# 3 -0.002390 -0.006630 0.013674 0.000000 0.000000 0.000000
# 4 0.000000 0.000000 0.000000 0.034206 0.000000 0.000000
# 5 0.000000 0.000000 0.000000 0.000000 0.077876 0.000000
# 6 0.000000 0.000000 0.000000 0.000000 0.000000 1.395835
#
#
# Mechanical properties :
#
#
# Convention : Reuss Voigt Hill
#
# Bulk Modulus (GPa) = 41.70328 65.52635 53.61482
# Shear Modulus (GPa) = 3.13052 19.95880 11.54466
#
# Velocity S-wave (km/s) = 1.30740 3.30116 2.51067
# Velocity P-wave (km/s) = 5.00493 7.09281 6.13829
#
# Compressibility (1/GPa) = 0.02397893
#
# Stress axis : x y z
#
# Youngs Moduli (GPa) = 36.36000 87.36813 73.12906
#
# Poissons Ratio (x) = 0.46323 0.17481
# Poissons Ratio (y) = 0.19278 0.48481
# Poissons Ratio (z) = 0.08692 0.57921
#
# Static dielectric constant tensor:
#      x y z
#    x 3.078000 0.000000 0.000000 
#    y 0.000000 3.459150 0.000000 
#    z 0.000000 0.000000 3.518280 
# 
# 
# High freq. dielectric constant tensor:
#      x y z
#    x 1.678270 0.000000 0.000000 
#    y 0.000000 1.701500 0.000000 
#    z 0.000000 0.000000 1.719120 
# 
# From -- ./inp_files/12753.got.cif
#   From: 2010.03.12/outbox.cif.g09.slc.cpg/sg38_7_cif.got.tgz:12753.got - 2010.04.14 02:38:36.
