data_PCOD8177325
_publ_section_title
;
Structure prediction by ZEFSAII (Michael W. Deem and Ramdas Pophale) SiO2 
 PCOD8177325
Probable space group: A M M 2
;
_chemical_formula_sum "Si O2"
_cell_formula_units_Z 44
_cell_length_a 11.328298
_cell_length_b 14.495662
_cell_length_c 14.846050
_cell_angle_alpha 90.000000
_cell_angle_beta 90.000000
_cell_angle_gamma 90.000000
_cell_volume 2437.887372
_symmetry_space_group_name_H-M "A M M 2"
_symmetry_group_IT_number 38
_symmetry_cell_setting 'orthorhombic'
loop_
_space_group_symop_operation_xyz
x,y,z
-x,-y,z
-x,y,z
x,-y,z
x,1/2+y,1/2+z
-x,1/2-y,1/2+z
-x,1/2+y,1/2+z
x,1/2-y,1/2+z
loop_
_atom_site_type_symbol
_atom_site_label
_atom_site_fract_x
_atom_site_fract_y
_atom_site_fract_z
Si Si1 0.130025 0.302269 0.328410
Si Si2 0.311474 0.755084 0.190277
Si Si3 0.500000 0.677624 0.951554
Si Si4 0.500000 0.393510 0.755880
Si Si5 0.634293 0.500000 0.459530
Si Si6 0.870904 0.500000 0.344792
Si Si7 0.500000 0.391811 0.151019
Si Si8 0.709285 0.806276 0.995654
O O1 0.209304 0.241333 0.263806
O O2 0.126547 0.406103 0.286671
O O3 0.177173 0.309536 0.431028
O O4 0.000000 0.257640 0.331630
O O5 0.387951 0.844624 0.211783
O O6 0.386503 0.659765 0.194020
O O7 0.253733 0.764196 0.091575
O O8 0.500000 0.612433 0.864555
O O9 0.614013 0.742389 0.946139
O O10 0.500000 0.617478 0.042747
O O11 0.500000 0.500000 0.727203
O O12 0.500000 0.500000 0.417524
O O13 0.743101 0.500000 0.391076
O O14 0.651064 0.406308 0.516309
O O15 0.000000 0.500000 0.400159
O O16 0.500000 0.500000 0.177901
#
# Coordination Sequence:
#
# PCOD8177325 Si02
#       8
#     8   8   4   4   4   4   4   8
#     4  10  20  37  57  77 108 144 187 229 273 331
#     4  10  22  35  54  85 111 141 184 228 268 340
#     4  10  17  35  54  78 112 142 183 220 265 338
#     4  11  22  35  57  83 115 150 181 219 274 335
#     4  10  18  28  54  82 111 150 176 229 286 327
#     4   8  18  34  52  80 111 144 178 221 284 345
#     4   9  20  35  53  81 113 142 173 221 284 333
#     4  10  20  34  52  81 114 140 184 226 278 333
#
# _framework density 18.048414000000001
#
# number of rings (size 3 to 8) (size 9 to 14) (size 15 to 20)
#    0.000    2.182    2.727    0.818    2.545    0.727 
#    1.636    0.000    0.000    0.545    0.000    0.000 
#    0.000    0.000    0.000    0.000    0.000    0.000 
#
# Total GULP energy -272537.534226 kJ/mol
# GULP energy per Si atom -12388.069738 kJ/mol
# Density = 1.800733 g / cm^3
# Si number density = 18.048414 Si / 1000 Ang^3
#
#
#
# Elastic Constant Matrix: (Units=GPa)
#
#
# Indices 1 2 3 4 5 6 
#
# 1 133.7797 38.3317 47.2786 0.0000 0.0000 0.0000
# 2 38.3317 111.0797 23.6679 0.0000 0.0000 0.0000
# 3 47.2786 23.6679 81.9563 0.0000 0.0000 0.0000
# 4 0.0000 0.0000 0.0000 18.5873 0.0000 0.0000
# 5 0.0000 0.0000 0.0000 0.0000 14.3592 0.0000
# 6 0.0000 0.0000 0.0000 0.0000 0.0000 7.3931
#
#
#
# Elastic Compliance Matrix: (Units=1/GPa)
#
#
# Indices 1 2 3 4 5 6 
#
# 1 0.009934 -0.002352 -0.005052 0.000000 0.000000 0.000000
# 2 -0.002352 0.010150 -0.001574 0.000000 0.000000 0.000000
# 3 -0.005052 -0.001574 0.015570 0.000000 0.000000 0.000000
# 4 0.000000 0.000000 0.000000 0.053800 0.000000 0.000000
# 5 0.000000 0.000000 0.000000 0.000000 0.069642 0.000000
# 6 0.000000 0.000000 0.000000 0.000000 0.000000 0.135262
#
#
# Mechanical properties :
#
#
# Convention : Reuss Voigt Hill
#
# Bulk Modulus (GPa) = 56.50154 60.59689 58.54922
# Shear Modulus (GPa) = 15.71275 22.57040 19.14157
#
# Velocity S-wave (km/s) = 2.95378 3.54014 3.26017
# Velocity P-wave (km/s) = 6.55794 7.09632 6.83243
#
# Compressibility (1/GPa) = 0.01769863
#
# Stress axis : x y z
#
# Youngs Moduli (GPa) = 100.66362 98.52652 64.22431
#
# Poissons Ratio (x) = 0.23171 0.32443
# Poissons Ratio (y) = 0.23673 0.10111
# Poissons Ratio (z) = 0.50851 0.15512
#
# Static dielectric constant tensor:
#      x y z
#    x 3.386610 0.000000 0.000000 
#    y 0.000000 3.414630 0.000000 
#    z 0.000000 0.000000 3.110240 
# 
# 
# High freq. dielectric constant tensor:
#      x y z
#    x 1.695580 0.000000 0.000000 
#    y 0.000000 1.696370 0.000000 
#    z 0.000000 0.000000 1.679690 
# 
# From -- ./inp_files/13682.got.cif
#   From: 2010.03.12/outbox.cif.g09.slc.cpg/sg38_7_cif.got.tgz:13682.got - 2010.04.14 02:38:36.
