data_PCOD8177903
_publ_section_title
;
Structure prediction by ZEFSAII (Michael W. Deem and Ramdas Pophale) SiO2 
 PCOD8177903
Probable space group: A M M 2
;
_chemical_formula_sum "Si O2"
_cell_formula_units_Z 64
_cell_length_a 15.227355
_cell_length_b 9.013745
_cell_length_c 30.454570
_cell_angle_alpha 90.000000
_cell_angle_beta 90.000000
_cell_angle_gamma 90.000000
_cell_volume 4180.057080
_symmetry_space_group_name_H-M "A M M 2"
_symmetry_group_IT_number 38
_symmetry_cell_setting 'orthorhombic'
loop_
_space_group_symop_operation_xyz
x,y,z
-x,-y,z
-x,y,z
x,-y,z
x,1/2+y,1/2+z
-x,1/2-y,1/2+z
-x,1/2+y,1/2+z
x,1/2-y,1/2+z
loop_
_atom_site_type_symbol
_atom_site_label
_atom_site_fract_x
_atom_site_fract_y
_atom_site_fract_z
Si Si1 0.232128 0.826247 0.388280
Si Si2 0.780550 0.178074 0.981022
Si Si3 0.104592 0.667206 0.638752
Si Si4 0.100361 0.827807 0.311298
Si Si5 0.104572 0.832931 0.724325
Si Si6 0.407528 0.165914 0.987251
Si Si7 0.895998 0.669825 0.051620
Si Si8 0.596253 0.666063 0.382963
O O1 0.206255 0.738651 0.432083
O O2 0.157330 0.785875 0.353425
O O3 0.325949 0.775737 0.367849
O O4 0.235840 0.000000 0.398769
O O5 0.686231 0.236468 0.001428
O O6 0.782880 0.000000 0.979426
O O7 0.857736 0.239709 0.010899
O O8 0.141023 0.500000 0.635628
O O9 0.142526 0.742684 0.682771
O O10 0.138629 0.759056 0.596851
O O11 0.000000 0.667502 0.639845
O O12 0.137973 0.739812 0.269408
O O13 0.000000 0.782747 0.321653
O O14 0.107663 0.000000 0.299494
O O15 0.000000 0.829098 0.722906
O O16 0.140407 0.000000 0.721582
O O17 0.500000 0.247355 0.002170
O O18 0.404775 0.161673 0.935098
O O19 0.411909 0.000000 0.006129
O O20 0.864636 0.500000 0.049789
O O21 0.000000 0.682336 0.048119
O O22 0.500000 0.721089 0.365951
O O23 0.614741 0.500000 0.365025
#
# Coordination Sequence:
#
# PCOD8177903 Si02
#       8
#     8   8   8   8   8   8   8   8
#     4  10  19  29  42  61  85 114 147 181 215 249
#     4  10  19  30  44  61  83 113 147 179 211 251
#     4   9  16  27  44  63  82 105 134 169 211 257
#     4   9  18  31  43  56  80 115 149 177 208 248
#     4   9  16  26  42  63  83 103 132 172 215 253
#     4   7  11  22  40  59  77  99 129 166 208 250
#     4  10  20  32  44  59  83 114 146 180 214 246
#     4   8  14  26  43  60  79 105 136 172 216 260
#
# _framework density 15.310795000000001
#
# number of rings (size 3 to 8) (size 9 to 14) (size 15 to 20)
#    0.000    3.000    0.000    3.375    0.000    5.500 
#    0.000    1.250    0.000    1.125    0.000    0.000 
#    0.000    1.000    0.000    5.250    0.000    4.250 
#
# Total GULP energy -396487.441231 kJ/mol
# GULP energy per Si atom -12390.232538 kJ/mol
# Density = 1.527595 g / cm^3
# Si number density = 15.310795 Si / 1000 Ang^3
#
#
#
# Elastic Constant Matrix: (Units=GPa)
#
#
# Indices 1 2 3 4 5 6 
#
# 1 56.1218 35.4167 39.3504 0.0000 0.0000 0.0000
# 2 35.4167 92.9735 53.6387 0.0000 0.0000 0.0000
# 3 39.3504 53.6387 89.0254 0.0000 0.0000 0.0000
# 4 0.0000 0.0000 0.0000 25.9084 0.0000 0.0000
# 5 0.0000 0.0000 0.0000 0.0000 0.6990 0.0000
# 6 0.0000 0.0000 0.0000 0.0000 0.0000 19.2146
#
#
#
# Elastic Compliance Matrix: (Units=1/GPa)
#
#
# Indices 1 2 3 4 5 6 
#
# 1 0.027421 -0.005293 -0.008931 0.000000 0.000000 0.000000
# 2 -0.005293 0.017508 -0.008209 0.000000 0.000000 0.000000
# 3 -0.008931 -0.008209 0.020127 0.000000 0.000000 0.000000
# 4 0.000000 0.000000 0.000000 0.038598 0.000000 0.000000
# 5 0.000000 0.000000 0.000000 0.000000 1.430540 0.000000
# 6 0.000000 0.000000 0.000000 0.000000 0.000000 0.052044
#
#
# Mechanical properties :
#
#
# Convention : Reuss Voigt Hill
#
# Bulk Modulus (GPa) = 49.53274 54.99248 52.26261
# Shear Modulus (GPa) = 3.05281 16.47874 9.76578
#
# Velocity S-wave (km/s) = 1.41359 3.28423 2.52828
# Velocity P-wave (km/s) = 5.92335 7.09768 6.53694
#
# Compressibility (1/GPa) = 0.02018867
#
# Stress axis : x y z
#
# Youngs Moduli (GPa) = 36.46857 57.11646 49.68506
#
# Poissons Ratio (x) = 0.30230 0.44376
# Poissons Ratio (y) = 0.19302 0.40788
# Poissons Ratio (z) = 0.32572 0.46889
#
# Static dielectric constant tensor:
#      x y z
#    x 3.174360 0.000000 0.000000 
#    y 0.000000 3.008010 0.000000 
#    z 0.000000 0.000000 2.749790 
# 
# 
# High freq. dielectric constant tensor:
#      x y z
#    x 1.562850 0.000000 0.000000 
#    y 0.000000 1.589230 0.000000 
#    z 0.000000 0.000000 1.558400 
# 
# From -- ./inp_files/25116.got.cif
#   From: 2010.03.12/outbox.cif.g09.slc.cpg/sg38_13_cif.got.tgz:25116.got - 2010.04.14 02:38:36.
