data_PCOD8177033
_publ_section_title
;
Structure prediction by ZEFSAII (Michael W. Deem and Ramdas Pophale) SiO2 
 PCOD8177033
Probable space group: C C C 2
;
_chemical_formula_sum "Si O2"
_cell_formula_units_Z 56
_cell_length_a 14.611959
_cell_length_b 10.948918
_cell_length_c 14.478023
_cell_angle_alpha 90.000000
_cell_angle_beta 90.000000
_cell_angle_gamma 90.000000
_cell_volume 2316.268550
_symmetry_space_group_name_H-M "C C C 2"
_symmetry_group_IT_number 37
_symmetry_cell_setting 'orthorhombic'
loop_
_space_group_symop_operation_xyz
x,y,z
-x,-y,z
-x,y,1/2+z
x,-y,1/2+z
1/2+x,1/2+y,z
1/2-x,1/2-y,z
1/2-x,1/2+y,1/2+z
1/2+x,1/2-y,1/2+z
loop_
_atom_site_type_symbol
_atom_site_label
_atom_site_fract_x
_atom_site_fract_y
_atom_site_fract_z
Si Si1 0.386124 0.325286 0.391380
Si Si2 0.904980 0.438550 0.574933
Si Si3 0.906113 0.042193 0.710563
Si Si4 0.981103 0.814146 0.043990
Si Si5 0.099296 0.542160 0.269802
Si Si6 0.851461 0.783999 0.673262
Si Si7 0.700681 0.931832 0.427393
O O1 0.377052 0.350113 0.280487
O O2 0.485786 0.353731 0.440120
O O3 0.361214 0.185295 0.406094
O O4 0.308407 0.409490 0.437358
O O5 0.910672 0.298385 0.542945
O O6 0.882383 0.453687 0.682638
O O7 0.822968 0.505823 0.523883
O O8 0.000000 0.500000 0.547829
O O9 0.927157 0.084329 0.604344
O O10 0.841510 0.922436 0.712205
O O11 0.000000 0.000000 0.756750
O O12 0.078573 0.777431 0.088596
O O13 0.105735 0.686591 0.245691
O O14 0.178235 0.524941 0.344852
O O15 0.000000 0.500000 0.309757
O O16 0.750000 0.750000 0.638603
#
# Coordination Sequence:
#
# PCOD8177033 Si02
#       7
#     8   8   8   8   8   8   8
#     4  11  24  43  67 101 142 176 226 282 344 409
#     4  11  20  39  64 105 134 173 235 277 334 408
#     4  10  25  45  66  97 135 185 232 275 346 411
#     4  11  23  42  70  98 137 184 227 284 337 411
#     4  11  22  39  68 101 137 176 227 288 335 395
#     4  11  23  41  69  97 134 185 234 277 343 413
#     4  11  24  39  69 109 136 177 227 285 346 399
#
# _framework density 24.176818000000001
#
# number of rings (size 3 to 8) (size 9 to 14) (size 15 to 20)
#    0.000    1.143    4.286    2.143    6.000    1.714 
#    0.000    0.000    0.000    0.000    7.429    0.000 
#    0.000    0.000    0.000    0.000    0.000    0.000 
#
# Total GULP energy -346995.174461 kJ/mol
# GULP energy per Si atom -12392.684802 kJ/mol
# Density = 2.412179 g / cm^3
# Si number density = 24.176818 Si / 1000 Ang^3
#
#
#
# Elastic Constant Matrix: (Units=GPa)
#
#
# Indices 1 2 3 4 5 6 
#
# 1 55.1175 18.5840 1.7333 0.0000 0.0000 0.0000
# 2 18.5840 116.1534 17.6572 0.0000 0.0000 0.0000
# 3 1.7333 17.6572 74.9560 0.0000 0.0000 0.0000
# 4 0.0000 0.0000 0.0000 33.9003 0.0000 0.0000
# 5 0.0000 0.0000 0.0000 0.0000 24.2847 0.0000
# 6 0.0000 0.0000 0.0000 0.0000 0.0000 33.7787
#
#
#
# Elastic Compliance Matrix: (Units=1/GPa)
#
#
# Indices 1 2 3 4 5 6 
#
# 1 0.019184 -0.003113 0.000290 0.000000 0.000000 0.000000
# 2 -0.003113 0.009434 -0.002150 0.000000 0.000000 0.000000
# 3 0.000290 -0.002150 0.013841 0.000000 0.000000 0.000000
# 4 0.000000 0.000000 0.000000 0.029498 0.000000 0.000000
# 5 0.000000 0.000000 0.000000 0.000000 0.041178 0.000000
# 6 0.000000 0.000000 0.000000 0.000000 0.000000 0.029604
#
#
# Mechanical properties :
#
#
# Convention : Reuss Voigt Hill
#
# Bulk Modulus (GPa) = 30.75874 35.79731 33.27803
# Shear Modulus (GPa) = 30.57637 32.27623 31.42630
#
# Velocity S-wave (km/s) = 3.56012 3.65774 3.60926
# Velocity P-wave (km/s) = 5.44512 5.71641 5.58241
#
# Compressibility (1/GPa) = 0.03251108
#
# Stress axis : x y z
#
# Youngs Moduli (GPa) = 52.12769 105.99593 72.24894
#
# Poissons Ratio (x) = 0.33000 -0.02094
# Poissons Ratio (y) = 0.16229 0.15537
# Poissons Ratio (z) = -0.01511 0.22794
#
# Static dielectric constant tensor:
#      x y z
#    x 4.218300 0.000000 0.000000 
#    y 0.000000 4.713160 0.000000 
#    z 0.000000 0.000000 4.192020 
# 
# 
# High freq. dielectric constant tensor:
#      x y z
#    x 1.940840 0.000000 0.000000 
#    y 0.000000 1.964110 0.000000 
#    z 0.000000 0.000000 1.952720 
# 
# From -- ./inp_files/12153.got.cif
#   From: 2010.03.12/outbox.cif.g09.slc.cpg/sg37_7_cif.got.tgz:12153.got - 2010.04.14 02:25:27.
