data_PCOD8177306
_publ_section_title
;
Structure prediction by ZEFSAII (Michael W. Deem and Ramdas Pophale) SiO2 
 PCOD8177306
Probable space group: A M M 2
;
_chemical_formula_sum "Si O2"
_cell_formula_units_Z 64
_cell_length_a 8.980428
_cell_length_b 20.956021
_cell_length_c 19.801436
_cell_angle_alpha 90.000000
_cell_angle_beta 90.000000
_cell_angle_gamma 90.000000
_cell_volume 3726.512194
_symmetry_space_group_name_H-M "A M M 2"
_symmetry_group_IT_number 38
_symmetry_cell_setting 'orthorhombic'
loop_
_space_group_symop_operation_xyz
x,y,z
-x,-y,z
-x,y,z
x,-y,z
x,1/2+y,1/2+z
-x,1/2-y,1/2+z
-x,1/2+y,1/2+z
x,1/2-y,1/2+z
loop_
_atom_site_type_symbol
_atom_site_label
_atom_site_fract_x
_atom_site_fract_y
_atom_site_fract_z
Si Si1 0.176344 0.692721 0.704960
Si Si2 0.174965 0.236379 0.347626
Si Si3 0.176525 0.620859 0.343155
Si Si4 0.175679 0.728026 0.995448
Si Si5 0.824079 0.374301 0.491329
Si Si6 0.672727 0.071044 0.715332
Si Si7 0.323310 0.310059 0.127261
Si Si8 0.822631 0.430261 0.627591
O O1 0.219060 0.692065 0.784415
O O2 0.255302 0.749989 0.666256
O O3 0.235262 0.624823 0.677636
O O4 0.000000 0.701398 0.693930
O O5 0.237516 0.307079 0.332811
O O6 0.229247 0.207305 0.419556
O O7 0.000000 0.244772 0.355280
O O8 0.229768 0.599525 0.418440
O O9 0.247674 0.575589 0.287531
O O10 0.000000 0.616518 0.335453
O O11 0.263451 0.686544 0.050630
O O12 0.000000 0.717720 0.006292
O O13 0.223678 0.801495 0.004695
O O14 0.759938 0.417311 0.552053
O O15 0.000000 0.376511 0.491602
O O16 0.500000 0.081959 0.728686
O O17 0.731125 0.124533 0.663111
O O18 0.704290 0.000000 0.685925
O O19 0.500000 0.303874 0.126712
O O20 0.764595 0.500000 0.651276
O O21 0.000000 0.429219 0.626761
#
# Coordination Sequence:
#
# PCOD8177306 Si02
#       8
#     8   8   8   8   8   8   8   8
#     4  10  17  30  52  72  94 126 159 194 236 279
#     4   8  15  27  48  75  97 119 153 194 238 283
#     4   9  16  28  48  72  94 120 160 199 230 275
#     4   9  16  30  50  71  95 124 155 194 242 286
#     4   8  14  25  43  70  99 125 154 190 228 270
#     4  10  22  37  48  63  95 133 162 196 246 295
#     4  11  21  32  49  73  95 121 162 204 240 282
#     4   9  16  25  42  70  98 124 155 186 221 272
#
# _framework density 17.174236000000001
#
# number of rings (size 3 to 8) (size 9 to 14) (size 15 to 20)
#    0.000    2.750    2.500    1.875    0.000    1.250 
#    0.000    4.375    0.000    1.125    0.000    1.750 
#    0.000    0.000    0.000    0.000    0.000    0.000 
#
# Total GULP energy -396531.653614 kJ/mol
# GULP energy per Si atom -12391.614175 kJ/mol
# Density = 1.713515 g / cm^3
# Si number density = 17.174236 Si / 1000 Ang^3
#
#
#
# Elastic Constant Matrix: (Units=GPa)
#
#
# Indices 1 2 3 4 5 6 
#
# 1 25.8670 24.0053 27.3964 0.0000 0.0000 0.0000
# 2 24.0053 119.3430 74.4658 0.0000 0.0000 0.0000
# 3 27.3964 74.4658 139.6942 0.0000 0.0000 0.0000
# 4 0.0000 0.0000 0.0000 25.6639 0.0000 0.0000
# 5 0.0000 0.0000 0.0000 0.0000 9.5508 0.0000
# 6 0.0000 0.0000 0.0000 0.0000 0.0000 15.4351
#
#
#
# Elastic Compliance Matrix: (Units=1/GPa)
#
#
# Indices 1 2 3 4 5 6 
#
# 1 0.051588 -0.006089 -0.006871 0.000000 0.000000 0.000000
# 2 -0.006089 0.013274 -0.005882 0.000000 0.000000 0.000000
# 3 -0.006871 -0.005882 0.011641 0.000000 0.000000 0.000000
# 4 0.000000 0.000000 0.000000 0.038965 0.000000 0.000000
# 5 0.000000 0.000000 0.000000 0.000000 0.104703 0.000000
# 6 0.000000 0.000000 0.000000 0.000000 0.000000 0.064788
#
#
# Mechanical properties :
#
#
# Convention : Reuss Voigt Hill
#
# Bulk Modulus (GPa) = 25.76069 59.62658 42.69363
# Shear Modulus (GPa) = 14.89943 20.73239 17.81591
#
# Velocity S-wave (km/s) = 2.94861 3.47822 3.22431
# Velocity P-wave (km/s) = 5.15990 7.13615 6.22693
#
# Compressibility (1/GPa) = 0.03881884
#
# Stress axis : x y z
#
# Youngs Moduli (GPa) = 19.38440 75.33535 85.90052
#
# Poissons Ratio (x) = 0.45873 0.59025
# Poissons Ratio (y) = 0.11804 0.50524
# Poissons Ratio (z) = 0.13320 0.44310
#
# Static dielectric constant tensor:
#      x y z
#    x 2.794820 0.000000 0.000000 
#    y 0.000000 3.225990 0.000000 
#    z 0.000000 0.000000 3.637000 
# 
# 
# High freq. dielectric constant tensor:
#      x y z
#    x 1.619420 0.000000 0.000000 
#    y 0.000000 1.640500 0.000000 
#    z 0.000000 0.000000 1.674130 
# 
# From -- ./inp_files/20226.got.cif
#   From: 2010.03.12/outbox.cif.g09.slc.cpg/sg38_11_cif.got.tgz:20226.got - 2010.04.14 02:38:36.
