data_PCOD8177370
_publ_section_title
;
Structure prediction by ZEFSAII (Michael W. Deem and Ramdas Pophale) SiO2 
 PCOD8177370
Probable space group: A M M 2
;
_chemical_formula_sum "Si O2"
_cell_formula_units_Z 56
_cell_length_a 8.861334
_cell_length_b 21.757201
_cell_length_c 17.609460
_cell_angle_alpha 90.000000
_cell_angle_beta 90.000000
_cell_angle_gamma 90.000000
_cell_volume 3395.065587
_symmetry_space_group_name_H-M "A M M 2"
_symmetry_group_IT_number 38
_symmetry_cell_setting 'orthorhombic'
loop_
_space_group_symop_operation_xyz
x,y,z
-x,-y,z
-x,y,z
x,-y,z
x,1/2+y,1/2+z
-x,1/2-y,1/2+z
-x,1/2+y,1/2+z
x,1/2-y,1/2+z
loop_
_atom_site_type_symbol
_atom_site_label
_atom_site_fract_x
_atom_site_fract_y
_atom_site_fract_z
Si Si1 0.669485 0.823823 0.525940
Si Si2 0.667193 0.181606 0.984041
Si Si3 0.674252 0.928473 0.252131
Si Si4 0.827489 0.849650 0.127586
Si Si5 0.178560 0.349815 0.875438
Si Si6 0.322014 0.276228 0.325676
Si Si7 0.174371 0.709063 0.172766
O O1 0.500000 0.849702 0.534702
O O2 0.666506 0.753125 0.503444
O O3 0.754351 0.860768 0.459385
O O4 0.757904 0.832243 0.605024
O O5 0.500000 0.153987 0.996342
O O6 0.715755 0.177355 0.895514
O O7 0.782146 0.145427 0.038596
O O8 0.500000 0.913408 0.268639
O O9 0.722810 0.894720 0.175164
O O10 0.773590 0.906896 0.323390
O O11 0.702924 0.000000 0.239721
O O12 0.801044 0.780788 0.156315
O O13 0.000000 0.870072 0.136660
O O14 0.237965 0.288307 0.835545
O O15 0.000000 0.345623 0.881263
O O16 0.500000 0.263013 0.321436
O O17 0.263145 0.308552 0.249364
O O18 0.000000 0.692369 0.182246
#
# Coordination Sequence:
#
# PCOD8177370 Si02
#       7
#     8   8   8   8   8   8   8
#     4   9  17  29  44  62  86 119 153 184 221 271
#     4   8  16  28  42  61  85 117 152 183 218 266
#     4  11  23  36  50  66  86 118 159 197 232 275
#     4  10  19  30  45  64  87 117 149 188 234 270
#     4  11  20  31  46  64  88 117 150 192 235 272
#     4  10  18  28  44  65  91 123 155 184 221 271
#     4  10  18  27  42  67  94 121 152 186 226 269
#
# _framework density 16.494527000000001
#
# number of rings (size 3 to 8) (size 9 to 14) (size 15 to 20)
#    0.000    2.143    1.429    4.286    0.000    6.286 
#    0.000    0.000    0.000    0.000    0.000    0.000 
#    0.000    1.143    0.000   10.000    0.000    5.571 
#
# Total GULP energy -347191.826180 kJ/mol
# GULP energy per Si atom -12399.708078 kJ/mol
# Density = 1.645698 g / cm^3
# Si number density = 16.494527 Si / 1000 Ang^3
#
#
#
# Elastic Constant Matrix: (Units=GPa)
#
#
# Indices 1 2 3 4 5 6 
#
# 1 114.4737 23.9230 55.5630 0.0000 0.0000 0.0000
# 2 23.9230 28.1351 22.4871 0.0000 0.0000 0.0000
# 3 55.5630 22.4871 142.0363 0.0000 0.0000 0.0000
# 4 0.0000 0.0000 0.0000 12.3088 0.0000 0.0000
# 5 0.0000 0.0000 0.0000 0.0000 33.0984 0.0000
# 6 0.0000 0.0000 0.0000 0.0000 0.0000 13.2146
#
#
#
# Elastic Compliance Matrix: (Units=1/GPa)
#
#
# Indices 1 2 3 4 5 6 
#
# 1 0.011986 -0.007378 -0.003521 0.000000 0.000000 0.000000
# 2 -0.007378 0.045233 -0.004275 0.000000 0.000000 0.000000
# 3 -0.003521 -0.004275 0.009095 0.000000 0.000000 0.000000
# 4 0.000000 0.000000 0.000000 0.081243 0.000000 0.000000
# 5 0.000000 0.000000 0.000000 0.000000 0.030213 0.000000
# 6 0.000000 0.000000 0.000000 0.000000 0.000000 0.075674
#
#
# Mechanical properties :
#
#
# Convention : Reuss Voigt Hill
#
# Bulk Modulus (GPa) = 27.80378 54.28792 41.04585
# Shear Modulus (GPa) = 16.90442 23.90248 20.40345
#
# Velocity S-wave (km/s) = 3.20480 3.81086 3.52089
# Velocity P-wave (km/s) = 5.53058 7.23517 6.43952
#
# Compressibility (1/GPa) = 0.03596633
#
# Stress axis : x y z
#
# Youngs Moduli (GPa) = 83.42759 22.10772 109.95500
#
# Poissons Ratio (x) = 0.16311 0.38714
# Poissons Ratio (y) = 0.61552 0.47007
# Poissons Ratio (z) = 0.29374 0.09451
#
# Static dielectric constant tensor:
#      x y z
#    x 3.259100 0.000000 0.000000 
#    y 0.000000 2.511990 0.000000 
#    z 0.000000 0.000000 3.475790 
# 
# 
# High freq. dielectric constant tensor:
#      x y z
#    x 1.653310 0.000000 0.000000 
#    y 0.000000 1.554360 0.000000 
#    z 0.000000 0.000000 1.653130 
# 
# From -- ./inp_files/12429.got.cif
#   From: 2010.03.12/outbox.cif.g09.slc.cpg/sg38_7_cif.got.tgz:12429.got - 2010.04.14 02:38:36.
