data_PCOD8177987
_publ_section_title
;
Structure prediction by ZEFSAII (Michael W. Deem and Ramdas Pophale) SiO2 
 PCOD8177987
Probable space group: A M M 2
;
_chemical_formula_sum "Si O2"
_cell_formula_units_Z 48
_cell_length_a 8.999078
_cell_length_b 23.907469
_cell_length_c 13.531014
_cell_angle_alpha 90.000000
_cell_angle_beta 90.000000
_cell_angle_gamma 90.000000
_cell_volume 2911.132420
_symmetry_space_group_name_H-M "A M M 2"
_symmetry_group_IT_number 38
_symmetry_cell_setting 'orthorhombic'
loop_
_space_group_symop_operation_xyz
x,y,z
-x,-y,z
-x,y,z
x,-y,z
x,1/2+y,1/2+z
-x,1/2-y,1/2+z
-x,1/2+y,1/2+z
x,1/2-y,1/2+z
loop_
_atom_site_type_symbol
_atom_site_label
_atom_site_fract_x
_atom_site_fract_y
_atom_site_fract_z
Si Si1 0.173483 0.732835 0.047170
Si Si2 0.175943 0.439313 0.340904
Si Si3 0.673476 0.227909 0.348620
Si Si4 0.173399 0.172559 0.745652
Si Si5 0.673791 0.666294 0.650423
Si Si6 0.172542 0.564114 0.564065
O O1 0.206396 0.687256 0.132082
O O2 0.244252 0.792402 0.074564
O O3 0.000000 0.742438 0.030777
O O4 0.245518 0.707909 0.948132
O O5 0.240061 0.500000 0.306554
O O6 0.227779 0.390965 0.265550
O O7 0.229405 0.425981 0.452130
O O8 0.000000 0.443304 0.343303
O O9 0.500000 0.232759 0.369310
O O10 0.733852 0.288483 0.318485
O O11 0.710125 0.183302 0.263070
O O12 0.000000 0.180499 0.771084
O O13 0.500000 0.670113 0.628349
O O14 0.732089 0.603507 0.635899
O O15 0.200094 0.500000 0.595829
O O16 0.000000 0.579873 0.574829
#
# Coordination Sequence:
#
# PCOD8177987 Si02
#       6
#     8   8   8   8   8   8
#     4  10  19  30  46  68  93 121 153 190 231 276
#     4   8  14  26  45  68  92 116 143 178 221 268
#     4  10  20  32  46  66  92 122 154 189 230 274
#     4   9  17  29  47  70  92 118 151 185 225 272
#     4  10  20  32  47  68  93 122 155 191 232 278
#     4   9  17  29  47  71  96 122 152 187 229 277
#
# _framework density 16.488427999999999
#
# number of rings (size 3 to 8) (size 9 to 14) (size 15 to 20)
#    0.000    2.667    0.000    3.500    0.000    4.333 
#    0.000    0.000    0.000    2.500    0.000    2.333 
#    0.000    0.000    0.000    0.000    0.000    0.000 
#
# Total GULP energy -297580.555181 kJ/mol
# GULP energy per Si atom -12399.189799 kJ/mol
# Density = 1.645090 g / cm^3
# Si number density = 16.488428 Si / 1000 Ang^3
#
#
#
# Elastic Constant Matrix: (Units=GPa)
#
#
# Indices 1 2 3 4 5 6 
#
# 1 66.7971 41.6170 46.5353 0.0000 0.0000 0.0000
# 2 41.6170 124.6705 61.2848 0.0000 0.0000 0.0000
# 3 46.5353 61.2848 103.2538 0.0000 0.0000 0.0000
# 4 0.0000 0.0000 0.0000 22.2753 0.0000 0.0000
# 5 0.0000 0.0000 0.0000 0.0000 26.6154 0.0000
# 6 0.0000 0.0000 0.0000 0.0000 0.0000 16.5187
#
#
#
# Elastic Compliance Matrix: (Units=1/GPa)
#
#
# Indices 1 2 3 4 5 6 
#
# 1 0.022933 -0.003635 -0.008178 0.000000 0.000000 0.000000
# 2 -0.003635 0.011902 -0.005426 0.000000 0.000000 0.000000
# 3 -0.008178 -0.005426 0.016591 0.000000 0.000000 0.000000
# 4 0.000000 0.000000 0.000000 0.044893 0.000000 0.000000
# 5 0.000000 0.000000 0.000000 0.000000 0.037572 0.000000
# 6 0.000000 0.000000 0.000000 0.000000 0.000000 0.060537
#
#
# Mechanical properties :
#
#
# Convention : Reuss Voigt Hill
#
# Bulk Modulus (GPa) = 59.00501 65.95506 62.48003
# Shear Modulus (GPa) = 21.31694 22.76752 22.04223
#
# Velocity S-wave (km/s) = 3.59951 3.71997 3.66024
# Velocity P-wave (km/s) = 7.28963 7.65105 7.47252
#
# Compressibility (1/GPa) = 0.01694771
#
# Stress axis : x y z
#
# Youngs Moduli (GPa) = 43.60540 84.02068 60.27383
#
# Poissons Ratio (x) = 0.30544 0.49291
# Poissons Ratio (y) = 0.15852 0.32703
# Poissons Ratio (z) = 0.35660 0.45588
#
# Static dielectric constant tensor:
#      x y z
#    x 3.006400 0.000000 0.000000 
#    y 0.000000 3.233720 0.000000 
#    z 0.000000 0.000000 3.091040 
# 
# 
# High freq. dielectric constant tensor:
#      x y z
#    x 1.627670 0.000000 0.000000 
#    y 0.000000 1.626750 0.000000 
#    z 0.000000 0.000000 1.624390 
# 
# From -- ./inp_files/8125.got.cif
#   From: 2010.03.12/outbox.cif.g09.slc.cpg/sg38_5_cif.got.tgz:8125.got - 2010.04.14 02:38:36.
