data_PCOD8177291
_publ_section_title
;
Structure prediction by ZEFSAII (Michael W. Deem and Ramdas Pophale) SiO2 
 PCOD8177291
Probable space group: A M M 2
;
_chemical_formula_sum "Si O2"
_cell_formula_units_Z 64
_cell_length_a 15.301987
_cell_length_b 23.379422
_cell_length_c 11.632075
_cell_angle_alpha 90.000000
_cell_angle_beta 90.000000
_cell_angle_gamma 90.000000
_cell_volume 4161.393576
_symmetry_space_group_name_H-M "A M M 2"
_symmetry_group_IT_number 38
_symmetry_cell_setting 'orthorhombic'
loop_
_space_group_symop_operation_xyz
x,y,z
-x,-y,z
-x,y,z
x,-y,z
x,1/2+y,1/2+z
-x,1/2-y,1/2+z
-x,1/2+y,1/2+z
x,1/2-y,1/2+z
loop_
_atom_site_type_symbol
_atom_site_label
_atom_site_fract_x
_atom_site_fract_y
_atom_site_fract_z
Si Si1 0.099530 0.840591 0.562630
Si Si2 0.899793 0.934661 0.110402
Si Si3 0.099799 0.154036 0.301407
Si Si4 0.402607 0.563888 0.212004
Si Si5 0.596381 0.064107 0.985143
Si Si6 0.804925 0.261988 0.638573
Si Si7 0.747226 0.147455 0.713613
Si Si8 0.758605 0.635898 0.484907
O O1 0.125947 0.856970 0.432867
O O2 0.113653 0.772116 0.580530
O O3 0.164151 0.874666 0.649672
O O4 0.000000 0.857469 0.590374
O O5 0.842601 0.901999 0.016004
O O6 0.000000 0.930192 0.069457
O O7 0.868999 0.000000 0.120691
O O8 0.887288 0.905627 0.234739
O O9 0.161716 0.202276 0.247529
O O10 0.000000 0.175732 0.293485
O O11 0.500000 0.580069 0.168143
O O12 0.377540 0.500000 0.168426
O O13 0.400779 0.564233 0.348525
O O14 0.333846 0.610506 0.165046
O O15 0.500000 0.084537 0.026846
O O16 0.614651 0.000000 0.030698
O O17 0.670673 0.106086 0.033582
O O18 0.733743 0.214838 0.682171
O O19 0.761723 0.301985 0.542566
O O20 0.758400 0.141113 0.848827
#
# Coordination Sequence:
#
# PCOD8177291 Si02
#       8
#     8   8   8   8   8   8   8   8
#     4   9  18  29  43  62  89 121 151 183 219 261
#     4   9  18  30  45  65  87 115 152 189 224 263
#     4   9  16  29  45  61  84 120 159 188 212 255
#     4   8  14  28  48  66  86 113 146 182 221 269
#     4   8  14  25  44  68  90 114 143 177 222 276
#     4   9  18  28  42  65  89 120 149 187 214 263
#     4   9  19  28  44  70  92 117 145 189 225 270
#     4  10  17  29  45  66  93 118 147 186 232 265
#
# _framework density 15.379462
#
# number of rings (size 3 to 8) (size 9 to 14) (size 15 to 20)
#    0.750    2.375    0.000    2.250    0.000    1.500 
#    0.000    1.250    0.000    1.125    0.000    3.500 
#    0.000    8.000    0.000    0.000    0.000    0.000 
#
# Total GULP energy -396519.204511 kJ/mol
# GULP energy per Si atom -12391.225141 kJ/mol
# Density = 1.534446 g / cm^3
# Si number density = 15.379462 Si / 1000 Ang^3
#
#
#
# Elastic Constant Matrix: (Units=GPa)
#
#
# Indices 1 2 3 4 5 6 
#
# 1 103.5919 58.2266 41.1199 0.0000 0.0000 0.0000
# 2 58.2266 100.2734 32.6913 0.0000 0.0000 0.0000
# 3 41.1199 32.6913 66.6596 0.0000 0.0000 0.0000
# 4 0.0000 0.0000 0.0000 11.5981 0.0000 0.0000
# 5 0.0000 0.0000 0.0000 0.0000 12.7667 0.0000
# 6 0.0000 0.0000 0.0000 0.0000 0.0000 32.0473
#
#
#
# Elastic Compliance Matrix: (Units=1/GPa)
#
#
# Indices 1 2 3 4 5 6 
#
# 1 0.016385 -0.007403 -0.006477 0.000000 0.000000 0.000000
# 2 -0.007403 0.015215 -0.002895 0.000000 0.000000 0.000000
# 3 -0.006477 -0.002895 0.020417 0.000000 0.000000 0.000000
# 4 0.000000 0.000000 0.000000 0.086221 0.000000 0.000000
# 5 0.000000 0.000000 0.000000 0.000000 0.078329 0.000000
# 6 0.000000 0.000000 0.000000 0.000000 0.000000 0.031204
#
#
# Mechanical properties :
#
#
# Convention : Reuss Voigt Hill
#
# Bulk Modulus (GPa) = 54.15018 59.40004 56.77511
# Shear Modulus (GPa) = 17.39267 20.51489 18.95378
#
# Velocity S-wave (km/s) = 3.36654 3.65624 3.51438
# Velocity P-wave (km/s) = 7.09910 7.51871 7.31192
#
# Compressibility (1/GPa) = 0.01846716
#
# Stress axis : x y z
#
# Youngs Moduli (GPa) = 61.03060 65.72285 48.97902
#
# Poissons Ratio (x) = 0.48654 0.31723
# Poissons Ratio (y) = 0.45181 0.14181
# Poissons Ratio (z) = 0.39529 0.19029
#
# Static dielectric constant tensor:
#      x y z
#    x 3.040240 0.000000 0.000000 
#    y 0.000000 3.010170 0.000000 
#    z 0.000000 0.000000 2.692160 
# 
# 
# High freq. dielectric constant tensor:
#      x y z
#    x 1.582240 0.000000 0.000000 
#    y 0.000000 1.584860 0.000000 
#    z 0.000000 0.000000 1.564850 
# 
# From -- ./inp_files/6547.got.cif
#   From: 2010.03.12/outbox.cif.g09.slc.cpg/sg38_4_cif.got.tgz:6547.got - 2010.04.14 02:38:36.
