data_PCOD8177183
_publ_section_title
;
Structure prediction by ZEFSAII (Michael W. Deem and Ramdas Pophale) SiO2 
 PCOD8177183
Probable space group: C C C 2
;
_chemical_formula_sum "Si O2"
_cell_formula_units_Z 20
_cell_length_a 11.445858
_cell_length_b 7.045580
_cell_length_c 9.617529
_cell_angle_alpha 90.000000
_cell_angle_beta 90.000000
_cell_angle_gamma 90.000000
_cell_volume 775.583585
_symmetry_space_group_name_H-M "C C C 2"
_symmetry_group_IT_number 37
_symmetry_cell_setting 'orthorhombic'
loop_
_space_group_symop_operation_xyz
x,y,z
-x,-y,z
-x,y,1/2+z
x,-y,1/2+z
1/2+x,1/2+y,z
1/2-x,1/2-y,z
1/2-x,1/2+y,1/2+z
1/2+x,1/2-y,1/2+z
loop_
_atom_site_type_symbol
_atom_site_label
_atom_site_fract_x
_atom_site_fract_y
_atom_site_fract_z
Si Si1 0.135865 0.628392 0.529210
Si Si2 0.250000 0.250000 0.457574
Si Si3 0.971064 0.790287 0.290843
O O1 0.250000 0.750000 0.541044
O O2 0.181772 0.412242 0.543439
O O3 0.047565 0.660617 0.655950
O O4 0.065257 0.678359 0.387320
O O5 0.150092 0.156943 0.365047
O O6 0.000000 0.000000 0.236576
#
# Coordination Sequence:
#
# PCOD8177183 Si02
#       3
#     8   4   8
#     4  12  28  56  84 126 170 224 282 354 422 508
#     4  12  28  52  82 124 170 224 280 348 422 502
#     4  12  27  55  86 120 174 225 283 352 422 502
#
# _framework density 25.787033999999998
#
# number of rings (size 3 to 8) (size 9 to 14) (size 15 to 20)
#    0.000    0.000    6.000    2.400    0.000    6.400 
#    7.200    0.000    0.000    2.400    0.000    0.000 
#    0.000    0.000    0.000    0.000    0.000    0.000 
#
# Total GULP energy -123910.808152 kJ/mol
# GULP energy per Si atom -12391.080815 kJ/mol
# Density = 2.572834 g / cm^3
# Si number density = 25.787034 Si / 1000 Ang^3
#
#
#
# Elastic Constant Matrix: (Units=GPa)
#
#
# Indices 1 2 3 4 5 6 
#
# 1 129.1166 66.6159 44.1032 0.0000 0.0000 0.0000
# 2 66.6159 230.7618 85.3119 0.0000 0.0000 0.0000
# 3 44.1032 85.3119 168.7733 0.0000 0.0000 0.0000
# 4 0.0000 0.0000 0.0000 97.6951 0.0000 0.0000
# 5 0.0000 0.0000 0.0000 0.0000 85.8234 0.0000
# 6 0.0000 0.0000 0.0000 0.0000 0.0000 63.9955
#
#
#
# Elastic Compliance Matrix: (Units=1/GPa)
#
#
# Indices 1 2 3 4 5 6 
#
# 1 0.009335 -0.002205 -0.001325 0.000000 0.000000 0.000000
# 2 -0.002205 0.005850 -0.002381 0.000000 0.000000 0.000000
# 3 -0.001325 -0.002381 0.007475 0.000000 0.000000 0.000000
# 4 0.000000 0.000000 0.000000 0.010236 0.000000 0.000000
# 5 0.000000 0.000000 0.000000 0.000000 0.011652 0.000000
# 6 0.000000 0.000000 0.000000 0.000000 0.000000 0.015626
#
#
# Mechanical properties :
#
#
# Convention : Reuss Voigt Hill
#
# Bulk Modulus (GPa) = 92.26338 102.30152 97.28245
# Shear Modulus (GPa) = 66.12997 71.67751 68.90374
#
# Velocity S-wave (km/s) = 5.06955 5.27791 5.17478
# Velocity P-wave (km/s) = 8.37399 8.76924 8.57389
#
# Compressibility (1/GPa) = 0.01083854
#
# Stress axis : x y z
#
# Youngs Moduli (GPa) = 107.12214 170.93220 133.78205
#
# Poissons Ratio (x) = 0.37692 0.17723
# Poissons Ratio (y) = 0.23621 0.31853
# Poissons Ratio (z) = 0.14191 0.40699
#
# Static dielectric constant tensor:
#      x y z
#    x 5.272100 0.000000 0.000000 
#    y 0.000000 4.508900 0.000000 
#    z 0.000000 0.000000 4.675430 
# 
# 
# High freq. dielectric constant tensor:
#      x y z
#    x 2.068870 0.000000 0.000000 
#    y 0.000000 2.055530 0.000000 
#    z 0.000000 0.000000 2.016090 
# 
# From -- ./inp_files/1823.got.cif
#   From: 2010.03.12/outbox.cif.g09.slc.cpg/sg37_1_cif.got.tgz:1823.got - 2010.04.14 02:25:27.
