data_PCOD8177342
_publ_section_title
;
Structure prediction by ZEFSAII (Michael W. Deem and Ramdas Pophale) SiO2 
 PCOD8177342
Probable space group: A M M 2
;
_chemical_formula_sum "Si O2"
_cell_formula_units_Z 48
_cell_length_a 8.986892
_cell_length_b 24.526030
_cell_length_c 13.963808
_cell_angle_alpha 90.000000
_cell_angle_beta 90.000000
_cell_angle_gamma 90.000000
_cell_volume 3077.801780
_symmetry_space_group_name_H-M "A M M 2"
_symmetry_group_IT_number 38
_symmetry_cell_setting 'orthorhombic'
loop_
_space_group_symop_operation_xyz
x,y,z
-x,-y,z
-x,y,z
x,-y,z
x,1/2+y,1/2+z
-x,1/2-y,1/2+z
-x,1/2+y,1/2+z
x,1/2-y,1/2+z
loop_
_atom_site_type_symbol
_atom_site_label
_atom_site_fract_x
_atom_site_fract_y
_atom_site_fract_z
Si Si1 0.334792 0.839778 0.236250
Si Si2 0.672046 0.061141 0.494187
Si Si3 0.333950 0.223376 0.418245
Si Si4 0.172077 0.263894 0.249824
Si Si5 0.172787 0.161035 0.578783
Si Si6 0.171392 0.439119 0.791083
O O1 0.500000 0.841797 0.190677
O O2 0.343863 0.830856 0.351786
O O3 0.243277 0.788364 0.192960
O O4 0.251940 0.897227 0.218362
O O5 0.500000 0.075874 0.477233
O O6 0.742066 0.103775 0.569297
O O7 0.758093 0.064678 0.395123
O O8 0.688678 0.000000 0.536942
O O9 0.500000 0.243009 0.447441
O O10 0.252888 0.270440 0.353796
O O11 0.238937 0.208135 0.510863
O O12 0.195145 0.318348 0.187646
O O13 0.000000 0.251255 0.267407
O O14 0.000000 0.153094 0.553779
O O15 0.190691 0.500000 0.748875
O O16 0.000000 0.422438 0.800029
#
# Coordination Sequence:
#
# PCOD8177342 Si02
#       6
#     8   8   8   8   8   8
#     4   9  17  28  40  57  80 109 139 173 209 240
#     4  10  19  28  38  55  81 111 142 174 205 245
#     4   9  18  29  42  60  83 112 141 174 211 247
#     4   9  18  30  43  60  82 110 143 177 212 252
#     4  11  20  29  45  64  84 115 145 175 216 253
#     4  10  18  26  39  58  81 112 144 172 205 247
#
# _framework density 15.595547
#
# number of rings (size 3 to 8) (size 9 to 14) (size 15 to 20)
#    1.000    1.333    1.667    2.500    0.000    4.667 
#    0.000    0.000    0.000    0.000    0.000    0.000 
#    0.000    1.333    0.000    7.333    0.000    8.500 
#
# Total GULP energy -297360.636276 kJ/mol
# GULP energy per Si atom -12390.026512 kJ/mol
# Density = 1.556005 g / cm^3
# Si number density = 15.595547 Si / 1000 Ang^3
#
#
#
# Elastic Constant Matrix: (Units=GPa)
#
#
# Indices 1 2 3 4 5 6 
#
# 1 120.4920 34.5417 12.8395 0.0000 0.0000 0.0000
# 2 34.5417 64.1218 10.8706 0.0000 0.0000 0.0000
# 3 12.8395 10.8706 25.1889 0.0000 0.0000 0.0000
# 4 0.0000 0.0000 0.0000 21.9374 0.0000 0.0000
# 5 0.0000 0.0000 0.0000 0.0000 11.5124 0.0000
# 6 0.0000 0.0000 0.0000 0.0000 0.0000 26.6807
#
#
#
# Elastic Compliance Matrix: (Units=1/GPa)
#
#
# Indices 1 2 3 4 5 6 
#
# 1 0.010020 -0.004890 -0.002997 0.000000 0.000000 0.000000
# 2 -0.004890 0.019212 -0.005799 0.000000 0.000000 0.000000
# 3 -0.002997 -0.005799 0.043731 0.000000 0.000000 0.000000
# 4 0.000000 0.000000 0.000000 0.045584 0.000000 0.000000
# 5 0.000000 0.000000 0.000000 0.000000 0.086863 0.000000
# 6 0.000000 0.000000 0.000000 0.000000 0.000000 0.037480
#
#
# Mechanical properties :
#
#
# Convention : Reuss Voigt Hill
#
# Bulk Modulus (GPa) = 21.93408 36.25623 29.09516
# Shear Modulus (GPa) = 17.51557 22.12949 19.82253
#
# Velocity S-wave (km/s) = 3.35492 3.77100 3.56903
# Velocity P-wave (km/s) = 5.39465 6.50068 5.97332
#
# Compressibility (1/GPa) = 0.04559115
#
# Stress axis : x y z
#
# Youngs Moduli (GPa) = 99.79573 52.04951 22.86731
#
# Poissons Ratio (x) = 0.25451 0.06854
# Poissons Ratio (y) = 0.48798 0.13261
# Poissons Ratio (z) = 0.29913 0.30183
#
# Static dielectric constant tensor:
#      x y z
#    x 3.162500 0.000000 0.000000 
#    y 0.000000 2.973870 0.000000 
#    z 0.000000 0.000000 2.433640 
# 
# 
# High freq. dielectric constant tensor:
#      x y z
#    x 1.624410 0.000000 0.000000 
#    y 0.000000 1.584610 0.000000 
#    z 0.000000 0.000000 1.533330 
# 
# From -- ./inp_files/17031.got.cif
#   From: 2010.03.12/outbox.cif.g09.slc.cpg/sg38_9_cif.got.tgz:17031.got - 2010.04.14 02:38:36.
