data_PCOD8177077
_publ_section_title
;
Structure prediction by ZEFSAII (Michael W. Deem and Ramdas Pophale) SiO2 
 PCOD8177077
Probable space group: C C C 2
;
_chemical_formula_sum "Si O2"
_cell_formula_units_Z 48
_cell_length_a 18.479573
_cell_length_b 7.766971
_cell_length_c 15.428022
_cell_angle_alpha 90.000000
_cell_angle_beta 90.000000
_cell_angle_gamma 90.000000
_cell_volume 2214.388743
_symmetry_space_group_name_H-M "C C C 2"
_symmetry_group_IT_number 37
_symmetry_cell_setting 'orthorhombic'
loop_
_space_group_symop_operation_xyz
x,y,z
-x,-y,z
-x,y,1/2+z
x,-y,1/2+z
1/2+x,1/2+y,z
1/2-x,1/2-y,z
1/2-x,1/2+y,1/2+z
1/2+x,1/2-y,1/2+z
loop_
_atom_site_type_symbol
_atom_site_label
_atom_site_fract_x
_atom_site_fract_y
_atom_site_fract_z
Si Si1 0.820323 0.142909 0.734120
Si Si2 0.191759 0.895979 0.395642
Si Si3 0.302697 0.405525 0.567985
Si Si4 0.968235 0.186748 0.395779
Si Si5 0.973957 0.683520 0.223994
Si Si6 0.035526 0.824541 0.057097
O O1 0.750000 0.250000 0.756669
O O2 0.888360 0.275808 0.733450
O O3 0.827871 0.005860 0.810652
O O4 0.808337 0.049989 0.642079
O O5 0.250000 0.750000 0.372100
O O6 0.116119 0.811187 0.422308
O O7 0.221332 0.008605 0.476821
O O8 0.250000 0.250000 0.594592
O O9 0.379230 0.314631 0.557885
O O10 0.981115 0.302313 0.311696
O O11 0.008020 0.290107 0.475834
O O12 0.000000 0.000000 0.368809
O O13 0.000000 0.500000 0.185907
O O14 0.002477 0.811818 0.151506
O O15 0.000000 0.000000 0.020145
#
# Coordination Sequence:
#
# PCOD8177077 Si02
#       6
#     8   8   8   8   8   8
#     4  12  26  44  64  98 141 176 221 285 350 421
#     4  12  25  44  70  98 135 180 228 285 352 422
#     4  12  25  44  70  98 135 180 228 285 352 422
#     4  11  21  45  71  92 126 179 229 281 343 407
#     4  12  26  41  68 100 133 175 232 290 334 407
#     4  11  21  45  71  92 126 179 229 281 343 407
#
# _framework density 21.676410000000001
#
# number of rings (size 3 to 8) (size 9 to 14) (size 15 to 20)
#    0.000    0.333    6.667    3.000    4.667    0.667 
#    0.000    0.000    0.000    0.000    0.000    0.000 
#    0.000    0.000    0.000    0.000    0.000    0.000 
#
# Total GULP energy -297444.713228 kJ/mol
# GULP energy per Si atom -12393.529718 kJ/mol
# Density = 2.162707 g / cm^3
# Si number density = 21.676410 Si / 1000 Ang^3
#
#
#
# Elastic Constant Matrix: (Units=GPa)
#
#
# Indices 1 2 3 4 5 6 
#
# 1 156.4016 45.5321 15.5139 0.0000 0.0000 0.0000
# 2 45.5321 60.7331 7.7273 0.0000 0.0000 0.0000
# 3 15.5139 7.7273 132.3520 0.0000 0.0000 0.0000
# 4 0.0000 0.0000 0.0000 12.3453 0.0000 0.0000
# 5 0.0000 0.0000 0.0000 0.0000 32.9508 0.0000
# 6 0.0000 0.0000 0.0000 0.0000 0.0000 43.9593
#
#
#
# Elastic Compliance Matrix: (Units=1/GPa)
#
#
# Indices 1 2 3 4 5 6 
#
# 1 0.008227 -0.006091 -0.000609 0.000000 0.000000 0.000000
# 2 -0.006091 0.021098 -0.000518 0.000000 0.000000 0.000000
# 3 -0.000609 -0.000518 0.007657 0.000000 0.000000 0.000000
# 4 0.000000 0.000000 0.000000 0.081002 0.000000 0.000000
# 5 0.000000 0.000000 0.000000 0.000000 0.030348 0.000000
# 6 0.000000 0.000000 0.000000 0.000000 0.000000 0.022748
#
#
# Mechanical properties :
#
#
# Convention : Reuss Voigt Hill
#
# Bulk Modulus (GPa) = 44.35068 54.11482 49.23275
# Shear Modulus (GPa) = 25.90252 36.56531 31.23391
#
# Velocity S-wave (km/s) = 3.46057 4.11161 3.80006
# Velocity P-wave (km/s) = 6.03922 6.89634 6.48196
#
# Compressibility (1/GPa) = 0.02254757
#
# Stress axis : x y z
#
# Youngs Moduli (GPa) = 121.54644 47.39883 130.59602
#
# Poissons Ratio (x) = 0.28869 0.07950
# Poissons Ratio (y) = 0.74029 0.06763
# Poissons Ratio (z) = 0.07400 0.02455
#
# Static dielectric constant tensor:
#      x y z
#    x 4.031650 0.000000 0.000000 
#    y 0.000000 3.544190 0.000000 
#    z 0.000000 0.000000 4.112490 
# 
# 
# High freq. dielectric constant tensor:
#      x y z
#    x 1.860840 0.000000 0.000000 
#    y 0.000000 1.827120 0.000000 
#    z 0.000000 0.000000 1.884230 
# 
# From -- ./inp_files/10590.got.cif
#   From: 2010.03.12/outbox.cif.g09.slc.cpg/sg37_6_cif.got.tgz:10590.got - 2010.04.14 02:25:27.
