data_PCOD8177766
_publ_section_title
;
Structure prediction by ZEFSAII (Michael W. Deem and Ramdas Pophale) SiO2 
 PCOD8177766
Probable space group: A M M 2
;
_chemical_formula_sum "Si O2"
_cell_formula_units_Z 32
_cell_length_a 7.666020
_cell_length_b 8.776000
_cell_length_c 23.971547
_cell_angle_alpha 90.000000
_cell_angle_beta 90.000000
_cell_angle_gamma 90.000000
_cell_volume 1612.733564
_symmetry_space_group_name_H-M "A M M 2"
_symmetry_group_IT_number 38
_symmetry_cell_setting 'orthorhombic'
loop_
_space_group_symop_operation_xyz
x,y,z
-x,-y,z
-x,y,z
x,-y,z
x,1/2+y,1/2+z
-x,1/2-y,1/2+z
-x,1/2+y,1/2+z
x,1/2-y,1/2+z
loop_
_atom_site_type_symbol
_atom_site_label
_atom_site_fract_x
_atom_site_fract_y
_atom_site_fract_z
Si Si1 0.694456 0.319063 0.793390
Si Si2 0.000000 0.681282 0.715424
Si Si3 0.696932 0.325243 0.525308
Si Si4 0.795112 0.325620 0.915019
Si Si5 0.000000 0.178452 0.594396
O O1 0.500000 0.264538 0.777126
O O2 0.708465 0.500000 0.794858
O O3 0.744484 0.257869 0.854673
O O4 0.829065 0.255201 0.747503
O O5 0.000000 0.500000 0.714461
O O6 0.000000 0.739270 0.653173
O O7 0.500000 0.305088 0.548175
O O8 0.757354 0.500000 0.530229
O O9 0.699240 0.275740 0.460905
O O10 0.826238 0.222025 0.561101
O O11 0.731243 0.500000 0.920787
O O12 0.000000 0.314208 0.924468
O O13 0.000000 0.000000 0.604020
#
# Coordination Sequence:
#
# PCOD8177766 Si02
#       5
#     8   4   8   8   4
#     4   9  17  31  55  86 118 152 190 233 283 342
#     4  10  20  37  58  81 111 150 200 246 285 336
#     4  11  24  41  62  89 120 156 197 243 297 353
#     4  10  18  32  58  91 123 157 192 233 288 347
#     4  12  26  43  62  85 115 156 202 248 301 352
#
# _framework density 19.842086999999999
#
# number of rings (size 3 to 8) (size 9 to 14) (size 15 to 20)
#    0.000    1.750    2.500    2.625    0.000    4.000 
#    0.000    3.750    0.000    1.500    0.000    0.000 
#    0.000    0.000    0.000    0.000    0.000    0.000 
#
# Total GULP energy -198429.141763 kJ/mol
# GULP energy per Si atom -12401.821360 kJ/mol
# Density = 1.979693 g / cm^3
# Si number density = 19.842087 Si / 1000 Ang^3
#
#
#
# Elastic Constant Matrix: (Units=GPa)
#
#
# Indices 1 2 3 4 5 6 
#
# 1 123.4009 19.3572 45.4229 0.0000 0.0000 0.0000
# 2 19.3572 22.2974 -1.6477 0.0000 0.0000 0.0000
# 3 45.4229 -1.6477 118.1747 0.0000 0.0000 0.0000
# 4 0.0000 0.0000 0.0000 29.6033 0.0000 0.0000
# 5 0.0000 0.0000 0.0000 0.0000 11.3563 0.0000
# 6 0.0000 0.0000 0.0000 0.0000 0.0000 14.7509
#
#
#
# Elastic Compliance Matrix: (Units=1/GPa)
#
#
# Indices 1 2 3 4 5 6 
#
# 1 0.011364 -0.010198 -0.004510 0.000000 0.000000 0.000000
# 2 -0.010198 0.054047 0.004674 0.000000 0.000000 0.000000
# 3 -0.004510 0.004674 0.010261 0.000000 0.000000 0.000000
# 4 0.000000 0.000000 0.000000 0.033780 0.000000 0.000000
# 5 0.000000 0.000000 0.000000 0.000000 0.088057 0.000000
# 6 0.000000 0.000000 0.000000 0.000000 0.000000 0.067793
#
#
# Mechanical properties :
#
#
# Convention : Reuss Voigt Hill
#
# Bulk Modulus (GPa) = 17.98500 43.34863 30.66681
# Shear Modulus (GPa) = 16.45251 24.52480 20.48866
#
# Velocity S-wave (km/s) = 2.88266 3.51949 3.21687
# Velocity P-wave (km/s) = 4.49037 6.19758 5.41172
#
# Compressibility (1/GPa) = 0.05560189
#
# Stress axis : x y z
#
# Youngs Moduli (GPa) = 88.00081 18.50231 97.45895
#
# Poissons Ratio (x) = 0.18869 0.43954
# Poissons Ratio (y) = 0.89747 -0.45548
# Poissons Ratio (z) = 0.39688 -0.08647
#
# Static dielectric constant tensor:
#      x y z
#    x 3.828880 0.000000 0.000000 
#    y 0.000000 3.290000 0.000000 
#    z 0.000000 0.000000 3.634300 
# 
# 
# High freq. dielectric constant tensor:
#      x y z
#    x 1.791460 0.000000 0.000000 
#    y 0.000000 1.738550 0.000000 
#    z 0.000000 0.000000 1.774270 
# 
# From -- ./inp_files/21633.got.cif
#   From: 2010.03.12/outbox.cif.g09.slc.cpg/sg38_11_cif.got.tgz:21633.got - 2010.04.14 02:38:36.
