data_PCOD8177763
_publ_section_title
;
Structure prediction by ZEFSAII (Michael W. Deem and Ramdas Pophale) SiO2 
 PCOD8177763
Probable space group: A M M 2
;
_chemical_formula_sum "Si O2"
_cell_formula_units_Z 40
_cell_length_a 9.833129
_cell_length_b 11.380587
_cell_length_c 19.510123
_cell_angle_alpha 90.000000
_cell_angle_beta 90.000000
_cell_angle_gamma 90.000000
_cell_volume 2183.315044
_symmetry_space_group_name_H-M "A M M 2"
_symmetry_group_IT_number 38
_symmetry_cell_setting 'orthorhombic'
loop_
_space_group_symop_operation_xyz
x,y,z
-x,-y,z
-x,y,z
x,-y,z
x,1/2+y,1/2+z
-x,1/2-y,1/2+z
-x,1/2+y,1/2+z
x,1/2-y,1/2+z
loop_
_atom_site_type_symbol
_atom_site_label
_atom_site_fract_x
_atom_site_fract_y
_atom_site_fract_z
Si Si1 0.845024 0.000000 0.136240
Si Si2 0.655417 0.135438 0.653194
Si Si3 0.343861 0.256602 0.297179
Si Si4 0.155940 0.364476 0.410326
Si Si5 0.843483 0.734079 0.554982
Si Si6 0.345994 0.000000 0.264909
O O1 0.811083 0.888180 0.090856
O O2 0.753006 0.000000 0.201877
O O3 0.000000 0.000000 0.161405
O O4 0.500000 0.161302 0.632353
O O5 0.697718 0.212435 0.719172
O O6 0.748813 0.166439 0.588075
O O7 0.677217 0.000000 0.672446
O O8 0.500000 0.293065 0.310450
O O9 0.250639 0.330231 0.347526
O O10 0.320966 0.117208 0.309932
O O11 0.180847 0.500000 0.430323
O O12 0.191396 0.281714 0.474869
O O13 0.000000 0.345396 0.387977
O O14 0.000000 0.771439 0.564919
O O15 0.500000 0.000000 0.236301
#
# Coordination Sequence:
#
# PCOD8177763 Si02
#       6
#     4   8   8   8   8   4
#     4  10  18  32  58  86 110 135 172 225 276 323
#     4  10  21  37  57  82 112 144 181 226 272 322
#     4  10  21  37  57  82 111 144 182 225 272 321
#     4  10  21  38  58  81 110 144 183 226 271 321
#     4  10  20  36  58  83 111 141 178 226 274 323
#     4  10  20  36  58  82 110 141 180 227 270 321
#
# _framework density 18.320764
#
# number of rings (size 3 to 8) (size 9 to 14) (size 15 to 20)
#    0.000    2.000    3.000    0.600    0.000    4.000 
#    1.800    0.000    0.000    0.000    0.000    0.000 
#    0.000    0.000    0.000    0.000    0.000    0.000 
#
# Total GULP energy -248033.448787 kJ/mol
# GULP energy per Si atom -12401.672439 kJ/mol
# Density = 1.827907 g / cm^3
# Si number density = 18.320764 Si / 1000 Ang^3
#
#
#
# Elastic Constant Matrix: (Units=GPa)
#
#
# Indices 1 2 3 4 5 6 
#
# 1 76.8903 31.7989 55.0679 0.0000 0.0000 0.0000
# 2 31.7989 77.0051 24.4519 0.0000 0.0000 0.0000
# 3 55.0679 24.4519 87.4559 0.0000 0.0000 0.0000
# 4 0.0000 0.0000 0.0000 27.0413 0.0000 0.0000
# 5 0.0000 0.0000 0.0000 0.0000 24.3318 0.0000
# 6 0.0000 0.0000 0.0000 0.0000 0.0000 31.7767
#
#
#
# Elastic Compliance Matrix: (Units=1/GPa)
#
#
# Indices 1 2 3 4 5 6 
#
# 1 0.026054 -0.006090 -0.014702 0.000000 0.000000 0.000000
# 2 -0.006090 0.015675 -0.000548 0.000000 0.000000 0.000000
# 3 -0.014702 -0.000548 0.020845 0.000000 0.000000 0.000000
# 4 0.000000 0.000000 0.000000 0.036980 0.000000 0.000000
# 5 0.000000 0.000000 0.000000 0.000000 0.041098 0.000000
# 6 0.000000 0.000000 0.000000 0.000000 0.000000 0.031470
#
#
# Mechanical properties :
#
#
# Convention : Reuss Voigt Hill
#
# Bulk Modulus (GPa) = 50.26875 51.55429 50.91152
# Shear Modulus (GPa) = 22.58001 25.29881 23.93941
#
# Velocity S-wave (km/s) = 3.51448 3.72005 3.61873
# Velocity P-wave (km/s) = 6.63072 6.83027 6.73124
#
# Compressibility (1/GPa) = 0.01989307
#
# Stress axis : x y z
#
# Youngs Moduli (GPa) = 38.38181 63.79560 47.97285
#
# Poissons Ratio (x) = 0.38854 0.70532
# Poissons Ratio (y) = 0.23376 0.02628
# Poissons Ratio (z) = 0.56431 0.03494
#
# Static dielectric constant tensor:
#      x y z
#    x 3.370170 0.000000 0.000000 
#    y 0.000000 3.420880 0.000000 
#    z 0.000000 0.000000 3.314200 
# 
# 
# High freq. dielectric constant tensor:
#      x y z
#    x 1.710990 0.000000 0.000000 
#    y 0.000000 1.714840 0.000000 
#    z 0.000000 0.000000 1.697020 
# 
# From -- ./inp_files/19485.got.cif
#   From: 2010.03.12/outbox.cif.g09.slc.cpg/sg38_10_cif.got.tgz:19485.got - 2010.04.14 02:38:36.
