data_PCOD8177435
_publ_section_title
;
Structure prediction by ZEFSAII (Michael W. Deem and Ramdas Pophale) SiO2 
 PCOD8177435
Probable space group: A M M 2
;
_chemical_formula_sum "Si O2"
_cell_formula_units_Z 64
_cell_length_a 9.047773
_cell_length_b 14.539528
_cell_length_c 27.935226
_cell_angle_alpha 90.000000
_cell_angle_beta 90.000000
_cell_angle_gamma 90.000000
_cell_volume 3674.888726
_symmetry_space_group_name_H-M "A M M 2"
_symmetry_group_IT_number 38
_symmetry_cell_setting 'orthorhombic'
loop_
_space_group_symop_operation_xyz
x,y,z
-x,-y,z
-x,y,z
x,-y,z
x,1/2+y,1/2+z
-x,1/2-y,1/2+z
-x,1/2+y,1/2+z
x,1/2-y,1/2+z
loop_
_atom_site_type_symbol
_atom_site_label
_atom_site_fract_x
_atom_site_fract_y
_atom_site_fract_z
Si Si1 0.175615 0.730060 0.014590
Si Si2 0.831312 0.106961 0.873504
Si Si3 0.673740 0.894114 0.971242
Si Si4 0.175559 0.399076 0.823658
Si Si5 0.671409 0.396967 0.200674
Si Si6 0.671072 0.605404 0.089955
Si Si7 0.825345 0.214540 0.780548
Si Si8 0.175311 0.898008 0.430320
O O1 0.248084 0.831365 0.011612
O O2 0.227160 0.676696 0.061733
O O3 0.000000 0.739744 0.015790
O O4 0.237210 0.674169 0.968633
O O5 0.769210 0.158917 0.826961
O O6 0.000000 0.136822 0.884756
O O7 0.819972 0.000000 0.861776
O O8 0.733828 0.134256 0.919066
O O9 0.500000 0.877325 0.972387
O O10 0.713940 0.000000 0.982617
O O11 0.236719 0.500000 0.808166
O O12 0.227224 0.320728 0.786565
O O13 0.232150 0.372933 0.877031
O O14 0.000000 0.402727 0.825458
O O15 0.500000 0.389766 0.213066
O O16 0.728408 0.500000 0.212324
O O17 0.700405 0.373977 0.145498
O O18 0.757134 0.323163 0.232082
O O19 0.500000 0.621800 0.077095
O O20 0.715414 0.500000 0.077901
O O21 0.000000 0.205666 0.776337
O O22 0.000000 0.895899 0.431966
O O23 0.231998 0.000000 0.444214
#
# Coordination Sequence:
#
# PCOD8177435 Si02
#       8
#     8   8   8   8   8   8   8   8
#     4  11  20  30  50  77 101 125 158 202 248 293
#     4   9  17  29  45  68  98 127 157 199 249 294
#     4  10  21  35  49  67  95 133 173 206 237 283
#     4   8  14  25  41  63  94 129 159 188 226 273
#     4   9  19  35  52  70  95 127 159 193 239 293
#     4   9  19  36  54  72  98 129 158 193 241 297
#     4  10  18  28  47  73  97 124 162 205 247 290
#     4   8  14  25  42  67  98 127 154 185 225 278
#
# _framework density 17.415493000000001
#
# number of rings (size 3 to 8) (size 9 to 14) (size 15 to 20)
#    0.000    2.750    0.000    3.750    0.000    5.250 
#    0.000    2.500    0.000    1.125    0.000    7.000 
#    0.000    0.000    0.000    0.000    0.000    0.000 
#
# Total GULP energy -396707.802325 kJ/mol
# GULP energy per Si atom -12397.118823 kJ/mol
# Density = 1.737585 g / cm^3
# Si number density = 17.415493 Si / 1000 Ang^3
#
#
#
# Elastic Constant Matrix: (Units=GPa)
#
#
# Indices 1 2 3 4 5 6 
#
# 1 53.3664 42.8179 38.3292 0.0000 0.0000 0.0000
# 2 42.8179 112.9300 67.5161 0.0000 0.0000 0.0000
# 3 38.3292 67.5161 83.8566 0.0000 0.0000 0.0000
# 4 0.0000 0.0000 0.0000 32.3712 0.0000 0.0000
# 5 0.0000 0.0000 0.0000 0.0000 27.0279 0.0000
# 6 0.0000 0.0000 0.0000 0.0000 0.0000 22.3206
#
#
#
# Elastic Compliance Matrix: (Units=1/GPa)
#
#
# Indices 1 2 3 4 5 6 
#
# 1 0.029935 -0.006112 -0.008762 0.000000 0.000000 0.000000
# 2 -0.006112 0.018321 -0.011958 0.000000 0.000000 0.000000
# 3 -0.008762 -0.011958 0.025558 0.000000 0.000000 0.000000
# 4 0.000000 0.000000 0.000000 0.030892 0.000000 0.000000
# 5 0.000000 0.000000 0.000000 0.000000 0.036999 0.000000
# 6 0.000000 0.000000 0.000000 0.000000 0.000000 0.044802
#
#
# Mechanical properties :
#
#
# Convention : Reuss Voigt Hill
#
# Bulk Modulus (GPa) = 49.62436 60.83104 55.22770
# Shear Modulus (GPa) = 20.25226 23.10992 21.68109
#
# Velocity S-wave (km/s) = 3.41381 3.64672 3.53219
# Velocity P-wave (km/s) = 6.64041 7.26199 6.95814
#
# Compressibility (1/GPa) = 0.02015139
#
# Stress axis : x y z
#
# Youngs Moduli (GPa) = 33.40562 54.58145 39.12713
#
# Poissons Ratio (x) = 0.33357 0.34284
# Poissons Ratio (y) = 0.20416 0.46787
# Poissons Ratio (z) = 0.29270 0.65267
#
# Static dielectric constant tensor:
#      x y z
#    x 2.948810 0.000000 0.000000 
#    y 0.000000 3.504990 0.000000 
#    z 0.000000 0.000000 3.097930 
# 
# 
# High freq. dielectric constant tensor:
#      x y z
#    x 1.646150 0.000000 0.000000 
#    y 0.000000 1.680590 0.000000 
#    z 0.000000 0.000000 1.653320 
# 
# From -- ./inp_files/22194.got.cif
#   From: 2010.03.12/outbox.cif.g09.slc.cpg/sg38_12_cif.got.tgz:22194.got - 2010.04.14 02:38:36.
