data_PCOD8177981
_publ_section_title
;
Structure prediction by ZEFSAII (Michael W. Deem and Ramdas Pophale) SiO2 
 PCOD8177981
Probable space group: A M M 2
;
_chemical_formula_sum "Si O2"
_cell_formula_units_Z 64
_cell_length_a 9.556169
_cell_length_b 14.487247
_cell_length_c 28.282893
_cell_angle_alpha 90.000000
_cell_angle_beta 90.000000
_cell_angle_gamma 90.000000
_cell_volume 3915.556696
_symmetry_space_group_name_H-M "A M M 2"
_symmetry_group_IT_number 38
_symmetry_cell_setting 'orthorhombic'
loop_
_space_group_symop_operation_xyz
x,y,z
-x,-y,z
-x,y,z
x,-y,z
x,1/2+y,1/2+z
-x,1/2-y,1/2+z
-x,1/2+y,1/2+z
x,1/2-y,1/2+z
loop_
_atom_site_type_symbol
_atom_site_label
_atom_site_fract_x
_atom_site_fract_y
_atom_site_fract_z
Si Si1 0.160477 0.103176 0.082390
Si Si2 0.162286 0.606473 0.218624
Si Si3 0.659997 0.392908 0.048832
Si Si4 0.659574 0.392704 0.492112
Si Si5 0.666157 0.399432 0.942213
Si Si6 0.838369 0.710444 0.125822
Si Si7 0.666229 0.713248 0.401065
Si Si8 0.337146 0.893158 0.809955
O O1 0.183669 0.178184 0.124135
O O2 0.000000 0.103623 0.065689
O O3 0.203221 0.000000 0.100225
O O4 0.252159 0.134512 0.037898
O O5 0.190342 0.500000 0.204876
O O6 0.214864 0.671179 0.175847
O O7 0.251982 0.636141 0.263780
O O8 0.000000 0.623217 0.230453
O O9 0.500000 0.360328 0.054654
O O10 0.674602 0.500000 0.061784
O O11 0.755101 0.334491 0.083312
O O12 0.714041 0.374680 0.995446
O O13 0.500000 0.362006 0.501844
O O14 0.669924 0.500000 0.480729
O O15 0.723543 0.340948 0.446726
O O16 0.500000 0.405182 0.942868
O O17 0.726802 0.500000 0.926710
O O18 0.716082 0.320127 0.905685
O O19 0.000000 0.683311 0.119197
O O20 0.500000 0.704076 0.400463
O O21 0.724068 0.668413 0.352912
O O22 0.500000 0.873218 0.800359
O O23 0.312386 0.000000 0.822921
#
# Coordination Sequence:
#
# PCOD8177981 Si02
#       8
#     8   8   8   8   8   8   8   8
#     4   9  18  31  44  61  88 118 147 180 214 248
#     4   9  18  32  47  63  84 108 135 170 213 260
#     4   9  17  28  43  66  94 119 144 176 212 251
#     4   9  16  26  42  64  88 114 143 173 208 251
#     4   8  14  24  38  59  87 116 143 169 199 239
#     4  10  19  30  46  65  85 114 149 180 213 256
#     4   9  15  24  41  62  84 111 141 172 205 244
#     4   9  17  29  45  65  86 106 132 169 212 254
#
# _framework density 16.345057000000001
#
# number of rings (size 3 to 8) (size 9 to 14) (size 15 to 20)
#    0.000    3.000    0.000    2.250    0.000    4.250 
#    0.000    1.875    0.000    4.500    0.000    0.000 
#    0.000    0.000    0.000    0.000    0.000    0.000 
#
# Total GULP energy -396660.091016 kJ/mol
# GULP energy per Si atom -12395.627844 kJ/mol
# Density = 1.630786 g / cm^3
# Si number density = 16.345057 Si / 1000 Ang^3
#
#
#
# Elastic Constant Matrix: (Units=GPa)
#
#
# Indices 1 2 3 4 5 6 
#
# 1 33.7253 30.8314 34.1104 0.0000 0.0000 0.0000
# 2 30.8314 104.8392 84.1949 0.0000 0.0000 0.0000
# 3 34.1104 84.1949 113.8498 0.0000 0.0000 0.0000
# 4 0.0000 0.0000 0.0000 30.0402 0.0000 0.0000
# 5 0.0000 0.0000 0.0000 0.0000 -3.5258 0.0000
# 6 0.0000 0.0000 0.0000 0.0000 0.0000 15.5998
#
#
#
# Elastic Compliance Matrix: (Units=1/GPa)
#
#
# Indices 1 2 3 4 5 6 
#
# 1 0.043923 -0.005783 -0.008883 0.000000 0.000000 0.000000
# 2 -0.005783 0.024250 -0.016200 0.000000 0.000000 0.000000
# 3 -0.008883 -0.016200 0.023425 0.000000 0.000000 0.000000
# 4 0.000000 0.000000 0.000000 0.033289 0.000000 0.000000
# 5 0.000000 0.000000 0.000000 0.000000 -0.283621 0.000000
# 6 0.000000 0.000000 0.000000 0.000000 0.000000 0.064103
#
#
# Mechanical properties :
#
#
# Convention : Reuss Voigt Hill
#
# Bulk Modulus (GPa) = 33.48434 61.18754 47.33594
# Shear Modulus (GPa) = -217.92147 15.30801 -101.30673
#
# Velocity S-wave (km/s) = -11.55920 3.06364 -7.88128
# Velocity P-wave (km/s) = 12.55480 7.07323 7.33459
#
# Compressibility (1/GPa) = 0.02986471
#
# Stress axis : x y z
#
# Youngs Moduli (GPa) = 22.76734 41.23789 42.68860
#
# Poissons Ratio (x) = 0.23849 0.37919
# Poissons Ratio (y) = 0.13167 0.69157
# Poissons Ratio (z) = 0.20223 0.66807
#
# Static dielectric constant tensor:
#      x y z
#    x 2.875120 0.000000 0.000000 
#    y 0.000000 3.376190 0.000000 
#    z 0.000000 0.000000 3.005260 
# 
# 
# High freq. dielectric constant tensor:
#      x y z
#    x 1.600650 0.000000 0.000000 
#    y 0.000000 1.636730 0.000000 
#    z 0.000000 0.000000 1.608730 
# 
# From -- ./inp_files/24764.got.cif
#   From: 2010.03.12/outbox.cif.g09.slc.cpg/sg38_13_cif.got.tgz:24764.got - 2010.04.14 02:38:36.
