data_PCOD8177148
_publ_section_title
;
Structure prediction by ZEFSAII (Michael W. Deem and Ramdas Pophale) SiO2 
 PCOD8177148
Probable space group: C C C 2
;
_chemical_formula_sum "Si O2"
_cell_formula_units_Z 64
_cell_length_a 14.469000
_cell_length_b 21.454569
_cell_length_c 9.417146
_cell_angle_alpha 90.000000
_cell_angle_beta 90.000000
_cell_angle_gamma 90.000000
_cell_volume 2923.328460
_symmetry_space_group_name_H-M "C C C 2"
_symmetry_group_IT_number 37
_symmetry_cell_setting 'orthorhombic'
loop_
_space_group_symop_operation_xyz
x,y,z
-x,-y,z
-x,y,1/2+z
x,-y,1/2+z
1/2+x,1/2+y,z
1/2-x,1/2-y,z
1/2-x,1/2+y,1/2+z
1/2+x,1/2-y,1/2+z
loop_
_atom_site_type_symbol
_atom_site_label
_atom_site_fract_x
_atom_site_fract_y
_atom_site_fract_z
Si Si1 0.347569 0.221943 0.082830
Si Si2 0.499352 0.684933 0.673976
Si Si3 0.589586 0.104896 0.758892
Si Si4 0.909996 0.603545 0.585292
Si Si5 0.773752 0.499064 0.670931
Si Si6 0.536893 0.399688 0.924051
Si Si7 0.846930 0.279266 0.260233
Si Si8 0.648415 0.524820 0.920417
O O1 0.250000 0.250000 0.130137
O O2 0.425133 0.275047 0.087693
O O3 0.371961 0.168123 0.192726
O O4 0.342613 0.195586 0.922095
O O5 0.444778 0.644329 0.790024
O O6 0.552615 0.639039 0.567061
O O7 0.573785 0.727716 0.751687
O O8 0.499968 0.082339 0.672548
O O9 0.665878 0.051390 0.753899
O O10 0.562339 0.117528 0.922461
O O11 0.836559 0.548143 0.587789
O O12 0.867494 0.665326 0.652698
O O13 0.710768 0.536328 0.782517
O O14 0.709282 0.462846 0.559555
O O15 0.611082 0.454480 0.920958
O O16 0.432827 0.425320 0.918527
O O17 0.750000 0.250000 0.213810
#
# Coordination Sequence:
#
# PCOD8177148 Si02
#       8
#     8   8   8   8   8   8   8   8
#     4  11  27  46  71 104 144 190 240 293 357 423
#     4  12  24  45  72 107 138 190 232 296 354 422
#     4  12  28  47  72 104 142 186 236 298 355 420
#     4  12  28  47  72 104 142 186 236 298 355 420
#     4  12  27  45  76 102 142 182 246 289 351 418
#     4  11  26  44  74 100 152 181 236 288 358 417
#     4  11  27  46  71 104 144 190 240 293 357 423
#     4  11  26  48  69 110 138 192 233 294 346 423
#
# _framework density 21.892852999999999
#
# number of rings (size 3 to 8) (size 9 to 14) (size 15 to 20)
#    0.000    0.500    3.750    2.625   12.250    3.500 
#    0.000    0.000    0.000    0.000    0.000    0.000 
#    0.000    0.000    0.000    0.000    0.000    0.000 
#
# Total GULP energy -397085.921168 kJ/mol
# GULP energy per Si atom -12408.935037 kJ/mol
# Density = 2.184302 g / cm^3
# Si number density = 21.892853 Si / 1000 Ang^3
#
#
#
# Elastic Constant Matrix: (Units=GPa)
#
#
# Indices 1 2 3 4 5 6 
#
# 1 102.2794 20.3906 40.5330 0.0000 0.0000 0.0000
# 2 20.3906 81.0462 15.6331 0.0000 0.0000 0.0000
# 3 40.5330 15.6331 126.8414 0.0000 0.0000 0.0000
# 4 0.0000 0.0000 0.0000 56.7676 0.0000 0.0000
# 5 0.0000 0.0000 0.0000 0.0000 32.2581 0.0000
# 6 0.0000 0.0000 0.0000 0.0000 0.0000 26.6067
#
#
#
# Elastic Compliance Matrix: (Units=1/GPa)
#
#
# Indices 1 2 3 4 5 6 
#
# 1 0.011583 -0.002254 -0.003424 0.000000 0.000000 0.000000
# 2 -0.002254 0.013078 -0.000892 0.000000 0.000000 0.000000
# 3 -0.003424 -0.000892 0.009088 0.000000 0.000000 0.000000
# 4 0.000000 0.000000 0.000000 0.017616 0.000000 0.000000
# 5 0.000000 0.000000 0.000000 0.000000 0.031000 0.000000
# 6 0.000000 0.000000 0.000000 0.000000 0.000000 0.037585
#
#
# Mechanical properties :
#
#
# Convention : Reuss Voigt Hill
#
# Bulk Modulus (GPa) = 48.51907 51.47560 49.99733
# Shear Modulus (GPa) = 35.72514 38.70049 37.21281
#
# Velocity S-wave (km/s) = 4.04396 4.20899 4.12730
# Velocity P-wave (km/s) = 6.63438 6.86909 6.75275
#
# Compressibility (1/GPa) = 0.02061045
#
# Stress axis : x y z
#
# Youngs Moduli (GPa) = 86.33124 76.46619 110.03732
#
# Poissons Ratio (x) = 0.17234 0.37674
# Poissons Ratio (y) = 0.19458 0.09811
# Poissons Ratio (z) = 0.29558 0.06818
#
# Static dielectric constant tensor:
#      x y z
#    x 4.091750 0.000000 0.000000 
#    y 0.000000 4.004230 0.000000 
#    z 0.000000 0.000000 4.287230 
# 
# 
# High freq. dielectric constant tensor:
#      x y z
#    x 1.872090 0.000000 0.000000 
#    y 0.000000 1.864520 0.000000 
#    z 0.000000 0.000000 1.874230 
# 
# From -- ./inp_files/3771.got.cif
#   From: 2010.03.12/outbox.cif.g09.slc.cpg/sg37_2_cif.got.tgz:3771.got - 2010.04.14 02:25:27.
