data_PCOD8177406
_publ_section_title
;
Structure prediction by ZEFSAII (Michael W. Deem and Ramdas Pophale) SiO2 
 PCOD8177406
Probable space group: A M M 2
;
_chemical_formula_sum "Si O2"
_cell_formula_units_Z 56
_cell_length_a 7.828937
_cell_length_b 13.686087
_cell_length_c 32.152186
_cell_angle_alpha 90.000000
_cell_angle_beta 90.000000
_cell_angle_gamma 90.000000
_cell_volume 3445.026764
_symmetry_space_group_name_H-M "A M M 2"
_symmetry_group_IT_number 38
_symmetry_cell_setting 'orthorhombic'
loop_
_space_group_symop_operation_xyz
x,y,z
-x,-y,z
-x,y,z
x,-y,z
x,1/2+y,1/2+z
-x,1/2-y,1/2+z
-x,1/2+y,1/2+z
x,1/2-y,1/2+z
loop_
_atom_site_type_symbol
_atom_site_label
_atom_site_fract_x
_atom_site_fract_y
_atom_site_fract_z
Si Si1 0.198029 0.207786 0.401670
Si Si2 0.000000 0.116216 0.633274
Si Si3 0.203133 0.392056 0.818390
Si Si4 0.195869 0.292613 0.270710
Si Si5 0.308855 0.887492 0.483585
Si Si6 0.300147 0.611135 0.353778
Si Si7 0.000000 0.115729 0.540512
Si Si8 0.690069 0.887405 0.689198
O O1 0.269380 0.142922 0.363406
O O2 0.301588 0.178173 0.442435
O O3 0.227659 0.321622 0.390927
O O4 0.000000 0.186931 0.410158
O O5 0.829659 0.153831 0.656805
O O6 0.000000 0.161193 0.586868
O O7 0.000000 0.000000 0.630942
O O8 0.275775 0.500000 0.808358
O O9 0.263966 0.315660 0.783204
O O10 0.000000 0.391638 0.819705
O O11 0.210234 0.363699 0.310245
O O12 0.307401 0.329280 0.232392
O O13 0.000000 0.290137 0.256252
O O14 0.500000 0.877793 0.502487
O O15 0.171084 0.848405 0.516956
O O16 0.268051 0.000000 0.471880
O O17 0.500000 0.628668 0.348262
O O18 0.256804 0.500000 0.365795
O O19 0.000000 0.000000 0.543857
O O20 0.500000 0.875661 0.669889
O O21 0.731061 0.000000 0.699382
#
# Coordination Sequence:
#
# PCOD8177406 Si02
#       8
#     8   4   8   8   8   8   4   8
#     4  10  18  29  46  65  89 123 159 193 227 268
#     4   9  18  32  48  67  91 119 151 185 224 276
#     4   8  15  26  41  62  88 120 156 192 228 261
#     4  10  18  28  44  64  88 122 159 192 227 269
#     4  10  19  30  47  70  95 124 156 188 224 271
#     4  10  20  31  42  60  89 123 159 198 234 267
#     4   9  18  32  48  67  93 121 149 185 228 272
#     4  10  19  30  46  67  92 122 153 187 225 267
#
# _framework density 16.255315
#
# number of rings (size 3 to 8) (size 9 to 14) (size 15 to 20)
#    0.000    2.429    1.429    3.000    0.000    4.000 
#    0.000    2.857    0.000    8.571    0.000    0.000 
#    0.000    2.286    0.000    2.714    0.000    0.286 
#
# Total GULP energy -347155.762216 kJ/mol
# GULP energy per Si atom -12398.420079 kJ/mol
# Density = 1.621832 g / cm^3
# Si number density = 16.255315 Si / 1000 Ang^3
#
#
#
# Elastic Constant Matrix: (Units=GPa)
#
#
# Indices 1 2 3 4 5 6 
#
# 1 88.4847 21.7586 42.0165 0.0000 0.0000 0.0000
# 2 21.7586 76.3569 36.2534 0.0000 0.0000 0.0000
# 3 42.0165 36.2534 108.1215 0.0000 0.0000 0.0000
# 4 0.0000 0.0000 0.0000 16.1896 0.0000 0.0000
# 5 0.0000 0.0000 0.0000 0.0000 14.7920 0.0000
# 6 0.0000 0.0000 0.0000 0.0000 0.0000 14.3801
#
#
#
# Elastic Compliance Matrix: (Units=1/GPa)
#
#
# Indices 1 2 3 4 5 6 
#
# 1 0.014037 -0.001677 -0.004892 0.000000 0.000000 0.000000
# 2 -0.001677 0.015776 -0.004638 0.000000 0.000000 0.000000
# 3 -0.004892 -0.004638 0.012705 0.000000 0.000000 0.000000
# 4 0.000000 0.000000 0.000000 0.061768 0.000000 0.000000
# 5 0.000000 0.000000 0.000000 0.000000 0.067604 0.000000
# 6 0.000000 0.000000 0.000000 0.000000 0.000000 0.069541
#
#
# Mechanical properties :
#
#
# Convention : Reuss Voigt Hill
#
# Bulk Modulus (GPa) = 49.74324 52.55779 51.15052
# Shear Modulus (GPa) = 18.48100 20.60130 19.54115
#
# Velocity S-wave (km/s) = 3.37548 3.56386 3.47095
# Velocity P-wave (km/s) = 6.77196 7.02408 6.89917
#
# Compressibility (1/GPa) = 0.02010323
#
# Stress axis : x y z
#
# Youngs Moduli (GPa) = 71.24048 63.38564 78.70738
#
# Poissons Ratio (x) = 0.10630 0.38508
# Poissons Ratio (y) = 0.11947 0.36506
# Poissons Ratio (z) = 0.34854 0.29399
#
# Static dielectric constant tensor:
#      x y z
#    x 3.139610 0.000000 0.000000 
#    y 0.000000 3.001290 0.000000 
#    z 0.000000 0.000000 2.943440 
# 
# 
# High freq. dielectric constant tensor:
#      x y z
#    x 1.637400 0.000000 0.000000 
#    y 0.000000 1.593040 0.000000 
#    z 0.000000 0.000000 1.598460 
# 
# From -- ./inp_files/24675.got.cif
#   From: 2010.03.12/outbox.cif.g09.slc.cpg/sg38_13_cif.got.tgz:24675.got - 2010.04.14 02:38:36.
