data_PCOD8177647
_publ_section_title
;
Structure prediction by ZEFSAII (Michael W. Deem and Ramdas Pophale) SiO2 
 PCOD8177647
Probable space group: A M M 2
;
_chemical_formula_sum "Si O2"
_cell_formula_units_Z 64
_cell_length_a 9.065064
_cell_length_b 20.871678
_cell_length_c 19.435969
_cell_angle_alpha 90.000000
_cell_angle_beta 90.000000
_cell_angle_gamma 90.000000
_cell_volume 3677.345525
_symmetry_space_group_name_H-M "A M M 2"
_symmetry_group_IT_number 38
_symmetry_cell_setting 'orthorhombic'
loop_
_space_group_symop_operation_xyz
x,y,z
-x,-y,z
-x,y,z
x,-y,z
x,1/2+y,1/2+z
-x,1/2-y,1/2+z
-x,1/2+y,1/2+z
x,1/2-y,1/2+z
loop_
_atom_site_type_symbol
_atom_site_label
_atom_site_fract_x
_atom_site_fract_y
_atom_site_fract_z
Si Si1 0.327071 0.870791 0.617570
Si Si2 0.172545 0.120027 0.480595
Si Si3 0.827154 0.263360 0.628033
Si Si4 0.326437 0.687614 0.755222
Si Si5 0.673280 0.430049 0.260182
Si Si6 0.168753 0.768315 0.973495
Si Si7 0.668394 0.928018 0.351074
Si Si8 0.325315 0.809996 0.843405
O O1 0.500000 0.860233 0.605416
O O2 0.254819 0.901916 0.549941
O O3 0.256089 0.803299 0.637482
O O4 0.293929 0.918623 0.679988
O O5 0.210615 0.193875 0.466275
O O6 0.229683 0.077756 0.417815
O O7 0.000000 0.108768 0.491141
O O8 0.761547 0.312858 0.683338
O O9 0.799818 0.291445 0.551467
O O10 0.000000 0.251734 0.640235
O O11 0.500000 0.691773 0.740035
O O12 0.281632 0.621656 0.792541
O O13 0.272248 0.747218 0.801797
O O14 0.500000 0.430018 0.272961
O O15 0.739274 0.500000 0.280327
O O16 0.741800 0.373476 0.307050
O O17 0.000000 0.779593 0.953050
O O18 0.268068 0.808841 0.921444
O O19 0.500000 0.913245 0.372856
O O20 0.684938 0.000000 0.321644
O O21 0.500000 0.811754 0.845047
#
# Coordination Sequence:
#
# PCOD8177647 Si02
#       8
#     8   8   8   8   8   8   8   8
#     4  10  18  31  51  74 103 140 176 210 250 299
#     4  10  20  33  49  74 106 139 174 211 252 304
#     4  10  20  33  51  77 106 135 169 211 260 308
#     4  10  19  33  53  79 102 127 173 219 255 303
#     4   9  18  32  49  72 102 132 164 204 250 299
#     4   9  19  33  49  74 104 132 164 204 253 302
#     4  10  21  36  53  74 103 138 173 214 264 315
#     4  10  18  31  53  78  98 126 169 212 250 292
#
# _framework density 17.403858
#
# number of rings (size 3 to 8) (size 9 to 14) (size 15 to 20)
#    0.000    2.250    2.500    1.875    0.000    4.250 
#    0.000    1.250    0.000    3.750    0.000    5.250 
#    0.000    0.000    0.000    0.000    0.000    0.000 
#
# Total GULP energy -396800.783749 kJ/mol
# GULP energy per Si atom -12400.024492 kJ/mol
# Density = 1.736425 g / cm^3
# Si number density = 17.403858 Si / 1000 Ang^3
#
#
#
# Elastic Constant Matrix: (Units=GPa)
#
#
# Indices 1 2 3 4 5 6 
#
# 1 57.8938 32.6621 41.1857 0.0000 0.0000 0.0000
# 2 32.6621 111.0066 63.2027 0.0000 0.0000 0.0000
# 3 41.1857 63.2027 112.7968 0.0000 0.0000 0.0000
# 4 0.0000 0.0000 0.0000 20.8505 0.0000 0.0000
# 5 0.0000 0.0000 0.0000 0.0000 25.7800 0.0000
# 6 0.0000 0.0000 0.0000 0.0000 0.0000 13.2991
#
#
#
# Elastic Compliance Matrix: (Units=1/GPa)
#
#
# Indices 1 2 3 4 5 6 
#
# 1 0.024015 -0.003045 -0.007063 0.000000 0.000000 0.000000
# 2 -0.003045 0.013615 -0.006517 0.000000 0.000000 0.000000
# 3 -0.007063 -0.006517 0.015096 0.000000 0.000000 0.000000
# 4 0.000000 0.000000 0.000000 0.047960 0.000000 0.000000
# 5 0.000000 0.000000 0.000000 0.000000 0.038790 0.000000
# 6 0.000000 0.000000 0.000000 0.000000 0.000000 0.075193
#
#
# Mechanical properties :
#
#
# Convention : Reuss Voigt Hill
#
# Bulk Modulus (GPa) = 51.34253 61.75534 56.54894
# Shear Modulus (GPa) = 19.65327 21.62903 20.64115
#
# Velocity S-wave (km/s) = 3.36407 3.52912 3.44759
# Velocity P-wave (km/s) = 6.68237 7.22267 6.95777
#
# Compressibility (1/GPa) = 0.01947703
#
# Stress axis : x y z
#
# Youngs Moduli (GPa) = 41.64033 73.44899 66.24348
#
# Poissons Ratio (x) = 0.22365 0.46785
# Poissons Ratio (y) = 0.12679 0.43170
# Poissons Ratio (z) = 0.29409 0.47866
#
# Static dielectric constant tensor:
#      x y z
#    x 3.124360 0.000000 0.000000 
#    y 0.000000 3.209710 0.000000 
#    z 0.000000 0.000000 3.300180 
# 
# 
# High freq. dielectric constant tensor:
#      x y z
#    x 1.663870 0.000000 0.000000 
#    y 0.000000 1.649340 0.000000 
#    z 0.000000 0.000000 1.673440 
# 
# From -- ./inp_files/17182.got.cif
#   From: 2010.03.12/outbox.cif.g09.slc.cpg/sg38_9_cif.got.tgz:17182.got - 2010.04.14 02:38:36.
