data_PCOD8177553
_publ_section_title
;
Structure prediction by ZEFSAII (Michael W. Deem and Ramdas Pophale) SiO2 
 PCOD8177553
Probable space group: A M M 2
;
_chemical_formula_sum "Si O2"
_cell_formula_units_Z 48
_cell_length_a 10.426002
_cell_length_b 30.242258
_cell_length_c 8.118480
_cell_angle_alpha 90.000000
_cell_angle_beta 90.000000
_cell_angle_gamma 90.000000
_cell_volume 2559.804175
_symmetry_space_group_name_H-M "A M M 2"
_symmetry_group_IT_number 38
_symmetry_cell_setting 'orthorhombic'
loop_
_space_group_symop_operation_xyz
x,y,z
-x,-y,z
-x,y,z
x,-y,z
x,1/2+y,1/2+z
-x,1/2-y,1/2+z
-x,1/2+y,1/2+z
x,1/2-y,1/2+z
loop_
_atom_site_type_symbol
_atom_site_label
_atom_site_fract_x
_atom_site_fract_y
_atom_site_fract_z
Si Si1 0.861226 0.682875 0.234270
Si Si2 0.777443 0.242636 0.010139
Si Si3 0.355564 0.804319 0.292963
Si Si4 0.652245 0.549541 0.560297
Si Si5 0.347864 0.607158 0.243635
Si Si6 0.649635 0.900856 0.379915
O O1 0.852342 0.714606 0.076442
O O2 0.867788 0.716086 0.387769
O O3 0.739489 0.650738 0.252942
O O4 0.000000 0.657841 0.225802
O O5 0.734357 0.206457 0.140627
O O6 0.652192 0.263660 0.920811
O O7 0.500000 0.810267 0.231232
O O8 0.303891 0.850140 0.370137
O O9 0.500000 0.548346 0.569632
O O10 0.707800 0.500000 0.545330
O O11 0.693121 0.576210 0.396077
O O12 0.711421 0.570714 0.729435
O O13 0.500000 0.620153 0.251633
O O14 0.318311 0.582746 0.067163
O O15 0.500000 0.904021 0.350327
#
# Coordination Sequence:
#
# PCOD8177553 Si02
#       6
#     8   8   8   8   8   8
#     4  11  22  37  53  74 107 146 186 226 273 318
#     4  10  21  32  49  72 103 144 187 227 265 319
#     4  10  18  30  48  76 107 139 177 225 276 319
#     4   9  18  32  53  82 112 139 170 216 276 335
#     4  10  20  35  56  81 110 140 180 226 272 324
#     4   9  17  30  48  74 109 139 170 217 270 321
#
# _framework density 18.751434
#
# number of rings (size 3 to 8) (size 9 to 14) (size 15 to 20)
#    0.000    2.167    1.667    2.000    0.000    5.333 
#    0.000    3.333    0.000    0.500    0.000    0.000 
#    0.000    0.000    0.000    0.000    0.000    0.000 
#
# Total GULP energy -297313.992500 kJ/mol
# GULP energy per Si atom -12388.083021 kJ/mol
# Density = 1.870876 g / cm^3
# Si number density = 18.751434 Si / 1000 Ang^3
#
#
#
# Elastic Constant Matrix: (Units=GPa)
#
#
# Indices 1 2 3 4 5 6 
#
# 1 62.1083 25.5073 21.3898 0.0000 0.0000 0.0000
# 2 25.5073 89.5885 58.9309 0.0000 0.0000 0.0000
# 3 21.3898 58.9309 146.2624 0.0000 0.0000 0.0000
# 4 0.0000 0.0000 0.0000 29.7217 0.0000 0.0000
# 5 0.0000 0.0000 0.0000 0.0000 3.0341 0.0000
# 6 0.0000 0.0000 0.0000 0.0000 0.0000 8.9093
#
#
#
# Elastic Compliance Matrix: (Units=1/GPa)
#
#
# Indices 1 2 3 4 5 6 
#
# 1 0.018299 -0.004694 -0.000785 0.000000 0.000000 0.000000
# 2 -0.004694 0.016391 -0.005918 0.000000 0.000000 0.000000
# 3 -0.000785 -0.005918 0.009336 0.000000 0.000000 0.000000
# 4 0.000000 0.000000 0.000000 0.033645 0.000000 0.000000
# 5 0.000000 0.000000 0.000000 0.000000 0.329584 0.000000
# 6 0.000000 0.000000 0.000000 0.000000 0.000000 0.112242
#
#
# Mechanical properties :
#
#
# Convention : Reuss Voigt Hill
#
# Bulk Modulus (GPa) = 47.09550 56.62393 51.85971
# Shear Modulus (GPa) = 9.10135 21.14177 15.12156
#
# Velocity S-wave (km/s) = 2.20550 3.36143 2.84284
# Velocity P-wave (km/s) = 5.62635 6.73263 6.20420
#
# Compressibility (1/GPa) = 0.02123345
#
# Stress axis : x y z
#
# Youngs Moduli (GPa) = 54.64810 61.00828 107.11019
#
# Poissons Ratio (x) = 0.28635 0.08408
# Poissons Ratio (y) = 0.25650 0.63386
# Poissons Ratio (z) = 0.04290 0.36104
#
# Static dielectric constant tensor:
#      x y z
#    x 2.938790 0.000000 0.000000 
#    y 0.000000 3.441830 0.000000 
#    z 0.000000 0.000000 3.864790 
# 
# 
# High freq. dielectric constant tensor:
#      x y z
#    x 1.674150 0.000000 0.000000 
#    y 0.000000 1.709520 0.000000 
#    z 0.000000 0.000000 1.753320 
# 
# From -- ./inp_files/4621.got.cif
#   From: 2010.03.12/outbox.cif.g09.slc.cpg/sg38_3_cif.got.tgz:4621.got - 2010.04.14 02:38:36.
