data_PCOD8177983
_publ_section_title
;
Structure prediction by ZEFSAII (Michael W. Deem and Ramdas Pophale) SiO2 
 PCOD8177983
Probable space group: A M M 2
;
_chemical_formula_sum "Si O2"
_cell_formula_units_Z 64
_cell_length_a 14.357567
_cell_length_b 8.704786
_cell_length_c 28.694258
_cell_angle_alpha 90.000000
_cell_angle_beta 90.000000
_cell_angle_gamma 90.000000
_cell_volume 3586.195401
_symmetry_space_group_name_H-M "A M M 2"
_symmetry_group_IT_number 38
_symmetry_cell_setting 'orthorhombic'
loop_
_space_group_symop_operation_xyz
x,y,z
-x,-y,z
-x,y,z
x,-y,z
x,1/2+y,1/2+z
-x,1/2-y,1/2+z
-x,1/2+y,1/2+z
x,1/2-y,1/2+z
loop_
_atom_site_type_symbol
_atom_site_label
_atom_site_fract_x
_atom_site_fract_y
_atom_site_fract_z
Si Si1 0.750000 0.682901 0.010500
Si Si2 0.250000 0.182528 0.362796
Si Si3 0.393945 0.181934 0.689642
Si Si4 0.250000 0.817799 0.258017
Si Si5 0.893945 0.181934 0.689642
Si Si6 0.396446 0.682926 0.936517
Si Si7 0.750000 0.818604 0.613909
Si Si8 0.103554 0.817074 0.436517
O O1 0.750000 0.500000 0.013200
O O2 0.750000 0.756251 0.062386
O O3 0.658078 0.739042 0.982817
O O4 0.841922 0.739042 0.982817
O O5 0.250000 0.248451 0.310585
O O6 0.341857 0.240358 0.390410
O O7 0.158143 0.240358 0.390410
O O8 0.250000 0.000000 0.361594
O O9 0.500000 0.240050 0.687234
O O10 0.343605 0.257970 0.733638
O O11 0.341979 0.234094 0.642187
O O12 0.387732 0.000000 0.695783
O O13 0.156395 0.757969 0.233637
O O14 0.249999 0.000000 0.257127
O O15 0.841979 0.234093 0.642187
O O16 0.000000 0.240050 0.687234
O O17 0.887732 0.000000 0.695782
O O18 0.500000 0.754563 0.936619
O O19 0.401053 0.500000 0.936404
O O20 0.749999 0.000000 0.608637
O O21 0.000000 0.745437 0.436619
O O22 0.098947 0.000000 0.436404
#
# Coordination Sequence:
#
# PCOD8177983 Si02
#       8
#     8   8   8   8   8   8   8   8
#     4   8  13  20  32  53  77 102 137 173 203 245
#     4   8  15  25  35  52  79 110 141 171 209 257
#     4   9  18  32  47  63  88 121 151 180 219 265
#     4  10  19  30  46  67  89 114 149 190 224 257
#     4   9  18  32  47  63  88 121 151 180 219 265
#     4   8  13  21  32  48  76 111 139 165 203 252
#     4   8  14  25  40  58  81 110 145 180 212 253
#     4   8  13  21  32  48  76 111 139 165 203 252
#
# _framework density 17.846212000000001
#
# number of rings (size 3 to 8) (size 9 to 14) (size 15 to 20)
#    0.000    3.500    0.000    2.625    0.000    2.500 
#    0.000    7.500    0.000    0.000    0.000    0.000 
#    0.000   32.000    0.000   16.000    0.000   16.000 
#
# Total GULP energy -396575.090928 kJ/mol
# GULP energy per Si atom -12392.971591 kJ/mol
# Density = 1.780559 g / cm^3
# Si number density = 17.846212 Si / 1000 Ang^3
#
#
#
# Elastic Constant Matrix: (Units=GPa)
#
#
# Indices 1 2 3 4 5 6 
#
# 1 198.0679 14.6632 101.9081 0.0000 0.0000 0.0000
# 2 14.6632 12.3968 14.6986 0.0000 0.0000 0.0000
# 3 101.9081 14.6986 197.2656 0.0000 0.0000 0.0000
# 4 0.0000 0.0000 0.0000 16.4420 0.0000 0.0000
# 5 0.0000 0.0000 0.0000 0.0000 13.5316 0.0000
# 6 0.0000 0.0000 0.0000 0.0000 0.0000 12.8988
#
#
#
# Elastic Compliance Matrix: (Units=1/GPa)
#
#
# Indices 1 2 3 4 5 6 
#
# 1 0.007092 -0.004437 -0.003333 0.000000 0.000000 0.000000
# 2 -0.004437 0.091259 -0.004508 0.000000 0.000000 0.000000
# 3 -0.003333 -0.004508 0.007127 0.000000 0.000000 0.000000
# 4 0.000000 0.000000 0.000000 0.060820 0.000000 0.000000
# 5 0.000000 0.000000 0.000000 0.000000 0.073901 0.000000
# 6 0.000000 0.000000 0.000000 0.000000 0.000000 0.077527
#
#
# Mechanical properties :
#
#
# Convention : Reuss Voigt Hill
#
# Bulk Modulus (GPa) = 12.35749 74.47445 43.41597
# Shear Modulus (GPa) = 13.54076 27.00517 20.27297
#
# Velocity S-wave (km/s) = 2.75752 3.89423 3.37409
# Velocity P-wave (km/s) = 4.13256 7.87666 6.28967
#
# Compressibility (1/GPa) = 0.08092261
#
# Stress axis : x y z
#
# Youngs Moduli (GPa) = 140.99921 10.95785 140.30782
#
# Poissons Ratio (x) = 0.04862 0.46769
# Poissons Ratio (y) = 0.62557 0.63249
# Poissons Ratio (z) = 0.46999 0.04940
#
# Static dielectric constant tensor:
#      x y z
#    x 3.613540 0.000000 0.000000 
#    y 0.000000 2.663100 0.000000 
#    z 0.000000 0.000000 3.663490 
# 
# 
# High freq. dielectric constant tensor:
#      x y z
#    x 1.697470 0.000000 0.000000 
#    y 0.000000 1.624500 0.000000 
#    z 0.000000 0.000000 1.697540 
# 
# From -- ./inp_files/25080.got.cif
#   From: 2010.03.12/outbox.cif.g09.slc.cpg/sg38_13_cif.got.tgz:25080.got - 2010.04.14 02:38:36.
