data_PCOD8177051
_publ_section_title
;
Structure prediction by ZEFSAII (Michael W. Deem and Ramdas Pophale) SiO2 
 PCOD8177051
Probable space group: C C C 2
;
_chemical_formula_sum "Si O2"
_cell_formula_units_Z 64
_cell_length_a 15.643478
_cell_length_b 11.193592
_cell_length_c 18.178347
_cell_angle_alpha 90.000000
_cell_angle_beta 90.000000
_cell_angle_gamma 90.000000
_cell_volume 3183.150540
_symmetry_space_group_name_H-M "C C C 2"
_symmetry_group_IT_number 37
_symmetry_cell_setting 'orthorhombic'
loop_
_space_group_symop_operation_xyz
x,y,z
-x,-y,z
-x,y,1/2+z
x,-y,1/2+z
1/2+x,1/2+y,z
1/2-x,1/2-y,z
1/2-x,1/2+y,1/2+z
1/2+x,1/2-y,1/2+z
loop_
_atom_site_type_symbol
_atom_site_label
_atom_site_fract_x
_atom_site_fract_y
_atom_site_fract_z
Si Si1 0.117526 0.769035 0.613820
Si Si2 0.304358 0.858918 0.233504
Si Si3 0.539691 0.874543 0.389433
Si Si4 0.246055 0.084576 0.895616
Si Si5 0.502398 0.865463 0.225669
Si Si6 0.209878 0.375987 0.477504
Si Si7 0.758705 0.547849 0.116710
Si Si8 0.888725 0.251308 0.450963
O O1 0.186660 0.665993 0.613289
O O2 0.161092 0.900973 0.624868
O O3 0.076140 0.769811 0.533000
O O4 0.044896 0.734956 0.673458
O O5 0.250000 0.750000 0.198233
O O6 0.268060 0.881546 0.313774
O O7 0.404367 0.825295 0.238084
O O8 0.286357 0.978589 0.189267
O O9 0.558621 0.873210 0.301456
O O10 0.615396 0.851205 0.446776
O O11 0.470277 0.771986 0.400451
O O12 0.500000 0.000000 0.413110
O O13 0.154164 0.132610 0.918762
O O14 0.319875 0.140352 0.948337
O O15 0.243539 0.942282 0.909046
O O16 0.500000 0.000000 0.190682
O O17 0.250000 0.250000 0.497539
O O18 0.221626 0.460790 0.548254
#
# Coordination Sequence:
#
# PCOD8177051 Si02
#       8
#     8   8   8   8   8   8   8   8
#     4  11  22  39  68  92 129 169 216 277 320 389
#     4  12  23  40  67  95 132 176 213 269 324 396
#     4  11  21  38  63  99 129 163 214 272 319 382
#     4  11  19  41  67  93 121 169 219 257 315 398
#     4  11  22  39  61 103 134 160 222 277 324 373
#     4  12  25  41  64  95 132 161 209 278 328 385
#     4  11  23  42  60  94 129 172 216 258 334 395
#     4  11  19  38  70  91 118 166 225 256 312 390
#
# _framework density 20.105867
#
# number of rings (size 3 to 8) (size 9 to 14) (size 15 to 20)
#    0.000    0.750    7.500    1.875    1.750    1.500 
#    0.000    1.250    0.000    3.000    0.000    0.000 
#    0.000    0.000    0.000    0.000    0.000    0.000 
#
# Total GULP energy -396536.418417 kJ/mol
# GULP energy per Si atom -12391.763076 kJ/mol
# Density = 2.006011 g / cm^3
# Si number density = 20.105867 Si / 1000 Ang^3
#
#
#
# Elastic Constant Matrix: (Units=GPa)
#
#
# Indices 1 2 3 4 5 6 
#
# 1 95.0115 46.4573 47.4202 0.0000 0.0000 0.0000
# 2 46.4573 89.9883 31.4387 0.0000 0.0000 0.0000
# 3 47.4202 31.4387 105.5229 0.0000 0.0000 0.0000
# 4 0.0000 0.0000 0.0000 28.2213 0.0000 0.0000
# 5 0.0000 0.0000 0.0000 0.0000 17.5356 0.0000
# 6 0.0000 0.0000 0.0000 0.0000 0.0000 31.7436
#
#
#
# Elastic Compliance Matrix: (Units=1/GPa)
#
#
# Indices 1 2 3 4 5 6 
#
# 1 0.016464 -0.006602 -0.005432 0.000000 0.000000 0.000000
# 2 -0.006602 0.015051 -0.001517 0.000000 0.000000 0.000000
# 3 -0.005432 -0.001517 0.012370 0.000000 0.000000 0.000000
# 4 0.000000 0.000000 0.000000 0.035434 0.000000 0.000000
# 5 0.000000 0.000000 0.000000 0.000000 0.057027 0.000000
# 6 0.000000 0.000000 0.000000 0.000000 0.000000 0.031502
#
#
# Mechanical properties :
#
#
# Convention : Reuss Voigt Hill
#
# Bulk Modulus (GPa) = 59.58590 60.12834 59.85712
# Shear Modulus (GPa) = 24.93204 26.51385 25.72294
#
# Velocity S-wave (km/s) = 3.52524 3.63535 3.58072
# Velocity P-wave (km/s) = 6.80222 6.89868 6.85062
#
# Compressibility (1/GPa) = 0.01678249
#
# Stress axis : x y z
#
# Youngs Moduli (GPa) = 60.73761 66.44039 80.84325
#
# Poissons Ratio (x) = 0.43865 0.43912
# Poissons Ratio (y) = 0.40100 0.12266
# Poissons Ratio (z) = 0.32991 0.10081
#
# Static dielectric constant tensor:
#      x y z
#    x 3.739080 0.000000 0.000000 
#    y 0.000000 3.351100 0.000000 
#    z 0.000000 0.000000 3.790320 
# 
# 
# High freq. dielectric constant tensor:
#      x y z
#    x 1.768330 0.000000 0.000000 
#    y 0.000000 1.773400 0.000000 
#    z 0.000000 0.000000 1.794600 
# 
# From -- ./inp_files/15295.got.cif
#   From: 2010.03.12/outbox.cif.g09.slc.cpg/sg37_8_cif.got.tgz:15295.got - 2010.04.14 02:25:27.
