data_PCOD8177488
_publ_section_title
;
Structure prediction by ZEFSAII (Michael W. Deem and Ramdas Pophale) SiO2 
 PCOD8177488
Probable space group: A M M 2
;
_chemical_formula_sum "Si O2"
_cell_formula_units_Z 64
_cell_length_a 20.094717
_cell_length_b 8.888129
_cell_length_c 20.266918
_cell_angle_alpha 90.000000
_cell_angle_beta 90.000000
_cell_angle_gamma 90.000000
_cell_volume 3619.761477
_symmetry_space_group_name_H-M "A M M 2"
_symmetry_group_IT_number 38
_symmetry_cell_setting 'orthorhombic'
loop_
_space_group_symop_operation_xyz
x,y,z
-x,-y,z
-x,y,z
x,-y,z
x,1/2+y,1/2+z
-x,1/2-y,1/2+z
-x,1/2+y,1/2+z
x,1/2-y,1/2+z
loop_
_atom_site_type_symbol
_atom_site_label
_atom_site_fract_x
_atom_site_fract_y
_atom_site_fract_z
Si Si1 0.801590 0.323851 0.536790
Si Si2 0.322419 0.320576 0.347190
Si Si3 0.820924 0.176220 0.890239
Si Si4 0.424029 0.177284 0.955905
Si Si5 0.840082 0.822426 0.664218
Si Si6 0.338638 0.178045 0.562583
Si Si7 0.304910 0.177117 0.704045
Si Si8 0.925809 0.678980 0.286167
O O1 0.789979 0.500000 0.547238
O O2 0.837051 0.290321 0.466752
O O3 0.849767 0.258938 0.593688
O O4 0.729933 0.245224 0.535527
O O5 0.323132 0.500000 0.349820
O O6 0.251246 0.256514 0.371299
O O7 0.380450 0.259262 0.394899
O O8 0.335524 0.259366 0.272496
O O9 0.878874 0.246496 0.844129
O O10 0.817957 0.000000 0.875728
O O11 0.500000 0.221559 0.941994
O O12 0.414858 0.000000 0.964652
O O13 0.400908 0.255362 0.023426
O O14 0.770583 0.765326 0.695174
O O15 0.898175 0.773504 0.714265
O O16 0.839429 0.000000 0.651411
O O17 0.348160 0.223313 0.639939
O O18 0.335535 0.000000 0.553961
O O19 0.301634 0.000000 0.710817
O O20 0.927415 0.500000 0.291207
O O21 0.000000 0.745892 0.294213
#
# Coordination Sequence:
#
# PCOD8177488 Si02
#       8
#     8   8   8   8   8   8   8   8
#     4  10  18  29  48  73  98 125 161 203 245 292
#     4   9  14  26  47  69  92 120 159 207 245 278
#     4   9  15  25  45  70  94 124 162 204 247 285
#     4  10  20  33  50  72  98 131 166 199 242 296
#     4   9  16  28  46  70  97 125 158 199 245 295
#     4  10  19  31  49  74 100 127 158 199 249 295
#     4   8  14  25  45  70  93 117 152 198 243 278
#     4   9  16  27  46  72  99 128 166 210 251 292
#
# _framework density 17.680721999999999
#
# number of rings (size 3 to 8) (size 9 to 14) (size 15 to 20)
#    0.000    2.750    2.500    1.500    0.000    0.250 
#    0.000    1.250    0.000   11.625    0.000    0.000 
#    0.000    0.000    0.000    0.000    0.000    0.000 
#
# Total GULP energy -396605.722905 kJ/mol
# GULP energy per Si atom -12393.928841 kJ/mol
# Density = 1.764048 g / cm^3
# Si number density = 17.680722 Si / 1000 Ang^3
#
#
#
# Elastic Constant Matrix: (Units=GPa)
#
#
# Indices 1 2 3 4 5 6 
#
# 1 126.1195 25.0257 87.4692 0.0000 0.0000 0.0000
# 2 25.0257 29.2405 30.0703 0.0000 0.0000 0.0000
# 3 87.4692 30.0703 169.8313 0.0000 0.0000 0.0000
# 4 0.0000 0.0000 0.0000 23.5519 0.0000 0.0000
# 5 0.0000 0.0000 0.0000 0.0000 29.4762 0.0000
# 6 0.0000 0.0000 0.0000 0.0000 0.0000 13.3642
#
#
#
# Elastic Compliance Matrix: (Units=1/GPa)
#
#
# Indices 1 2 3 4 5 6 
#
# 1 0.012942 -0.005162 -0.005752 0.000000 0.000000 0.000000
# 2 -0.005162 0.043871 -0.005109 0.000000 0.000000 0.000000
# 3 -0.005752 -0.005109 0.009755 0.000000 0.000000 0.000000
# 4 0.000000 0.000000 0.000000 0.042459 0.000000 0.000000
# 5 0.000000 0.000000 0.000000 0.000000 0.033926 0.000000
# 6 0.000000 0.000000 0.000000 0.000000 0.000000 0.074827
#
#
# Mechanical properties :
#
#
# Convention : Reuss Voigt Hill
#
# Bulk Modulus (GPa) = 28.96621 67.81351 48.38986
# Shear Modulus (GPa) = 19.13258 25.45353 22.29306
#
# Velocity S-wave (km/s) = 3.29312 3.79835 3.55472
# Velocity P-wave (km/s) = 5.55680 7.59436 6.65404
#
# Compressibility (1/GPa) = 0.03452299
#
# Stress axis : x y z
#
# Youngs Moduli (GPa) = 77.26551 22.79396 102.50880
#
# Poissons Ratio (x) = 0.11766 0.58961
# Poissons Ratio (y) = 0.39883 0.52375
# Poissons Ratio (z) = 0.44442 0.11646
#
# Static dielectric constant tensor:
#      x y z
#    x 3.219380 0.000000 0.000000 
#    y 0.000000 2.841670 0.000000 
#    z 0.000000 0.000000 3.703450 
# 
# 
# High freq. dielectric constant tensor:
#      x y z
#    x 1.656800 0.000000 0.000000 
#    y 0.000000 1.634290 0.000000 
#    z 0.000000 0.000000 1.703690 
# 
# From -- ./inp_files/21518.got.cif
#   From: 2010.03.12/outbox.cif.g09.slc.cpg/sg38_11_cif.got.tgz:21518.got - 2010.04.14 02:38:36.
