data_PCOD8177239
_publ_section_title
;
Structure prediction by ZEFSAII (Michael W. Deem and Ramdas Pophale) SiO2 
 PCOD8177239
Probable space group: A M M 2
;
_chemical_formula_sum "Si O2"
_cell_formula_units_Z 56
_cell_length_a 14.619083
_cell_length_b 9.210153
_cell_length_c 25.874205
_cell_angle_alpha 90.000000
_cell_angle_beta 90.000000
_cell_angle_gamma 90.000000
_cell_volume 3483.806229
_symmetry_space_group_name_H-M "A M M 2"
_symmetry_group_IT_number 38
_symmetry_cell_setting 'orthorhombic'
loop_
_space_group_symop_operation_xyz
x,y,z
-x,-y,z
-x,y,z
x,-y,z
x,1/2+y,1/2+z
-x,1/2-y,1/2+z
-x,1/2+y,1/2+z
x,1/2-y,1/2+z
loop_
_atom_site_type_symbol
_atom_site_label
_atom_site_fract_x
_atom_site_fract_y
_atom_site_fract_z
Si Si1 0.900120 0.827711 0.400900
Si Si2 0.394245 0.169570 0.031125
Si Si3 0.900372 0.827363 0.284564
Si Si4 0.713249 0.326694 0.742959
Si Si5 0.398437 0.172487 0.147031
Si Si6 0.396938 0.172699 0.342085
Si Si7 0.711276 0.672337 0.942743
O O1 0.885992 0.768156 0.342736
O O2 0.816728 0.773733 0.436849
O O3 0.000000 0.775788 0.422231
O O4 0.897348 0.000000 0.398502
O O5 0.500000 0.206470 0.019414
O O6 0.368692 0.218828 0.089411
O O7 0.375826 0.000000 0.023118
O O8 0.328633 0.258842 0.994165
O O9 0.817848 0.769415 0.248513
O O10 0.000000 0.775336 0.263332
O O11 0.897117 0.000000 0.285995
O O12 0.710417 0.500000 0.742581
O O13 0.671934 0.263989 0.689495
O O14 0.654126 0.267774 0.791197
O O15 0.500000 0.232659 0.159402
O O16 0.401310 0.000000 0.150050
O O17 0.500000 0.234251 0.342621
O O18 0.345295 0.228544 0.393189
O O19 0.397155 0.000000 0.341273
O O20 0.704610 0.500000 0.947667
#
# Coordination Sequence:
#
# PCOD8177239 Si02
#       7
#     8   8   8   8   8   8   8
#     4   8  13  22  36  56  84 112 134 160 200 250
#     4   9  18  31  43  56  79 113 147 173 200 239
#     4   8  12  18  29  48  77 108 131 153 192 248
#     4   9  13  19  32  51  75 101 126 159 202 240
#     4   8  14  24  37  51  69 100 140 170 192 231
#     4   9  15  20  29  53  85 104 117 153 208 248
#     4  10  17  26  42  64  85 106 135 172 209 243
#
# _framework density 16.074373000000001
#
# number of rings (size 3 to 8) (size 9 to 14) (size 15 to 20)
#    0.000    3.286    1.429    2.571    0.000    2.571 
#    0.000    0.000    0.000    1.286    0.000    3.000 
#    0.000    2.286    0.000    0.000    0.000    0.000 
#
# Total GULP energy -346925.192118 kJ/mol
# GULP energy per Si atom -12390.185433 kJ/mol
# Density = 1.603779 g / cm^3
# Si number density = 16.074373 Si / 1000 Ang^3
#
#
#
# Elastic Constant Matrix: (Units=GPa)
#
#
# Indices 1 2 3 4 5 6 
#
# 1 171.3074 17.9746 92.3764 0.0000 0.0000 0.0000
# 2 17.9746 8.4216 15.8634 0.0000 0.0000 0.0000
# 3 92.3764 15.8634 126.8384 0.0000 0.0000 0.0000
# 4 0.0000 0.0000 0.0000 15.0482 0.0000 0.0000
# 5 0.0000 0.0000 0.0000 0.0000 26.8875 0.0000
# 6 0.0000 0.0000 0.0000 0.0000 0.0000 9.4801
#
#
#
# Elastic Compliance Matrix: (Units=1/GPa)
#
#
# Indices 1 2 3 4 5 6 
#
# 1 0.010243 -0.010217 -0.006182 0.000000 0.000000 0.000000
# 2 -0.010217 0.165529 -0.013261 0.000000 0.000000 0.000000
# 3 -0.006182 -0.013261 0.014045 0.000000 0.000000 0.000000
# 4 0.000000 0.000000 0.000000 0.066453 0.000000 0.000000
# 5 0.000000 0.000000 0.000000 0.000000 0.037192 0.000000
# 6 0.000000 0.000000 0.000000 0.000000 0.000000 0.105484
#
#
# Mechanical properties :
#
#
# Convention : Reuss Voigt Hill
#
# Bulk Modulus (GPa) = 7.66309 62.11070 34.88690
# Shear Modulus (GPa) = 9.96479 22.30669 16.13574
#
# Velocity S-wave (km/s) = 2.49252 3.72925 3.17175
# Velocity P-wave (km/s) = 3.61402 7.56747 5.92991
#
# Compressibility (1/GPa) = 0.13049565
#
# Stress axis : x y z
#
# Youngs Moduli (GPa) = 97.62464 6.04125 71.19879
#
# Poissons Ratio (x) = 0.06173 0.44018
# Poissons Ratio (y) = 0.99747 0.94417
# Poissons Ratio (z) = 0.60355 0.08011
#
# Static dielectric constant tensor:
#      x y z
#    x 3.517410 0.000000 0.000000 
#    y 0.000000 2.348620 0.000000 
#    z 0.000000 0.000000 3.097780 
# 
# 
# High freq. dielectric constant tensor:
#      x y z
#    x 1.630670 0.000000 0.000000 
#    y 0.000000 1.541100 0.000000 
#    z 0.000000 0.000000 1.605820 
# 
# From -- ./inp_files/24995.got.cif
#   From: 2010.03.12/outbox.cif.g09.slc.cpg/sg38_13_cif.got.tgz:24995.got - 2010.04.14 02:38:36.
