data_PCOD8177772
_publ_section_title
;
Structure prediction by ZEFSAII (Michael W. Deem and Ramdas Pophale) SiO2 
 PCOD8177772
Probable space group: A M M 2
;
_chemical_formula_sum "Si O2"
_cell_formula_units_Z 48
_cell_length_a 14.157406
_cell_length_b 8.915704
_cell_length_c 20.372332
_cell_angle_alpha 90.000000
_cell_angle_beta 90.000000
_cell_angle_gamma 90.000000
_cell_volume 2571.461778
_symmetry_space_group_name_H-M "A M M 2"
_symmetry_group_IT_number 38
_symmetry_cell_setting 'orthorhombic'
loop_
_space_group_symop_operation_xyz
x,y,z
-x,-y,z
-x,y,z
x,-y,z
x,1/2+y,1/2+z
-x,1/2-y,1/2+z
-x,1/2+y,1/2+z
x,1/2-y,1/2+z
loop_
_atom_site_type_symbol
_atom_site_label
_atom_site_fract_x
_atom_site_fract_y
_atom_site_fract_z
Si Si1 0.699924 0.676398 0.665450
Si Si2 0.500000 0.820992 0.215698
Si Si3 0.685811 0.824140 0.908482
Si Si4 0.798611 0.321639 0.535885
Si Si5 0.800210 0.672449 0.797930
Si Si6 0.500000 0.177173 0.365670
Si Si7 0.000000 0.169420 0.353146
Si Si8 0.000000 0.177904 0.991780
O O1 0.690186 0.500000 0.656013
O O2 0.594237 0.740866 0.679208
O O3 0.746790 0.747132 0.600011
O O4 0.770509 0.715860 0.724525
O O5 0.500000 0.761760 0.290760
O O6 0.500000 0.000000 0.216728
O O7 0.747656 0.785393 0.845635
O O8 0.588589 0.736071 0.905951
O O9 0.665539 0.000000 0.910529
O O10 0.740479 0.767791 0.972808
O O11 0.801193 0.500000 0.540231
O O12 0.906367 0.260807 0.528931
O O13 0.770847 0.500000 0.813440
O O14 0.911349 0.698713 0.805861
O O15 0.500000 0.000000 0.365467
O O16 0.000000 0.276022 0.415770
O O17 0.000000 0.000000 0.380296
O O18 0.000000 0.000000 0.991651
#
# Coordination Sequence:
#
# PCOD8177772 Si02
#       8
#     8   4   8   8   8   4   4   4
#     4   9  17  31  51  78 107 138 180 229 272 316
#     4   9  16  28  51  77 101 134 174 219 271 317
#     4  11  21  34  54  83 111 139 178 223 271 322
#     4   9  19  32  51  79 111 142 177 223 273 320
#     4  10  19  33  54  80 108 141 184 226 269 317
#     4  11  21  36  57  83 109 142 184 223 269 321
#     4  10  20  31  51  83 111 141 180 226 272 318
#     4  10  18  33  53  77 107 145 182 218 274 330
#
# _framework density 18.666426000000001
#
# number of rings (size 3 to 8) (size 9 to 14) (size 15 to 20)
#    0.000    2.167    3.333    0.750    0.000    1.333 
#    0.000    5.833    0.000    3.000    0.000    1.167 
#    0.000    0.000    0.000    0.000    0.000    0.000 
#
# Total GULP energy -297561.050101 kJ/mol
# GULP energy per Si atom -12398.377088 kJ/mol
# Density = 1.862394 g / cm^3
# Si number density = 18.666426 Si / 1000 Ang^3
#
#
#
# Elastic Constant Matrix: (Units=GPa)
#
#
# Indices 1 2 3 4 5 6 
#
# 1 185.3128 25.4631 77.4769 0.0000 0.0000 0.0000
# 2 25.4631 26.6765 21.0318 0.0000 0.0000 0.0000
# 3 77.4769 21.0318 128.0951 0.0000 0.0000 0.0000
# 4 0.0000 0.0000 0.0000 20.8636 0.0000 0.0000
# 5 0.0000 0.0000 0.0000 0.0000 36.0905 0.0000
# 6 0.0000 0.0000 0.0000 0.0000 0.0000 22.0997
#
#
#
# Elastic Compliance Matrix: (Units=1/GPa)
#
#
# Indices 1 2 3 4 5 6 
#
# 1 0.007607 -0.004174 -0.003916 0.000000 0.000000 0.000000
# 2 -0.004174 0.045350 -0.004922 0.000000 0.000000 0.000000
# 3 -0.003916 -0.004922 0.010983 0.000000 0.000000 0.000000
# 4 0.000000 0.000000 0.000000 0.047930 0.000000 0.000000
# 5 0.000000 0.000000 0.000000 0.000000 0.027708 0.000000
# 6 0.000000 0.000000 0.000000 0.000000 0.000000 0.045249
#
#
# Mechanical properties :
#
#
# Convention : Reuss Voigt Hill
#
# Bulk Modulus (GPa) = 26.37246 65.33643 45.85444
# Shear Modulus (GPa) = 22.37241 30.21827 26.29534
#
# Velocity S-wave (km/s) = 3.46575 4.02787 3.75733
# Velocity P-wave (km/s) = 5.49310 7.53059 6.59105
#
# Compressibility (1/GPa) = 0.03791834
#
# Stress axis : x y z
#
# Youngs Moduli (GPa) = 131.46035 22.05056 91.04901
#
# Poissons Ratio (x) = 0.09203 0.35651
# Poissons Ratio (y) = 0.54868 0.44810
# Poissons Ratio (z) = 0.51475 0.10852
#
# Static dielectric constant tensor:
#      x y z
#    x 3.620830 0.000000 0.000000 
#    y 0.000000 3.019550 0.000000 
#    z 0.000000 0.000000 3.540080 
# 
# 
# High freq. dielectric constant tensor:
#      x y z
#    x 1.746500 0.000000 0.000000 
#    y 0.000000 1.677440 0.000000 
#    z 0.000000 0.000000 1.721020 
# 
# From -- ./inp_files/18247.got.cif
#   From: 2010.03.12/outbox.cif.g09.slc.cpg/sg38_10_cif.got.tgz:18247.got - 2010.04.14 02:38:36.
