data_PCOD8177926
_publ_section_title
;
Structure prediction by ZEFSAII (Michael W. Deem and Ramdas Pophale) SiO2 
 PCOD8177926
Probable space group: A M M 2
;
_chemical_formula_sum "Si O2"
_cell_formula_units_Z 64
_cell_length_a 20.930021
_cell_length_b 9.467201
_cell_length_c 18.510933
_cell_angle_alpha 90.000000
_cell_angle_beta 90.000000
_cell_angle_gamma 90.000000
_cell_volume 3667.917601
_symmetry_space_group_name_H-M "A M M 2"
_symmetry_group_IT_number 38
_symmetry_cell_setting 'orthorhombic'
loop_
_space_group_symop_operation_xyz
x,y,z
-x,-y,z
-x,y,z
x,-y,z
x,1/2+y,1/2+z
-x,1/2-y,1/2+z
-x,1/2+y,1/2+z
x,1/2-y,1/2+z
loop_
_atom_site_type_symbol
_atom_site_label
_atom_site_fract_x
_atom_site_fract_y
_atom_site_fract_z
Si Si1 0.429648 0.835653 0.711900
Si Si2 0.929820 0.841222 0.615403
Si Si3 0.431932 0.159466 0.354090
Si Si4 0.295292 0.841225 0.368451
Si Si5 0.811726 0.163557 0.113330
Si Si6 0.929503 0.658722 0.943724
Si Si7 0.810974 0.335687 0.444344
Si Si8 0.311645 0.837356 0.198058
O O1 0.500000 0.814849 0.675141
O O2 0.433343 0.775835 0.792374
O O3 0.373340 0.751448 0.670550
O O4 0.411365 0.000000 0.714974
O O5 0.873968 0.741648 0.645837
O O6 0.929310 0.836266 0.529515
O O7 0.000000 0.790024 0.642750
O O8 0.916893 0.000000 0.642615
O O9 0.500000 0.171771 0.397757
O O10 0.367439 0.182063 0.401266
O O11 0.426697 0.000000 0.320275
O O12 0.249683 0.727709 0.404013
O O13 0.298759 0.815643 0.282749
O O14 0.270821 0.000000 0.385555
O O15 0.749527 0.220703 0.154647
O O16 0.822941 0.000000 0.129137
O O17 0.802520 0.194702 0.028890
O O18 0.914060 0.500000 0.917023
O O19 0.875603 0.764162 0.913404
O O20 0.000000 0.705133 0.915600
O O21 0.815075 0.500000 0.426651
O O22 0.324082 0.000000 0.178359
#
# Coordination Sequence:
#
# PCOD8177926 Si02
#       8
#     8   8   8   8   8   8   8   8
#     4   9  16  25  40  65  92 113 139 180 226 265
#     4   8  14  25  42  65  90 114 142 177 218 262
#     4   8  14  26  44  64  85 112 148 185 218 254
#     4   9  17  29  46  66  88 116 149 183 216 256
#     4   9  18  31  46  66  90 116 148 183 218 257
#     4   8  14  26  44  64  86 113 146 182 216 254
#     4  10  19  29  44  67  94 119 142 177 223 266
#     4   9  18  32  48  65  87 118 154 185 213 254
#
# _framework density 17.448592000000001
#
# number of rings (size 3 to 8) (size 9 to 14) (size 15 to 20)
#    0.000    3.250    0.000    2.250    0.000    4.250 
#    0.000    2.500    0.000    1.500    0.000    5.250 
#    0.000    0.000    0.000    0.000    0.000    0.000 
#
# Total GULP energy -396440.560064 kJ/mol
# GULP energy per Si atom -12388.767502 kJ/mol
# Density = 1.740888 g / cm^3
# Si number density = 17.448592 Si / 1000 Ang^3
#
#
#
# Elastic Constant Matrix: (Units=GPa)
#
#
# Indices 1 2 3 4 5 6 
#
# 1 198.3036 92.2976 31.2873 0.0000 0.0000 0.0000
# 2 92.2976 99.4557 21.5609 0.0000 0.0000 0.0000
# 3 31.2873 21.5609 17.0802 0.0000 0.0000 0.0000
# 4 0.0000 0.0000 0.0000 14.4549 0.0000 0.0000
# 5 0.0000 0.0000 0.0000 0.0000 23.0602 0.0000
# 6 0.0000 0.0000 0.0000 0.0000 0.0000 35.8112
#
#
#
# Elastic Compliance Matrix: (Units=1/GPa)
#
#
# Indices 1 2 3 4 5 6 
#
# 1 0.009766 -0.007138 -0.008878 0.000000 0.000000 0.000000
# 2 -0.007138 0.019061 -0.010985 0.000000 0.000000 0.000000
# 3 -0.008878 -0.010985 0.088677 0.000000 0.000000 0.000000
# 4 0.000000 0.000000 0.000000 0.069181 0.000000 0.000000
# 5 0.000000 0.000000 0.000000 0.000000 0.043365 0.000000
# 6 0.000000 0.000000 0.000000 0.000000 0.000000 0.027924
#
#
# Mechanical properties :
#
#
# Convention : Reuss Voigt Hill
#
# Bulk Modulus (GPa) = 15.74787 67.23678 41.49232
# Shear Modulus (GPa) = 15.00853 25.97817 20.49335
#
# Velocity S-wave (km/s) = 2.93603 3.86274 3.43081
# Velocity P-wave (km/s) = 4.53195 7.64933 6.28692
#
# Compressibility (1/GPa) = 0.06350067
#
# Stress axis : x y z
#
# Youngs Moduli (GPa) = 102.39606 52.46356 11.27686
#
# Poissons Ratio (x) = 0.37451 0.10012
# Poissons Ratio (y) = 0.73095 0.12388
# Poissons Ratio (z) = 0.90909 0.57632
#
# Static dielectric constant tensor:
#      x y z
#    x 3.887280 0.000000 0.000000 
#    y 0.000000 3.295620 0.000000 
#    z 0.000000 0.000000 2.637550 
# 
# 
# High freq. dielectric constant tensor:
#      x y z
#    x 1.702150 0.000000 0.000000 
#    y 0.000000 1.676270 0.000000 
#    z 0.000000 0.000000 1.598040 
# 
# From -- ./inp_files/21549.got.cif
#   From: 2010.03.12/outbox.cif.g09.slc.cpg/sg38_11_cif.got.tgz:21549.got - 2010.04.14 02:38:36.
