data_PCOD8177062
_publ_section_title
;
Structure prediction by ZEFSAII (Michael W. Deem and Ramdas Pophale) SiO2 
 PCOD8177062
Probable space group: C C C 2
;
_chemical_formula_sum "Si O2"
_cell_formula_units_Z 64
_cell_length_a 25.938791
_cell_length_b 13.979444
_cell_length_c 9.378796
_cell_angle_alpha 90.000000
_cell_angle_beta 90.000000
_cell_angle_gamma 90.000000
_cell_volume 3400.844057
_symmetry_space_group_name_H-M "C C C 2"
_symmetry_group_IT_number 37
_symmetry_cell_setting 'orthorhombic'
loop_
_space_group_symop_operation_xyz
x,y,z
-x,-y,z
-x,y,1/2+z
x,-y,1/2+z
1/2+x,1/2+y,z
1/2-x,1/2-y,z
1/2-x,1/2+y,1/2+z
1/2+x,1/2-y,1/2+z
loop_
_atom_site_type_symbol
_atom_site_label
_atom_site_fract_x
_atom_site_fract_y
_atom_site_fract_z
Si Si1 0.944181 0.606256 0.223830
Si Si2 0.268467 0.486674 0.819719
Si Si3 0.378938 0.851227 0.488082
Si Si4 0.302546 0.307972 0.309959
Si Si5 0.697170 0.304420 0.473161
Si Si6 0.559770 0.108893 0.217767
Si Si7 0.876186 0.669630 0.475655
Si Si8 0.696500 0.007896 0.059081
O O1 0.942781 0.499150 0.155838
O O2 0.907959 0.609560 0.361313
O O3 0.002031 0.640327 0.262492
O O4 0.923230 0.678024 0.101144
O O5 0.298170 0.583340 0.863400
O O6 0.304095 0.398751 0.873095
O O7 0.248432 0.486893 0.655972
O O8 0.214407 0.482537 0.900418
O O9 0.350259 0.759870 0.421859
O O10 0.404426 0.903287 0.355380
O O11 0.341364 0.918248 0.588223
O O12 0.250000 0.250000 0.340437
O O13 0.349897 0.261584 0.399801
O O14 0.312468 0.318071 0.141531
O O15 0.750000 0.250000 0.443900
O O16 0.582829 0.186742 0.104641
O O17 0.832175 0.608496 0.555669
#
# Coordination Sequence:
#
# PCOD8177062 Si02
#       8
#     8   8   8   8   8   8   8   8
#     4  11  21  38  59  82 127 162 193 245 304 367
#     4  12  23  39  55  83 121 157 205 244 282 348
#     4  12  21  38  59  83 121 163 197 237 300 361
#     4  11  22  39  58  83 115 160 199 237 296 357
#     4  11  23  38  59  82 116 160 198 237 296 357
#     4  11  23  35  56  94 120 153 203 250 297 358
#     4  12  22  36  59  87 119 164 197 239 301 362
#     4  12  21  35  58  84 119 159 197 235 286 350
#
# _framework density 18.818857999999999
#
# number of rings (size 3 to 8) (size 9 to 14) (size 15 to 20)
#    0.000    0.500    7.500    3.000    0.000    3.000 
#    0.000    0.000    0.000    0.000    0.000    5.250 
#    0.000    0.000    0.000    0.000    0.000    0.000 
#
# Total GULP energy -396474.723990 kJ/mol
# GULP energy per Si atom -12389.835125 kJ/mol
# Density = 1.877603 g / cm^3
# Si number density = 18.818858 Si / 1000 Ang^3
#
#
#
# Elastic Constant Matrix: (Units=GPa)
#
#
# Indices 1 2 3 4 5 6 
#
# 1 101.9084 51.2574 37.8454 0.0000 0.0000 0.0000
# 2 51.2574 108.2109 30.6364 0.0000 0.0000 0.0000
# 3 37.8454 30.6364 81.0661 0.0000 0.0000 0.0000
# 4 0.0000 0.0000 0.0000 20.4587 0.0000 0.0000
# 5 0.0000 0.0000 0.0000 0.0000 28.6656 0.0000
# 6 0.0000 0.0000 0.0000 0.0000 0.0000 19.1000
#
#
#
# Elastic Compliance Matrix: (Units=1/GPa)
#
#
# Indices 1 2 3 4 5 6 
#
# 1 0.014264 -0.005455 -0.004597 0.000000 0.000000 0.000000
# 2 -0.005455 0.012435 -0.002153 0.000000 0.000000 0.000000
# 3 -0.004597 -0.002153 0.015295 0.000000 0.000000 0.000000
# 4 0.000000 0.000000 0.000000 0.048879 0.000000 0.000000
# 5 0.000000 0.000000 0.000000 0.000000 0.034885 0.000000
# 6 0.000000 0.000000 0.000000 0.000000 0.000000 0.052356
#
#
# Mechanical properties :
#
#
# Convention : Reuss Voigt Hill
#
# Bulk Modulus (GPa) = 56.87071 58.96263 57.91667
# Shear Modulus (GPa) = 23.99406 25.07460 24.53433
#
# Velocity S-wave (km/s) = 3.57459 3.65419 3.61461
# Velocity P-wave (km/s) = 6.87914 7.01455 6.94717
#
# Compressibility (1/GPa) = 0.01758375
#
# Stress axis : x y z
#
# Youngs Moduli (GPa) = 70.10792 80.42128 65.37887
#
# Poissons Ratio (x) = 0.43868 0.30058
# Poissons Ratio (y) = 0.38243 0.14074
# Poissons Ratio (z) = 0.32232 0.17312
#
# Static dielectric constant tensor:
#      x y z
#    x 3.541550 0.000000 0.000000 
#    y 0.000000 3.274580 0.000000 
#    z 0.000000 0.000000 3.486990 
# 
# 
# High freq. dielectric constant tensor:
#      x y z
#    x 1.720840 0.000000 0.000000 
#    y 0.000000 1.688280 0.000000 
#    z 0.000000 0.000000 1.744520 
# 
# From -- ./inp_files/3753.got.cif
#   From: 2010.03.12/outbox.cif.g09.slc.cpg/sg37_2_cif.got.tgz:3753.got - 2010.04.14 02:25:27.
