data_PCOD8177664
_publ_section_title
;
Structure prediction by ZEFSAII (Michael W. Deem and Ramdas Pophale) SiO2 
 PCOD8177664
Probable space group: A M M 2
;
_chemical_formula_sum "Si O2"
_cell_formula_units_Z 64
_cell_length_a 9.076261
_cell_length_b 19.718393
_cell_length_c 20.727651
_cell_angle_alpha 90.000000
_cell_angle_beta 90.000000
_cell_angle_gamma 90.000000
_cell_volume 3709.612804
_symmetry_space_group_name_H-M "A M M 2"
_symmetry_group_IT_number 38
_symmetry_cell_setting 'orthorhombic'
loop_
_space_group_symop_operation_xyz
x,y,z
-x,-y,z
-x,y,z
x,-y,z
x,1/2+y,1/2+z
-x,1/2-y,1/2+z
-x,1/2+y,1/2+z
x,1/2-y,1/2+z
loop_
_atom_site_type_symbol
_atom_site_label
_atom_site_fract_x
_atom_site_fract_y
_atom_site_fract_z
Si Si1 0.174213 0.714433 0.571860
Si Si2 0.174698 0.426070 0.375666
Si Si3 0.172817 0.296121 0.943999
Si Si4 0.674733 0.926353 0.633331
Si Si5 0.825522 0.073858 0.019856
Si Si6 0.675033 0.787099 0.689339
Si Si7 0.672077 0.923607 0.487838
Si Si8 0.174439 0.211955 0.819186
O O1 0.221238 0.754264 0.507223
O O2 0.225745 0.635966 0.564627
O O3 0.265125 0.741498 0.631838
O O4 0.000000 0.721319 0.584764
O O5 0.223064 0.500000 0.347758
O O6 0.239544 0.417205 0.447768
O O7 0.231589 0.365214 0.330675
O O8 0.000000 0.420993 0.379951
O O9 0.224193 0.256522 0.880172
O O10 0.000000 0.306336 0.943374
O O11 0.246185 0.370129 0.942217
O O12 0.500000 0.927728 0.630233
O O13 0.729229 0.864993 0.678380
O O14 0.733149 0.914676 0.560670
O O15 0.732358 0.000000 0.659021
O O16 0.000000 0.076645 0.014194
O O17 0.775685 0.000000 0.048030
O O18 0.500000 0.781174 0.691548
O O19 0.743684 0.760301 0.755925
O O20 0.500000 0.907817 0.485039
O O21 0.705100 0.000000 0.463331
O O22 0.000000 0.215670 0.808219
#
# Coordination Sequence:
#
# PCOD8177664 Si02
#       8
#     8   8   8   8   8   8   8   8
#     4  10  18  31  52  77 101 128 164 208 252 294
#     4   8  13  24  45  72 101 131 162 196 236 286
#     4  10  19  31  51  77 103 130 163 207 257 297
#     4   8  15  29  47  67  95 131 167 200 238 287
#     4   8  13  24  47  77 102 125 158 198 241 293
#     4  11  22  34  49  71  99 136 174 207 245 292
#     4   9  17  31  52  75  99 130 166 205 250 298
#     4  10  20  34  49  71 104 137 166 203 249 295
#
# _framework density 17.252472999999998
#
# number of rings (size 3 to 8) (size 9 to 14) (size 15 to 20)
#    0.000    2.750    2.500    1.875    0.000    1.250 
#    0.000    0.000    0.000    2.250    0.000    3.500 
#    0.000    0.000    0.000    0.000    0.000    0.000 
#
# Total GULP energy -396580.019479 kJ/mol
# GULP energy per Si atom -12393.125609 kJ/mol
# Density = 1.721321 g / cm^3
# Si number density = 17.252473 Si / 1000 Ang^3
#
#
#
# Elastic Constant Matrix: (Units=GPa)
#
#
# Indices 1 2 3 4 5 6 
#
# 1 29.1066 33.8368 36.4503 0.0000 0.0000 0.0000
# 2 33.8368 122.3700 63.5154 0.0000 0.0000 0.0000
# 3 36.4503 63.5154 114.8921 0.0000 0.0000 0.0000
# 4 0.0000 0.0000 0.0000 22.4256 0.0000 0.0000
# 5 0.0000 0.0000 0.0000 0.0000 15.3134 0.0000
# 6 0.0000 0.0000 0.0000 0.0000 0.0000 20.9944
#
#
#
# Elastic Compliance Matrix: (Units=1/GPa)
#
#
# Indices 1 2 3 4 5 6 
#
# 1 0.064952 -0.010188 -0.014975 0.000000 0.000000 0.000000
# 2 -0.010188 0.013058 -0.003987 0.000000 0.000000 0.000000
# 3 -0.014975 -0.003987 0.015659 0.000000 0.000000 0.000000
# 4 0.000000 0.000000 0.000000 0.044592 0.000000 0.000000
# 5 0.000000 0.000000 0.000000 0.000000 0.065302 0.000000
# 6 0.000000 0.000000 0.000000 0.000000 0.000000 0.047632
#
#
# Mechanical properties :
#
#
# Convention : Reuss Voigt Hill
#
# Bulk Modulus (GPa) = 28.27164 59.33039 43.80101
# Shear Modulus (GPa) = 15.56256 20.58443 18.07349
#
# Velocity S-wave (km/s) = 3.00667 3.45792 3.24016
# Velocity P-wave (km/s) = 5.33629 7.09979 6.28025
#
# Compressibility (1/GPa) = 0.03537113
#
# Stress axis : x y z
#
# Youngs Moduli (GPa) = 15.39590 76.57955 63.86252
#
# Poissons Ratio (x) = 0.78017 0.95631
# Poissons Ratio (y) = 0.15685 0.25461
# Poissons Ratio (z) = 0.23055 0.30531
#
# Static dielectric constant tensor:
#      x y z
#    x 2.781400 0.000000 0.000000 
#    y 0.000000 3.625820 0.000000 
#    z 0.000000 0.000000 3.034120 
# 
# 
# High freq. dielectric constant tensor:
#      x y z
#    x 1.626820 0.000000 0.000000 
#    y 0.000000 1.676540 0.000000 
#    z 0.000000 0.000000 1.642670 
# 
# From -- ./inp_files/17932.got.cif
#   From: 2010.03.12/outbox.cif.g09.slc.cpg/sg38_9_cif.got.tgz:17932.got - 2010.04.14 02:38:36.
