data_PCOD8177092
_publ_section_title
;
Structure prediction by ZEFSAII (Michael W. Deem and Ramdas Pophale) SiO2 
 PCOD8177092
Probable space group: C C C 2
;
_chemical_formula_sum "Si O2"
_cell_formula_units_Z 56
_cell_length_a 11.016375
_cell_length_b 15.350421
_cell_length_c 13.811404
_cell_angle_alpha 90.000000
_cell_angle_beta 90.000000
_cell_angle_gamma 90.000000
_cell_volume 2335.591204
_symmetry_space_group_name_H-M "C C C 2"
_symmetry_group_IT_number 37
_symmetry_cell_setting 'orthorhombic'
loop_
_space_group_symop_operation_xyz
x,y,z
-x,-y,z
-x,y,1/2+z
x,-y,1/2+z
1/2+x,1/2+y,z
1/2-x,1/2-y,z
1/2-x,1/2+y,1/2+z
1/2+x,1/2-y,1/2+z
loop_
_atom_site_type_symbol
_atom_site_label
_atom_site_fract_x
_atom_site_fract_y
_atom_site_fract_z
Si Si1 0.447319 0.646254 0.578580
Si Si2 0.578994 0.915564 0.585952
Si Si3 0.867436 0.979473 0.323274
Si Si4 0.162091 0.976470 0.037171
Si Si5 0.387167 0.934645 0.300357
Si Si6 0.036176 0.293102 0.936235
Si Si7 0.123005 0.212504 0.274241
O O1 0.354072 0.565216 0.600780
O O2 0.579274 0.604827 0.566054
O O3 0.406906 0.705077 0.484087
O O4 0.453986 0.703119 0.675928
O O5 0.704999 0.940330 0.538312
O O6 0.581672 0.888561 0.698634
O O7 0.530795 0.833496 0.528105
O O8 0.500000 0.000000 0.569770
O O9 0.875069 0.013808 0.432531
O O10 0.850463 0.877021 0.328455
O O11 0.744773 0.021502 0.277724
O O12 0.000000 0.000000 0.272007
O O13 0.371096 0.862688 0.386523
O O14 0.500000 0.000000 0.327925
O O15 0.943127 0.274876 0.849750
O O16 0.250000 0.250000 0.239967
#
# Coordination Sequence:
#
# PCOD8177092 Si02
#       7
#     8   8   8   8   8   8   8
#     4  11  26  44  71 107 145 191 244 299 372 437
#     4  11  25  45  77 109 146 197 249 302 367 445
#     4  12  24  46  76 107 144 196 249 298 373 454
#     4  11  22  48  72 103 146 196 242 301 369 447
#     4  11  25  45  74 112 146 193 250 305 368 442
#     4  12  24  47  72 108 147 188 246 308 373 432
#     4  12  26  44  71 105 147 195 244 306 369 449
#
# _framework density 23.976797999999999
#
# number of rings (size 3 to 8) (size 9 to 14) (size 15 to 20)
#    0.000    0.571    2.857    5.571    4.000    4.571 
#    0.000    3.571    0.000    0.000    0.000    0.000 
#    0.000    0.000    0.000    0.000    0.000    0.000 
#
# Total GULP energy -347037.910593 kJ/mol
# GULP energy per Si atom -12394.211093 kJ/mol
# Density = 2.392223 g / cm^3
# Si number density = 23.976798 Si / 1000 Ang^3
#
#
#
# Elastic Constant Matrix: (Units=GPa)
#
#
# Indices 1 2 3 4 5 6 
#
# 1 106.9990 43.2699 15.1581 0.0000 0.0000 0.0000
# 2 43.2699 106.2434 34.1700 0.0000 0.0000 0.0000
# 3 15.1581 34.1700 118.2444 0.0000 0.0000 0.0000
# 4 0.0000 0.0000 0.0000 36.8391 0.0000 0.0000
# 5 0.0000 0.0000 0.0000 0.0000 27.8928 0.0000
# 6 0.0000 0.0000 0.0000 0.0000 0.0000 23.9885
#
#
#
# Elastic Compliance Matrix: (Units=1/GPa)
#
#
# Indices 1 2 3 4 5 6 
#
# 1 0.011190 -0.004516 -0.000130 0.000000 0.000000 0.000000
# 2 -0.004516 0.012199 -0.002946 0.000000 0.000000 0.000000
# 3 -0.000130 -0.002946 0.009325 0.000000 0.000000 0.000000
# 4 0.000000 0.000000 0.000000 0.027145 0.000000 0.000000
# 5 0.000000 0.000000 0.000000 0.000000 0.035852 0.000000
# 6 0.000000 0.000000 0.000000 0.000000 0.000000 0.041687
#
#
# Mechanical properties :
#
#
# Convention : Reuss Voigt Hill
#
# Bulk Modulus (GPa) = 57.04155 57.40920 57.22538
# Shear Modulus (GPa) = 31.56062 33.67000 32.61531
#
# Velocity S-wave (km/s) = 3.63202 3.75143 3.69221
# Velocity P-wave (km/s) = 6.43667 6.53911 6.48809
#
# Compressibility (1/GPa) = 0.01753108
#
# Stress axis : x y z
#
# Youngs Moduli (GPa) = 89.36203 81.97295 107.23746
#
# Poissons Ratio (x) = 0.37018 0.01389
# Poissons Ratio (y) = 0.40355 0.31596
# Poissons Ratio (z) = 0.01158 0.24152
#
# Static dielectric constant tensor:
#      x y z
#    x 4.390300 0.000000 0.000000 
#    y 0.000000 4.123430 0.000000 
#    z 0.000000 0.000000 4.418340 
# 
# 
# High freq. dielectric constant tensor:
#      x y z
#    x 1.940080 0.000000 0.000000 
#    y 0.000000 1.956700 0.000000 
#    z 0.000000 0.000000 1.971180 
# 
# From -- ./inp_files/11588.got.cif
#   From: 2010.03.12/outbox.cif.g09.slc.cpg/sg37_6_cif.got.tgz:11588.got - 2010.04.14 02:25:27.
