data_PCOD8177082
_publ_section_title
;
Structure prediction by ZEFSAII (Michael W. Deem and Ramdas Pophale) SiO2 
 PCOD8177082
Probable space group: C C C 2
;
_chemical_formula_sum "Si O2"
_cell_formula_units_Z 48
_cell_length_a 13.904030
_cell_length_b 13.589254
_cell_length_c 12.271647
_cell_angle_alpha 90.000000
_cell_angle_beta 90.000000
_cell_angle_gamma 90.000000
_cell_volume 2318.671193
_symmetry_space_group_name_H-M "C C C 2"
_symmetry_group_IT_number 37
_symmetry_cell_setting 'orthorhombic'
loop_
_space_group_symop_operation_xyz
x,y,z
-x,-y,z
-x,y,1/2+z
x,-y,1/2+z
1/2+x,1/2+y,z
1/2-x,1/2-y,z
1/2-x,1/2+y,1/2+z
1/2+x,1/2-y,1/2+z
loop_
_atom_site_type_symbol
_atom_site_label
_atom_site_fract_x
_atom_site_fract_y
_atom_site_fract_z
Si Si1 0.422423 0.415114 0.522060
Si Si2 0.575782 0.585592 0.272600
Si Si3 0.515829 0.242486 0.635184
Si Si4 0.741320 0.512976 0.133880
Si Si5 0.674999 0.833945 0.978537
Si Si6 0.916487 0.423126 0.264575
O O1 0.500000 0.500000 0.552692
O O2 0.395149 0.422161 0.396945
O O3 0.463492 0.307188 0.543586
O O4 0.324978 0.423247 0.592436
O O5 0.500000 0.500000 0.241349
O O6 0.531214 0.691426 0.243100
O O7 0.674474 0.582260 0.206434
O O8 0.612894 0.205272 0.579437
O O9 0.452789 0.150301 0.671290
O O10 0.827361 0.478317 0.210214
O O11 0.771853 0.570075 0.024620
O O12 0.750000 0.750000 0.941065
O O13 0.613081 0.865170 0.873650
O O14 0.000000 0.500000 0.296283
#
# Coordination Sequence:
#
# PCOD8177082 Si02
#       6
#     8   8   8   8   8   8
#     4  11  22  41  72 105 135 175 223 293 352 407
#     4  11  22  43  72 103 137 175 231 291 358 405
#     4  12  23  46  68 101 140 177 228 286 344 410
#     4  12  23  46  68 101 140 177 228 286 344 410
#     4  12  26  46  75 101 134 184 237 285 347 408
#     4  12  30  46  69  99 142 192 225 275 343 420
#
# _framework density 20.701511
#
# number of rings (size 3 to 8) (size 9 to 14) (size 15 to 20)
#    0.000    0.333    6.667    2.000    4.667    2.667 
#    0.000    1.667    0.000    0.000    0.000    0.000 
#    0.000    0.000    0.000    0.000    0.000    0.000 
#
# Total GULP energy -297633.790111 kJ/mol
# GULP energy per Si atom -12401.407921 kJ/mol
# Density = 2.065439 g / cm^3
# Si number density = 20.701511 Si / 1000 Ang^3
#
#
#
# Elastic Constant Matrix: (Units=GPa)
#
#
# Indices 1 2 3 4 5 6 
#
# 1 111.2762 32.7698 36.4652 0.0000 0.0000 0.0000
# 2 32.7698 87.4573 19.6363 0.0000 0.0000 0.0000
# 3 36.4652 19.6363 106.2258 0.0000 0.0000 0.0000
# 4 0.0000 0.0000 0.0000 2.4021 0.0000 0.0000
# 5 0.0000 0.0000 0.0000 0.0000 52.9080 0.0000
# 6 0.0000 0.0000 0.0000 0.0000 0.0000 29.4708
#
#
#
# Elastic Compliance Matrix: (Units=1/GPa)
#
#
# Indices 1 2 3 4 5 6 
#
# 1 0.011028 -0.003424 -0.003153 0.000000 0.000000 0.000000
# 2 -0.003424 0.012993 -0.001226 0.000000 0.000000 0.000000
# 3 -0.003153 -0.001226 0.010723 0.000000 0.000000 0.000000
# 4 0.000000 0.000000 0.000000 0.416295 0.000000 0.000000
# 5 0.000000 0.000000 0.000000 0.000000 0.018901 0.000000
# 6 0.000000 0.000000 0.000000 0.000000 0.000000 0.033932
#
#
# Mechanical properties :
#
#
# Convention : Reuss Voigt Hill
#
# Bulk Modulus (GPa) = 52.25484 53.63354 52.94419
# Shear Modulus (GPa) = 9.50828 31.36205 20.43517
#
# Velocity S-wave (km/s) = 2.14546 3.89648 3.14528
# Velocity P-wave (km/s) = 5.60662 6.79762 6.23064
#
# Compressibility (1/GPa) = 0.01913698
#
# Stress axis : x y z
#
# Youngs Moduli (GPa) = 90.67623 76.96713 93.25867
#
# Poissons Ratio (x) = 0.26356 0.29402
# Poissons Ratio (y) = 0.31051 0.11436
# Poissons Ratio (z) = 0.28588 0.09438
#
# Static dielectric constant tensor:
#      x y z
#    x 3.773340 0.000000 0.000000 
#    y 0.000000 3.744270 0.000000 
#    z 0.000000 0.000000 3.714660 
# 
# 
# High freq. dielectric constant tensor:
#      x y z
#    x 1.816660 0.000000 0.000000 
#    y 0.000000 1.808000 0.000000 
#    z 0.000000 0.000000 1.825410 
# 
# From -- ./inp_files/7804.got.cif
#   From: 2010.03.12/outbox.cif.g09.slc.cpg/sg37_4_cif.got.tgz:7804.got - 2010.04.14 02:25:27.
