data_PCOD8177661
_publ_section_title
;
Structure prediction by ZEFSAII (Michael W. Deem and Ramdas Pophale) SiO2 
 PCOD8177661
Probable space group: A M M 2
;
_chemical_formula_sum "Si O2"
_cell_formula_units_Z 64
_cell_length_a 9.362524
_cell_length_b 20.490725
_cell_length_c 19.560513
_cell_angle_alpha 90.000000
_cell_angle_beta 90.000000
_cell_angle_gamma 90.000000
_cell_volume 3752.584750
_symmetry_space_group_name_H-M "A M M 2"
_symmetry_group_IT_number 38
_symmetry_cell_setting 'orthorhombic'
loop_
_space_group_symop_operation_xyz
x,y,z
-x,-y,z
-x,y,z
x,-y,z
x,1/2+y,1/2+z
-x,1/2-y,1/2+z
-x,1/2+y,1/2+z
x,1/2-y,1/2+z
loop_
_atom_site_type_symbol
_atom_site_label
_atom_site_fract_x
_atom_site_fract_y
_atom_site_fract_z
Si Si1 0.163226 0.118754 0.752550
Si Si2 0.169025 0.072492 0.608683
Si Si3 0.830327 0.809682 0.515811
Si Si4 0.665569 0.925438 0.028257
Si Si5 0.333710 0.274661 0.883968
Si Si6 0.167277 0.816069 0.103310
Si Si7 0.162774 0.772218 0.252721
Si Si8 0.335887 0.878279 0.882620
O O1 0.229051 0.084972 0.685010
O O2 0.179744 0.195526 0.741726
O O3 0.248599 0.093902 0.818576
O O4 0.000000 0.098236 0.764167
O O5 0.225876 0.126148 0.555554
O O6 0.000000 0.080423 0.613202
O O7 0.214427 0.000000 0.584165
O O8 0.748923 0.811441 0.444109
O O9 0.783936 0.746371 0.559172
O O10 0.000000 0.810898 0.503184
O O11 0.500000 0.905735 0.033508
O O12 0.752948 0.880747 0.079679
O O13 0.692026 0.000000 0.049548
O O14 0.718042 0.914797 0.950509
O O15 0.500000 0.293288 0.885595
O O16 0.267088 0.298158 0.812048
O O17 0.307714 0.198061 0.893501
O O18 0.208154 0.806241 0.182278
O O19 0.000000 0.827045 0.094053
O O20 0.000000 0.789455 0.272672
O O21 0.500000 0.893417 0.867443
#
# Coordination Sequence:
#
# PCOD8177661 Si02
#       8
#     8   8   8   8   8   8   8   8
#     4   9  16  28  47  71  99 132 167 200 237 285
#     4   9  17  30  49  74 103 133 166 203 245 296
#     4  10  18  31  52  76 100 131 167 207 253 294
#     4  10  21  36  51  69 100 139 171 204 251 302
#     4  10  19  31  49  75 102 130 166 208 248 292
#     4  10  19  32  53  77 100 128 167 213 255 295
#     4   9  17  31  50  74 102 130 161 204 254 298
#     4   9  18  31  45  67  99 134 168 199 238 289
#
# _framework density 17.054911000000001
#
# number of rings (size 3 to 8) (size 9 to 14) (size 15 to 20)
#    0.000    2.500    2.500    0.375    0.000    2.250 
#    0.000    0.625    0.000    1.875    0.000    1.750 
#    0.000    0.000    0.000    0.000    0.000    0.000 
#
# Total GULP energy -396811.003377 kJ/mol
# GULP energy per Si atom -12400.343856 kJ/mol
# Density = 1.701609 g / cm^3
# Si number density = 17.054911 Si / 1000 Ang^3
#
#
#
# Elastic Constant Matrix: (Units=GPa)
#
#
# Indices 1 2 3 4 5 6 
#
# 1 55.6704 32.3533 54.6984 0.0000 0.0000 0.0000
# 2 32.3533 76.7049 58.4072 0.0000 0.0000 0.0000
# 3 54.6984 58.4072 130.4027 0.0000 0.0000 0.0000
# 4 0.0000 0.0000 0.0000 23.1902 0.0000 0.0000
# 5 0.0000 0.0000 0.0000 0.0000 21.7077 0.0000
# 6 0.0000 0.0000 0.0000 0.0000 0.0000 17.0307
#
#
#
# Elastic Compliance Matrix: (Units=1/GPa)
#
#
# Indices 1 2 3 4 5 6 
#
# 1 0.031740 -0.004932 -0.011104 0.000000 0.000000 0.000000
# 2 -0.004932 0.020551 -0.007136 0.000000 0.000000 0.000000
# 3 -0.011104 -0.007136 0.015523 0.000000 0.000000 0.000000
# 4 0.000000 0.000000 0.000000 0.043122 0.000000 0.000000
# 5 0.000000 0.000000 0.000000 0.000000 0.046067 0.000000
# 6 0.000000 0.000000 0.000000 0.000000 0.000000 0.058717
#
#
# Mechanical properties :
#
#
# Convention : Reuss Voigt Hill
#
# Bulk Modulus (GPa) = 46.57996 61.52175 54.05086
# Shear Modulus (GPa) = 18.57219 20.20699 19.38959
#
# Velocity S-wave (km/s) = 3.30353 3.44586 3.37544
# Velocity P-wave (km/s) = 6.47473 7.20992 6.85219
#
# Compressibility (1/GPa) = 0.02146846
#
# Stress axis : x y z
#
# Youngs Moduli (GPa) = 31.50635 48.65957 64.42226
#
# Poissons Ratio (x) = 0.23999 0.71537
# Poissons Ratio (y) = 0.15539 0.45972
# Poissons Ratio (z) = 0.34986 0.34724
#
# Static dielectric constant tensor:
#      x y z
#    x 3.050880 0.000000 0.000000 
#    y 0.000000 3.009510 0.000000 
#    z 0.000000 0.000000 3.263350 
# 
# 
# High freq. dielectric constant tensor:
#      x y z
#    x 1.640880 0.000000 0.000000 
#    y 0.000000 1.635220 0.000000 
#    z 0.000000 0.000000 1.663760 
# 
# From -- ./inp_files/17157.got.cif
#   From: 2010.03.12/outbox.cif.g09.slc.cpg/sg38_9_cif.got.tgz:17157.got - 2010.04.14 02:38:36.
