data_PCOD8177709
_publ_section_title
;
Structure prediction by ZEFSAII (Michael W. Deem and Ramdas Pophale) SiO2 
 PCOD8177709
Probable space group: A M M 2
;
_chemical_formula_sum "Si O2"
_cell_formula_units_Z 56
_cell_length_a 9.189606
_cell_length_b 18.925497
_cell_length_c 17.800530
_cell_angle_alpha 90.000000
_cell_angle_beta 90.000000
_cell_angle_gamma 90.000000
_cell_volume 3095.830098
_symmetry_space_group_name_H-M "A M M 2"
_symmetry_group_IT_number 38
_symmetry_cell_setting 'orthorhombic'
loop_
_space_group_symop_operation_xyz
x,y,z
-x,-y,z
-x,y,z
x,-y,z
x,1/2+y,1/2+z
-x,1/2-y,1/2+z
-x,1/2+y,1/2+z
x,1/2-y,1/2+z
loop_
_atom_site_type_symbol
_atom_site_label
_atom_site_fract_x
_atom_site_fract_y
_atom_site_fract_z
Si Si1 0.160721 0.422751 0.474170
Si Si2 0.330373 0.688310 0.216997
Si Si3 0.332709 0.200180 0.335286
Si Si4 0.333455 0.288348 0.481110
Si Si5 0.171934 0.081342 0.421763
Si Si6 0.828754 0.171493 0.563601
Si Si7 0.840631 0.422367 0.297636
O O1 0.199003 0.500000 0.508448
O O2 0.288068 0.368885 0.495730
O O3 0.154602 0.429003 0.385842
O O4 0.000000 0.398492 0.503183
O O5 0.500000 0.687182 0.198291
O O6 0.288515 0.764929 0.254451
O O7 0.242147 0.663063 0.144573
O O8 0.291642 0.628690 0.277211
O O9 0.500000 0.176227 0.334160
O O10 0.308536 0.262451 0.396021
O O11 0.240654 0.130222 0.355993
O O12 0.500000 0.278103 0.506395
O O13 0.226457 0.245831 0.534283
O O14 0.218658 0.109981 0.504434
O O15 0.000000 0.086756 0.411914
O O16 0.224998 0.000000 0.413689
O O17 0.000000 0.172329 0.573193
O O18 0.811756 0.500000 0.262524
O O19 0.000000 0.394527 0.269398
#
# Coordination Sequence:
#
# PCOD8177709 Si02
#       7
#     8   8   8   8   8   8   8
#     4   9  17  29  47  72 100 130 165 204 246 295
#     4  11  21  34  50  75 108 140 175 216 262 315
#     4   9  19  33  51  76 104 135 171 213 261 311
#     4  10  18  32  51  73 100 132 170 214 258 306
#     4   9  19  36  57  80 104 133 175 223 266 313
#     4  10  21  35  52  75 103 139 175 213 263 316
#     4   9  18  31  47  70 101 136 171 204 241 292
#
# _framework density 18.088849
#
# number of rings (size 3 to 8) (size 9 to 14) (size 15 to 20)
#    0.000    2.429    1.429    2.143    0.000    3.714 
#    0.000    2.857    0.000    0.857    0.000    4.000 
#    0.000    0.000    0.000    0.000    0.000    0.000 
#
# Total GULP energy -346935.664592 kJ/mol
# GULP energy per Si atom -12390.559450 kJ/mol
# Density = 1.804768 g / cm^3
# Si number density = 18.088849 Si / 1000 Ang^3
#
#
#
# Elastic Constant Matrix: (Units=GPa)
#
#
# Indices 1 2 3 4 5 6 
#
# 1 62.6542 40.9132 19.6663 0.0000 0.0000 0.0000
# 2 40.9132 118.9636 20.3803 0.0000 0.0000 0.0000
# 3 19.6663 20.3803 30.6471 0.0000 0.0000 0.0000
# 4 0.0000 0.0000 0.0000 13.0162 0.0000 0.0000
# 5 0.0000 0.0000 0.0000 0.0000 21.9875 0.0000
# 6 0.0000 0.0000 0.0000 0.0000 0.0000 28.6831
#
#
#
# Elastic Compliance Matrix: (Units=1/GPa)
#
#
# Indices 1 2 3 4 5 6 
#
# 1 0.023428 -0.006186 -0.010920 0.000000 0.000000 0.000000
# 2 -0.006186 0.011120 -0.003425 0.000000 0.000000 0.000000
# 3 -0.010920 -0.003425 0.041915 0.000000 0.000000 0.000000
# 4 0.000000 0.000000 0.000000 0.076827 0.000000 0.000000
# 5 0.000000 0.000000 0.000000 0.000000 0.045480 0.000000
# 6 0.000000 0.000000 0.000000 0.000000 0.000000 0.034864
#
#
# Mechanical properties :
#
#
# Convention : Reuss Voigt Hill
#
# Bulk Modulus (GPa) = 28.24857 41.57604 34.91231
# Shear Modulus (GPa) = 17.45218 21.49103 19.47161
#
# Velocity S-wave (km/s) = 3.10950 3.45060 3.28448
# Velocity P-wave (km/s) = 5.34251 6.23777 5.80742
#
# Compressibility (1/GPa) = 0.03540002
#
# Stress axis : x y z
#
# Youngs Moduli (GPa) = 42.68398 89.92549 23.85805
#
# Poissons Ratio (x) = 0.55632 0.26053
# Poissons Ratio (y) = 0.26406 0.08172
# Poissons Ratio (z) = 0.46610 0.30801
#
# Static dielectric constant tensor:
#      x y z
#    x 3.357130 0.000000 0.000000 
#    y 0.000000 3.611240 0.000000 
#    z 0.000000 0.000000 3.271680 
# 
# 
# High freq. dielectric constant tensor:
#      x y z
#    x 1.702850 0.000000 0.000000 
#    y 0.000000 1.698190 0.000000 
#    z 0.000000 0.000000 1.668730 
# 
# From -- ./inp_files/17090.got.cif
#   From: 2010.03.12/outbox.cif.g09.slc.cpg/sg38_9_cif.got.tgz:17090.got - 2010.04.14 02:38:36.
