data_PCOD8177973
_publ_section_title
;
Structure prediction by ZEFSAII (Michael W. Deem and Ramdas Pophale) SiO2 
 PCOD8177973
Probable space group: A M M 2
;
_chemical_formula_sum "Si O2"
_cell_formula_units_Z 48
_cell_length_a 9.156362
_cell_length_b 13.726199
_cell_length_c 23.891894
_cell_angle_alpha 90.000000
_cell_angle_beta 90.000000
_cell_angle_gamma 90.000000
_cell_volume 3002.782143
_symmetry_space_group_name_H-M "A M M 2"
_symmetry_group_IT_number 38
_symmetry_cell_setting 'orthorhombic'
loop_
_space_group_symop_operation_xyz
x,y,z
-x,-y,z
-x,y,z
x,-y,z
x,1/2+y,1/2+z
-x,1/2-y,1/2+z
-x,1/2+y,1/2+z
x,1/2-y,1/2+z
loop_
_atom_site_type_symbol
_atom_site_label
_atom_site_fract_x
_atom_site_fract_y
_atom_site_fract_z
Si Si1 0.330373 0.610040 0.090580
Si Si2 0.827261 0.714679 0.189033
Si Si3 0.672250 0.888831 0.138393
Si Si4 0.829551 0.111078 0.802516
Si Si5 0.670609 0.886735 0.913136
Si Si6 0.670433 0.705868 0.524892
O O1 0.500000 0.622225 0.107196
O O2 0.293257 0.500000 0.072279
O O3 0.235273 0.638721 0.144048
O O4 0.293185 0.680941 0.038240
O O5 0.756486 0.821383 0.182710
O O6 0.783310 0.676664 0.250123
O O7 0.000000 0.720853 0.180975
O O8 0.500000 0.869413 0.144021
O O9 0.727751 0.860674 0.076153
O O10 0.713099 0.000000 0.151183
O O11 0.747972 0.151743 0.857166
O O12 0.000000 0.118025 0.814448
O O13 0.782230 0.000000 0.789939
O O14 0.500000 0.866816 0.905748
O O15 0.704247 0.000000 0.923537
O O16 0.739634 0.827486 0.965873
O O17 0.500000 0.686670 0.519048
#
# Coordination Sequence:
#
# PCOD8177973 Si02
#       6
#     8   8   8   8   8   8
#     4   9  17  29  46  67  90 117 148 181 218 261
#     4  10  19  30  45  65  90 119 148 180 220 263
#     4   9  17  30  48  68  91 118 145 176 216 261
#     4   9  18  31  44  60  86 118 147 177 217 260
#     4   9  16  26  43  65  85 109 144 182 217 257
#     4   8  14  26  44  66  90 114 140 173 216 261
#
# _framework density 15.985175
#
# number of rings (size 3 to 8) (size 9 to 14) (size 15 to 20)
#    0.000    3.000    0.000    2.500    0.000    4.667 
#    0.000    5.000    0.000    5.000    0.000    2.333 
#    0.000    0.000    0.000    0.000    0.000    0.000 
#
# Total GULP energy -297527.660037 kJ/mol
# GULP energy per Si atom -12396.985835 kJ/mol
# Density = 1.594879 g / cm^3
# Si number density = 15.985175 Si / 1000 Ang^3
#
#
#
# Elastic Constant Matrix: (Units=GPa)
#
#
# Indices 1 2 3 4 5 6 
#
# 1 40.5411 38.0115 46.6482 0.0000 0.0000 0.0000
# 2 38.0115 122.2039 73.9508 0.0000 0.0000 0.0000
# 3 46.6482 73.9508 144.3895 0.0000 0.0000 0.0000
# 4 0.0000 0.0000 0.0000 26.1343 0.0000 0.0000
# 5 0.0000 0.0000 0.0000 0.0000 11.3530 0.0000
# 6 0.0000 0.0000 0.0000 0.0000 0.0000 19.7198
#
#
#
# Elastic Compliance Matrix: (Units=1/GPa)
#
#
# Indices 1 2 3 4 5 6 
#
# 1 0.043279 -0.007247 -0.010271 0.000000 0.000000 0.000000
# 2 -0.007247 0.013072 -0.004354 0.000000 0.000000 0.000000
# 3 -0.010271 -0.004354 0.012474 0.000000 0.000000 0.000000
# 4 0.000000 0.000000 0.000000 0.038264 0.000000 0.000000
# 5 0.000000 0.000000 0.000000 0.000000 0.088083 0.000000
# 6 0.000000 0.000000 0.000000 0.000000 0.000000 0.050710
#
#
# Mechanical properties :
#
#
# Convention : Reuss Voigt Hill
#
# Bulk Modulus (GPa) = 39.86910 69.37284 54.62097
# Shear Modulus (GPa) = 16.77947 21.34303 19.06125
#
# Velocity S-wave (km/s) = 3.24341 3.65797 3.45691
# Velocity P-wave (km/s) = 6.24673 7.83157 7.08361
#
# Compressibility (1/GPa) = 0.02508208
#
# Stress axis : x y z
#
# Youngs Moduli (GPa) = 23.10616 76.50139 80.16905
#
# Poissons Ratio (x) = 0.55437 0.82339
# Poissons Ratio (y) = 0.16744 0.34903
# Poissons Ratio (z) = 0.23732 0.33306
#
# Static dielectric constant tensor:
#      x y z
#    x 2.866280 0.000000 0.000000 
#    y 0.000000 3.100900 0.000000 
#    z 0.000000 0.000000 3.092840 
# 
# 
# High freq. dielectric constant tensor:
#      x y z
#    x 1.597850 0.000000 0.000000 
#    y 0.000000 1.607650 0.000000 
#    z 0.000000 0.000000 1.605720 
# 
# From -- ./inp_files/19619.got.cif
#   From: 2010.03.12/outbox.cif.g09.slc.cpg/sg38_10_cif.got.tgz:19619.got - 2010.04.14 02:38:36.
