data_PCOD8177247
_publ_section_title
;
Structure prediction by ZEFSAII (Michael W. Deem and Ramdas Pophale) SiO2 
 PCOD8177247
Probable space group: A M M 2
;
_chemical_formula_sum "Si O2"
_cell_formula_units_Z 64
_cell_length_a 8.886151
_cell_length_b 27.933733
_cell_length_c 14.913040
_cell_angle_alpha 90.000000
_cell_angle_beta 90.000000
_cell_angle_gamma 90.000000
_cell_volume 3701.765037
_symmetry_space_group_name_H-M "A M M 2"
_symmetry_group_IT_number 38
_symmetry_cell_setting 'orthorhombic'
loop_
_space_group_symop_operation_xyz
x,y,z
-x,-y,z
-x,y,z
x,-y,z
x,1/2+y,1/2+z
-x,1/2-y,1/2+z
-x,1/2+y,1/2+z
x,1/2-y,1/2+z
loop_
_atom_site_type_symbol
_atom_site_label
_atom_site_fract_x
_atom_site_fract_y
_atom_site_fract_z
Si Si1 0.321884 0.280130 0.608800
Si Si2 0.322452 0.554349 0.620921
Si Si3 0.679289 0.825800 0.807504
Si Si4 0.823813 0.444703 0.806426
Si Si5 0.320787 0.634864 0.489145
Si Si6 0.678855 0.868097 0.427800
Si Si7 0.321286 0.826257 0.610235
Si Si8 0.677437 0.718850 0.809515
O O1 0.500000 0.279385 0.598676
O O2 0.253360 0.318944 0.540641
O O3 0.258613 0.226994 0.587924
O O4 0.276295 0.295985 0.708988
O O5 0.500000 0.559514 0.634301
O O6 0.274817 0.500000 0.599062
O O7 0.247152 0.572604 0.712573
O O8 0.263691 0.586553 0.537760
O O9 0.500000 0.824230 0.805563
O O10 0.735432 0.862221 0.885486
O O11 0.738130 0.842719 0.709004
O O12 0.739642 0.772244 0.830280
O O13 0.783850 0.500000 0.823684
O O14 0.754591 0.415472 0.888896
O O15 0.000000 0.435647 0.801821
O O16 0.500000 0.635982 0.492529
O O17 0.500000 0.872761 0.417384
O O18 0.728515 0.863009 0.532308
O O19 0.742647 0.821095 0.376659
O O20 0.500000 0.823028 0.613048
O O21 0.500000 0.720009 0.821282
#
# Coordination Sequence:
#
# PCOD8177247 Si02
#       8
#     8   8   8   8   8   8   8   8
#     4   8  12  18  29  51  84 115 141 170 206 247
#     4   9  17  29  45  66  89 110 136 174 217 255
#     4   8  13  21  33  56  92 124 146 172 207 244
#     4  10  21  35  48  63  84 109 136 168 211 263
#     4   9  14  20  35  58  85 116 145 173 208 249
#     4  10  17  26  44  67  88 111 142 178 213 247
#     4   8  14  22  33  55  88 118 141 171 209 245
#     4   8  13  20  33  58  90 117 141 173 209 244
#
# _framework density 17.289048999999999
#
# number of rings (size 3 to 8) (size 9 to 14) (size 15 to 20)
#    0.000    3.250    0.000    3.375    0.000    5.750 
#    0.000    0.000    0.000    0.750    0.000   18.375 
#    0.000    2.000    0.000    0.000    0.000    0.000 
#
# Total GULP energy -396489.213981 kJ/mol
# GULP energy per Si atom -12390.287937 kJ/mol
# Density = 1.724970 g / cm^3
# Si number density = 17.289049 Si / 1000 Ang^3
#
#
#
# Elastic Constant Matrix: (Units=GPa)
#
#
# Indices 1 2 3 4 5 6 
#
# 1 15.1011 17.3111 18.8524 0.0000 0.0000 0.0000
# 2 17.3111 90.4022 82.4628 0.0000 0.0000 0.0000
# 3 18.8524 82.4628 158.7503 0.0000 0.0000 0.0000
# 4 0.0000 0.0000 0.0000 32.9356 0.0000 0.0000
# 5 0.0000 0.0000 0.0000 0.0000 2.6684 0.0000
# 6 0.0000 0.0000 0.0000 0.0000 0.0000 7.1796
#
#
#
# Elastic Compliance Matrix: (Units=1/GPa)
#
#
# Indices 1 2 3 4 5 6 
#
# 1 0.085661 -0.013539 -0.003140 0.000000 0.000000 0.000000
# 2 -0.013539 0.023163 -0.010424 0.000000 0.000000 0.000000
# 3 -0.003140 -0.010424 0.012087 0.000000 0.000000 0.000000
# 4 0.000000 0.000000 0.000000 0.030362 0.000000 0.000000
# 5 0.000000 0.000000 0.000000 0.000000 0.374762 0.000000
# 6 0.000000 0.000000 0.000000 0.000000 0.000000 0.139284
#
#
# Mechanical properties :
#
#
# Convention : Reuss Voigt Hill
#
# Bulk Modulus (GPa) = 14.99147 55.72291 35.35719
# Shear Modulus (GPa) = 6.74072 18.26520 12.50296
#
# Velocity S-wave (km/s) = 1.97669 3.25385 2.69210
# Velocity P-wave (km/s) = 3.72822 6.81299 5.49165
#
# Compressibility (1/GPa) = 0.06670460
#
# Stress axis : x y z
#
# Youngs Moduli (GPa) = 11.67394 43.17242 82.73439
#
# Poissons Ratio (x) = 0.58452 0.25977
# Poissons Ratio (y) = 0.15806 0.86243
# Poissons Ratio (z) = 0.03665 0.45003
#
# Static dielectric constant tensor:
#      x y z
#    x 2.570440 0.000000 0.000000 
#    y 0.000000 3.307930 0.000000 
#    z 0.000000 0.000000 3.614080 
# 
# 
# High freq. dielectric constant tensor:
#      x y z
#    x 1.596040 0.000000 0.000000 
#    y 0.000000 1.651010 0.000000 
#    z 0.000000 0.000000 1.676690 
# 
# From -- ./inp_files/13113.got.cif
#   From: 2010.03.12/outbox.cif.g09.slc.cpg/sg38_7_cif.got.tgz:13113.got - 2010.04.14 02:38:36.
