data_PCOD8177034
_publ_section_title
;
Structure prediction by ZEFSAII (Michael W. Deem and Ramdas Pophale) SiO2 
 PCOD8177034
Probable space group: C C C 2
;
_chemical_formula_sum "Si O2"
_cell_formula_units_Z 64
_cell_length_a 10.275488
_cell_length_b 10.370894
_cell_length_c 27.463589
_cell_angle_alpha 90.000000
_cell_angle_beta 90.000000
_cell_angle_gamma 90.000000
_cell_volume 2926.684739
_symmetry_space_group_name_H-M "C C C 2"
_symmetry_group_IT_number 37
_symmetry_cell_setting 'orthorhombic'
loop_
_space_group_symop_operation_xyz
x,y,z
-x,-y,z
-x,y,1/2+z
x,-y,1/2+z
1/2+x,1/2+y,z
1/2-x,1/2-y,z
1/2-x,1/2+y,1/2+z
1/2+x,1/2-y,1/2+z
loop_
_atom_site_type_symbol
_atom_site_label
_atom_site_fract_x
_atom_site_fract_y
_atom_site_fract_z
Si Si1 0.706311 0.441521 0.376920
Si Si2 0.436708 0.319155 0.380962
Si Si3 0.308859 0.051240 0.773812
Si Si4 0.939994 0.367725 0.444104
Si Si5 0.602936 0.119368 0.551093
Si Si6 0.874136 0.080124 0.704493
Si Si7 0.386843 0.605317 0.591232
Si Si8 0.452564 0.791876 0.776233
O O1 0.572171 0.385298 0.396709
O O2 0.692885 0.594750 0.388508
O O3 0.716635 0.413555 0.319262
O O4 0.824620 0.375221 0.404772
O O5 0.435979 0.201092 0.418519
O O6 0.442568 0.293690 0.323876
O O7 0.398299 0.175558 0.761815
O O8 0.239171 0.012350 0.724056
O O9 0.388242 0.926316 0.790887
O O10 0.893240 0.318168 0.496630
O O11 0.000000 0.500000 0.459877
O O12 0.564397 0.247323 0.582141
O O13 0.750862 0.072823 0.563486
O O14 0.500000 0.000000 0.559841
O O15 0.852540 0.100742 0.647971
O O16 0.881154 0.218325 0.731982
O O17 0.000000 0.000000 0.717668
O O18 0.500000 0.500000 0.577776
#
# Coordination Sequence:
#
# PCOD8177034 Si02
#       8
#     8   8   8   8   8   8   8   8
#     4  11  23  37  59  90 129 173 217 264 322 396
#     4  11  23  37  59  90 129 173 217 264 322 396
#     4  11  23  37  59  90 129 173 217 264 322 396
#     4  11  24  42  64  93 129 173 218 273 337 399
#     4  10  25  47  74 103 139 178 237 305 358 422
#     4  11  24  42  64  93 129 173 218 273 337 399
#     4  10  25  47  74 103 139 178 237 305 358 422
#     4  11  23  37  59  90 129 173 217 264 322 396
#
# _framework density 21.867747000000001
#
# number of rings (size 3 to 8) (size 9 to 14) (size 15 to 20)
#    0.000    1.250    2.500    2.250    7.000    5.500 
#    0.000    5.000    0.000    0.000    0.000    0.000 
#    0.000    0.000    0.000    0.000    0.000    0.000 
#
# Total GULP energy -396511.507050 kJ/mol
# GULP energy per Si atom -12390.984595 kJ/mol
# Density = 2.181798 g / cm^3
# Si number density = 21.867747 Si / 1000 Ang^3
#
#
#
# Elastic Constant Matrix: (Units=GPa)
#
#
# Indices 1 2 3 4 5 6 
#
# 1 88.7396 29.0906 26.0900 0.0000 0.0000 0.0000
# 2 29.0906 84.2160 23.9251 0.0000 0.0000 0.0000
# 3 26.0900 23.9251 122.8333 0.0000 0.0000 0.0000
# 4 0.0000 0.0000 0.0000 14.5307 0.0000 0.0000
# 5 0.0000 0.0000 0.0000 0.0000 14.7623 0.0000
# 6 0.0000 0.0000 0.0000 0.0000 0.0000 40.0624
#
#
#
# Elastic Compliance Matrix: (Units=1/GPa)
#
#
# Indices 1 2 3 4 5 6 
#
# 1 0.013166 -0.003973 -0.002023 0.000000 0.000000 0.000000
# 2 -0.003973 0.013769 -0.001838 0.000000 0.000000 0.000000
# 3 -0.002023 -0.001838 0.008929 0.000000 0.000000 0.000000
# 4 0.000000 0.000000 0.000000 0.068820 0.000000 0.000000
# 5 0.000000 0.000000 0.000000 0.000000 0.067740 0.000000
# 6 0.000000 0.000000 0.000000 0.000000 0.000000 0.024961
#
#
# Mechanical properties :
#
#
# Convention : Reuss Voigt Hill
#
# Bulk Modulus (GPa) = 49.51479 50.44448 49.97964
# Shear Modulus (GPa) = 22.74954 28.31662 25.53308
#
# Velocity S-wave (km/s) = 3.22890 3.60238 3.42074
# Velocity P-wave (km/s) = 6.04922 6.35775 6.20540
#
# Compressibility (1/GPa) = 0.02019599
#
# Stress axis : x y z
#
# Youngs Moduli (GPa) = 75.95246 72.62758 111.99838
#
# Poissons Ratio (x) = 0.28858 0.22653
# Poissons Ratio (y) = 0.30179 0.20584
# Poissons Ratio (z) = 0.15362 0.13348
#
# Static dielectric constant tensor:
#      x y z
#    x 3.952400 0.000000 0.000000 
#    y 0.000000 4.465860 0.000000 
#    z 0.000000 0.000000 3.743910 
# 
# 
# High freq. dielectric constant tensor:
#      x y z
#    x 1.867730 0.000000 0.000000 
#    y 0.000000 1.874660 0.000000 
#    z 0.000000 0.000000 1.845910 
# 
# From -- ./inp_files/20499.got.cif
#   From: 2010.03.12/outbox.cif.g09.slc.cpg/sg37_11_cif.got.tgz:20499.got - 2010.04.14 02:25:27.
