data_PCOD8177618
_publ_section_title
;
Structure prediction by ZEFSAII (Michael W. Deem and Ramdas Pophale) SiO2 
 PCOD8177618
Probable space group: A M M 2
;
_chemical_formula_sum "Si O2"
_cell_formula_units_Z 56
_cell_length_a 19.964561
_cell_length_b 8.528704
_cell_length_c 15.432853
_cell_angle_alpha 90.000000
_cell_angle_beta 90.000000
_cell_angle_gamma 90.000000
_cell_volume 2627.780142
_symmetry_space_group_name_H-M "A M M 2"
_symmetry_group_IT_number 38
_symmetry_cell_setting 'orthorhombic'
loop_
_space_group_symop_operation_xyz
x,y,z
-x,-y,z
-x,y,z
x,-y,z
x,1/2+y,1/2+z
-x,1/2-y,1/2+z
-x,1/2+y,1/2+z
x,1/2-y,1/2+z
loop_
_atom_site_type_symbol
_atom_site_label
_atom_site_fract_x
_atom_site_fract_y
_atom_site_fract_z
Si Si1 0.846902 0.179696 0.671020
Si Si2 0.076810 0.819023 0.330402
Si Si3 0.284413 0.819698 0.224301
Si Si4 0.286885 0.314524 0.413593
Si Si5 0.571703 0.320533 0.748257
Si Si6 0.570466 0.680860 0.431665
Si Si7 0.147780 0.318827 0.493282
O O1 0.881857 0.283119 0.744186
O O2 0.767258 0.214225 0.670410
O O3 0.876606 0.221011 0.576676
O O4 0.861181 0.000000 0.692484
O O5 0.102240 0.718058 0.410967
O O6 0.000000 0.775396 0.312581
O O7 0.086217 0.000000 0.354263
O O8 0.277744 0.782918 0.325959
O O9 0.361321 0.785287 0.191641
O O10 0.265305 0.000000 0.207694
O O11 0.289356 0.500000 0.391120
O O12 0.356083 0.259573 0.463421
O O13 0.225040 0.274899 0.475242
O O14 0.500000 0.299670 0.697129
O O15 0.577421 0.500000 0.782518
O O16 0.571677 0.202587 0.828346
O O17 0.500000 0.760060 0.467577
O O18 0.565322 0.500000 0.454990
O O19 0.139983 0.500000 0.516205
#
# Coordination Sequence:
#
# PCOD8177618 Si02
#       7
#     8   8   8   8   8   8   8
#     4  12  25  41  63  91 125 165 208 253 298 353
#     4  11  25  46  71  98 127 157 193 241 298 362
#     4  10  18  30  53  81 114 155 200 252 306 360
#     4   9  17  30  51  80 113 152 197 244 298 357
#     4   8  14  24  40  68 105 145 191 243 300 358
#     4   8  13  22  39  67 104 144 188 238 290 347
#     4  11  23  40  64  93 126 164 204 249 297 355
#
# _framework density 21.310763999999999
#
# number of rings (size 3 to 8) (size 9 to 14) (size 15 to 20)
#    0.000    2.143    1.429    2.571    0.000    2.857 
#    0.000    0.000    0.000    0.857    0.000    4.000 
#    0.000    0.000    0.000    0.000    0.000    0.000 
#
# Total GULP energy -346868.450576 kJ/mol
# GULP energy per Si atom -12388.158949 kJ/mol
# Density = 2.126226 g / cm^3
# Si number density = 21.310764 Si / 1000 Ang^3
#
#
#
# Elastic Constant Matrix: (Units=GPa)
#
#
# Indices 1 2 3 4 5 6 
#
# 1 126.8469 23.2382 25.9099 0.0000 0.0000 0.0000
# 2 23.2382 42.8275 5.6829 0.0000 0.0000 0.0000
# 3 25.9099 5.6829 71.8969 0.0000 0.0000 0.0000
# 4 0.0000 0.0000 0.0000 25.3555 0.0000 0.0000
# 5 0.0000 0.0000 0.0000 0.0000 0.0190 0.0000
# 6 0.0000 0.0000 0.0000 0.0000 0.0000 25.1906
#
#
#
# Elastic Compliance Matrix: (Units=1/GPa)
#
#
# Indices 1 2 3 4 5 6 
#
# 1 0.009353 -0.004677 -0.003001 0.000000 0.000000 0.000000
# 2 -0.004677 0.025936 -0.000365 0.000000 0.000000 0.000000
# 3 -0.003001 -0.000365 0.015019 0.000000 0.000000 0.000000
# 4 0.000000 0.000000 0.000000 0.039439 0.000000 0.000000
# 5 0.000000 0.000000 0.000000 0.000000 52.518567 0.000000
# 6 0.000000 0.000000 0.000000 0.000000 0.000000 0.039697
#
#
# Mechanical properties :
#
#
# Convention : Reuss Voigt Hill
#
# Bulk Modulus (GPa) = 29.22014 39.02595 34.12305
# Shear Modulus (GPa) = 0.09492 22.56238 11.32865
#
# Velocity S-wave (km/s) = 0.21128 3.25735 2.30813
# Velocity P-wave (km/s) = 3.71493 5.70084 4.81146
#
# Compressibility (1/GPa) = 0.03422297
#
# Stress axis : x y z
#
# Youngs Moduli (GPa) = 106.91391 38.55715 66.58181
#
# Poissons Ratio (x) = 0.18033 0.19981
# Poissons Ratio (y) = 0.50003 0.02427
# Poissons Ratio (z) = 0.32085 0.01406
#
# Static dielectric constant tensor:
#      x y z
#    x 4.547330 0.000000 0.000000 
#    y 0.000000 3.731080 0.000000 
#    z 0.000000 0.000000 3.313370 
# 
# 
# High freq. dielectric constant tensor:
#      x y z
#    x 1.861850 0.000000 0.000000 
#    y 0.000000 1.823430 0.000000 
#    z 0.000000 0.000000 1.788530 
# 
# From -- ./inp_files/15427.got.cif
#   From: 2010.03.12/outbox.cif.g09.slc.cpg/sg38_8_cif.got.tgz:15427.got - 2010.04.14 02:38:36.
