data_PCOD8177402
_publ_section_title
;
Structure prediction by ZEFSAII (Michael W. Deem and Ramdas Pophale) SiO2 
 PCOD8177402
Probable space group: A M M 2
;
_chemical_formula_sum "Si O2"
_cell_formula_units_Z 56
_cell_length_a 8.874065
_cell_length_b 29.469731
_cell_length_c 13.560604
_cell_angle_alpha 90.000000
_cell_angle_beta 90.000000
_cell_angle_gamma 90.000000
_cell_volume 3546.319098
_symmetry_space_group_name_H-M "A M M 2"
_symmetry_group_IT_number 38
_symmetry_cell_setting 'orthorhombic'
loop_
_space_group_symop_operation_xyz
x,y,z
-x,-y,z
-x,y,z
x,-y,z
x,1/2+y,1/2+z
-x,1/2-y,1/2+z
-x,1/2+y,1/2+z
x,1/2-y,1/2+z
loop_
_atom_site_type_symbol
_atom_site_label
_atom_site_fract_x
_atom_site_fract_y
_atom_site_fract_z
Si Si1 0.826430 0.312173 0.575490
Si Si2 0.176985 0.678517 0.151184
Si Si3 0.827165 0.000000 0.984789
Si Si4 0.178474 0.903117 0.973599
Si Si5 0.173285 0.734201 0.774718
Si Si6 0.673073 0.099453 0.762155
Si Si7 0.676514 0.729293 0.977983
Si Si8 0.330244 0.000000 0.786726
O O1 0.782813 0.363945 0.551610
O O2 0.797603 0.303575 0.690796
O O3 0.726308 0.279722 0.507993
O O4 0.000000 0.301627 0.548870
O O5 0.219319 0.716514 0.232327
O O6 0.238118 0.629950 0.184394
O O7 0.247220 0.691309 0.046082
O O8 0.000000 0.675761 0.136407
O O9 0.761929 0.048785 0.021955
O O10 0.800102 0.000000 0.867836
O O11 0.000000 0.000000 0.012101
O O12 0.261675 0.893242 0.871351
O O13 0.000000 0.905702 0.951533
O O14 0.000000 0.734500 0.809100
O O15 0.278211 0.720669 0.865226
O O16 0.500000 0.114884 0.763501
O O17 0.689387 0.046831 0.725469
O O18 0.500000 0.724505 0.989836
O O19 0.500000 0.000000 0.833999
#
# Coordination Sequence:
#
# PCOD8177402 Si02
#       8
#     8   8   4   8   8   8   8   4
#     4   9  18  31  46  63  86 118 150 177 213 262
#     4  10  20  33  48  65  87 117 149 179 215 260
#     4   8  14  24  40  62  87 114 147 184 215 252
#     4   9  16  27  43  64  90 120 151 181 217 258
#     4   9  18  32  46  60  83 115 147 177 214 260
#     4  10  18  28  43  65  92 120 149 180 216 257
#     4  11  21  31  45  65  88 112 142 182 220 256
#     4   8  16  28  40  58  89 122 145 172 215 262
#
# _framework density 15.791022
#
# number of rings (size 3 to 8) (size 9 to 14) (size 15 to 20)
#    0.000    2.571    0.000    3.857    0.000    7.429 
#    0.000    0.000    0.000    0.000    0.000    1.000 
#    0.000    2.286    0.000    0.000    0.000    0.000 
#
# Total GULP energy -347020.497541 kJ/mol
# GULP energy per Si atom -12393.589198 kJ/mol
# Density = 1.575508 g / cm^3
# Si number density = 15.791022 Si / 1000 Ang^3
#
#
#
# Elastic Constant Matrix: (Units=GPa)
#
#
# Indices 1 2 3 4 5 6 
#
# 1 69.4529 38.3552 38.2418 0.0000 0.0000 0.0000
# 2 38.3552 135.1050 54.6039 0.0000 0.0000 0.0000
# 3 38.2418 54.6039 82.0018 0.0000 0.0000 0.0000
# 4 0.0000 0.0000 0.0000 24.1648 0.0000 0.0000
# 5 0.0000 0.0000 0.0000 0.0000 9.1587 0.0000
# 6 0.0000 0.0000 0.0000 0.0000 0.0000 20.1929
#
#
#
# Elastic Compliance Matrix: (Units=1/GPa)
#
#
# Indices 1 2 3 4 5 6 
#
# 1 0.020026 -0.002614 -0.007598 0.000000 0.000000 0.000000
# 2 -0.002614 0.010468 -0.005752 0.000000 0.000000 0.000000
# 3 -0.007598 -0.005752 0.019568 0.000000 0.000000 0.000000
# 4 0.000000 0.000000 0.000000 0.041383 0.000000 0.000000
# 5 0.000000 0.000000 0.000000 0.000000 0.109186 0.000000
# 6 0.000000 0.000000 0.000000 0.000000 0.000000 0.049522
#
#
# Mechanical properties :
#
#
# Convention : Reuss Voigt Hill
#
# Bulk Modulus (GPa) = 55.14465 60.99572 58.07018
# Shear Modulus (GPa) = 17.35352 21.06053 19.20702
#
# Velocity S-wave (km/s) = 3.31864 3.65595 3.49137
# Velocity P-wave (km/s) = 7.04853 7.51878 7.28745
#
# Compressibility (1/GPa) = 0.01813413
#
# Stress axis : x y z
#
# Youngs Moduli (GPa) = 49.93596 95.52593 51.10324
#
# Poissons Ratio (x) = 0.24973 0.38829
# Poissons Ratio (y) = 0.13054 0.29393
# Poissons Ratio (z) = 0.37943 0.54943
#
# Static dielectric constant tensor:
#      x y z
#    x 3.036650 0.000000 0.000000 
#    y 0.000000 3.342100 0.000000 
#    z 0.000000 0.000000 2.739390 
# 
# 
# High freq. dielectric constant tensor:
#      x y z
#    x 1.611210 0.000000 0.000000 
#    y 0.000000 1.610850 0.000000 
#    z 0.000000 0.000000 1.568700 
# 
# From -- ./inp_files/13034.got.cif
#   From: 2010.03.12/outbox.cif.g09.slc.cpg/sg38_7_cif.got.tgz:13034.got - 2010.04.14 02:38:36.
