data_PCOD8177744
_publ_section_title
;
Structure prediction by ZEFSAII (Michael W. Deem and Ramdas Pophale) SiO2 
 PCOD8177744
Probable space group: A M M 2
;
_chemical_formula_sum "Si O2"
_cell_formula_units_Z 64
_cell_length_a 8.908173
_cell_length_b 19.523452
_cell_length_c 20.712744
_cell_angle_alpha 90.000000
_cell_angle_beta 90.000000
_cell_angle_gamma 90.000000
_cell_volume 3602.324976
_symmetry_space_group_name_H-M "A M M 2"
_symmetry_group_IT_number 38
_symmetry_cell_setting 'orthorhombic'
loop_
_space_group_symop_operation_xyz
x,y,z
-x,-y,z
-x,y,z
x,-y,z
x,1/2+y,1/2+z
-x,1/2-y,1/2+z
-x,1/2+y,1/2+z
x,1/2-y,1/2+z
loop_
_atom_site_type_symbol
_atom_site_label
_atom_site_fract_x
_atom_site_fract_y
_atom_site_fract_z
Si Si1 0.822058 0.574941 0.591280
Si Si2 0.177230 0.713060 0.531172
Si Si3 0.175559 0.216889 0.284369
Si Si4 0.322970 0.205094 0.901269
Si Si5 0.824562 0.422181 0.348256
Si Si6 0.326621 0.077541 0.712603
Si Si7 0.822031 0.074572 0.235685
Si Si8 0.174210 0.199753 0.655246
O O1 0.776550 0.500000 0.562878
O O2 0.762089 0.636245 0.546545
O O3 0.755689 0.582742 0.663511
O O4 0.000000 0.581701 0.595379
O O5 0.259994 0.739089 0.466776
O O6 0.222824 0.762029 0.590111
O O7 0.000000 0.714166 0.519266
O O8 0.270460 0.251387 0.340267
O O9 0.231095 0.137647 0.280282
O O10 0.211269 0.252142 0.216054
O O11 0.000000 0.222856 0.301315
O O12 0.500000 0.203755 0.903137
O O13 0.260426 0.127631 0.897291
O O14 0.789368 0.500000 0.368906
O O15 0.770182 0.407409 0.276045
O O16 0.000000 0.405735 0.351150
O O17 0.500000 0.090703 0.729373
O O18 0.269968 0.129707 0.657948
O O19 0.301170 0.000000 0.687876
O O20 0.000000 0.078114 0.230286
O O21 0.772287 0.000000 0.264319
O O22 0.000000 0.180296 0.653664
#
# Coordination Sequence:
#
# PCOD8177744 Si02
#       8
#     8   8   8   8   8   8   8   8
#     4   8  13  24  46  76 106 133 163 200 245 300
#     4  10  20  35  53  77 107 141 180 222 261 309
#     4  10  18  32  55  81 106 137 176 222 266 314
#     4  12  25  37  50  74 108 148 183 220 269 322
#     4  10  20  35  55  77 103 139 182 224 265 314
#     4  10  20  33  52  80 111 140 172 216 270 326
#     4   8  13  24  48  82 111 131 160 209 263 309
#     4  10  19  32  55  82 106 137 180 226 268 311
#
# _framework density 17.766304000000002
#
# number of rings (size 3 to 8) (size 9 to 14) (size 15 to 20)
#    0.000    2.250    2.500    2.625    0.000    2.500 
#    0.000    1.250    0.000    1.125    0.000    3.500 
#    0.000    0.000    0.000    0.000    0.000    0.000 
#
# Total GULP energy -396704.010528 kJ/mol
# GULP energy per Si atom -12397.000329 kJ/mol
# Density = 1.772587 g / cm^3
# Si number density = 17.766304 Si / 1000 Ang^3
#
#
#
# Elastic Constant Matrix: (Units=GPa)
#
#
# Indices 1 2 3 4 5 6 
#
# 1 67.9197 41.1300 47.2812 0.0000 0.0000 0.0000
# 2 41.1300 107.7923 50.4940 0.0000 0.0000 0.0000
# 3 47.2812 50.4940 105.2455 0.0000 0.0000 0.0000
# 4 0.0000 0.0000 0.0000 21.2959 0.0000 0.0000
# 5 0.0000 0.0000 0.0000 0.0000 5.9389 0.0000
# 6 0.0000 0.0000 0.0000 0.0000 0.0000 18.0559
#
#
#
# Elastic Compliance Matrix: (Units=1/GPa)
#
#
# Indices 1 2 3 4 5 6 
#
# 1 0.023470 -0.005181 -0.008058 0.000000 0.000000 0.000000
# 2 -0.005181 0.013110 -0.003962 0.000000 0.000000 0.000000
# 3 -0.008058 -0.003962 0.015023 0.000000 0.000000 0.000000
# 4 0.000000 0.000000 0.000000 0.046957 0.000000 0.000000
# 5 0.000000 0.000000 0.000000 0.000000 0.168380 0.000000
# 6 0.000000 0.000000 0.000000 0.000000 0.000000 0.055383
#
#
# Mechanical properties :
#
#
# Convention : Reuss Voigt Hill
#
# Bulk Modulus (GPa) = 58.13894 62.08531 60.11213
# Shear Modulus (GPa) = 13.79462 18.52831 16.16146
#
# Velocity S-wave (km/s) = 2.78950 3.23288 3.01934
# Velocity P-wave (km/s) = 6.57042 6.99691 6.78702
#
# Compressibility (1/GPa) = 0.01720017
#
# Stress axis : x y z
#
# Youngs Moduli (GPa) = 42.60725 76.27750 66.56517
#
# Poissons Ratio (x) = 0.39516 0.53641
# Poissons Ratio (y) = 0.22073 0.26376
# Poissons Ratio (z) = 0.34335 0.30225
#
# Static dielectric constant tensor:
#      x y z
#    x 2.999040 0.000000 0.000000 
#    y 0.000000 3.640040 0.000000 
#    z 0.000000 0.000000 3.114530 
# 
# 
# High freq. dielectric constant tensor:
#      x y z
#    x 1.659100 0.000000 0.000000 
#    y 0.000000 1.695570 0.000000 
#    z 0.000000 0.000000 1.663380 
# 
# From -- ./inp_files/20250.got.cif
#   From: 2010.03.12/outbox.cif.g09.slc.cpg/sg38_11_cif.got.tgz:20250.got - 2010.04.14 02:38:36.
