data_PCOD8177166
_publ_section_title
;
Structure prediction by ZEFSAII (Michael W. Deem and Ramdas Pophale) SiO2 
 PCOD8177166
Probable space group: C C C 2
;
_chemical_formula_sum "Si O2"
_cell_formula_units_Z 36
_cell_length_a 6.656198
_cell_length_b 23.829104
_cell_length_c 10.070176
_cell_angle_alpha 90.000000
_cell_angle_beta 90.000000
_cell_angle_gamma 90.000000
_cell_volume 1597.243046
_symmetry_space_group_name_H-M "C C C 2"
_symmetry_group_IT_number 37
_symmetry_cell_setting 'orthorhombic'
loop_
_space_group_symop_operation_xyz
x,y,z
-x,-y,z
-x,y,1/2+z
x,-y,1/2+z
1/2+x,1/2+y,z
1/2-x,1/2-y,z
1/2-x,1/2+y,1/2+z
1/2+x,1/2-y,1/2+z
loop_
_atom_site_type_symbol
_atom_site_label
_atom_site_fract_x
_atom_site_fract_y
_atom_site_fract_z
Si Si1 0.558544 0.640489 0.468370
Si Si2 0.500000 0.000000 0.501634
Si Si3 0.149486 0.043143 0.845443
Si Si4 0.288504 0.315111 0.197878
Si Si5 0.591205 0.110207 0.144791
O O1 0.475184 0.576921 0.457637
O O2 0.573205 0.666780 0.321610
O O3 0.405168 0.675267 0.559958
O O4 0.781621 0.641276 0.530924
O O5 0.305455 0.000161 0.409654
O O6 0.482474 0.944918 0.590759
O O7 0.252869 0.090653 0.757023
O O8 0.000000 0.000000 0.767161
O O9 0.250000 0.250000 0.212808
O O10 0.076863 0.348236 0.201702
#
# Coordination Sequence:
#
# PCOD8177166 Si02
#       5
#     8   4   8   8   8
#     4  12  27  52  74 113 153 196 259 325 380 472
#     4  12  24  42  72 108 158 200 252 310 386 468
#     4  12  26  43  72 113 157 205 246 313 394 467
#     4  12  31  52  81 109 152 208 265 328 390 453
#     4  12  27  45  75 113 154 197 261 315 388 461
#
# _framework density 22.538836
#
# number of rings (size 3 to 8) (size 9 to 14) (size 15 to 20)
#    0.000    0.000    6.667    2.000    9.333    0.000 
#    0.000    0.000    0.000    0.000    0.000    0.000 
#    0.000    0.000    0.000    0.000    0.000    0.000 
#
# Total GULP energy -223230.223616 kJ/mol
# GULP energy per Si atom -12401.679090 kJ/mol
# Density = 2.248754 g / cm^3
# Si number density = 22.538836 Si / 1000 Ang^3
#
#
#
# Elastic Constant Matrix: (Units=GPa)
#
#
# Indices 1 2 3 4 5 6 
#
# 1 137.5453 69.9391 57.0566 0.0000 0.0000 0.0000
# 2 69.9391 139.7142 36.7780 0.0000 0.0000 0.0000
# 3 57.0566 36.7780 106.5247 0.0000 0.0000 0.0000
# 4 0.0000 0.0000 0.0000 27.9281 0.0000 0.0000
# 5 0.0000 0.0000 0.0000 0.0000 46.2511 0.0000
# 6 0.0000 0.0000 0.0000 0.0000 0.0000 40.3610
#
#
#
# Elastic Compliance Matrix: (Units=1/GPa)
#
#
# Indices 1 2 3 4 5 6 
#
# 1 0.011479 -0.004541 -0.004581 0.000000 0.000000 0.000000
# 2 -0.004541 0.009669 -0.000906 0.000000 0.000000 0.000000
# 3 -0.004581 -0.000906 0.012154 0.000000 0.000000 0.000000
# 4 0.000000 0.000000 0.000000 0.035806 0.000000 0.000000
# 5 0.000000 0.000000 0.000000 0.000000 0.021621 0.000000
# 6 0.000000 0.000000 0.000000 0.000000 0.000000 0.024776
#
#
# Mechanical properties :
#
#
# Convention : Reuss Voigt Hill
#
# Bulk Modulus (GPa) = 75.48931 79.03686 77.26309
# Shear Modulus (GPa) = 35.72010 37.57540 36.64775
#
# Velocity S-wave (km/s) = 3.98530 4.08749 4.03672
# Velocity P-wave (km/s) = 7.39882 7.57759 7.48874
#
# Compressibility (1/GPa) = 0.01324691
#
# Stress axis : x y z
#
# Youngs Moduli (GPa) = 87.11276 103.42364 82.27744
#
# Poissons Ratio (x) = 0.46960 0.37691
# Poissons Ratio (y) = 0.39554 0.07456
# Poissons Ratio (z) = 0.39906 0.09373
#
# Static dielectric constant tensor:
#      x y z
#    x 4.313090 0.000000 0.000000 
#    y 0.000000 3.869910 0.000000 
#    z 0.000000 0.000000 4.109990 
# 
# 
# High freq. dielectric constant tensor:
#      x y z
#    x 1.909560 0.000000 0.000000 
#    y 0.000000 1.882000 0.000000 
#    z 0.000000 0.000000 1.888050 
# 
# From -- ./inp_files/5441.got.cif
#   From: 2010.03.12/outbox.cif.g09.slc.cpg/sg37_3_cif.got.tgz:5441.got - 2010.04.14 02:25:27.
