data_PCOD8177586
_publ_section_title
;
Structure prediction by ZEFSAII (Michael W. Deem and Ramdas Pophale) SiO2 
 PCOD8177586
Probable space group: A M M 2
;
_chemical_formula_sum "Si O2"
_cell_formula_units_Z 56
_cell_length_a 14.232352
_cell_length_b 9.074304
_cell_length_c 25.651776
_cell_angle_alpha 90.000000
_cell_angle_beta 90.000000
_cell_angle_gamma 90.000000
_cell_volume 3312.893233
_symmetry_space_group_name_H-M "A M M 2"
_symmetry_group_IT_number 38
_symmetry_cell_setting 'orthorhombic'
loop_
_space_group_symop_operation_xyz
x,y,z
-x,-y,z
-x,y,z
x,-y,z
x,1/2+y,1/2+z
-x,1/2-y,1/2+z
-x,1/2+y,1/2+z
x,1/2-y,1/2+z
loop_
_atom_site_type_symbol
_atom_site_label
_atom_site_fract_x
_atom_site_fract_y
_atom_site_fract_z
Si Si1 0.106633 0.670682 0.359390
Si Si2 0.281451 0.674194 0.822806
Si Si3 0.608733 0.329570 0.625681
Si Si4 0.609554 0.171348 0.730779
Si Si5 0.608525 0.670658 0.925409
Si Si6 0.101780 0.825147 0.977722
Si Si7 0.704524 0.825394 0.020159
O O1 0.135578 0.500000 0.355087
O O2 0.174754 0.767224 0.323253
O O3 0.117566 0.728324 0.418591
O O4 0.000000 0.694255 0.339951
O O5 0.282615 0.500000 0.816653
O O6 0.333659 0.742473 0.773999
O O7 0.333177 0.726385 0.875524
O O8 0.500000 0.304379 0.611733
O O9 0.628807 0.500000 0.638621
O O10 0.640386 0.232190 0.674535
O O11 0.669453 0.273778 0.576627
O O12 0.500000 0.201883 0.740196
O O13 0.634345 0.000000 0.733460
O O14 0.500000 0.701025 0.913175
O O15 0.628388 0.500000 0.936414
O O16 0.637648 0.760004 0.976206
O O17 0.187943 0.767899 0.013132
O O18 0.000000 0.765392 0.998222
O O19 0.098607 0.000000 0.977718
O O20 0.698304 0.000000 0.014690
#
# Coordination Sequence:
#
# PCOD8177586 Si02
#       7
#     8   8   8   8   8   8   8
#     4   9  17  31  51  74 102 135 170 208 249 295
#     4  11  21  33  51  74 103 135 166 207 257 305
#     4   9  18  32  49  71  98 128 165 210 257 298
#     4  10  21  36  54  74  95 128 175 217 252 300
#     4  10  21  33  44  66 102 137 162 192 246 305
#     4   8  14  26  46  72 101 131 163 201 242 285
#     4  10  18  30  51  75  99 129 168 207 243 294
#
# _framework density 16.903652999999998
#
# number of rings (size 3 to 8) (size 9 to 14) (size 15 to 20)
#    0.000    2.429    1.429    2.571    0.000    3.714 
#    0.000    1.429    0.000    1.286    0.000    2.000 
#    0.000    0.000    0.000    0.000    0.000    0.000 
#
# Total GULP energy -347190.436224 kJ/mol
# GULP energy per Si atom -12399.658437 kJ/mol
# Density = 1.686518 g / cm^3
# Si number density = 16.903653 Si / 1000 Ang^3
#
#
#
# Elastic Constant Matrix: (Units=GPa)
#
#
# Indices 1 2 3 4 5 6 
#
# 1 100.2984 44.9172 63.0154 0.0000 0.0000 0.0000
# 2 44.9172 58.8803 51.9512 0.0000 0.0000 0.0000
# 3 63.0154 51.9512 114.2024 0.0000 0.0000 0.0000
# 4 0.0000 0.0000 0.0000 25.5183 0.0000 0.0000
# 5 0.0000 0.0000 0.0000 0.0000 22.4005 0.0000
# 6 0.0000 0.0000 0.0000 0.0000 0.0000 22.6737
#
#
#
# Elastic Compliance Matrix: (Units=1/GPa)
#
#
# Indices 1 2 3 4 5 6 
#
# 1 0.017231 -0.007945 -0.005894 0.000000 0.000000 0.000000
# 2 -0.007945 0.032034 -0.010189 0.000000 0.000000 0.000000
# 3 -0.005894 -0.010189 0.016643 0.000000 0.000000 0.000000
# 4 0.000000 0.000000 0.000000 0.039188 0.000000 0.000000
# 5 0.000000 0.000000 0.000000 0.000000 0.044642 0.000000
# 6 0.000000 0.000000 0.000000 0.000000 0.000000 0.044104
#
#
# Mechanical properties :
#
#
# Convention : Reuss Voigt Hill
#
# Bulk Modulus (GPa) = 56.00935 65.90541 60.95738
# Shear Modulus (GPa) = 20.17374 21.68501 20.92937
#
# Velocity S-wave (km/s) = 3.45839 3.58559 3.52256
# Velocity P-wave (km/s) = 7.01097 7.49769 7.25841
#
# Compressibility (1/GPa) = 0.01785416
#
# Stress axis : x y z
#
# Youngs Moduli (GPa) = 58.03463 31.21708 60.08400
#
# Poissons Ratio (x) = 0.24801 0.35413
# Poissons Ratio (y) = 0.46106 0.61217
# Poissons Ratio (z) = 0.34205 0.31806
#
# Static dielectric constant tensor:
#      x y z
#    x 3.436860 0.000000 0.000000 
#    y 0.000000 3.021090 0.000000 
#    z 0.000000 0.000000 3.082270 
# 
# 
# High freq. dielectric constant tensor:
#      x y z
#    x 1.656090 0.000000 0.000000 
#    y 0.000000 1.639580 0.000000 
#    z 0.000000 0.000000 1.635630 
# 
# From -- ./inp_files/21090.got.cif
#   From: 2010.03.12/outbox.cif.g09.slc.cpg/sg38_11_cif.got.tgz:21090.got - 2010.04.14 02:38:36.
