data_PCOD8177191
_publ_section_title
;
Structure prediction by ZEFSAII (Michael W. Deem and Ramdas Pophale) SiO2 
 PCOD8177191
Probable space group: A M M 2
;
_chemical_formula_sum "Si O2"
_cell_formula_units_Z 48
_cell_length_a 17.404562
_cell_length_b 15.072351
_cell_length_c 8.833190
_cell_angle_alpha 90.000000
_cell_angle_beta 90.000000
_cell_angle_gamma 90.000000
_cell_volume 2317.190129
_symmetry_space_group_name_H-M "A M M 2"
_symmetry_group_IT_number 38
_symmetry_cell_setting 'orthorhombic'
loop_
_space_group_symop_operation_xyz
x,y,z
-x,-y,z
-x,y,z
x,-y,z
x,1/2+y,1/2+z
-x,1/2-y,1/2+z
-x,1/2+y,1/2+z
x,1/2-y,1/2+z
loop_
_atom_site_type_symbol
_atom_site_label
_atom_site_fract_x
_atom_site_fract_y
_atom_site_fract_z
Si Si1 0.682387 0.346029 0.159070
Si Si2 0.852084 0.345151 0.510458
Si Si3 0.317612 0.653970 0.510859
Si Si4 0.852084 0.845149 0.659469
Si Si5 0.000000 0.348736 0.014472
Si Si6 0.409357 0.000000 0.508378
Si Si7 0.409356 0.500000 0.661552
Si Si8 0.000000 0.348738 0.655451
O O1 0.663594 0.335073 0.334965
O O2 0.768065 0.388932 0.137390
O O3 0.621650 0.411733 0.086406
O O4 0.674198 0.250000 0.084964
O O5 0.768065 0.388935 0.532539
O O6 0.844946 0.250001 0.584962
O O7 0.873657 0.336363 0.334964
O O8 0.922143 0.397433 0.594555
O O9 0.378349 0.588267 0.583524
O O10 0.922143 0.897430 0.575372
O O11 0.000000 0.348057 0.834961
O O12 0.000000 0.249998 0.084960
O O13 0.383030 0.000000 0.334965
O O14 0.500000 0.000000 0.526239
O O15 0.500000 0.500000 0.643670
#
# Coordination Sequence:
#
# PCOD8177191 Si02
#       8
#     8   8   8   8   4   4   4   4
#     4  10  21  38  62  89 118 154 194 238 289 344
#     4   9  16  27  45  72 106 144 186 230 277 328
#     4  10  21  38  62  89 118 154 194 238 289 344
#     4   9  16  27  45  72 106 144 186 230 277 328
#     4  10  16  22  38  67 104 145 187 230 274 321
#     4  11  25  43  63  88 117 150 189 235 290 351
#     4  11  25  43  63  88 117 150 189 235 290 351
#     4  10  16  22  38  67 104 145 187 230 274 321
#
# _framework density 20.714744
#
# number of rings (size 3 to 8) (size 9 to 14) (size 15 to 20)
#    0.000    2.167    0.000    6.000    0.000    6.000 
#    0.000    0.000    0.000    1.000    0.000    7.000 
#    0.000    0.000    0.000    0.000    0.000    0.000 
#
# Total GULP energy -297388.586234 kJ/mol
# GULP energy per Si atom -12391.191093 kJ/mol
# Density = 2.066760 g / cm^3
# Si number density = 20.714744 Si / 1000 Ang^3
#
#
#
# Elastic Constant Matrix: (Units=GPa)
#
#
# Indices 1 2 3 4 5 6 
#
# 1 117.0755 44.5049 81.5141 0.0000 0.0000 0.0000
# 2 44.5049 76.8714 46.5167 0.0000 0.0000 0.0000
# 3 81.5141 46.5167 192.8230 0.0000 0.0000 0.0000
# 4 0.0000 0.0000 0.0000 20.1680 0.0000 0.0000
# 5 0.0000 0.0000 0.0000 0.0000 37.2637 0.0000
# 6 0.0000 0.0000 0.0000 0.0000 0.0000 -174.9435
#
#
#
# Elastic Compliance Matrix: (Units=1/GPa)
#
#
# Indices 1 2 3 4 5 6 
#
# 1 0.013658 -0.005168 -0.004527 0.000000 0.000000 0.000000
# 2 -0.005168 0.017188 -0.001962 0.000000 0.000000 0.000000
# 3 -0.004527 -0.001962 0.007573 0.000000 0.000000 0.000000
# 4 0.000000 0.000000 0.000000 0.049583 0.000000 0.000000
# 5 0.000000 0.000000 0.000000 0.000000 0.026836 0.000000
# 6 0.000000 0.000000 0.000000 0.000000 0.000000 -0.005716
#
#
# Mechanical properties :
#
#
# Convention : Reuss Voigt Hill
#
# Bulk Modulus (GPa) = 66.20088 81.31571 73.75829
# Shear Modulus (GPa) = 36.37141 -9.22008 13.57567
#
# Velocity S-wave (km/s) = 4.19480 -2.11202 2.56278
# Velocity P-wave (km/s) = 7.44913 5.77864 6.66642
#
# Compressibility (1/GPa) = 0.01510554
#
# Stress axis : x y z
#
# Youngs Moduli (GPa) = 73.21710 58.18087 132.04574
#
# Poissons Ratio (x) = 0.30067 0.59778
# Poissons Ratio (y) = 0.37838 0.25904
# Poissons Ratio (z) = 0.33146 0.11413
#
# Static dielectric constant tensor:
#      x y z
#    x 4.866510 0.000000 0.000000 
#    y 0.000000 3.207540 0.000000 
#    z 0.000000 0.000000 3.933690 
# 
# 
# High freq. dielectric constant tensor:
#      x y z
#    x 1.832060 0.000000 0.000000 
#    y 0.000000 1.765050 0.000000 
#    z 0.000000 0.000000 1.829220 
# 
# From -- ./inp_files/6263.got.cif
#   From: 2010.03.12/outbox.cif.g09.slc.cpg/sg38_4_cif.got.tgz:6263.got - 2010.04.14 02:38:36.
