data_PCOD8177846
_publ_section_title
;
Structure prediction by ZEFSAII (Michael W. Deem and Ramdas Pophale) SiO2 
 PCOD8177846
Probable space group: A M M 2
;
_chemical_formula_sum "Si O2"
_cell_formula_units_Z 48
_cell_length_a 16.758230
_cell_length_b 15.608991
_cell_length_c 8.828834
_cell_angle_alpha 90.000000
_cell_angle_beta 90.000000
_cell_angle_gamma 90.000000
_cell_volume 2309.438110
_symmetry_space_group_name_H-M "A M M 2"
_symmetry_group_IT_number 38
_symmetry_cell_setting 'orthorhombic'
loop_
_space_group_symop_operation_xyz
x,y,z
-x,-y,z
-x,y,z
x,-y,z
x,1/2+y,1/2+z
-x,1/2-y,1/2+z
-x,1/2+y,1/2+z
x,1/2-y,1/2+z
loop_
_atom_site_type_symbol
_atom_site_label
_atom_site_fract_x
_atom_site_fract_y
_atom_site_fract_z
Si Si1 0.409417 0.000000 0.985690
Si Si2 0.357609 0.000000 0.648424
Si Si3 0.591051 0.178616 0.629152
Si Si4 0.841911 0.332329 0.355374
Si Si5 0.660222 0.828859 0.952318
Si Si6 0.169414 0.000000 0.676370
Si Si7 0.906626 0.500000 0.850015
Si Si8 0.091765 0.826159 0.182829
O O1 0.364637 0.914519 0.045488
O O2 0.500000 0.000000 0.044475
O O3 0.407024 0.000000 0.803869
O O4 0.383484 0.085988 0.559487
O O5 0.264532 0.000000 0.684816
O O6 0.500000 0.199873 0.587178
O O7 0.601909 0.180454 0.809218
O O8 0.650630 0.247735 0.559523
O O9 0.750371 0.337317 0.400927
O O10 0.865554 0.415987 0.258575
O O11 0.854560 0.248280 0.254135
O O12 0.896930 0.329163 0.502974
O O13 0.142838 0.000000 0.503468
O O14 0.882126 0.583136 0.753330
O O15 0.000000 0.500000 0.888960
O O16 0.000000 0.805780 0.218815
#
# Coordination Sequence:
#
# PCOD8177846 Si02
#       8
#     4   4   8   8   8   4   4   8
#     4  10  18  37  62  85 122 165 207 252 306 378
#     4  10  20  37  58  87 118 159 209 245 313 376
#     4  11  21  38  61  88 124 163 208 259 314 378
#     4  12  23  41  66  96 132 172 217 275 320 393
#     4  11  22  38  60  93 122 163 212 260 316 380
#     4  12  23  41  66  96 125 171 221 267 324 389
#     4  10  25  45  66  94 129 169 217 272 329 393
#     4  11  25  44  67  96 132 172 217 269 334 391
#
# _framework density 20.784278
#
# number of rings (size 3 to 8) (size 9 to 14) (size 15 to 20)
#    0.000    1.000    3.333    6.250    2.333    2.667 
#    0.000    0.833    0.000    0.000    0.000    0.000 
#    0.000    0.000    0.000    0.000    0.000    0.000 
#
# Total GULP energy -297685.193389 kJ/mol
# GULP energy per Si atom -12403.549725 kJ/mol
# Density = 2.073697 g / cm^3
# Si number density = 20.784278 Si / 1000 Ang^3
#
#
#
# Elastic Constant Matrix: (Units=GPa)
#
#
# Indices 1 2 3 4 5 6 
#
# 1 65.9592 21.2099 3.4338 0.0000 0.0000 0.0000
# 2 21.2099 171.0487 33.3872 0.0000 0.0000 0.0000
# 3 3.4338 33.3872 71.6653 0.0000 0.0000 0.0000
# 4 0.0000 0.0000 0.0000 37.6536 0.0000 0.0000
# 5 0.0000 0.0000 0.0000 0.0000 18.2304 0.0000
# 6 0.0000 0.0000 0.0000 0.0000 0.0000 34.4815
#
#
#
# Elastic Compliance Matrix: (Units=1/GPa)
#
#
# Indices 1 2 3 4 5 6 
#
# 1 0.015792 -0.001992 0.000171 0.000000 0.000000 0.000000
# 2 -0.001992 0.006682 -0.003018 0.000000 0.000000 0.000000
# 3 0.000171 -0.003018 0.015351 0.000000 0.000000 0.000000
# 4 0.000000 0.000000 0.000000 0.026558 0.000000 0.000000
# 5 0.000000 0.000000 0.000000 0.000000 0.054853 0.000000
# 6 0.000000 0.000000 0.000000 0.000000 0.000000 0.029001
#
#
# Mechanical properties :
#
#
# Convention : Reuss Voigt Hill
#
# Bulk Modulus (GPa) = 35.52423 47.19277 41.35850
# Shear Modulus (GPa) = 29.88679 34.78259 32.33469
#
# Velocity S-wave (km/s) = 3.79615 4.09529 3.94855
# Velocity P-wave (km/s) = 6.02854 6.71693 6.38202
#
# Compressibility (1/GPa) = 0.02814980
#
# Stress axis : x y z
#
# Youngs Moduli (GPa) = 63.32157 149.64958 65.14049
#
# Poissons Ratio (x) = 0.29805 -0.01115
# Poissons Ratio (y) = 0.12611 0.19657
# Poissons Ratio (z) = -0.01084 0.45160
#
# Static dielectric constant tensor:
#      x y z
#    x 3.665500 0.000000 0.000000 
#    y 0.000000 4.424560 0.000000 
#    z 0.000000 0.000000 3.511240 
# 
# 
# High freq. dielectric constant tensor:
#      x y z
#    x 1.819080 0.000000 0.000000 
#    y 0.000000 1.840830 0.000000 
#    z 0.000000 0.000000 1.786490 
# 
# From -- ./inp_files/6231.got.cif
#   From: 2010.03.12/outbox.cif.g09.slc.cpg/sg38_4_cif.got.tgz:6231.got - 2010.04.14 02:38:36.
