data_PCOD8177471
_publ_section_title
;
Structure prediction by ZEFSAII (Michael W. Deem and Ramdas Pophale) SiO2 
 PCOD8177471
Probable space group: A M M 2
;
_chemical_formula_sum "Si O2"
_cell_formula_units_Z 64
_cell_length_a 14.139865
_cell_length_b 9.035915
_cell_length_c 31.066848
_cell_angle_alpha 90.000000
_cell_angle_beta 90.000000
_cell_angle_gamma 90.000000
_cell_volume 3969.306109
_symmetry_space_group_name_H-M "A M M 2"
_symmetry_group_IT_number 38
_symmetry_cell_setting 'orthorhombic'
loop_
_space_group_symop_operation_xyz
x,y,z
-x,-y,z
-x,y,z
x,-y,z
x,1/2+y,1/2+z
-x,1/2-y,1/2+z
-x,1/2+y,1/2+z
x,1/2-y,1/2+z
loop_
_atom_site_type_symbol
_atom_site_label
_atom_site_fract_x
_atom_site_fract_y
_atom_site_fract_z
Si Si1 0.282142 0.175306 0.080990
Si Si2 0.892158 0.828126 0.448982
Si Si3 0.610313 0.326347 0.836747
Si Si4 0.282477 0.675432 0.414334
Si Si5 0.387745 0.833466 0.750773
Si Si6 0.390369 0.673020 0.665669
Si Si7 0.893256 0.327491 0.047722
Si Si8 0.605992 0.324059 0.498368
O O1 0.331665 0.229541 0.124639
O O2 0.176244 0.238215 0.078978
O O3 0.277583 0.000000 0.079281
O O4 0.341863 0.238176 0.040663
O O5 0.825393 0.730097 0.418524
O O6 0.877932 0.778138 0.498363
O O7 0.000000 0.799046 0.434696
O O8 0.866304 0.000000 0.443536
O O9 0.500000 0.290285 0.844124
O O10 0.630016 0.500000 0.837257
O O11 0.670199 0.247608 0.873201
O O12 0.646771 0.261896 0.791394
O O13 0.284957 0.500000 0.409277
O O14 0.339488 0.731333 0.456138
O O15 0.500000 0.833540 0.749412
O O16 0.349809 0.759013 0.707048
O O17 0.347750 0.000000 0.754445
O O18 0.500000 0.709246 0.656904
O O19 0.375857 0.500000 0.674099
O O20 0.872479 0.500000 0.052596
O O21 0.000000 0.290255 0.062102
O O22 0.500000 0.259186 0.497239
O O23 0.603305 0.500000 0.499763
#
# Coordination Sequence:
#
# PCOD8177471 Si02
#       8
#     8   8   8   8   8   8   8   8
#     4  10  18  29  46  69  93 123 162 198 231 273
#     4   9  18  33  50  66  89 123 161 202 246 288
#     4  10  20  33  49  69  96 129 163 197 235 283
#     4  11  20  30  47  71  97 126 160 199 240 282
#     4   9  17  30  48  69  93 121 157 200 240 276
#     4   9  17  29  46  68  96 128 159 191 231 281
#     4   9  18  32  48  65  89 122 157 198 246 286
#     4   9  17  28  41  61  93 129 160 189 224 268
#
# _framework density 16.123725
#
# number of rings (size 3 to 8) (size 9 to 14) (size 15 to 20)
#    0.000    2.500    1.250    2.625    0.000    5.250 
#    0.000    1.250    0.000    1.875    0.000    0.875 
#    0.000    3.000    0.000    0.000    0.000    0.000 
#
# Total GULP energy -396821.604397 kJ/mol
# GULP energy per Si atom -12400.675137 kJ/mol
# Density = 1.608703 g / cm^3
# Si number density = 16.123725 Si / 1000 Ang^3
#
#
#
# Elastic Constant Matrix: (Units=GPa)
#
#
# Indices 1 2 3 4 5 6 
#
# 1 91.5799 39.7874 59.7568 0.0000 0.0000 0.0000
# 2 39.7874 63.2105 53.4249 0.0000 0.0000 0.0000
# 3 59.7568 53.4249 137.3003 0.0000 0.0000 0.0000
# 4 0.0000 0.0000 0.0000 27.3863 0.0000 0.0000
# 5 0.0000 0.0000 0.0000 0.0000 12.2678 0.0000
# 6 0.0000 0.0000 0.0000 0.0000 0.0000 24.7552
#
#
#
# Elastic Compliance Matrix: (Units=1/GPa)
#
#
# Indices 1 2 3 4 5 6 
#
# 1 0.016913 -0.006592 -0.004796 0.000000 0.000000 0.000000
# 2 -0.006592 0.026142 -0.007303 0.000000 0.000000 0.000000
# 3 -0.004796 -0.007303 0.012212 0.000000 0.000000 0.000000
# 4 0.000000 0.000000 0.000000 0.036515 0.000000 0.000000
# 5 0.000000 0.000000 0.000000 0.000000 0.081514 0.000000
# 6 0.000000 0.000000 0.000000 0.000000 0.000000 0.040396
#
#
# Mechanical properties :
#
#
# Convention : Reuss Voigt Hill
#
# Bulk Modulus (GPa) = 55.91294 66.44765 61.18030
# Shear Modulus (GPa) = 19.45260 22.15664 20.80462
#
# Velocity S-wave (km/s) = 3.47718 3.71099 3.59599
# Velocity P-wave (km/s) = 7.13258 7.72415 7.43425
#
# Compressibility (1/GPa) = 0.01788495
#
# Stress axis : x y z
#
# Youngs Moduli (GPa) = 59.12695 38.25257 81.88518
#
# Poissons Ratio (x) = 0.25217 0.39270
# Poissons Ratio (y) = 0.38978 0.59801
# Poissons Ratio (z) = 0.28356 0.27936
#
# Static dielectric constant tensor:
#      x y z
#    x 2.938880 0.000000 0.000000 
#    y 0.000000 2.957140 0.000000 
#    z 0.000000 0.000000 3.075030 
# 
# 
# High freq. dielectric constant tensor:
#      x y z
#    x 1.600120 0.000000 0.000000 
#    y 0.000000 1.614900 0.000000 
#    z 0.000000 0.000000 1.611570 
# 
# From -- ./inp_files/25047.got.cif
#   From: 2010.03.12/outbox.cif.g09.slc.cpg/sg38_13_cif.got.tgz:25047.got - 2010.04.14 02:38:36.
