data_PCOD8177469
_publ_section_title
;
Structure prediction by ZEFSAII (Michael W. Deem and Ramdas Pophale) SiO2 
 PCOD8177469
Probable space group: A M M 2
;
_chemical_formula_sum "Si O2"
_cell_formula_units_Z 56
_cell_length_a 8.639037
_cell_length_b 18.408292
_cell_length_c 20.611379
_cell_angle_alpha 90.000000
_cell_angle_beta 90.000000
_cell_angle_gamma 90.000000
_cell_volume 3277.825865
_symmetry_space_group_name_H-M "A M M 2"
_symmetry_group_IT_number 38
_symmetry_cell_setting 'orthorhombic'
loop_
_space_group_symop_operation_xyz
x,y,z
-x,-y,z
-x,y,z
x,-y,z
x,1/2+y,1/2+z
-x,1/2-y,1/2+z
-x,1/2+y,1/2+z
x,1/2-y,1/2+z
loop_
_atom_site_type_symbol
_atom_site_label
_atom_site_fract_x
_atom_site_fract_y
_atom_site_fract_z
Si Si1 0.682313 0.082466 0.531830
Si Si2 0.177049 0.350537 0.407056
Si Si3 0.821988 0.285141 0.981941
Si Si4 0.818064 0.918123 0.044947
Si Si5 0.321404 0.916068 0.783317
Si Si6 0.819630 0.347760 0.158826
Si Si7 0.320619 0.714358 0.604732
O O1 0.500000 0.090723 0.524045
O O2 0.767809 0.130981 0.475952
O O3 0.729259 0.107202 0.603964
O O4 0.736071 0.000000 0.520931
O O5 0.196599 0.262945 0.416786
O O6 0.226601 0.391183 0.473028
O O7 0.290371 0.375612 0.350762
O O8 0.000000 0.369829 0.388877
O O9 0.000000 0.280637 0.005878
O O10 0.709841 0.251848 0.035894
O O11 0.000000 0.912619 0.054650
O O12 0.757177 0.000000 0.054034
O O13 0.740255 0.868438 0.100649
O O14 0.500000 0.906247 0.764254
O O15 0.215353 0.881317 0.728446
O O16 0.276621 0.000000 0.791448
O O17 0.767347 0.262927 0.158836
O O18 0.000000 0.353606 0.144187
O O19 0.500000 0.713835 0.622061
#
# Coordination Sequence:
#
# PCOD8177469 Si02
#       7
#     8   8   8   8   8   8   8
#     4  10  19  30  46  70  98 123 150 190 237 279
#     4   9  18  32  48  67  92 124 160 193 225 266
#     4   9  17  30  47  66  90 121 157 192 228 274
#     4   9  17  30  48  70  97 126 156 192 231 272
#     4  11  23  35  47  67  95 125 157 192 229 271
#     4  11  21  33  49  66  89 124 162 194 228 275
#     4  10  18  29  46  67  93 121 152 192 235 278
#
# _framework density 17.084496000000001
#
# number of rings (size 3 to 8) (size 9 to 14) (size 15 to 20)
#    0.000    2.143    0.000    7.286    0.000    7.714 
#    0.000    0.000    0.000    0.000    0.000    1.000 
#    0.000    3.429    0.000    0.000    0.000    0.000 
#
# Total GULP energy -347104.549362 kJ/mol
# GULP energy per Si atom -12396.591049 kJ/mol
# Density = 1.704561 g / cm^3
# Si number density = 17.084496 Si / 1000 Ang^3
#
#
#
# Elastic Constant Matrix: (Units=GPa)
#
#
# Indices 1 2 3 4 5 6 
#
# 1 54.0841 36.0433 18.4145 0.0000 0.0000 0.0000
# 2 36.0433 149.5944 43.1765 0.0000 0.0000 0.0000
# 3 18.4145 43.1765 51.1614 0.0000 0.0000 0.0000
# 4 0.0000 0.0000 0.0000 27.0051 0.0000 0.0000
# 5 0.0000 0.0000 0.0000 0.0000 22.1184 0.0000
# 6 0.0000 0.0000 0.0000 0.0000 0.0000 29.8144
#
#
#
# Elastic Compliance Matrix: (Units=1/GPa)
#
#
# Indices 1 2 3 4 5 6 
#
# 1 0.022862 -0.004142 -0.004733 0.000000 0.000000 0.000000
# 2 -0.004142 0.009588 -0.006601 0.000000 0.000000 0.000000
# 3 -0.004733 -0.006601 0.026820 0.000000 0.000000 0.000000
# 4 0.000000 0.000000 0.000000 0.037030 0.000000 0.000000
# 5 0.000000 0.000000 0.000000 0.000000 0.045211 0.000000
# 6 0.000000 0.000000 0.000000 0.000000 0.000000 0.033541
#
#
# Mechanical properties :
#
#
# Convention : Reuss Voigt Hill
#
# Bulk Modulus (GPa) = 35.31306 50.01204 42.66255
# Shear Modulus (GPa) = 23.20810 26.26796 24.73803
#
# Velocity S-wave (km/s) = 3.68969 3.92539 3.80936
# Velocity P-wave (km/s) = 6.23428 7.06271 6.66138
#
# Compressibility (1/GPa) = 0.02831814
#
# Stress axis : x y z
#
# Youngs Moduli (GPa) = 43.74126 104.29867 37.28591
#
# Poissons Ratio (x) = 0.43204 0.17647
# Poissons Ratio (y) = 0.18119 0.24611
# Poissons Ratio (z) = 0.20702 0.68842
#
# Static dielectric constant tensor:
#      x y z
#    x 3.174710 0.000000 0.000000 
#    y 0.000000 3.709100 0.000000 
#    z 0.000000 0.000000 2.845220 
# 
# 
# High freq. dielectric constant tensor:
#      x y z
#    x 1.669250 0.000000 0.000000 
#    y 0.000000 1.669490 0.000000 
#    z 0.000000 0.000000 1.607770 
# 
# From -- ./inp_files/17069.got.cif
#   From: 2010.03.12/outbox.cif.g09.slc.cpg/sg38_9_cif.got.tgz:17069.got - 2010.04.14 02:38:36.
