data_PCOD8177114
_publ_section_title
;
Structure prediction by ZEFSAII (Michael W. Deem and Ramdas Pophale) SiO2 
 PCOD8177114
Probable space group: C C C 2
;
_chemical_formula_sum "Si O2"
_cell_formula_units_Z 56
_cell_length_a 14.061350
_cell_length_b 18.738903
_cell_length_c 9.481532
_cell_angle_alpha 90.000000
_cell_angle_beta 90.000000
_cell_angle_gamma 90.000000
_cell_volume 2498.329388
_symmetry_space_group_name_H-M "C C C 2"
_symmetry_group_IT_number 37
_symmetry_cell_setting 'orthorhombic'
loop_
_space_group_symop_operation_xyz
x,y,z
-x,-y,z
-x,y,1/2+z
x,-y,1/2+z
1/2+x,1/2+y,z
1/2-x,1/2-y,z
1/2-x,1/2+y,1/2+z
1/2+x,1/2-y,1/2+z
loop_
_atom_site_type_symbol
_atom_site_label
_atom_site_fract_x
_atom_site_fract_y
_atom_site_fract_z
Si Si1 0.174558 0.152842 0.824050
Si Si2 0.771011 0.577930 0.249581
Si Si3 0.111014 0.308425 0.870363
Si Si4 0.064764 0.885071 0.064787
Si Si5 0.318091 0.513629 0.484837
Si Si6 0.558591 0.829419 0.181530
Si Si7 0.094182 0.829302 0.764093
O O1 0.118835 0.222648 0.877977
O O2 0.286372 0.157067 0.851058
O O3 0.153085 0.145048 0.658020
O O4 0.137186 0.084010 0.910668
O O5 0.752998 0.529694 0.384757
O O6 0.878124 0.607597 0.248888
O O7 0.701758 0.645792 0.248409
O O8 0.750086 0.530069 0.114349
O O9 0.048912 0.335816 0.738143
O O10 0.061171 0.335881 0.012685
O O11 0.969485 0.877339 0.157871
O O12 0.055342 0.838844 0.922896
O O13 0.089368 0.967293 0.028087
O O14 0.597645 0.753176 0.228723
#
# Coordination Sequence:
#
# PCOD8177114 Si02
#       7
#     8   8   8   8   8   8   8
#     4  11  23  47  71 100 140 191 230 293 359 422
#     4  11  25  43  70  95 143 185 233 285 353 422
#     4  11  26  42  77 100 139 183 241 297 359 409
#     4  11  25  44  69 102 144 183 232 286 348 432
#     4  11  23  46  69  99 138 191 232 278 355 426
#     4  12  24  45  70 108 134 183 236 300 349 423
#     4  11  25  42  66 108 141 182 232 297 351 423
#
# _framework density 22.414978999999999
#
# number of rings (size 3 to 8) (size 9 to 14) (size 15 to 20)
#    0.000    0.857    4.286    2.143    4.000    2.857 
#    7.714    0.714    3.143    0.000    0.000    0.000 
#    0.000    0.000    0.000    0.000    0.000    0.000 
#
# Total GULP energy -347301.216059 kJ/mol
# GULP energy per Si atom -12403.614859 kJ/mol
# Density = 2.236396 g / cm^3
# Si number density = 22.414979 Si / 1000 Ang^3
#
#
#
# Elastic Constant Matrix: (Units=GPa)
#
#
# Indices 1 2 3 4 5 6 
#
# 1 76.1908 -4.6692 30.2516 0.0000 0.0000 0.0000
# 2 -4.6692 56.2621 2.3809 0.0000 0.0000 0.0000
# 3 30.2516 2.3809 117.6393 0.0000 0.0000 0.0000
# 4 0.0000 0.0000 0.0000 32.2182 0.0000 0.0000
# 5 0.0000 0.0000 0.0000 0.0000 32.4326 0.0000
# 6 0.0000 0.0000 0.0000 0.0000 0.0000 33.8933
#
#
#
# Elastic Compliance Matrix: (Units=1/GPa)
#
#
# Indices 1 2 3 4 5 6 
#
# 1 0.014724 0.001383 -0.003814 0.000000 0.000000 0.000000
# 2 0.001383 0.017919 -0.000718 0.000000 0.000000 0.000000
# 3 -0.003814 -0.000718 0.009496 0.000000 0.000000 0.000000
# 4 0.000000 0.000000 0.000000 0.031038 0.000000 0.000000
# 5 0.000000 0.000000 0.000000 0.000000 0.030833 0.000000
# 6 0.000000 0.000000 0.000000 0.000000 0.000000 0.029504
#
#
# Mechanical properties :
#
#
# Convention : Reuss Voigt Hill
#
# Bulk Modulus (GPa) = 27.90140 34.00209 30.95174
# Shear Modulus (GPa) = 32.94654 34.51741 33.73197
#
# Velocity S-wave (km/s) = 3.83801 3.92845 3.88349
# Velocity P-wave (km/s) = 5.66702 5.98157 5.82642
#
# Compressibility (1/GPa) = 0.03584050
#
# Stress axis : x y z
#
# Youngs Moduli (GPa) = 67.91527 55.80618 105.30755
#
# Poissons Ratio (x) = -0.07720 0.40169
# Poissons Ratio (y) = -0.09395 0.07565
# Poissons Ratio (z) = 0.25906 0.04009
#
# Static dielectric constant tensor:
#      x y z
#    x 3.912510 0.000000 0.000000 
#    y 0.000000 4.045200 0.000000 
#    z 0.000000 0.000000 4.328050 
# 
# 
# High freq. dielectric constant tensor:
#      x y z
#    x 1.875340 0.000000 0.000000 
#    y 0.000000 1.878630 0.000000 
#    z 0.000000 0.000000 1.900210 
# 
# From -- ./inp_files/3632.got.cif
#   From: 2010.03.12/outbox.cif.g09.slc.cpg/sg37_2_cif.got.tgz:3632.got - 2010.04.14 02:25:27.
