data_PCOD8177615
_publ_section_title
;
Structure prediction by ZEFSAII (Michael W. Deem and Ramdas Pophale) SiO2 
 PCOD8177615
Probable space group: A M M 2
;
_chemical_formula_sum "Si O2"
_cell_formula_units_Z 64
_cell_length_a 8.902054
_cell_length_b 28.834046
_cell_length_c 12.159950
_cell_angle_alpha 90.000000
_cell_angle_beta 90.000000
_cell_angle_gamma 90.000000
_cell_volume 3121.243138
_symmetry_space_group_name_H-M "A M M 2"
_symmetry_group_IT_number 38
_symmetry_cell_setting 'orthorhombic'
loop_
_space_group_symop_operation_xyz
x,y,z
-x,-y,z
-x,y,z
x,-y,z
x,1/2+y,1/2+z
-x,1/2-y,1/2+z
-x,1/2+y,1/2+z
x,1/2-y,1/2+z
loop_
_atom_site_type_symbol
_atom_site_label
_atom_site_fract_x
_atom_site_fract_y
_atom_site_fract_z
Si Si1 0.325391 0.051381 0.541070
Si Si2 0.326509 0.835591 0.245124
Si Si3 0.825403 0.716797 0.919453
Si Si4 0.670644 0.867422 0.007526
Si Si5 0.677393 0.654864 0.109289
Si Si6 0.835866 0.449686 0.587770
Si Si7 0.825565 0.314375 0.332080
Si Si8 0.170677 0.575649 0.826674
O O1 0.500000 0.056521 0.511880
O O2 0.275721 0.099460 0.604738
O O3 0.228367 0.047113 0.430736
O O4 0.299639 0.000000 0.600839
O O5 0.500000 0.824255 0.268632
O O6 0.217389 0.796977 0.294723
O O7 0.293416 0.836857 0.115216
O O8 0.284683 0.882277 0.308668
O O9 0.781015 0.771079 0.911825
O O10 0.000000 0.709683 0.944357
O O11 0.734700 0.685274 0.005823
O O12 0.500000 0.861060 0.968520
O O13 0.699347 0.920546 0.039122
O O14 0.781543 0.857651 0.907360
O O15 0.500000 0.659144 0.111194
O O16 0.739284 0.680453 0.217274
O O17 0.824241 0.500000 0.533031
O O18 0.822252 0.456128 0.718976
O O19 0.000000 0.427165 0.561021
O O20 0.000000 0.313599 0.302679
O O21 0.000000 0.593391 0.848252
#
# Coordination Sequence:
#
# PCOD8177615 Si02
#       8
#     8   8   8   8   8   8   8   8
#     4  10  21  37  58  87 124 165 207 255 315 376
#     4  10  20  35  57  88 123 159 197 243 300 363
#     4  11  24  41  64  93 123 159 201 252 312 372
#     4  10  22  39  60  88 121 158 205 254 305 362
#     4  11  24  43  67  93 127 166 209 263 315 374
#     4   9  18  33  54  83 120 162 206 253 309 367
#     4  11  26  45  65  89 122 164 210 258 314 375
#     4  10  18  30  52  84 122 161 200 247 300 362
#
# _framework density 20.504650999999999
#
# number of rings (size 3 to 8) (size 9 to 14) (size 15 to 20)
#    0.000    1.750    1.250    2.625    1.750    5.500 
#    0.000    0.625    0.000    2.250    0.000    0.000 
#    0.000    0.000    0.000    0.000    0.000    0.000 
#
# Total GULP energy -396437.628530 kJ/mol
# GULP energy per Si atom -12388.675892 kJ/mol
# Density = 2.045798 g / cm^3
# Si number density = 20.504651 Si / 1000 Ang^3
#
#
#
# Elastic Constant Matrix: (Units=GPa)
#
#
# Indices 1 2 3 4 5 6 
#
# 1 65.6960 43.6867 41.0914 0.0000 0.0000 0.0000
# 2 43.6867 98.2455 42.9435 0.0000 0.0000 0.0000
# 3 41.0914 42.9435 83.5080 0.0000 0.0000 0.0000
# 4 0.0000 0.0000 0.0000 12.8682 0.0000 0.0000
# 5 0.0000 0.0000 0.0000 0.0000 34.0845 0.0000
# 6 0.0000 0.0000 0.0000 0.0000 0.0000 26.2762
#
#
#
# Elastic Compliance Matrix: (Units=1/GPa)
#
#
# Indices 1 2 3 4 5 6 
#
# 1 0.025776 -0.007634 -0.008758 0.000000 0.000000 0.000000
# 2 -0.007634 0.015391 -0.004158 0.000000 0.000000 0.000000
# 3 -0.008758 -0.004158 0.018423 0.000000 0.000000 0.000000
# 4 0.000000 0.000000 0.000000 0.077711 0.000000 0.000000
# 5 0.000000 0.000000 0.000000 0.000000 0.029339 0.000000
# 6 0.000000 0.000000 0.000000 0.000000 0.000000 0.038057
#
#
# Mechanical properties :
#
#
# Convention : Reuss Voigt Hill
#
# Bulk Modulus (GPa) = 54.08444 55.87696 54.98070
# Shear Modulus (GPa) = 19.84453 22.62764 21.23609
#
# Velocity S-wave (km/s) = 3.11433 3.32556 3.22168
# Velocity P-wave (km/s) = 6.27424 6.48504 6.38051
#
# Compressibility (1/GPa) = 0.01848961
#
# Stress axis : x y z
#
# Youngs Moduli (GPa) = 38.79644 64.97475 54.28091
#
# Poissons Ratio (x) = 0.49599 0.47538
# Poissons Ratio (y) = 0.29615 0.22572
# Poissons Ratio (z) = 0.33977 0.27019
#
# Static dielectric constant tensor:
#      x y z
#    x 3.706500 0.000000 0.000000 
#    y 0.000000 3.900070 0.000000 
#    z 0.000000 0.000000 3.547370 
# 
# 
# High freq. dielectric constant tensor:
#      x y z
#    x 1.806260 0.000000 0.000000 
#    y 0.000000 1.805920 0.000000 
#    z 0.000000 0.000000 1.779000 
# 
# From -- ./inp_files/8522.got.cif
#   From: 2010.03.12/outbox.cif.g09.slc.cpg/sg38_5_cif.got.tgz:8522.got - 2010.04.14 02:38:36.
