data_PCOD8177400
_publ_section_title
;
Structure prediction by ZEFSAII (Michael W. Deem and Ramdas Pophale) SiO2 
 PCOD8177400
Probable space group: A M M 2
;
_chemical_formula_sum "Si O2"
_cell_formula_units_Z 56
_cell_length_a 9.020706
_cell_length_b 29.343599
_cell_length_c 13.518226
_cell_angle_alpha 90.000000
_cell_angle_beta 90.000000
_cell_angle_gamma 90.000000
_cell_volume 3578.274146
_symmetry_space_group_name_H-M "A M M 2"
_symmetry_group_IT_number 38
_symmetry_cell_setting 'orthorhombic'
loop_
_space_group_symop_operation_xyz
x,y,z
-x,-y,z
-x,y,z
x,-y,z
x,1/2+y,1/2+z
-x,1/2-y,1/2+z
-x,1/2+y,1/2+z
x,1/2-y,1/2+z
loop_
_atom_site_type_symbol
_atom_site_label
_atom_site_fract_x
_atom_site_fract_y
_atom_site_fract_z
Si Si1 0.329133 0.684576 0.818230
Si Si2 0.827411 0.265063 0.216512
Si Si3 0.175743 0.596378 0.516104
Si Si4 0.326951 0.590654 0.722045
Si Si5 0.171120 0.688803 0.418105
Si Si6 0.162089 0.500000 0.497986
Si Si7 0.673280 0.230783 0.518556
Si Si8 0.165185 0.500000 0.733329
O O1 0.500000 0.697421 0.799482
O O2 0.233962 0.715117 0.743214
O O3 0.298853 0.631414 0.799596
O O4 0.284536 0.695373 0.931581
O O5 0.792093 0.300637 0.304198
O O6 0.000000 0.259863 0.196114
O O7 0.751331 0.285521 0.118959
O O8 0.256646 0.606720 0.618721
O O9 0.209564 0.636077 0.438026
O O10 0.238751 0.548323 0.469068
O O11 0.000000 0.591302 0.537690
O O12 0.500000 0.580966 0.705843
O O13 0.251815 0.545441 0.767724
O O14 0.270705 0.718944 0.490420
O O15 0.000000 0.699669 0.442163
O O16 0.154660 0.500000 0.616133
O O17 0.000000 0.500000 0.449132
O O18 0.500000 0.233122 0.537924
O O19 0.000000 0.500000 0.780007
#
# Coordination Sequence:
#
# PCOD8177400 Si02
#       8
#     8   8   8   8   8   4   8   4
#     4   9  19  32  45  63  86 114 147 179 215 259
#     4  10  19  30  44  63  87 114 146 183 220 257
#     4   9  16  27  42  61  86 114 142 171 209 258
#     4  10  18  28  43  64  88 112 141 177 212 248
#     4   9  18  30  44  63  86 113 146 181 216 256
#     4   7  12  23  39  57  78 105 134 162 195 242
#     4  10  19  31  45  61  85 115 146 179 215 258
#     4   9  17  29  43  61  86 115 142 168 207 256
#
# _framework density 15.650002000000001
#
# number of rings (size 3 to 8) (size 9 to 14) (size 15 to 20)
#    0.000    2.714    0.000    3.214    0.000    5.143 
#    0.000    0.000    0.000    0.000    0.000    1.000 
#    0.000    1.143    0.000    0.000    0.000    0.000 
#
# Total GULP energy -347085.309030 kJ/mol
# GULP energy per Si atom -12395.903894 kJ/mol
# Density = 1.561438 g / cm^3
# Si number density = 15.650002 Si / 1000 Ang^3
#
#
#
# Elastic Constant Matrix: (Units=GPa)
#
#
# Indices 1 2 3 4 5 6 
#
# 1 73.1896 43.4296 38.6916 0.0000 0.0000 0.0000
# 2 43.4296 131.6653 48.6809 0.0000 0.0000 0.0000
# 3 38.6916 48.6809 80.9004 0.0000 0.0000 0.0000
# 4 0.0000 0.0000 0.0000 19.6484 0.0000 0.0000
# 5 0.0000 0.0000 0.0000 0.0000 23.4030 0.0000
# 6 0.0000 0.0000 0.0000 0.0000 0.0000 22.5782
#
#
#
# Elastic Compliance Matrix: (Units=1/GPa)
#
#
# Indices 1 2 3 4 5 6 
#
# 1 0.019716 -0.003880 -0.007095 0.000000 0.000000 0.000000
# 2 -0.003880 0.010532 -0.004482 0.000000 0.000000 0.000000
# 3 -0.007095 -0.004482 0.018451 0.000000 0.000000 0.000000
# 4 0.000000 0.000000 0.000000 0.050895 0.000000 0.000000
# 5 0.000000 0.000000 0.000000 0.000000 0.042730 0.000000
# 6 0.000000 0.000000 0.000000 0.000000 0.000000 0.044290
#
#
# Mechanical properties :
#
#
# Convention : Reuss Voigt Hill
#
# Bulk Modulus (GPa) = 56.22469 60.81773 58.52121
# Shear Modulus (GPa) = 22.37583 23.45613 22.91598
#
# Velocity S-wave (km/s) = 3.78533 3.87563 3.83074
# Velocity P-wave (km/s) = 7.42356 7.67938 7.55255
#
# Compressibility (1/GPa) = 0.01778578
#
# Stress axis : x y z
#
# Youngs Moduli (GPa) = 50.71975 94.94931 54.19826
#
# Poissons Ratio (x) = 0.36843 0.38452
# Poissons Ratio (y) = 0.19681 0.24290
# Poissons Ratio (z) = 0.35984 0.42553
#
# Static dielectric constant tensor:
#      x y z
#    x 3.053520 0.000000 0.000000 
#    y 0.000000 3.185380 0.000000 
#    z 0.000000 0.000000 2.818130 
# 
# 
# High freq. dielectric constant tensor:
#      x y z
#    x 1.605410 0.000000 0.000000 
#    y 0.000000 1.600370 0.000000 
#    z 0.000000 0.000000 1.567190 
# 
# From -- ./inp_files/13023.got.cif
#   From: 2010.03.12/outbox.cif.g09.slc.cpg/sg38_7_cif.got.tgz:13023.got - 2010.04.14 02:38:36.
