data_PCOD8177064
_publ_section_title
;
Structure prediction by ZEFSAII (Michael W. Deem and Ramdas Pophale) SiO2 
 PCOD8177064
Probable space group: C C C 2
;
_chemical_formula_sum "Si O2"
_cell_formula_units_Z 48
_cell_length_a 26.190221
_cell_length_b 8.939355
_cell_length_c 9.707354
_cell_angle_alpha 90.000000
_cell_angle_beta 90.000000
_cell_angle_gamma 90.000000
_cell_volume 2272.721471
_symmetry_space_group_name_H-M "C C C 2"
_symmetry_group_IT_number 37
_symmetry_cell_setting 'orthorhombic'
loop_
_space_group_symop_operation_xyz
x,y,z
-x,-y,z
-x,y,1/2+z
x,-y,1/2+z
1/2+x,1/2+y,z
1/2-x,1/2-y,z
1/2-x,1/2+y,1/2+z
1/2+x,1/2-y,1/2+z
loop_
_atom_site_type_symbol
_atom_site_label
_atom_site_fract_x
_atom_site_fract_y
_atom_site_fract_z
Si Si1 0.246730 0.583243 0.205970
Si Si2 0.531952 0.845320 0.683540
Si Si3 0.384358 0.806665 0.552251
Si Si4 0.631291 0.977760 0.785263
Si Si5 0.010968 0.824435 0.451197
Si Si6 0.211436 0.120275 0.972913
O O1 0.250000 0.750000 0.146438
O O2 0.189420 0.560282 0.258242
O O3 0.259000 0.475471 0.082699
O O4 0.289198 0.539054 0.323544
O O5 0.591723 0.864646 0.713813
O O6 0.532077 0.764767 0.535862
O O7 0.500000 0.000000 0.681241
O O8 0.508017 0.733282 0.795711
O O9 0.378524 0.953498 0.450635
O O10 0.436860 0.720187 0.528895
O O11 0.342579 0.679650 0.522439
O O12 0.380431 0.860821 0.712555
O O13 0.000000 0.000000 0.454622
O O14 0.250000 0.250000 0.931049
#
# Coordination Sequence:
#
# PCOD8177064 Si02
#       6
#     8   8   8   8   8   8
#     4  11  22  41  63  93 131 170 213 270 324 385
#     4  11  23  41  68  95 125 170 224 270 322 398
#     4  11  23  43  67  95 131 174 217 270 327 393
#     4  11  21  39  68  94 124 171 219 266 316 389
#     4  11  25  44  64  95 136 168 214 279 336 387
#     4  11  22  42  64  92 133 167 215 269 322 383
#
# _framework density 21.120052999999999
#
# number of rings (size 3 to 8) (size 9 to 14) (size 15 to 20)
#    0.000    1.000    6.667    1.000    2.333    2.000 
#    6.000    0.000    0.000    0.000    0.000    0.000 
#    0.000    0.000    0.000    0.000    0.000    0.000 
#
# Total GULP energy -297351.079325 kJ/mol
# GULP energy per Si atom -12389.628305 kJ/mol
# Density = 2.107198 g / cm^3
# Si number density = 21.120053 Si / 1000 Ang^3
#
#
#
# Elastic Constant Matrix: (Units=GPa)
#
#
# Indices 1 2 3 4 5 6 
#
# 1 53.8754 27.6901 16.0892 0.0000 0.0000 0.0000
# 2 27.6901 95.4506 33.1302 0.0000 0.0000 0.0000
# 3 16.0892 33.1302 78.2029 0.0000 0.0000 0.0000
# 4 0.0000 0.0000 0.0000 -5.5611 0.0000 0.0000
# 5 0.0000 0.0000 0.0000 0.0000 26.8268 0.0000
# 6 0.0000 0.0000 0.0000 0.0000 0.0000 34.6040
#
#
#
# Elastic Compliance Matrix: (Units=1/GPa)
#
#
# Indices 1 2 3 4 5 6 
#
# 1 0.022117 -0.005671 -0.002148 0.000000 0.000000 0.000000
# 2 -0.005671 0.013737 -0.004653 0.000000 0.000000 0.000000
# 3 -0.002148 -0.004653 0.015200 0.000000 0.000000 0.000000
# 4 0.000000 0.000000 0.000000 -0.179819 0.000000 0.000000
# 5 0.000000 0.000000 0.000000 0.000000 0.037276 0.000000
# 6 0.000000 0.000000 0.000000 0.000000 0.000000 0.028898
#
#
# Mechanical properties :
#
#
# Convention : Reuss Voigt Hill
#
# Bulk Modulus (GPa) = 38.29746 42.37197 40.33471
# Shear Modulus (GPa) = -172.74988 21.21524 -75.76732
#
# Velocity S-wave (km/s) = -9.05383 3.17283 -5.99604
# Velocity P-wave (km/s) = 9.54585 5.79038 5.36631
#
# Compressibility (1/GPa) = 0.02611139
#
# Stress axis : x y z
#
# Youngs Moduli (GPa) = 45.21340 72.79818 65.78821
#
# Poissons Ratio (x) = 0.41281 0.14131
# Poissons Ratio (y) = 0.25639 0.30610
# Poissons Ratio (z) = 0.09712 0.33871
#
# Static dielectric constant tensor:
#      x y z
#    x 3.896440 0.000000 0.000000 
#    y 0.000000 4.122710 0.000000 
#    z 0.000000 0.000000 4.160090 
# 
# 
# High freq. dielectric constant tensor:
#      x y z
#    x 1.837500 0.000000 0.000000 
#    y 0.000000 1.807030 0.000000 
#    z 0.000000 0.000000 1.843590 
# 
# From -- ./inp_files/2426.got.cif
#   From: 2010.03.12/outbox.cif.g09.slc.cpg/sg37_2_cif.got.tgz:2426.got - 2010.04.14 02:25:27.
