data_PCOD8177666
_publ_section_title
;
Structure prediction by ZEFSAII (Michael W. Deem and Ramdas Pophale) SiO2 
 PCOD8177666
Probable space group: A M M 2
;
_chemical_formula_sum "Si O2"
_cell_formula_units_Z 36
_cell_length_a 12.864936
_cell_length_b 7.607200
_cell_length_c 22.128238
_cell_angle_alpha 90.000000
_cell_angle_beta 90.000000
_cell_angle_gamma 90.000000
_cell_volume 2165.605263
_symmetry_space_group_name_H-M "A M M 2"
_symmetry_group_IT_number 38
_symmetry_cell_setting 'orthorhombic'
loop_
_space_group_symop_operation_xyz
x,y,z
-x,-y,z
-x,y,z
x,-y,z
x,1/2+y,1/2+z
-x,1/2-y,1/2+z
-x,1/2+y,1/2+z
x,1/2-y,1/2+z
loop_
_atom_site_type_symbol
_atom_site_label
_atom_site_fract_x
_atom_site_fract_y
_atom_site_fract_z
Si Si1 0.882817 0.700535 0.747960
Si Si2 0.745540 0.301404 0.136718
Si Si3 0.115753 0.695556 0.024999
Si Si4 0.770208 0.500000 0.463754
Si Si5 0.622398 0.500000 0.572264
Si Si6 0.119692 0.000000 0.843715
O O1 0.872084 0.500000 0.769993
O O2 0.791909 0.738363 0.700062
O O3 0.863773 0.825433 0.804699
O O4 0.000000 0.734525 0.721897
O O5 0.699509 0.500000 0.141884
O O6 0.842923 0.296769 0.092548
O O7 0.658058 0.171623 0.109953
O O8 0.123901 0.500000 0.997898
O O9 0.000000 0.765538 0.028800
O O10 0.175251 0.820330 0.980423
O O11 0.661677 0.500000 0.501698
O O12 0.783029 0.500000 0.391233
O O13 0.500000 0.500000 0.568453
O O14 0.000000 0.000000 0.870617
#
# Coordination Sequence:
#
# PCOD8177666 Si02
#       6
#     8   8   8   4   4   4
#     4  10  19  30  48  78 113 148 174 198 242 306
#     4  10  18  31  52  77 105 134 168 209 267 319
#     4   9  17  27  44  72 103 132 164 206 253 309
#     4  10  20  34  50  70  98 142 178 214 256 306
#     4  10  22  38  56  78 100 127 173 236 283 312
#     4  10  20  32  48  74 112 149 179 204 233 300
#
# _framework density 16.623529000000001
#
# number of rings (size 3 to 8) (size 9 to 14) (size 15 to 20)
#    0.000    2.222    2.222    1.667    0.000    2.222 
#    0.000    2.222    0.000    1.333    0.000    0.000 
#    0.000    0.000    0.000    0.000    0.000    0.000 
#
# Total GULP energy -222992.007236 kJ/mol
# GULP energy per Si atom -12388.444846 kJ/mol
# Density = 1.658569 g / cm^3
# Si number density = 16.623529 Si / 1000 Ang^3
#
#
#
# Elastic Constant Matrix: (Units=GPa)
#
#
# Indices 1 2 3 4 5 6 
#
# 1 106.9785 44.7005 44.9074 0.0000 0.0000 0.0000
# 2 44.7005 122.0609 44.7277 0.0000 0.0000 0.0000
# 3 44.9074 44.7277 92.9976 0.0000 0.0000 0.0000
# 4 0.0000 0.0000 0.0000 20.7847 0.0000 0.0000
# 5 0.0000 0.0000 0.0000 0.0000 16.3491 0.0000
# 6 0.0000 0.0000 0.0000 0.0000 0.0000 8.4515
#
#
#
# Elastic Compliance Matrix: (Units=1/GPa)
#
#
# Indices 1 2 3 4 5 6 
#
# 1 0.012502 -0.002873 -0.004656 0.000000 0.000000 0.000000
# 2 -0.002873 0.010605 -0.003714 0.000000 0.000000 0.000000
# 3 -0.004656 -0.003714 0.014787 0.000000 0.000000 0.000000
# 4 0.000000 0.000000 0.000000 0.048112 0.000000 0.000000
# 5 0.000000 0.000000 0.000000 0.000000 0.061165 0.000000
# 6 0.000000 0.000000 0.000000 0.000000 0.000000 0.118322
#
#
# Mechanical properties :
#
#
# Convention : Reuss Voigt Hill
#
# Bulk Modulus (GPa) = 64.88736 65.63424 65.26080
# Shear Modulus (GPa) = 17.05814 21.63049 19.34432
#
# Velocity S-wave (km/s) = 3.20682 3.61112 3.41496
# Velocity P-wave (km/s) = 7.26841 7.54688 7.40895
#
# Compressibility (1/GPa) = 0.01541132
#
# Stress axis : x y z
#
# Youngs Moduli (GPa) = 79.98534 94.29156 67.62595
#
# Poissons Ratio (x) = 0.27085 0.31484
# Poissons Ratio (y) = 0.22976 0.25114
# Poissons Ratio (z) = 0.37238 0.35016
#
# Static dielectric constant tensor:
#      x y z
#    x 2.807430 0.000000 0.000000 
#    y 0.000000 3.386090 0.000000 
#    z 0.000000 0.000000 3.057040 
# 
# 
# High freq. dielectric constant tensor:
#      x y z
#    x 1.596580 0.000000 0.000000 
#    y 0.000000 1.668680 0.000000 
#    z 0.000000 0.000000 1.625620 
# 
# From -- ./inp_files/20388.got.cif
#   From: 2010.03.12/outbox.cif.g09.slc.cpg/sg38_11_cif.got.tgz:20388.got - 2010.04.14 02:38:36.
