data_PCOD8177685
_publ_section_title
;
Structure prediction by ZEFSAII (Michael W. Deem and Ramdas Pophale) SiO2 
 PCOD8177685
Probable space group: A M M 2
;
_chemical_formula_sum "Si O2"
_cell_formula_units_Z 64
_cell_length_a 9.073282
_cell_length_b 18.523051
_cell_length_c 20.712016
_cell_angle_alpha 90.000000
_cell_angle_beta 90.000000
_cell_angle_gamma 90.000000
_cell_volume 3480.962178
_symmetry_space_group_name_H-M "A M M 2"
_symmetry_group_IT_number 38
_symmetry_cell_setting 'orthorhombic'
loop_
_space_group_symop_operation_xyz
x,y,z
-x,-y,z
-x,y,z
x,-y,z
x,1/2+y,1/2+z
-x,1/2-y,1/2+z
-x,1/2+y,1/2+z
x,1/2-y,1/2+z
loop_
_atom_site_type_symbol
_atom_site_label
_atom_site_fract_x
_atom_site_fract_y
_atom_site_fract_z
Si Si1 0.665333 0.830492 0.803580
Si Si2 0.662522 0.841007 0.298383
Si Si3 0.175288 0.819701 0.932295
Si Si4 0.827415 0.829729 0.677226
Si Si5 0.830243 0.584306 0.050464
Si Si6 0.824946 0.419114 0.550065
Si Si7 0.325091 0.167386 0.440045
Si Si8 0.172882 0.663845 0.673943
O O1 0.500000 0.862081 0.809404
O O2 0.661296 0.744927 0.799444
O O3 0.760444 0.852393 0.866031
O O4 0.741983 0.861678 0.739183
O O5 0.500000 0.871547 0.284162
O O6 0.716313 0.865845 0.369528
O O7 0.767184 0.868998 0.241276
O O8 0.242147 0.742578 0.951397
O O9 0.000000 0.811896 0.926392
O O10 0.225267 0.874967 0.987571
O O11 0.779409 0.875649 0.615379
O O12 0.781244 0.747022 0.664224
O O13 0.000000 0.836489 0.691617
O O14 0.806521 0.500000 0.061395
O O15 0.000000 0.602938 0.034365
O O16 0.727191 0.609755 0.992333
O O17 0.760926 0.500000 0.545552
O O18 0.760305 0.381001 0.614235
O O19 0.000000 0.420269 0.554128
O O20 0.500000 0.180965 0.444540
O O21 0.000000 0.655100 0.676875
#
# Coordination Sequence:
#
# PCOD8177685 Si02
#       8
#     8   8   8   8   8   8   8   8
#     4   9  17  30  49  75 103 128 161 208 256 302
#     4   8  16  30  47  70  98 125 157 200 248 296
#     4  10  18  31  54  78 100 131 170 212 255 300
#     4   9  17  31  51  75 100 128 165 207 253 303
#     4  10  21  36  53  75 104 136 173 217 258 301
#     4   9  18  32  49  72 102 133 166 205 249 296
#     4  10  20  34  53  76 103 135 169 208 256 310
#     4   9  16  28  50  75  96 123 161 204 247 293
#
# _framework density 18.385722000000001
#
# number of rings (size 3 to 8) (size 9 to 14) (size 15 to 20)
#    0.000    2.750    0.000    2.625    0.000    6.250 
#    0.000    5.000    0.000    9.375    0.000    0.000 
#    0.000    0.000    0.000    0.000    0.000    0.000 
#
# Total GULP energy -396742.978099 kJ/mol
# GULP energy per Si atom -12398.218066 kJ/mol
# Density = 1.834388 g / cm^3
# Si number density = 18.385722 Si / 1000 Ang^3
#
#
#
# Elastic Constant Matrix: (Units=GPa)
#
#
# Indices 1 2 3 4 5 6 
#
# 1 65.8199 27.9864 56.1342 0.0000 0.0000 0.0000
# 2 27.9864 62.0056 53.8510 0.0000 0.0000 0.0000
# 3 56.1342 53.8510 172.2942 0.0000 0.0000 0.0000
# 4 0.0000 0.0000 0.0000 4.2318 0.0000 0.0000
# 5 0.0000 0.0000 0.0000 0.0000 20.4895 0.0000
# 6 0.0000 0.0000 0.0000 0.0000 0.0000 10.8845
#
#
#
# Elastic Compliance Matrix: (Units=1/GPa)
#
#
# Indices 1 2 3 4 5 6 
#
# 1 0.022164 -0.005123 -0.005620 0.000000 0.000000 0.000000
# 2 -0.005123 0.023321 -0.005620 0.000000 0.000000 0.000000
# 3 -0.005620 -0.005620 0.009392 0.000000 0.000000 0.000000
# 4 0.000000 0.000000 0.000000 0.236304 0.000000 0.000000
# 5 0.000000 0.000000 0.000000 0.000000 0.048806 0.000000
# 6 0.000000 0.000000 0.000000 0.000000 0.000000 0.091873
#
#
# Mechanical properties :
#
#
# Convention : Reuss Voigt Hill
#
# Bulk Modulus (GPa) = 45.14521 64.00697 54.57609
# Shear Modulus (GPa) = 10.59392 17.93104 14.26248
#
# Velocity S-wave (km/s) = 2.40303 3.12632 2.78823
# Velocity P-wave (km/s) = 5.68394 6.92249 6.33356
#
# Compressibility (1/GPa) = 0.02215074
#
# Stress axis : x y z
#
# Youngs Moduli (GPa) = 45.11768 42.88058 106.47884
#
# Poissons Ratio (x) = 0.21968 0.59841
# Poissons Ratio (y) = 0.23114 0.59839
# Poissons Ratio (z) = 0.25356 0.24098
#
# Static dielectric constant tensor:
#      x y z
#    x 3.330960 0.000000 0.000000 
#    y 0.000000 3.126330 0.000000 
#    z 0.000000 0.000000 3.737020 
# 
# 
# High freq. dielectric constant tensor:
#      x y z
#    x 1.700930 0.000000 0.000000 
#    y 0.000000 1.676810 0.000000 
#    z 0.000000 0.000000 1.731900 
# 
# From -- ./inp_files/20063.got.cif
#   From: 2010.03.12/outbox.cif.g09.slc.cpg/sg38_11_cif.got.tgz:20063.got - 2010.04.14 02:38:36.
