data_PCOD8177826
_publ_section_title
;
Structure prediction by ZEFSAII (Michael W. Deem and Ramdas Pophale) SiO2 
 PCOD8177826
Probable space group: A M M 2
;
_chemical_formula_sum "Si O2"
_cell_formula_units_Z 48
_cell_length_a 10.062219
_cell_length_b 8.835850
_cell_length_c 27.500543
_cell_angle_alpha 90.000000
_cell_angle_beta 90.000000
_cell_angle_gamma 90.000000
_cell_volume 2445.025365
_symmetry_space_group_name_H-M "A M M 2"
_symmetry_group_IT_number 38
_symmetry_cell_setting 'orthorhombic'
loop_
_space_group_symop_operation_xyz
x,y,z
-x,-y,z
-x,y,z
x,-y,z
x,1/2+y,1/2+z
-x,1/2-y,1/2+z
-x,1/2+y,1/2+z
x,1/2-y,1/2+z
loop_
_atom_site_type_symbol
_atom_site_label
_atom_site_fract_x
_atom_site_fract_y
_atom_site_fract_z
Si Si1 0.274465 0.679944 0.535440
Si Si2 0.000000 0.179359 0.185827
Si Si3 0.218571 0.823236 0.751331
Si Si4 0.500000 0.179350 0.105793
Si Si5 0.848212 0.175224 0.352463
Si Si6 0.652958 0.176867 0.928232
Si Si7 0.000000 0.819753 0.075561
Si Si8 0.500000 0.674530 0.209775
O O1 0.276906 0.500000 0.536183
O O2 0.371332 0.742739 0.577418
O O3 0.322946 0.736196 0.482900
O O4 0.127936 0.743267 0.546942
O O5 0.867462 0.237809 0.211277
O O6 0.000000 0.239970 0.130732
O O7 0.000000 0.000000 0.188378
O O8 0.179107 0.771037 0.804604
O O9 0.372521 0.784129 0.742217
O O10 0.189108 0.000000 0.746819
O O11 0.500000 0.230755 0.160856
O O12 0.500000 0.000000 0.105204
O O13 0.748960 0.227739 0.394195
O O14 0.000000 0.202623 0.369575
O O15 0.822889 0.000000 0.340649
O O16 0.500000 0.206292 0.913643
O O17 0.688167 0.000000 0.923173
O O18 0.000000 0.000000 0.076019
O O19 0.500000 0.500000 0.194648
#
# Coordination Sequence:
#
# PCOD8177826 Si02
#       8
#     8   4   8   4   8   8   4   4
#     4   9  17  32  54  85 118 151 195 242 284 338
#     4  11  21  37  60  91 124 155 196 247 296 347
#     4  11  23  41  63  86 117 158 200 243 294 354
#     4  10  18  34  59  84 115 155 198 243 293 344
#     4  11  25  43  62  87 118 150 194 250 301 353
#     4  10  21  38  62  91 121 154 196 243 291 350
#     4   9  18  29  50  85 120 151 190 239 286 335
#     4  10  24  40  57  88 123 155 198 247 289 346
#
# _framework density 19.631699000000001
#
# number of rings (size 3 to 8) (size 9 to 14) (size 15 to 20)
#    0.000    1.833    1.667    2.250    2.333    4.000 
#    0.000    0.833    0.000    2.000    0.000    0.000 
#    0.000    0.000    0.000    0.000    0.000    0.000 
#
# Total GULP energy -297654.764158 kJ/mol
# GULP energy per Si atom -12402.281840 kJ/mol
# Density = 1.958702 g / cm^3
# Si number density = 19.631699 Si / 1000 Ang^3
#
#
#
# Elastic Constant Matrix: (Units=GPa)
#
#
# Indices 1 2 3 4 5 6 
#
# 1 150.9912 35.2959 41.0533 0.0000 0.0000 0.0000
# 2 35.2959 51.3266 25.2468 0.0000 0.0000 0.0000
# 3 41.0533 25.2468 91.0914 0.0000 0.0000 0.0000
# 4 0.0000 0.0000 0.0000 28.7830 0.0000 0.0000
# 5 0.0000 0.0000 0.0000 0.0000 37.8952 0.0000
# 6 0.0000 0.0000 0.0000 0.0000 0.0000 23.9532
#
#
#
# Elastic Compliance Matrix: (Units=1/GPa)
#
#
# Indices 1 2 3 4 5 6 
#
# 1 0.008362 -0.004512 -0.002518 0.000000 0.000000 0.000000
# 2 -0.004512 0.024993 -0.004894 0.000000 0.000000 0.000000
# 3 -0.002518 -0.004894 0.013469 0.000000 0.000000 0.000000
# 4 0.000000 0.000000 0.000000 0.034743 0.000000 0.000000
# 5 0.000000 0.000000 0.000000 0.000000 0.026389 0.000000
# 6 0.000000 0.000000 0.000000 0.000000 0.000000 0.041748
#
#
# Mechanical properties :
#
#
# Convention : Reuss Voigt Hill
#
# Bulk Modulus (GPa) = 43.52173 55.17790 49.34982
# Shear Modulus (GPa) = 27.59230 30.91382 29.25306
#
# Velocity S-wave (km/s) = 3.75306 3.97254 3.86436
# Velocity P-wave (km/s) = 6.40296 7.01491 6.71591
#
# Compressibility (1/GPa) = 0.02297703
#
# Stress axis : x y z
#
# Youngs Moduli (GPa) = 119.58460 40.01148 74.24336
#
# Poissons Ratio (x) = 0.18052 0.18696
# Poissons Ratio (y) = 0.53954 0.36332
# Poissons Ratio (z) = 0.30114 0.19580
#
# Static dielectric constant tensor:
#      x y z
#    x 4.010810 0.000000 0.000000 
#    y 0.000000 3.328000 0.000000 
#    z 0.000000 0.000000 3.660180 
# 
# 
# High freq. dielectric constant tensor:
#      x y z
#    x 1.785890 0.000000 0.000000 
#    y 0.000000 1.736780 0.000000 
#    z 0.000000 0.000000 1.773030 
# 
# From -- ./inp_files/24476.got.cif
#   From: 2010.03.12/outbox.cif.g09.slc.cpg/sg38_13_cif.got.tgz:24476.got - 2010.04.14 02:38:36.
