data_PCOD8177274
_publ_section_title
;
Structure prediction by ZEFSAII (Michael W. Deem and Ramdas Pophale) SiO2 
 PCOD8177274
Probable space group: A M M 2
;
_chemical_formula_sum "Si O2"
_cell_formula_units_Z 56
_cell_length_a 8.549150
_cell_length_b 22.719007
_cell_length_c 17.869473
_cell_angle_alpha 90.000000
_cell_angle_beta 90.000000
_cell_angle_gamma 90.000000
_cell_volume 3470.755552
_symmetry_space_group_name_H-M "A M M 2"
_symmetry_group_IT_number 38
_symmetry_cell_setting 'orthorhombic'
loop_
_space_group_symop_operation_xyz
x,y,z
-x,-y,z
-x,y,z
x,-y,z
x,1/2+y,1/2+z
-x,1/2-y,1/2+z
-x,1/2+y,1/2+z
x,1/2-y,1/2+z
loop_
_atom_site_type_symbol
_atom_site_label
_atom_site_fract_x
_atom_site_fract_y
_atom_site_fract_z
Si Si1 0.314291 0.934527 0.010970
Si Si2 0.317506 0.346497 0.631861
Si Si3 0.182215 0.315950 0.237101
Si Si4 0.315520 0.155158 0.885460
Si Si5 0.816039 0.219616 0.431606
Si Si6 0.682531 0.805772 0.285534
Si Si7 0.684819 0.217184 0.588485
O O1 0.500000 0.938914 0.016876
O O2 0.243843 0.899507 0.083234
O O3 0.240803 0.000000 0.009648
O O4 0.265221 0.900405 0.935736
O O5 0.500000 0.345595 0.614570
O O6 0.285451 0.355232 0.721357
O O7 0.251877 0.283124 0.605693
O O8 0.255958 0.358179 0.301088
O O9 0.213153 0.250157 0.264970
O O10 0.262325 0.325835 0.156153
O O11 0.000000 0.328965 0.229950
O O12 0.500000 0.164921 0.885921
O O13 0.239867 0.213422 0.921069
O O14 0.737075 0.176241 0.368880
O O15 0.763124 0.195088 0.511958
O O16 0.000000 0.215664 0.423506
O O17 0.500000 0.787817 0.284247
O O18 0.500000 0.214911 0.580418
#
# Coordination Sequence:
#
# PCOD8177274 Si02
#       7
#     8   8   8   8   8   8   8
#     4   9  16  26  43  66  86 108 147 192 221 244
#     4   8  14  25  40  58  79 107 141 176 211 246
#     4  10  18  27  39  59  83 108 140 176 213 254
#     4  10  17  28  43  58  81 115 148 178 216 256
#     4  11  19  26  39  61  86 111 141 176 213 254
#     4   9  16  26  40  56  79 112 145 173 206 256
#     4  10  17  28  43  60  83 112 143 171 207 260
#
# _framework density 16.134816000000001
#
# number of rings (size 3 to 8) (size 9 to 14) (size 15 to 20)
#    0.000    2.429    1.429    6.429    0.000    0.000 
#    0.000    0.000    0.000    1.714    0.000    0.000 
#    0.000    1.143    0.000    9.714    0.000    2.714 
#
# Total GULP energy -346952.138238 kJ/mol
# GULP energy per Si atom -12391.147794 kJ/mol
# Density = 1.609809 g / cm^3
# Si number density = 16.134816 Si / 1000 Ang^3
#
#
#
# Elastic Constant Matrix: (Units=GPa)
#
#
# Indices 1 2 3 4 5 6 
#
# 1 59.5126 15.1032 31.4215 0.0000 0.0000 0.0000
# 2 15.1032 54.2071 50.3870 0.0000 0.0000 0.0000
# 3 31.4215 50.3870 170.1370 0.0000 0.0000 0.0000
# 4 0.0000 0.0000 0.0000 17.0513 0.0000 0.0000
# 5 0.0000 0.0000 0.0000 0.0000 21.7916 0.0000
# 6 0.0000 0.0000 0.0000 0.0000 0.0000 3.3538
#
#
#
# Elastic Compliance Matrix: (Units=1/GPa)
#
#
# Indices 1 2 3 4 5 6 
#
# 1 0.018920 -0.002792 -0.002667 0.000000 0.000000 0.000000
# 2 -0.002792 0.025867 -0.007145 0.000000 0.000000 0.000000
# 3 -0.002667 -0.007145 0.008486 0.000000 0.000000 0.000000
# 4 0.000000 0.000000 0.000000 0.058647 0.000000 0.000000
# 5 0.000000 0.000000 0.000000 0.000000 0.045889 0.000000
# 6 0.000000 0.000000 0.000000 0.000000 0.000000 0.298167
#
#
# Mechanical properties :
#
#
# Convention : Reuss Voigt Hill
#
# Bulk Modulus (GPa) = 35.63222 53.07556 44.35389
# Shear Modulus (GPa) = 10.19285 20.90234 15.54759
#
# Velocity S-wave (km/s) = 2.51615 3.60318 3.10757
# Velocity P-wave (km/s) = 5.52932 7.09063 6.35808
#
# Compressibility (1/GPa) = 0.02806449
#
# Stress axis : x y z
#
# Youngs Moduli (GPa) = 52.85394 38.65889 117.83743
#
# Poissons Ratio (x) = 0.10794 0.31431
# Poissons Ratio (y) = 0.14758 0.84196
# Poissons Ratio (z) = 0.14098 0.27622
#
# Static dielectric constant tensor:
#      x y z
#    x 2.884620 0.000000 0.000000 
#    y 0.000000 2.712930 0.000000 
#    z 0.000000 0.000000 3.723350 
# 
# 
# High freq. dielectric constant tensor:
#      x y z
#    x 1.612300 0.000000 0.000000 
#    y 0.000000 1.537900 0.000000 
#    z 0.000000 0.000000 1.646480 
# 
# From -- ./inp_files/17248.got.cif
#   From: 2010.03.12/outbox.cif.g09.slc.cpg/sg38_9_cif.got.tgz:17248.got - 2010.04.14 02:38:36.
