data_PCOD8177813
_publ_section_title
;
Structure prediction by ZEFSAII (Michael W. Deem and Ramdas Pophale) SiO2 
 PCOD8177813
Probable space group: A M M 2
;
_chemical_formula_sum "Si O2"
_cell_formula_units_Z 64
_cell_length_a 19.637234
_cell_length_b 9.022268
_cell_length_c 20.056512
_cell_angle_alpha 90.000000
_cell_angle_beta 90.000000
_cell_angle_gamma 90.000000
_cell_volume 3553.460125
_symmetry_space_group_name_H-M "A M M 2"
_symmetry_group_IT_number 38
_symmetry_cell_setting 'orthorhombic'
loop_
_space_group_symop_operation_xyz
x,y,z
-x,-y,z
-x,y,z
x,-y,z
x,1/2+y,1/2+z
-x,1/2-y,1/2+z
-x,1/2+y,1/2+z
x,1/2-y,1/2+z
loop_
_atom_site_type_symbol
_atom_site_label
_atom_site_fract_x
_atom_site_fract_y
_atom_site_fract_z
Si Si1 0.186836 0.825234 0.931430
Si Si2 0.198856 0.170816 0.781684
Si Si3 0.323848 0.324229 0.979012
Si Si4 0.831500 0.173847 0.153517
Si Si5 0.321164 0.674111 0.614800
Si Si6 0.075812 0.675843 0.535582
Si Si7 0.351099 0.170497 0.743809
Si Si8 0.421227 0.670386 0.377205
O O1 0.174007 0.780850 0.854839
O O2 0.250024 0.737783 0.961271
O O3 0.202687 0.000000 0.939134
O O4 0.119164 0.777093 0.970972
O O5 0.155561 0.257844 0.726309
O O6 0.278474 0.209049 0.776645
O O7 0.184526 0.000000 0.768810
O O8 0.320668 0.500000 0.983692
O O9 0.378278 0.278358 0.923592
O O10 0.348345 0.257516 0.049502
O O11 0.757566 0.218393 0.125514
O O12 0.887731 0.236854 0.102348
O O13 0.837628 0.000000 0.161087
O O14 0.331632 0.500000 0.605361
O O15 0.364320 0.728777 0.678808
O O16 0.072088 0.500000 0.539564
O O17 0.000000 0.744259 0.530196
O O18 0.407388 0.207718 0.799554
O O19 0.354408 0.000000 0.721099
O O20 0.500000 0.697336 0.392463
O O21 0.399637 0.500000 0.391177
#
# Coordination Sequence:
#
# PCOD8177813 Si02
#       8
#     8   8   8   8   8   8   8   8
#     4  10  18  34  55  77 106 142 183 228 273 326
#     4   9  17  29  50  76 105 134 167 216 267 312
#     4  12  23  34  54  83 113 145 184 231 275 320
#     4   9  17  30  50  75 103 133 173 221 265 318
#     4  10  19  33  54  79 107 140 181 226 272 319
#     4   9  17  31  53  78 103 138 184 229 273 325
#     4   9  17  32  53  80 109 136 172 219 270 323
#     4  10  21  39  61  82 110 148 182 217 272 335
#
# _framework density 18.010614
#
# number of rings (size 3 to 8) (size 9 to 14) (size 15 to 20)
#    0.000    2.250    2.500    1.500    0.000    1.750 
#    0.000    1.250    0.000    4.500    0.000    0.000 
#    0.000    0.000    0.000    0.000    0.000    0.000 
#
# Total GULP energy -396824.802888 kJ/mol
# GULP energy per Si atom -12400.775090 kJ/mol
# Density = 1.796962 g / cm^3
# Si number density = 18.010614 Si / 1000 Ang^3
#
#
#
# Elastic Constant Matrix: (Units=GPa)
#
#
# Indices 1 2 3 4 5 6 
#
# 1 62.5368 24.6962 32.8599 0.0000 0.0000 0.0000
# 2 24.6962 64.5504 48.4416 0.0000 0.0000 0.0000
# 3 32.8599 48.4416 131.9502 0.0000 0.0000 0.0000
# 4 0.0000 0.0000 0.0000 33.6447 0.0000 0.0000
# 5 0.0000 0.0000 0.0000 0.0000 25.2530 0.0000
# 6 0.0000 0.0000 0.0000 0.0000 0.0000 12.8057
#
#
#
# Elastic Compliance Matrix: (Units=1/GPa)
#
#
# Indices 1 2 3 4 5 6 
#
# 1 0.019630 -0.005303 -0.002942 0.000000 0.000000 0.000000
# 2 -0.005303 0.022815 -0.007055 0.000000 0.000000 0.000000
# 3 -0.002942 -0.007055 0.010901 0.000000 0.000000 0.000000
# 4 0.000000 0.000000 0.000000 0.029722 0.000000 0.000000
# 5 0.000000 0.000000 0.000000 0.000000 0.039599 0.000000
# 6 0.000000 0.000000 0.000000 0.000000 0.000000 0.078090
#
#
# Mechanical properties :
#
#
# Convention : Reuss Voigt Hill
#
# Bulk Modulus (GPa) = 43.96148 52.33700 48.14924
# Shear Modulus (GPa) = 20.92562 24.54329 22.73446
#
# Velocity S-wave (km/s) = 3.41229 3.69550 3.55671
# Velocity P-wave (km/s) = 6.32350 6.87975 6.60748
#
# Compressibility (1/GPa) = 0.02274719
#
# Stress axis : x y z
#
# Youngs Moduli (GPa) = 50.94121 43.83047 91.73100
#
# Poissons Ratio (x) = 0.23242 0.26987
# Poissons Ratio (y) = 0.27012 0.64720
# Poissons Ratio (z) = 0.14987 0.30924
#
# Static dielectric constant tensor:
#      x y z
#    x 3.229300 0.000000 0.000000 
#    y 0.000000 3.155960 0.000000 
#    z 0.000000 0.000000 3.592370 
# 
# 
# High freq. dielectric constant tensor:
#      x y z
#    x 1.668120 0.000000 0.000000 
#    y 0.000000 1.678710 0.000000 
#    z 0.000000 0.000000 1.713920 
# 
# From -- ./inp_files/21349.got.cif
#   From: 2010.03.12/outbox.cif.g09.slc.cpg/sg38_11_cif.got.tgz:21349.got - 2010.04.14 02:38:36.
