data_PCOD8177991
_publ_section_title
;
Structure prediction by ZEFSAII (Michael W. Deem and Ramdas Pophale) SiO2 
 PCOD8177991
Probable space group: A M M 2
;
_chemical_formula_sum "Si O2"
_cell_formula_units_Z 64
_cell_length_a 15.124627
_cell_length_b 14.455382
_cell_length_c 16.794809
_cell_angle_alpha 90.000000
_cell_angle_beta 90.000000
_cell_angle_gamma 90.000000
_cell_volume 3671.887063
_symmetry_space_group_name_H-M "A M M 2"
_symmetry_group_IT_number 38
_symmetry_cell_setting 'orthorhombic'
loop_
_space_group_symop_operation_xyz
x,y,z
-x,-y,z
-x,y,z
x,-y,z
x,1/2+y,1/2+z
-x,1/2-y,1/2+z
-x,1/2+y,1/2+z
x,1/2-y,1/2+z
loop_
_atom_site_type_symbol
_atom_site_label
_atom_site_fract_x
_atom_site_fract_y
_atom_site_fract_z
Si Si1 0.597975 0.401913 0.074400
Si Si2 0.598508 0.309507 0.916482
Si Si3 0.099501 0.394555 0.029195
Si Si4 0.398903 0.107336 0.244785
Si Si5 0.163411 0.104787 0.705298
Si Si6 0.286541 0.254508 0.645741
Si Si7 0.901383 0.106082 0.878262
Si Si8 0.223178 0.763493 0.978584
O O1 0.500000 0.406908 0.109381
O O2 0.646637 0.500000 0.094872
O O3 0.640078 0.312283 0.110644
O O4 0.597609 0.393234 0.979068
O O5 0.500000 0.260516 0.917860
O O6 0.617162 0.353541 0.831802
O O7 0.679411 0.240876 0.938343
O O8 0.116487 0.500000 0.003367
O O9 0.107226 0.384268 0.124681
O O10 0.000000 0.363599 0.005918
O O11 0.171548 0.334898 0.980354
O O12 0.500000 0.123576 0.217091
O O13 0.331076 0.158707 0.187197
O O14 0.374363 0.000000 0.242440
O O15 0.234166 0.188422 0.706912
O O16 0.104712 0.121777 0.783340
O O17 0.204540 0.000000 0.708651
O O18 0.229989 0.294633 0.571357
O O19 0.831261 0.163420 0.928333
O O20 0.000000 0.135499 0.904124
O O21 0.883154 0.000000 0.899623
#
# Coordination Sequence:
#
# PCOD8177991 Si02
#       8
#     8   8   8   8   8   8   8   8
#     4   9  16  27  45  69  96 124 154 192 238 284
#     4   9  18  32  50  71  95 124 159 199 241 283
#     4   9  17  30  49  74 102 128 155 192 240 290
#     4  10  20  33  48  65  89 125 166 203 235 272
#     4   9  17  30  49  72  96 122 153 191 237 285
#     4  10  19  30  46  69  96 124 155 194 239 286
#     4  10  20  34  52  72  95 126 163 199 232 273
#     4  10  20  32  50  73  99 127 157 195 241 288
#
# _framework density 17.429729999999999
#
# number of rings (size 3 to 8) (size 9 to 14) (size 15 to 20)
#    0.000    2.500    0.000    2.625    0.000    7.500 
#    0.000    0.000    0.000    0.375    0.000    3.500 
#    0.000    8.000    0.000    0.000    0.000    0.000 
#
# Total GULP energy -396470.242688 kJ/mol
# GULP energy per Si atom -12389.695084 kJ/mol
# Density = 1.739006 g / cm^3
# Si number density = 17.429730 Si / 1000 Ang^3
#
#
#
# Elastic Constant Matrix: (Units=GPa)
#
#
# Indices 1 2 3 4 5 6 
#
# 1 110.4167 51.9550 43.7852 0.0000 0.0000 0.0000
# 2 51.9550 70.4934 46.3275 0.0000 0.0000 0.0000
# 3 43.7852 46.3275 62.9988 0.0000 0.0000 0.0000
# 4 0.0000 0.0000 0.0000 20.3793 0.0000 0.0000
# 5 0.0000 0.0000 0.0000 0.0000 16.0005 0.0000
# 6 0.0000 0.0000 0.0000 0.0000 0.0000 17.2114
#
#
#
# Elastic Compliance Matrix: (Units=1/GPa)
#
#
# Indices 1 2 3 4 5 6 
#
# 1 0.014436 -0.007830 -0.004276 0.000000 0.000000 0.000000
# 2 -0.007830 0.031700 -0.017869 0.000000 0.000000 0.000000
# 3 -0.004276 -0.017869 0.031986 0.000000 0.000000 0.000000
# 4 0.000000 0.000000 0.000000 0.049069 0.000000 0.000000
# 5 0.000000 0.000000 0.000000 0.000000 0.062498 0.000000
# 6 0.000000 0.000000 0.000000 0.000000 0.000000 0.058101
#
#
# Mechanical properties :
#
#
# Convention : Reuss Voigt Hill
#
# Bulk Modulus (GPa) = 55.02928 58.67158 56.85043
# Shear Modulus (GPa) = 15.93382 17.50765 16.72073
#
# Velocity S-wave (km/s) = 3.02681 3.17278 3.10065
# Velocity P-wave (km/s) = 6.62239 6.86709 6.74585
#
# Compressibility (1/GPa) = 0.01817214
#
# Stress axis : x y z
#
# Youngs Moduli (GPa) = 69.26962 31.54552 31.26413
#
# Poissons Ratio (x) = 0.24700 0.13367
# Poissons Ratio (y) = 0.54238 0.55867
# Poissons Ratio (z) = 0.29616 0.56370
#
# Static dielectric constant tensor:
#      x y z
#    x 3.393640 0.000000 0.000000 
#    y 0.000000 3.110220 0.000000 
#    z 0.000000 0.000000 3.245400 
# 
# 
# High freq. dielectric constant tensor:
#      x y z
#    x 1.679360 0.000000 0.000000 
#    y 0.000000 1.655880 0.000000 
#    z 0.000000 0.000000 1.664160 
# 
# From -- ./inp_files/18463.got.cif
#   From: 2010.03.12/outbox.cif.g09.slc.cpg/sg38_10_cif.got.tgz:18463.got - 2010.04.14 02:38:36.
