data_PCOD8177774
_publ_section_title
;
Structure prediction by ZEFSAII (Michael W. Deem and Ramdas Pophale) SiO2 
 PCOD8177774
Probable space group: A M M 2
;
_chemical_formula_sum "Si O2"
_cell_formula_units_Z 64
_cell_length_a 19.663195
_cell_length_b 9.027358
_cell_length_c 20.046079
_cell_angle_alpha 90.000000
_cell_angle_beta 90.000000
_cell_angle_gamma 90.000000
_cell_volume 3558.313345
_symmetry_space_group_name_H-M "A M M 2"
_symmetry_group_IT_number 38
_symmetry_cell_setting 'orthorhombic'
loop_
_space_group_symop_operation_xyz
x,y,z
-x,-y,z
-x,y,z
x,-y,z
x,1/2+y,1/2+z
-x,1/2-y,1/2+z
-x,1/2+y,1/2+z
x,1/2-y,1/2+z
loop_
_atom_site_type_symbol
_atom_site_label
_atom_site_fract_x
_atom_site_fract_y
_atom_site_fract_z
Si Si1 0.672364 0.669863 0.734760
Si Si2 0.206572 0.827202 0.051393
Si Si3 0.644223 0.675813 0.512555
Si Si4 0.176409 0.174223 0.194874
Si Si5 0.316809 0.171277 0.385114
Si Si6 0.577598 0.829266 0.630815
Si Si7 0.822726 0.827210 0.907919
Si Si8 0.076656 0.325925 0.294312
O O1 0.663070 0.500000 0.711466
O O2 0.750870 0.716904 0.726079
O O3 0.650911 0.691246 0.811730
O O4 0.624752 0.770921 0.689944
O O5 0.173807 0.761935 0.118823
O O6 0.213419 0.000000 0.063790
O O7 0.282957 0.767848 0.040208
O O8 0.161451 0.790306 0.985873
O O9 0.637598 0.500000 0.508494
O O10 0.635968 0.741348 0.437895
O O11 0.587708 0.740332 0.561890
O O12 0.116062 0.253253 0.233433
O O13 0.163056 0.000000 0.199117
O O14 0.240494 0.233112 0.382322
O O15 0.313675 0.000000 0.405596
O O16 0.500000 0.807288 0.653416
O O17 0.595077 0.000000 0.617719
O O18 0.888513 0.784576 0.864853
O O19 0.803075 0.000000 0.900751
O O20 0.077479 0.500000 0.282791
O O21 0.000000 0.264034 0.296415
#
# Coordination Sequence:
#
# PCOD8177774 Si02
#       8
#     8   8   8   8   8   8   8   8
#     4  10  20  35  56  82 113 147 183 228 279 331
#     4   8  15  29  51  77 102 126 167 222 266 311
#     4  10  19  35  57  81 109 143 181 224 273 331
#     4  10  18  33  54  79 108 137 177 227 274 330
#     4  10  19  32  53  83 113 139 177 231 278 321
#     4  11  24  39  56  82 115 148 185 229 276 332
#     4   9  17  31  51  75 102 139 180 222 272 327
#     4  10  21  35  50  73 108 146 184 227 278 334
#
# _framework density 17.986049000000001
#
# number of rings (size 3 to 8) (size 9 to 14) (size 15 to 20)
#    0.000    2.250    2.500    1.875    0.000    2.750 
#    0.000    1.875    0.000    3.000    0.000    0.000 
#    0.000    0.000    0.000    0.000    0.000    0.000 
#
# Total GULP energy -396745.816266 kJ/mol
# GULP energy per Si atom -12398.306758 kJ/mol
# Density = 1.794511 g / cm^3
# Si number density = 17.986049 Si / 1000 Ang^3
#
#
#
# Elastic Constant Matrix: (Units=GPa)
#
#
# Indices 1 2 3 4 5 6 
#
# 1 75.6269 38.4557 40.6417 0.0000 0.0000 0.0000
# 2 38.4557 75.0232 45.6491 0.0000 0.0000 0.0000
# 3 40.6417 45.6491 129.1581 0.0000 0.0000 0.0000
# 4 0.0000 0.0000 0.0000 31.5113 0.0000 0.0000
# 5 0.0000 0.0000 0.0000 0.0000 24.4487 0.0000
# 6 0.0000 0.0000 0.0000 0.0000 0.0000 23.9391
#
#
#
# Elastic Compliance Matrix: (Units=1/GPa)
#
#
# Indices 1 2 3 4 5 6 
#
# 1 0.018874 -0.007721 -0.003210 0.000000 0.000000 0.000000
# 2 -0.007721 0.020140 -0.004688 0.000000 0.000000 0.000000
# 3 -0.003210 -0.004688 0.010410 0.000000 0.000000 0.000000
# 4 0.000000 0.000000 0.000000 0.031735 0.000000 0.000000
# 5 0.000000 0.000000 0.000000 0.000000 0.040902 0.000000
# 6 0.000000 0.000000 0.000000 0.000000 0.000000 0.041773
#
#
# Mechanical properties :
#
#
# Convention : Reuss Voigt Hill
#
# Bulk Modulus (GPa) = 54.99403 58.81125 56.90264
# Shear Modulus (GPa) = 24.85907 26.31728 25.58817
#
# Velocity S-wave (km/s) = 3.72173 3.82934 3.77592
# Velocity P-wave (km/s) = 7.00790 7.23333 7.12151
#
# Compressibility (1/GPa) = 0.01818379
#
# Stress axis : x y z
#
# Youngs Moduli (GPa) = 52.98260 49.65286 96.06494
#
# Poissons Ratio (x) = 0.38339 0.30837
# Poissons Ratio (y) = 0.40910 0.45040
# Poissons Ratio (z) = 0.17008 0.23280
#
# Static dielectric constant tensor:
#      x y z
#    x 3.147610 0.000000 0.000000 
#    y 0.000000 3.226100 0.000000 
#    z 0.000000 0.000000 3.651990 
# 
# 
# High freq. dielectric constant tensor:
#      x y z
#    x 1.664320 0.000000 0.000000 
#    y 0.000000 1.687620 0.000000 
#    z 0.000000 0.000000 1.714920 
# 
# From -- ./inp_files/21391.got.cif
#   From: 2010.03.12/outbox.cif.g09.slc.cpg/sg38_11_cif.got.tgz:21391.got - 2010.04.14 02:38:36.
