data_PCOD8177008
_publ_section_title
;
Structure prediction by ZEFSAII (Michael W. Deem and Ramdas Pophale) SiO2 
 PCOD8177008
Probable space group: C C C 2
;
_chemical_formula_sum "Si O2"
_cell_formula_units_Z 40
_cell_length_a 4.810249
_cell_length_b 16.927835
_cell_length_c 18.962376
_cell_angle_alpha 90.000000
_cell_angle_beta 90.000000
_cell_angle_gamma 90.000000
_cell_volume 1544.051313
_symmetry_space_group_name_H-M "C C C 2"
_symmetry_group_IT_number 37
_symmetry_cell_setting 'orthorhombic'
loop_
_space_group_symop_operation_xyz
x,y,z
-x,-y,z
-x,y,1/2+z
x,-y,1/2+z
1/2+x,1/2+y,z
1/2-x,1/2-y,z
1/2-x,1/2+y,1/2+z
1/2+x,1/2-y,1/2+z
loop_
_atom_site_type_symbol
_atom_site_label
_atom_site_fract_x
_atom_site_fract_y
_atom_site_fract_z
Si Si1 0.750000 0.250000 0.459220
Si Si2 0.916976 0.624728 0.384809
Si Si3 0.349578 0.618983 0.570486
Si Si4 0.591148 0.413744 0.294369
Si Si5 0.832392 0.660355 0.656407
Si Si6 0.500000 0.000000 0.493491
O O1 0.991267 0.287395 0.409741
O O2 0.620046 0.317970 0.507412
O O3 0.183299 0.576557 0.355482
O O4 0.834764 0.568895 0.450566
O O5 0.672470 0.633045 0.326988
O O6 0.655501 0.606475 0.602269
O O7 0.239616 0.536734 0.541778
O O8 0.154880 0.648791 0.636264
O O9 0.500000 0.500000 0.266274
O O10 0.752847 0.363995 0.235342
O O11 0.750000 0.750000 0.643532
#
# Coordination Sequence:
#
# PCOD8177008 Si02
#       6
#     4   8   8   8   8   4
#     4  10  24  46  72 106 140 188 232 304 366 442
#     4  11  25  46  71 104 143 185 242 299 369 431
#     4  11  25  44  73 104 142 182 240 297 369 428
#     4  12  26  46  71 101 143 189 247 300 358 434
#     4  12  26  47  69 102 143 190 242 296 356 436
#     4  10  24  44  74 104 142 184 232 304 372 438
#
# _framework density 25.905875999999999
#
# number of rings (size 3 to 8) (size 9 to 14) (size 15 to 20)
#    0.000    0.800    4.000    1.200    4.200   10.400 
#    0.000    0.000    0.000    0.000    0.000    0.000 
#    0.000    0.000    0.000    0.000    0.000    0.000 
#
# Total GULP energy -248070.044573 kJ/mol
# GULP energy per Si atom -12403.502229 kJ/mol
# Density = 2.584691 g / cm^3
# Si number density = 25.905876 Si / 1000 Ang^3
#
#
#
# Elastic Constant Matrix: (Units=GPa)
#
#
# Indices 1 2 3 4 5 6 
#
# 1 90.3402 13.7089 15.3795 0.0000 0.0000 0.0000
# 2 13.7089 108.3738 32.0354 0.0000 0.0000 0.0000
# 3 15.3795 32.0354 94.2194 0.0000 0.0000 0.0000
# 4 0.0000 0.0000 0.0000 10.2574 0.0000 0.0000
# 5 0.0000 0.0000 0.0000 0.0000 -22.0125 0.0000
# 6 0.0000 0.0000 0.0000 0.0000 0.0000 35.0005
#
#
#
# Elastic Compliance Matrix: (Units=1/GPa)
#
#
# Indices 1 2 3 4 5 6 
#
# 1 0.011482 -0.000999 -0.001535 0.000000 0.000000 0.000000
# 2 -0.000999 0.010345 -0.003354 0.000000 0.000000 0.000000
# 3 -0.001535 -0.003354 0.012005 0.000000 0.000000 0.000000
# 4 0.000000 0.000000 0.000000 0.097490 0.000000 0.000000
# 5 0.000000 0.000000 0.000000 0.000000 -0.045429 0.000000
# 6 0.000000 0.000000 0.000000 0.000000 0.000000 0.028571
#
#
# Mechanical properties :
#
#
# Convention : Reuss Voigt Hill
#
# Bulk Modulus (GPa) = 45.33880 46.13121 45.73500
# Shear Modulus (GPa) = 37.42729 20.10307 28.76518
#
# Velocity S-wave (km/s) = 3.80510 2.78871 3.33584
# Velocity P-wave (km/s) = 6.06996 5.31179 5.70348
#
# Compressibility (1/GPa) = 0.02205616
#
# Stress axis : x y z
#
# Youngs Moduli (GPa) = 87.09219 96.66279 83.30174
#
# Poissons Ratio (x) = 0.09655 0.12784
# Poissons Ratio (y) = 0.08699 0.27943
# Poissons Ratio (z) = 0.13365 0.32425
#
# Static dielectric constant tensor:
#      x y z
#    x 4.770910 0.000000 0.000000 
#    y 0.000000 4.568750 0.000000 
#    z 0.000000 0.000000 4.711050 
# 
# 
# High freq. dielectric constant tensor:
#      x y z
#    x 2.041280 0.000000 0.000000 
#    y 0.000000 2.041240 0.000000 
#    z 0.000000 0.000000 2.039080 
# 
# From -- ./inp_files/13764.got.cif
#   From: 2010.03.12/outbox.cif.g09.slc.cpg/sg37_7_cif.got.tgz:13764.got - 2010.04.14 02:25:27.
