data_PCOD8177674
_publ_section_title
;
Structure prediction by ZEFSAII (Michael W. Deem and Ramdas Pophale) SiO2 
 PCOD8177674
Probable space group: A M M 2
;
_chemical_formula_sum "Si O2"
_cell_formula_units_Z 64
_cell_length_a 9.324129
_cell_length_b 20.906777
_cell_length_c 19.521283
_cell_angle_alpha 90.000000
_cell_angle_beta 90.000000
_cell_angle_gamma 90.000000
_cell_volume 3805.429826
_symmetry_space_group_name_H-M "A M M 2"
_symmetry_group_IT_number 38
_symmetry_cell_setting 'orthorhombic'
loop_
_space_group_symop_operation_xyz
x,y,z
-x,-y,z
-x,y,z
x,-y,z
x,1/2+y,1/2+z
-x,1/2-y,1/2+z
-x,1/2+y,1/2+z
x,1/2-y,1/2+z
loop_
_atom_site_type_symbol
_atom_site_label
_atom_site_fract_x
_atom_site_fract_y
_atom_site_fract_z
Si Si1 0.666644 0.693477 0.896540
Si Si2 0.667125 0.261040 0.044117
Si Si3 0.163474 0.878176 0.190156
Si Si4 0.834583 0.769000 0.674918
Si Si5 0.168402 0.569423 0.400019
Si Si6 0.165003 0.131557 0.038751
Si Si7 0.831196 0.807354 0.823025
Si Si8 0.667383 0.928880 0.314146
O O1 0.500000 0.705763 0.880332
O O2 0.755286 0.747649 0.858026
O O3 0.718210 0.624025 0.869301
O O4 0.694486 0.694286 0.978060
O O5 0.500000 0.252204 0.059353
O O6 0.740204 0.293365 0.110835
O O7 0.734769 0.192477 0.028338
O O8 0.205241 0.803666 0.193774
O O9 0.190185 0.902040 0.112257
O O10 0.260478 0.918760 0.240664
O O11 0.000000 0.888579 0.212893
O O12 0.799951 0.810923 0.741896
O O13 0.000000 0.774265 0.653053
O O14 0.235008 0.500000 0.379979
O O15 0.202595 0.580977 0.479954
O O16 0.232516 0.626757 0.354136
O O17 0.000000 0.567298 0.387214
O O18 0.000000 0.155318 0.033373
O O19 0.000000 0.799566 0.837780
O O20 0.500000 0.922548 0.301103
O O21 0.707093 0.000000 0.341468
#
# Coordination Sequence:
#
# PCOD8177674 Si02
#       8
#     8   8   8   8   8   8   8   8
#     4  10  20  33  50  73  98 125 162 204 245 288
#     4  10  19  30  48  73  98 125 159 201 247 287
#     4   9  17  29  46  70  97 126 162 199 236 281
#     4   9  18  31  48  73  99 125 160 199 243 289
#     4   9  17  29  48  74 100 129 164 198 237 286
#     4   9  17  30  48  69  98 132 163 196 233 280
#     4  10  18  31  53  75  97 128 164 201 241 285
#     4  10  21  35  49  67  95 131 165 199 243 292
#
# _framework density 16.818073999999999
#
# number of rings (size 3 to 8) (size 9 to 14) (size 15 to 20)
#    0.000    2.500    2.500    1.125    0.000    3.750 
#    0.000    1.250    0.000    2.250    0.000    0.000 
#    0.000    0.000    0.000    0.000    0.000    0.000 
#
# Total GULP energy -396685.971068 kJ/mol
# GULP energy per Si atom -12396.436596 kJ/mol
# Density = 1.677980 g / cm^3
# Si number density = 16.818074 Si / 1000 Ang^3
#
#
#
# Elastic Constant Matrix: (Units=GPa)
#
#
# Indices 1 2 3 4 5 6 
#
# 1 50.1155 37.8130 45.3342 0.0000 0.0000 0.0000
# 2 37.8130 120.7225 71.6985 0.0000 0.0000 0.0000
# 3 45.3342 71.6985 116.5543 0.0000 0.0000 0.0000
# 4 0.0000 0.0000 0.0000 21.5844 0.0000 0.0000
# 5 0.0000 0.0000 0.0000 0.0000 25.7644 0.0000
# 6 0.0000 0.0000 0.0000 0.0000 0.0000 15.6117
#
#
#
# Elastic Compliance Matrix: (Units=1/GPa)
#
#
# Indices 1 2 3 4 5 6 
#
# 1 0.032055 -0.004153 -0.009913 0.000000 0.000000 0.000000
# 2 -0.004153 0.013590 -0.006745 0.000000 0.000000 0.000000
# 3 -0.009913 -0.006745 0.016584 0.000000 0.000000 0.000000
# 4 0.000000 0.000000 0.000000 0.046330 0.000000 0.000000
# 5 0.000000 0.000000 0.000000 0.000000 0.038813 0.000000
# 6 0.000000 0.000000 0.000000 0.000000 0.000000 0.064055
#
#
# Mechanical properties :
#
#
# Convention : Reuss Voigt Hill
#
# Bulk Modulus (GPa) = 48.52511 66.34264 57.43388
# Shear Modulus (GPa) = 19.23691 21.42853 20.33272
#
# Velocity S-wave (km/s) = 3.38572 3.57338 3.48081
# Velocity P-wave (km/s) = 6.64828 7.52052 7.09781
#
# Compressibility (1/GPa) = 0.02060789
#
# Stress axis : x y z
#
# Youngs Moduli (GPa) = 31.19674 73.58410 60.29737
#
# Poissons Ratio (x) = 0.30557 0.59774
# Poissons Ratio (y) = 0.12955 0.40668
# Poissons Ratio (z) = 0.30926 0.49630
#
# Static dielectric constant tensor:
#      x y z
#    x 3.041270 0.000000 0.000000 
#    y 0.000000 3.209260 0.000000 
#    z 0.000000 0.000000 3.382770 
# 
# 
# High freq. dielectric constant tensor:
#      x y z
#    x 1.633750 0.000000 0.000000 
#    y 0.000000 1.623600 0.000000 
#    z 0.000000 0.000000 1.654190 
# 
# From -- ./inp_files/20045.got.cif
#   From: 2010.03.12/outbox.cif.g09.slc.cpg/sg38_11_cif.got.tgz:20045.got - 2010.04.14 02:38:36.
