data_PCOD8177371
_publ_section_title
;
Structure prediction by ZEFSAII (Michael W. Deem and Ramdas Pophale) SiO2 
 PCOD8177371
Probable space group: A M M 2
;
_chemical_formula_sum "Si O2"
_cell_formula_units_Z 64
_cell_length_a 9.080136
_cell_length_b 14.568838
_cell_length_c 28.213371
_cell_angle_alpha 90.000000
_cell_angle_beta 90.000000
_cell_angle_gamma 90.000000
_cell_volume 3732.263067
_symmetry_space_group_name_H-M "A M M 2"
_symmetry_group_IT_number 38
_symmetry_cell_setting 'orthorhombic'
loop_
_space_group_symop_operation_xyz
x,y,z
-x,-y,z
-x,y,z
x,-y,z
x,1/2+y,1/2+z
-x,1/2-y,1/2+z
-x,1/2+y,1/2+z
x,1/2-y,1/2+z
loop_
_atom_site_type_symbol
_atom_site_label
_atom_site_fract_x
_atom_site_fract_y
_atom_site_fract_z
Si Si1 0.829733 0.394159 0.524200
Si Si2 0.171622 0.395720 0.070773
Si Si3 0.324951 0.397247 0.689966
Si Si4 0.671171 0.784778 0.382297
Si Si5 0.170025 0.604652 0.961578
Si Si6 0.324985 0.723139 0.603452
Si Si7 0.668974 0.102176 0.927350
Si Si8 0.674988 0.896560 0.294818
O O1 0.806581 0.500000 0.538478
O O2 0.735616 0.331905 0.558843
O O3 0.775161 0.376354 0.471084
O O4 0.000000 0.364959 0.527161
O O5 0.217938 0.500000 0.083003
O O6 0.265522 0.327173 0.103443
O O7 0.000000 0.381214 0.081185
O O8 0.206703 0.373555 0.016082
O O9 0.500000 0.397304 0.689651
O O10 0.268405 0.500000 0.677524
O O11 0.265138 0.325493 0.651272
O O12 0.266829 0.368814 0.742406
O O13 0.500000 0.807640 0.381911
O O14 0.734149 0.829834 0.429376
O O15 0.701383 0.675301 0.385391
O O16 0.741924 0.826906 0.334193
O O17 0.210788 0.500000 0.949798
O O18 0.000000 0.623557 0.951020
O O19 0.500000 0.723831 0.601193
O O20 0.500000 0.111090 0.944810
O O21 0.699565 0.000000 0.907115
O O22 0.500000 0.891584 0.294401
O O23 0.726426 0.000000 0.307386
#
# Coordination Sequence:
#
# PCOD8177371 Si02
#       8
#     8   8   8   8   8   8   8   8
#     4  10  20  32  46  66  93 125 159 191 225 272
#     4   9  19  35  50  64  89 127 163 190 221 267
#     4   8  15  28  45  66  93 122 147 175 221 278
#     4  10  18  27  45  70  90 114 151 189 222 260
#     4   9  18  31  45  63  90 121 148 176 216 267
#     4  11  20  29  47  72  94 118 152 194 235 274
#     4   9  18  31  44  62  92 124 152 187 229 267
#     4   8  14  26  44  66  91 116 144 180 221 269
#
# _framework density 17.147773999999998
#
# number of rings (size 3 to 8) (size 9 to 14) (size 15 to 20)
#    0.000    2.750    0.000    3.750    0.000    5.250 
#    0.000    1.250    0.000    2.250    0.000    8.750 
#    0.000    2.000    0.000    0.000    0.000    0.000 
#
# Total GULP energy -396679.717212 kJ/mol
# GULP energy per Si atom -12396.241163 kJ/mol
# Density = 1.710875 g / cm^3
# Si number density = 17.147774 Si / 1000 Ang^3
#
#
#
# Elastic Constant Matrix: (Units=GPa)
#
#
# Indices 1 2 3 4 5 6 
#
# 1 40.2535 39.2245 28.8815 0.0000 0.0000 0.0000
# 2 39.2245 128.0936 83.9340 0.0000 0.0000 0.0000
# 3 28.8815 83.9340 96.9598 0.0000 0.0000 0.0000
# 4 0.0000 0.0000 0.0000 30.7384 0.0000 0.0000
# 5 0.0000 0.0000 0.0000 0.0000 4.8046 0.0000
# 6 0.0000 0.0000 0.0000 0.0000 0.0000 25.0128
#
#
#
# Elastic Compliance Matrix: (Units=1/GPa)
#
#
# Indices 1 2 3 4 5 6 
#
# 1 0.035713 -0.009163 -0.002706 0.000000 0.000000 0.000000
# 2 -0.009163 0.020390 -0.014921 0.000000 0.000000 0.000000
# 3 -0.002706 -0.014921 0.024036 0.000000 0.000000 0.000000
# 4 0.000000 0.000000 0.000000 0.032533 0.000000 0.000000
# 5 0.000000 0.000000 0.000000 0.000000 0.208134 0.000000
# 6 0.000000 0.000000 0.000000 0.000000 0.000000 0.039979
#
#
# Mechanical properties :
#
#
# Convention : Reuss Voigt Hill
#
# Bulk Modulus (GPa) = 37.65235 63.26522 50.45879
# Shear Modulus (GPa) = 11.81424 19.66229 15.73826
#
# Velocity S-wave (km/s) = 2.62766 3.38988 3.03281
# Velocity P-wave (km/s) = 5.58672 7.23159 6.46171
#
# Compressibility (1/GPa) = 0.02655877
#
# Stress axis : x y z
#
# Youngs Moduli (GPa) = 28.00131 49.04394 41.60364
#
# Poissons Ratio (x) = 0.44938 0.11258
# Poissons Ratio (y) = 0.25657 0.62078
# Poissons Ratio (z) = 0.07577 0.73180
#
# Static dielectric constant tensor:
#      x y z
#    x 2.953290 0.000000 0.000000 
#    y 0.000000 3.447060 0.000000 
#    z 0.000000 0.000000 3.339230 
# 
# 
# High freq. dielectric constant tensor:
#      x y z
#    x 1.637590 0.000000 0.000000 
#    y 0.000000 1.668550 0.000000 
#    z 0.000000 0.000000 1.641820 
# 
# From -- ./inp_files/24769.got.cif
#   From: 2010.03.12/outbox.cif.g09.slc.cpg/sg38_13_cif.got.tgz:24769.got - 2010.04.14 02:38:36.
