data_PCOD8177954
_publ_section_title
;
Structure prediction by ZEFSAII (Michael W. Deem and Ramdas Pophale) SiO2 
 PCOD8177954
Probable space group: A M M 2
;
_chemical_formula_sum "Si O2"
_cell_formula_units_Z 64
_cell_length_a 14.170503
_cell_length_b 9.413832
_cell_length_c 31.078493
_cell_angle_alpha 90.000000
_cell_angle_beta 90.000000
_cell_angle_gamma 90.000000
_cell_volume 4145.831639
_symmetry_space_group_name_H-M "A M M 2"
_symmetry_group_IT_number 38
_symmetry_cell_setting 'orthorhombic'
loop_
_space_group_symop_operation_xyz
x,y,z
-x,-y,z
-x,y,z
x,-y,z
x,1/2+y,1/2+z
-x,1/2-y,1/2+z
-x,1/2+y,1/2+z
x,1/2-y,1/2+z
loop_
_atom_site_type_symbol
_atom_site_label
_atom_site_fract_x
_atom_site_fract_y
_atom_site_fract_z
Si Si1 0.705620 0.833495 0.841570
Si Si2 0.703321 0.666288 0.005873
Si Si3 0.895014 0.662365 0.964739
Si Si4 0.611414 0.163608 0.928762
Si Si5 0.104277 0.834775 0.879922
Si Si6 0.388055 0.343312 0.676908
Si Si7 0.390491 0.166476 0.080613
Si Si8 0.610524 0.664770 0.256478
O O1 0.653835 0.775271 0.884186
O O2 0.817426 0.797061 0.843984
O O3 0.662983 0.766803 0.797944
O O4 0.685571 0.000000 0.839456
O O5 0.677619 0.500000 0.006830
O O6 0.816142 0.690480 0.000973
O O7 0.647568 0.738729 0.967087
O O8 0.674139 0.738430 0.050288
O O9 0.891228 0.500000 0.949229
O O10 0.869662 0.756000 0.923641
O O11 0.000000 0.699941 0.982717
O O12 0.500000 0.175644 0.926060
O O13 0.642763 0.000000 0.936738
O O14 0.000000 0.791279 0.862854
O O15 0.108840 0.000000 0.891279
O O16 0.500000 0.349059 0.678808
O O17 0.346636 0.500000 0.685848
O O18 0.359174 0.292626 0.629129
O O19 0.348833 0.238485 0.713496
O O20 0.500000 0.203371 0.072390
O O21 0.373236 0.000000 0.071692
O O22 0.500000 0.692786 0.262700
O O23 0.633703 0.500000 0.251179
#
# Coordination Sequence:
#
# PCOD8177954 Si02
#       8
#     8   8   8   8   8   8   8   8
#     4   9  16  27  42  62  87 114 145 179 212 252
#     4  11  21  30  43  65  89 113 144 183 221 254
#     4   9  18  32  46  60  83 114 144 178 223 267
#     4  10  19  30  43  58  84 124 157 175 202 251
#     4   9  16  27  45  65  82 106 145 190 224 248
#     4   8  15  29  46  63  84 110 141 177 214 251
#     4   9  18  32  48  64  86 118 149 175 212 264
#     4   9  16  26  42  63  86 113 144 176 211 252
#
# _framework density 15.437192
#
# number of rings (size 3 to 8) (size 9 to 14) (size 15 to 20)
#    0.000    2.750    1.250    1.875    0.000    4.500 
#    0.000    2.500    0.000    1.500    0.000    0.875 
#    0.000    5.000    0.000    0.000    0.000    0.000 
#
# Total GULP energy -396644.548367 kJ/mol
# GULP energy per Si atom -12395.142136 kJ/mol
# Density = 1.540206 g / cm^3
# Si number density = 15.437192 Si / 1000 Ang^3
#
#
#
# Elastic Constant Matrix: (Units=GPa)
#
#
# Indices 1 2 3 4 5 6 
#
# 1 76.6970 36.2387 54.0373 0.0000 0.0000 0.0000
# 2 36.2387 56.7775 54.5714 0.0000 0.0000 0.0000
# 3 54.0373 54.5714 134.0985 0.0000 0.0000 0.0000
# 4 0.0000 0.0000 0.0000 23.7002 0.0000 0.0000
# 5 0.0000 0.0000 0.0000 0.0000 12.3123 0.0000
# 6 0.0000 0.0000 0.0000 0.0000 0.0000 16.7999
#
#
#
# Elastic Compliance Matrix: (Units=1/GPa)
#
#
# Indices 1 2 3 4 5 6 
#
# 1 0.020388 -0.008403 -0.004796 0.000000 0.000000 0.000000
# 2 -0.008403 0.032390 -0.009795 0.000000 0.000000 0.000000
# 3 -0.004796 -0.009795 0.013376 0.000000 0.000000 0.000000
# 4 0.000000 0.000000 0.000000 0.042194 0.000000 0.000000
# 5 0.000000 0.000000 0.000000 0.000000 0.081220 0.000000
# 6 0.000000 0.000000 0.000000 0.000000 0.000000 0.059524
#
#
# Mechanical properties :
#
#
# Convention : Reuss Voigt Hill
#
# Bulk Modulus (GPa) = 49.58880 61.91864 55.75372
# Shear Modulus (GPa) = 16.56716 18.74420 17.65568
#
# Velocity S-wave (km/s) = 3.27952 3.48835 3.38555
# Velocity P-wave (km/s) = 6.82151 7.51145 7.17478
#
# Compressibility (1/GPa) = 0.02016584
#
# Stress axis : x y z
#
# Youngs Moduli (GPa) = 49.04915 30.87331 74.76104
#
# Poissons Ratio (x) = 0.25943 0.35855
# Poissons Ratio (y) = 0.41216 0.73230
# Poissons Ratio (z) = 0.23524 0.30241
#
# Static dielectric constant tensor:
#      x y z
#    x 3.015920 0.000000 0.000000 
#    y 0.000000 2.958160 0.000000 
#    z 0.000000 0.000000 3.052820 
# 
# 
# High freq. dielectric constant tensor:
#      x y z
#    x 1.577370 0.000000 0.000000 
#    y 0.000000 1.583140 0.000000 
#    z 0.000000 0.000000 1.580220 
# 
# From -- ./inp_files/25036.got.cif
#   From: 2010.03.12/outbox.cif.g09.slc.cpg/sg38_13_cif.got.tgz:25036.got - 2010.04.14 02:38:36.
