data_PCOD8177515
_publ_section_title
;
Structure prediction by ZEFSAII (Michael W. Deem and Ramdas Pophale) SiO2 
 PCOD8177515
Probable space group: A M M 2
;
_chemical_formula_sum "Si O2"
_cell_formula_units_Z 64
_cell_length_a 18.529757
_cell_length_b 8.909486
_cell_length_c 20.778807
_cell_angle_alpha 90.000000
_cell_angle_beta 90.000000
_cell_angle_gamma 90.000000
_cell_volume 3430.385935
_symmetry_space_group_name_H-M "A M M 2"
_symmetry_group_IT_number 38
_symmetry_cell_setting 'orthorhombic'
loop_
_space_group_symop_operation_xyz
x,y,z
-x,-y,z
-x,y,z
x,-y,z
x,1/2+y,1/2+z
-x,1/2-y,1/2+z
-x,1/2+y,1/2+z
x,1/2-y,1/2+z
loop_
_atom_site_type_symbol
_atom_site_label
_atom_site_fract_x
_atom_site_fract_y
_atom_site_fract_z
Si Si1 0.661298 0.670255 0.648670
Si Si2 0.314483 0.671065 0.510481
Si Si3 0.166153 0.175413 0.516384
Si Si4 0.580701 0.822226 0.760024
Si Si5 0.843483 0.322282 0.386651
Si Si6 0.319295 0.826856 0.870885
Si Si7 0.916503 0.827121 0.269423
Si Si8 0.170146 0.675328 0.645628
O O1 0.648349 0.500000 0.671712
O O2 0.635706 0.691164 0.573799
O O3 0.613633 0.779886 0.691297
O O4 0.745418 0.713212 0.654375
O O5 0.281856 0.500000 0.511554
O O6 0.250996 0.790960 0.514066
O O7 0.355227 0.695843 0.442207
O O8 0.129107 0.252349 0.454201
O O9 0.136050 0.241079 0.583689
O O10 0.150617 0.000000 0.513822
O O11 0.500000 0.755886 0.766213
O O12 0.629875 0.749692 0.817096
O O13 0.577923 0.000000 0.765337
O O14 0.844648 0.500000 0.393336
O O15 0.762319 0.262331 0.370374
O O16 0.897451 0.270972 0.331321
O O17 0.314696 0.000000 0.852454
O O18 0.871049 0.766542 0.208803
O O19 0.000000 0.805897 0.252850
O O20 0.897369 0.000000 0.283963
O O21 0.157431 0.500000 0.635025
#
# Coordination Sequence:
#
# PCOD8177515 Si02
#       8
#     8   8   8   8   8   8   8   8
#     4   9  17  30  50  73  96 124 159 199 242 292
#     4   8  15  30  50  72  97 124 158 204 253 296
#     4  10  18  29  50  79 105 129 164 210 254 297
#     4  10  20  32  46  67  97 130 162 200 246 293
#     4  10  19  33  54  76 101 134 170 209 251 299
#     4   8  15  30  51  72  93 121 161 203 240 283
#     4  10  21  36  53  75 104 134 165 206 253 300
#     4   9  18  34  54  76 103 133 165 205 255 306
#
# _framework density 18.656791999999999
#
# number of rings (size 3 to 8) (size 9 to 14) (size 15 to 20)
#    0.000    2.750    0.000    3.750    0.000    3.000 
#    0.000    3.750    0.000    4.500    0.000    0.000 
#    0.000    0.000    0.000    0.000    0.000    0.000 
#
# Total GULP energy -396608.895774 kJ/mol
# GULP energy per Si atom -12394.027993 kJ/mol
# Density = 1.861433 g / cm^3
# Si number density = 18.656792 Si / 1000 Ang^3
#
#
#
# Elastic Constant Matrix: (Units=GPa)
#
#
# Indices 1 2 3 4 5 6 
#
# 1 52.0374 15.7870 34.7886 0.0000 0.0000 0.0000
# 2 15.7870 56.6365 35.0276 0.0000 0.0000 0.0000
# 3 34.7886 35.0276 138.9782 0.0000 0.0000 0.0000
# 4 0.0000 0.0000 0.0000 30.8581 0.0000 0.0000
# 5 0.0000 0.0000 0.0000 0.0000 7.6740 0.0000
# 6 0.0000 0.0000 0.0000 0.0000 0.0000 17.0922
#
#
#
# Elastic Compliance Matrix: (Units=1/GPa)
#
#
# Indices 1 2 3 4 5 6 
#
# 1 0.023641 -0.003471 -0.005043 0.000000 0.000000 0.000000
# 2 -0.003471 0.021426 -0.004531 0.000000 0.000000 0.000000
# 3 -0.005043 -0.004531 0.009600 0.000000 0.000000 0.000000
# 4 0.000000 0.000000 0.000000 0.032406 0.000000 0.000000
# 5 0.000000 0.000000 0.000000 0.000000 0.130310 0.000000
# 6 0.000000 0.000000 0.000000 0.000000 0.000000 0.058506
#
#
# Mechanical properties :
#
#
# Convention : Reuss Voigt Hill
#
# Bulk Modulus (GPa) = 34.99328 46.53982 40.76655
# Shear Modulus (GPa) = 16.05102 21.92812 18.98957
#
# Velocity S-wave (km/s) = 2.93632 3.43205 3.19382
# Velocity P-wave (km/s) = 5.50391 6.38002 5.95809
#
# Compressibility (1/GPa) = 0.02857692
#
# Stress axis : x y z
#
# Youngs Moduli (GPa) = 42.29871 46.67124 104.16862
#
# Poissons Ratio (x) = 0.16199 0.52533
# Poissons Ratio (y) = 0.14681 0.47203
# Poissons Ratio (z) = 0.21331 0.21149
#
# Static dielectric constant tensor:
#      x y z
#    x 3.188370 0.000000 0.000000 
#    y 0.000000 3.155640 0.000000 
#    z 0.000000 0.000000 3.840810 
# 
# 
# High freq. dielectric constant tensor:
#      x y z
#    x 1.679600 0.000000 0.000000 
#    y 0.000000 1.702150 0.000000 
#    z 0.000000 0.000000 1.748550 
# 
# From -- ./inp_files/21508.got.cif
#   From: 2010.03.12/outbox.cif.g09.slc.cpg/sg38_11_cif.got.tgz:21508.got - 2010.04.14 02:38:36.
