data_PCOD8177296
_publ_section_title
;
Structure prediction by ZEFSAII (Michael W. Deem and Ramdas Pophale) SiO2 
 PCOD8177296
Probable space group: A M M 2
;
_chemical_formula_sum "Si O2"
_cell_formula_units_Z 64
_cell_length_a 8.826897
_cell_length_b 23.336071
_cell_length_c 19.147207
_cell_angle_alpha 90.000000
_cell_angle_beta 90.000000
_cell_angle_gamma 90.000000
_cell_volume 3944.039255
_symmetry_space_group_name_H-M "A M M 2"
_symmetry_group_IT_number 38
_symmetry_cell_setting 'orthorhombic'
loop_
_space_group_symop_operation_xyz
x,y,z
-x,-y,z
-x,y,z
x,-y,z
x,1/2+y,1/2+z
-x,1/2-y,1/2+z
-x,1/2+y,1/2+z
x,1/2-y,1/2+z
loop_
_atom_site_type_symbol
_atom_site_label
_atom_site_fract_x
_atom_site_fract_y
_atom_site_fract_z
Si Si1 0.821795 0.065499 0.881980
Si Si2 0.675728 0.751433 0.517519
Si Si3 0.675541 0.116241 0.018142
Si Si4 0.678055 0.162732 0.800504
Si Si5 0.320095 0.936154 0.162948
Si Si6 0.821558 0.729998 0.876516
Si Si7 0.680034 0.835669 0.258967
Si Si8 0.677212 0.270032 0.169048
O O1 0.745243 0.101066 0.819279
O O2 0.000000 0.072357 0.875410
O O3 0.769894 0.000000 0.873419
O O4 0.771492 0.088797 0.956568
O O5 0.500000 0.766706 0.505119
O O6 0.700726 0.683685 0.520192
O O7 0.774566 0.779860 0.456632
O O8 0.740575 0.777805 0.590571
O O9 0.500000 0.100700 0.006404
O O10 0.739143 0.089604 0.090034
O O11 0.500000 0.163277 0.814997
O O12 0.747688 0.211092 0.850184
O O13 0.714774 0.175731 0.718880
O O14 0.500000 0.936689 0.160120
O O15 0.268136 0.896932 0.228160
O O16 0.254244 0.000000 0.173956
O O17 0.760775 0.675375 0.833001
O O18 0.000000 0.734827 0.869335
O O19 0.500000 0.831448 0.269651
O O20 0.740760 0.787303 0.205416
O O21 0.500000 0.260291 0.160454
#
# Coordination Sequence:
#
# PCOD8177296 Si02
#       8
#     8   8   8   8   8   8   8   8
#     4  11  23  35  46  65  98 135 165 196 232 271
#     4  10  17  29  49  72  96 126 156 190 236 287
#     4  10  18  29  48  71  96 129 166 198 228 273
#     4  10  19  33  52  71  90 120 159 200 240 281
#     4   9  16  27  47  74  98 123 162 206 240 272
#     4  11  21  31  45  68  97 126 157 196 237 283
#     4   9  16  30  48  67  92 125 159 195 235 279
#     4   8  15  28  48  70  92 117 152 194 238 281
#
# _framework density 16.227018999999999
#
# number of rings (size 3 to 8) (size 9 to 14) (size 15 to 20)
#    0.000    2.250    2.500    3.000    0.000    1.500 
#    0.000    3.750    0.000    1.125    0.000    0.875 
#    0.000    3.000    0.000    0.000    0.000    0.000 
#
# Total GULP energy -396722.441402 kJ/mol
# GULP energy per Si atom -12397.576294 kJ/mol
# Density = 1.619009 g / cm^3
# Si number density = 16.227019 Si / 1000 Ang^3
#
#
#
# Elastic Constant Matrix: (Units=GPa)
#
#
# Indices 1 2 3 4 5 6 
#
# 1 54.0602 25.7669 35.3213 0.0000 0.0000 0.0000
# 2 25.7669 78.9961 57.3690 0.0000 0.0000 0.0000
# 3 35.3213 57.3690 132.6392 0.0000 0.0000 0.0000
# 4 0.0000 0.0000 0.0000 21.1774 0.0000 0.0000
# 5 0.0000 0.0000 0.0000 0.0000 2.3106 0.0000
# 6 0.0000 0.0000 0.0000 0.0000 0.0000 15.7044
#
#
#
# Elastic Compliance Matrix: (Units=1/GPa)
#
#
# Indices 1 2 3 4 5 6 
#
# 1 0.023461 -0.004542 -0.004283 0.000000 0.000000 0.000000
# 2 -0.004542 0.019335 -0.007153 0.000000 0.000000 0.000000
# 3 -0.004283 -0.007153 0.011774 0.000000 0.000000 0.000000
# 4 0.000000 0.000000 0.000000 0.047220 0.000000 0.000000
# 5 0.000000 0.000000 0.000000 0.000000 0.432780 0.000000
# 6 0.000000 0.000000 0.000000 0.000000 0.000000 0.063676
#
#
# Mechanical properties :
#
#
# Convention : Reuss Voigt Hill
#
# Bulk Modulus (GPa) = 44.22181 55.84556 50.03368
# Shear Modulus (GPa) = 7.84017 17.65438 12.74727
#
# Velocity S-wave (km/s) = 2.20046 3.30201 2.80582
# Velocity P-wave (km/s) = 5.81095 7.00197 6.43408
#
# Compressibility (1/GPa) = 0.02261328
#
# Stress axis : x y z
#
# Youngs Moduli (GPa) = 42.62347 51.71869 84.93434
#
# Poissons Ratio (x) = 0.23491 0.36378
# Poissons Ratio (y) = 0.19360 0.60757
# Poissons Ratio (z) = 0.18256 0.36996
#
# Static dielectric constant tensor:
#      x y z
#    x 2.841680 0.000000 0.000000 
#    y 0.000000 3.087160 0.000000 
#    z 0.000000 0.000000 3.337740 
# 
# 
# High freq. dielectric constant tensor:
#      x y z
#    x 1.604020 0.000000 0.000000 
#    y 0.000000 1.597980 0.000000 
#    z 0.000000 0.000000 1.626110 
# 
# From -- ./inp_files/17263.got.cif
#   From: 2010.03.12/outbox.cif.g09.slc.cpg/sg38_9_cif.got.tgz:17263.got - 2010.04.14 02:38:36.
