data_PCOD8177134
_publ_section_title
;
Structure prediction by ZEFSAII (Michael W. Deem and Ramdas Pophale) SiO2 
 PCOD8177134
Probable space group: C C C 2
;
_chemical_formula_sum "Si O2"
_cell_formula_units_Z 36
_cell_length_a 21.159058
_cell_length_b 7.442285
_cell_length_c 9.049140
_cell_angle_alpha 90.000000
_cell_angle_beta 90.000000
_cell_angle_gamma 90.000000
_cell_volume 1424.983821
_symmetry_space_group_name_H-M "C C C 2"
_symmetry_group_IT_number 37
_symmetry_cell_setting 'orthorhombic'
loop_
_space_group_symop_operation_xyz
x,y,z
-x,-y,z
-x,y,1/2+z
x,-y,1/2+z
1/2+x,1/2+y,z
1/2-x,1/2-y,z
1/2-x,1/2+y,1/2+z
1/2+x,1/2-y,1/2+z
loop_
_atom_site_type_symbol
_atom_site_label
_atom_site_fract_x
_atom_site_fract_y
_atom_site_fract_z
Si Si1 0.859209 0.465265 0.856110
Si Si2 0.360070 0.667565 0.532522
Si Si3 0.068181 0.987821 0.277324
Si Si4 0.750000 0.250000 0.722136
Si Si5 0.437620 0.120468 0.606333
O O1 0.856358 0.636648 0.962580
O O2 0.790829 0.376977 0.830243
O O3 0.885912 0.505290 0.695398
O O4 0.908506 0.335318 0.943363
O O5 0.376255 0.531002 0.399306
O O6 0.412669 0.647407 0.663901
O O7 0.293582 0.626171 0.614031
O O8 0.054197 0.808596 0.183930
O O9 0.000000 0.000000 0.358467
O O10 0.500000 0.000000 0.587829
#
# Coordination Sequence:
#
# PCOD8177134 Si02
#       5
#     8   8   8   4   8
#     4  11  25  48  75 110 148 203 247 312 381 444
#     4  11  27  48  74 113 150 200 251 309 377 451
#     4  11  26  45  77 114 152 192 247 315 385 452
#     4  12  28  48  78 104 152 200 266 308 364 458
#     4  11  24  45  76 113 151 193 249 310 386 453
#
# _framework density 25.263442000000001
#
# number of rings (size 3 to 8) (size 9 to 14) (size 15 to 20)
#    0.000    0.889    2.222    2.667    6.222    3.556 
#    0.000    0.000    0.000    0.000    0.000    0.000 
#    0.000    0.000    0.000    0.000    0.000    0.000 
#
# Total GULP energy -223029.025030 kJ/mol
# GULP energy per Si atom -12390.501391 kJ/mol
# Density = 2.520594 g / cm^3
# Si number density = 25.263442 Si / 1000 Ang^3
#
#
#
# Elastic Constant Matrix: (Units=GPa)
#
#
# Indices 1 2 3 4 5 6 
#
# 1 182.6249 52.7820 69.6308 0.0000 0.0000 0.0000
# 2 52.7820 77.8939 38.1096 0.0000 0.0000 0.0000
# 3 69.6308 38.1096 153.2659 0.0000 0.0000 0.0000
# 4 0.0000 0.0000 0.0000 17.8724 0.0000 0.0000
# 5 0.0000 0.0000 0.0000 0.0000 61.2477 0.0000
# 6 0.0000 0.0000 0.0000 0.0000 0.0000 41.0856
#
#
#
# Elastic Compliance Matrix: (Units=1/GPa)
#
#
# Indices 1 2 3 4 5 6 
#
# 1 0.007541 -0.003909 -0.002454 0.000000 0.000000 0.000000
# 2 -0.003909 0.016643 -0.002362 0.000000 0.000000 0.000000
# 3 -0.002454 -0.002362 0.008227 0.000000 0.000000 0.000000
# 4 0.000000 0.000000 0.000000 0.055952 0.000000 0.000000
# 5 0.000000 0.000000 0.000000 0.000000 0.016327 0.000000
# 6 0.000000 0.000000 0.000000 0.000000 0.000000 0.024339
#
#
# Mechanical properties :
#
#
# Convention : Reuss Voigt Hill
#
# Bulk Modulus (GPa) = 66.84625 81.64773 74.24699
# Shear Modulus (GPa) = 33.01042 40.92529 36.96785
#
# Velocity S-wave (km/s) = 3.61868 4.02922 3.82945
# Velocity P-wave (km/s) = 6.63151 7.35084 7.00042
#
# Compressibility (1/GPa) = 0.01495970
#
# Stress axis : x y z
#
# Youngs Moduli (GPa) = 132.60368 60.08635 121.55333
#
# Poissons Ratio (x) = 0.23490 0.29829
# Poissons Ratio (y) = 0.51841 0.28712
# Poissons Ratio (z) = 0.32541 0.14193
#
# Static dielectric constant tensor:
#      x y z
#    x 4.596510 0.000000 0.000000 
#    y 0.000000 4.627500 0.000000 
#    z 0.000000 0.000000 4.852670 
# 
# 
# High freq. dielectric constant tensor:
#      x y z
#    x 2.002380 0.000000 0.000000 
#    y 0.000000 2.010660 0.000000 
#    z 0.000000 0.000000 2.035640 
# 
# From -- ./inp_files/4248.got.cif
#   From: 2010.03.12/outbox.cif.g09.slc.cpg/sg37_3_cif.got.tgz:4248.got - 2010.04.14 02:25:27.
