data_PCOD8177243
_publ_section_title
;
Structure prediction by ZEFSAII (Michael W. Deem and Ramdas Pophale) SiO2 
 PCOD8177243
Probable space group: A M M 2
;
_chemical_formula_sum "Si O2"
_cell_formula_units_Z 56
_cell_length_a 8.876146
_cell_length_b 29.427678
_cell_length_c 13.846016
_cell_angle_alpha 90.000000
_cell_angle_beta 90.000000
_cell_angle_gamma 90.000000
_cell_volume 3616.639836
_symmetry_space_group_name_H-M "A M M 2"
_symmetry_group_IT_number 38
_symmetry_cell_setting 'orthorhombic'
loop_
_space_group_symop_operation_xyz
x,y,z
-x,-y,z
-x,y,z
x,-y,z
x,1/2+y,1/2+z
-x,1/2-y,1/2+z
-x,1/2+y,1/2+z
x,1/2-y,1/2+z
loop_
_atom_site_type_symbol
_atom_site_label
_atom_site_fract_x
_atom_site_fract_y
_atom_site_fract_z
Si Si1 0.323043 0.680596 0.812540
Si Si2 0.678131 0.271479 0.213533
Si Si3 0.179440 0.596518 0.501144
Si Si4 0.320611 0.592425 0.707032
Si Si5 0.176734 0.685701 0.388801
Si Si6 0.164509 0.500000 0.484526
Si Si7 0.677237 0.232477 0.496275
Si Si8 0.167318 0.500000 0.714020
O O1 0.500000 0.678745 0.799874
O O2 0.262396 0.721609 0.745066
O O3 0.259088 0.632033 0.778752
O O4 0.278523 0.691307 0.923848
O O5 0.500000 0.275254 0.226768
O O6 0.753381 0.309037 0.282307
O O7 0.728682 0.281139 0.103771
O O8 0.261892 0.606161 0.601556
O O9 0.219582 0.635544 0.425438
O O10 0.242058 0.548184 0.456307
O O11 0.000000 0.592876 0.520897
O O12 0.500000 0.588920 0.704416
O O13 0.255538 0.545114 0.747734
O O14 0.241955 0.721462 0.464898
O O15 0.000000 0.692967 0.382598
O O16 0.155187 0.500000 0.599764
O O17 0.000000 0.500000 0.436537
O O18 0.500000 0.242502 0.492241
O O19 0.000000 0.500000 0.760067
#
# Coordination Sequence:
#
# PCOD8177243 Si02
#       8
#     8   8   8   8   8   4   8   4
#     4   8  15  26  41  63  85 105 137 177 212 247
#     4   9  17  30  46  61  82 115 148 176 209 252
#     4   9  17  28  41  59  85 115 141 168 209 257
#     4  10  17  26  43  65  86 109 141 179 211 245
#     4  10  19  28  41  64  90 113 141 177 215 256
#     4   7  12  25  41  53  72 105 138 162 191 240
#     4   9  17  31  47  61  82 114 148 178 212 255
#     4   9  17  29  41  57  86 117 140 166 207 258
#
# _framework density 15.483985000000001
#
# number of rings (size 3 to 8) (size 9 to 14) (size 15 to 20)
#    0.000    3.000    0.000    3.643    0.000    2.857 
#    0.000    7.143    0.000    0.000    0.000    1.000 
#    0.000    3.429    0.000    0.000    0.000    0.000 
#
# Total GULP energy -346968.233574 kJ/mol
# GULP energy per Si atom -12391.722628 kJ/mol
# Density = 1.544874 g / cm^3
# Si number density = 15.483985 Si / 1000 Ang^3
#
#
#
# Elastic Constant Matrix: (Units=GPa)
#
#
# Indices 1 2 3 4 5 6 
#
# 1 46.8171 38.5345 32.6511 0.0000 0.0000 0.0000
# 2 38.5345 149.5906 72.2692 0.0000 0.0000 0.0000
# 3 32.6511 72.2692 114.1517 0.0000 0.0000 0.0000
# 4 0.0000 0.0000 0.0000 23.8773 0.0000 0.0000
# 5 0.0000 0.0000 0.0000 0.0000 13.9411 0.0000
# 6 0.0000 0.0000 0.0000 0.0000 0.0000 21.2212
#
#
#
# Elastic Compliance Matrix: (Units=1/GPa)
#
#
# Indices 1 2 3 4 5 6 
#
# 1 0.029066 -0.005000 -0.005148 0.000000 0.000000 0.000000
# 2 -0.005000 0.010491 -0.005211 0.000000 0.000000 0.000000
# 3 -0.005148 -0.005211 0.013532 0.000000 0.000000 0.000000
# 4 0.000000 0.000000 0.000000 0.041881 0.000000 0.000000
# 5 0.000000 0.000000 0.000000 0.000000 0.071730 0.000000
# 6 0.000000 0.000000 0.000000 0.000000 0.000000 0.047123
#
#
# Mechanical properties :
#
#
# Convention : Reuss Voigt Hill
#
# Bulk Modulus (GPa) = 44.70461 66.38543 55.54502
# Shear Modulus (GPa) = 19.84143 22.94823 21.39483
#
# Velocity S-wave (km/s) = 3.58357 3.85393 3.72121
# Velocity P-wave (km/s) = 6.78652 7.92278 7.37656
#
# Compressibility (1/GPa) = 0.02236906
#
# Stress axis : x y z
#
# Youngs Moduli (GPa) = 34.40482 95.32296 73.89830
#
# Poissons Ratio (x) = 0.47663 0.38044
# Poissons Ratio (y) = 0.17203 0.38511
# Poissons Ratio (z) = 0.17712 0.49676
#
# Static dielectric constant tensor:
#      x y z
#    x 2.854560 0.000000 0.000000 
#    y 0.000000 3.328960 0.000000 
#    z 0.000000 0.000000 2.880280 
# 
# 
# High freq. dielectric constant tensor:
#      x y z
#    x 1.582800 0.000000 0.000000 
#    y 0.000000 1.595830 0.000000 
#    z 0.000000 0.000000 1.564660 
# 
# From -- ./inp_files/13024.got.cif
#   From: 2010.03.12/outbox.cif.g09.slc.cpg/sg38_7_cif.got.tgz:13024.got - 2010.04.14 02:38:36.
