data_PCOD8177728
_publ_section_title
;
Structure prediction by ZEFSAII (Michael W. Deem and Ramdas Pophale) SiO2 
 PCOD8177728
Probable space group: A M M 2
;
_chemical_formula_sum "Si O2"
_cell_formula_units_Z 64
_cell_length_a 19.421238
_cell_length_b 9.063191
_cell_length_c 20.568345
_cell_angle_alpha 90.000000
_cell_angle_beta 90.000000
_cell_angle_gamma 90.000000
_cell_volume 3620.406961
_symmetry_space_group_name_H-M "A M M 2"
_symmetry_group_IT_number 38
_symmetry_cell_setting 'orthorhombic'
loop_
_space_group_symop_operation_xyz
x,y,z
-x,-y,z
-x,y,z
x,-y,z
x,1/2+y,1/2+z
-x,1/2-y,1/2+z
-x,1/2+y,1/2+z
x,1/2-y,1/2+z
loop_
_atom_site_type_symbol
_atom_site_label
_atom_site_fract_x
_atom_site_fract_y
_atom_site_fract_z
Si Si1 0.212824 0.171608 0.593590
Si Si2 0.923654 0.169179 0.658521
Si Si3 0.784683 0.171371 0.350742
Si Si4 0.282577 0.827517 0.213521
Si Si5 0.425892 0.174089 0.166829
Si Si6 0.575377 0.675056 0.520927
Si Si7 0.280804 0.324955 0.472292
Si Si8 0.076393 0.172934 0.290809
O O1 0.130453 0.197131 0.600525
O O2 0.246689 0.229333 0.659386
O O3 0.237070 0.261315 0.531504
O O4 0.230890 0.000000 0.584194
O O5 0.902217 0.259904 0.721983
O O6 0.000000 0.214881 0.633785
O O7 0.922067 0.000000 0.680497
O O8 0.747276 0.210192 0.283571
O O9 0.750702 0.270619 0.405276
O O10 0.865776 0.213924 0.344328
O O11 0.775530 0.000000 0.369026
O O12 0.363500 0.781388 0.214271
O O13 0.272699 0.000000 0.196066
O O14 0.500000 0.235542 0.192719
O O15 0.430655 0.000000 0.161806
O O16 0.412037 0.235380 0.094011
O O17 0.500000 0.731457 0.495326
O O18 0.575143 0.500000 0.521475
O O19 0.639376 0.730208 0.476846
O O20 0.276061 0.500000 0.475739
O O21 0.000000 0.226784 0.313447
O O22 0.077191 0.000000 0.279248
#
# Coordination Sequence:
#
# PCOD8177728 Si02
#       8
#     8   8   8   8   8   8   8   8
#     4  11  21  33  53  79 107 134 167 214 265 310
#     4   9  18  32  51  77 106 135 169 211 258 308
#     4  10  21  35  51  76 111 141 171 215 262 307
#     4  10  18  32  54  78 104 135 172 211 254 306
#     4   8  13  24  47  77 103 129 168 212 251 299
#     4   8  14  27  50  77  99 125 169 218 258 305
#     4  11  22  36  55  76 103 140 181 217 256 311
#     4   9  17  31  53  78 103 135 173 212 256 308
#
# _framework density 17.677569999999999
#
# number of rings (size 3 to 8) (size 9 to 14) (size 15 to 20)
#    0.000    2.500    2.500    1.500    0.000    1.500 
#    0.000    1.250    0.000    7.125    0.000    0.000 
#    0.000    0.000    0.000    0.000    0.000    0.000 
#
# Total GULP energy -396556.601982 kJ/mol
# GULP energy per Si atom -12392.393812 kJ/mol
# Density = 1.763734 g / cm^3
# Si number density = 17.677570 Si / 1000 Ang^3
#
#
#
# Elastic Constant Matrix: (Units=GPa)
#
#
# Indices 1 2 3 4 5 6 
#
# 1 152.5081 41.6839 65.8772 0.0000 0.0000 0.0000
# 2 41.6839 47.3740 38.3436 0.0000 0.0000 0.0000
# 3 65.8772 38.3436 88.4535 0.0000 0.0000 0.0000
# 4 0.0000 0.0000 0.0000 28.9348 0.0000 0.0000
# 5 0.0000 0.0000 0.0000 0.0000 23.4474 0.0000
# 6 0.0000 0.0000 0.0000 0.0000 0.0000 18.5745
#
#
#
# Elastic Compliance Matrix: (Units=1/GPa)
#
#
# Indices 1 2 3 4 5 6 
#
# 1 0.010221 -0.004363 -0.005721 0.000000 0.000000 0.000000
# 2 -0.004363 0.034380 -0.011654 0.000000 0.000000 0.000000
# 3 -0.005721 -0.011654 0.020618 0.000000 0.000000 0.000000
# 4 0.000000 0.000000 0.000000 0.034560 0.000000 0.000000
# 5 0.000000 0.000000 0.000000 0.000000 0.042649 0.000000
# 6 0.000000 0.000000 0.000000 0.000000 0.000000 0.053837
#
#
# Mechanical properties :
#
#
# Convention : Reuss Voigt Hill
#
# Bulk Modulus (GPa) = 45.99124 64.46055 55.22590
# Shear Modulus (GPa) = 20.24392 23.68675 21.96534
#
# Velocity S-wave (km/s) = 3.38772 3.66448 3.52881
# Velocity P-wave (km/s) = 6.43237 7.37891 6.92184
#
# Compressibility (1/GPa) = 0.02174327
#
# Stress axis : x y z
#
# Youngs Moduli (GPa) = 97.84185 29.08672 48.50145
#
# Poissons Ratio (x) = 0.12690 0.27746
# Poissons Ratio (y) = 0.42685 0.56524
# Poissons Ratio (z) = 0.55973 0.33898
#
# Static dielectric constant tensor:
#      x y z
#    x 4.121410 0.000000 0.000000 
#    y 0.000000 3.066150 0.000000 
#    z 0.000000 0.000000 3.097740 
# 
# 
# High freq. dielectric constant tensor:
#      x y z
#    x 1.710780 0.000000 0.000000 
#    y 0.000000 1.659770 0.000000 
#    z 0.000000 0.000000 1.648760 
# 
# From -- ./inp_files/18894.got.cif
#   From: 2010.03.12/outbox.cif.g09.slc.cpg/sg38_10_cif.got.tgz:18894.got - 2010.04.14 02:38:36.
