data_PCOD8177881
_publ_section_title
;
Structure prediction by ZEFSAII (Michael W. Deem and Ramdas Pophale) SiO2 
 PCOD8177881
Probable space group: A M M 2
;
_chemical_formula_sum "Si O2"
_cell_formula_units_Z 56
_cell_length_a 17.224408
_cell_length_b 9.362883
_cell_length_c 19.099424
_cell_angle_alpha 90.000000
_cell_angle_beta 90.000000
_cell_angle_gamma 90.000000
_cell_volume 3080.166340
_symmetry_space_group_name_H-M "A M M 2"
_symmetry_group_IT_number 38
_symmetry_cell_setting 'orthorhombic'
loop_
_space_group_symop_operation_xyz
x,y,z
-x,-y,z
-x,y,z
x,-y,z
x,1/2+y,1/2+z
-x,1/2-y,1/2+z
-x,1/2+y,1/2+z
x,1/2-y,1/2+z
loop_
_atom_site_type_symbol
_atom_site_label
_atom_site_fract_x
_atom_site_fract_y
_atom_site_fract_z
Si Si1 0.754149 0.666862 0.671240
Si Si2 0.908270 0.164212 0.413066
Si Si3 0.813232 0.667064 0.299595
Si Si4 0.586964 0.166046 0.127543
Si Si5 0.588722 0.845396 0.489922
Si Si6 0.817386 0.340184 0.519428
Si Si7 0.315277 0.344864 0.405927
O O1 0.766978 0.500000 0.687471
O O2 0.805296 0.760645 0.724066
O O3 0.660859 0.702937 0.677182
O O4 0.788714 0.708795 0.595706
O O5 0.876978 0.252720 0.346541
O O6 0.880221 0.231383 0.486945
O O7 0.000000 0.173069 0.410872
O O8 0.879524 0.000000 0.408413
O O9 0.836490 0.500000 0.293262
O O10 0.728921 0.685842 0.334091
O O11 0.500000 0.206687 0.158101
O O12 0.603283 0.246360 0.055906
O O13 0.589023 0.000000 0.108759
O O14 0.500000 0.868282 0.474340
O O15 0.621479 0.776525 0.418726
O O16 0.628205 0.000000 0.503249
O O17 0.853564 0.500000 0.522153
O O18 0.743282 0.340028 0.470301
O O19 0.355871 0.500000 0.402446
#
# Coordination Sequence:
#
# PCOD8177881 Si02
#       7
#     8   8   8   8   8   8   8
#     4  10  19  34  54  80 112 144 182 224 267 318
#     4  10  21  38  60  85 110 138 174 216 264 320
#     4  10  22  37  55  79 107 142 181 218 266 321
#     4   9  17  31  51  73 102 143 184 222 269 320
#     4  10  19  28  43  72 103 131 172 226 275 314
#     4   9  18  33  55  82 108 136 172 214 261 313
#     4   9  17  33  51  70  98 134 175 215 259 318
#
# _framework density 18.180835999999999
#
# number of rings (size 3 to 8) (size 9 to 14) (size 15 to 20)
#    0.000    2.429    1.429    2.143    0.000    6.000 
#    0.000    1.429    0.000    3.429    0.000    0.000 
#    0.000    0.000    0.000    0.000    0.000    0.000 
#
# Total GULP energy -346984.755865 kJ/mol
# GULP energy per Si atom -12392.312709 kJ/mol
# Density = 1.813946 g / cm^3
# Si number density = 18.180836 Si / 1000 Ang^3
#
#
#
# Elastic Constant Matrix: (Units=GPa)
#
#
# Indices 1 2 3 4 5 6 
#
# 1 63.1240 44.6731 28.5384 0.0000 0.0000 0.0000
# 2 44.6731 96.8495 40.9820 0.0000 0.0000 0.0000
# 3 28.5384 40.9820 92.7916 0.0000 0.0000 0.0000
# 4 0.0000 0.0000 0.0000 26.4643 0.0000 0.0000
# 5 0.0000 0.0000 0.0000 0.0000 20.7791 0.0000
# 6 0.0000 0.0000 0.0000 0.0000 0.0000 26.3105
#
#
#
# Elastic Compliance Matrix: (Units=1/GPa)
#
#
# Indices 1 2 3 4 5 6 
#
# 1 0.024220 -0.009863 -0.003093 0.000000 0.000000 0.000000
# 2 -0.009863 0.016715 -0.004349 0.000000 0.000000 0.000000
# 3 -0.003093 -0.004349 0.013649 0.000000 0.000000 0.000000
# 4 0.000000 0.000000 0.000000 0.037787 0.000000 0.000000
# 5 0.000000 0.000000 0.000000 0.000000 0.048125 0.000000
# 6 0.000000 0.000000 0.000000 0.000000 0.000000 0.038008
#
#
# Mechanical properties :
#
#
# Convention : Reuss Voigt Hill
#
# Bulk Modulus (GPa) = 50.06440 53.46136 51.76288
# Shear Modulus (GPa) = 22.75086 23.94889 23.34987
#
# Velocity S-wave (km/s) = 3.54130 3.63334 3.58762
# Velocity P-wave (km/s) = 6.65716 6.86081 6.75975
#
# Compressibility (1/GPa) = 0.01997427
#
# Stress axis : x y z
#
# Youngs Moduli (GPa) = 41.28751 59.82628 73.26669
#
# Poissons Ratio (x) = 0.59008 0.22661
# Poissons Ratio (y) = 0.40723 0.31863
# Poissons Ratio (z) = 0.12770 0.26018
#
# Static dielectric constant tensor:
#      x y z
#    x 3.330550 0.000000 0.000000 
#    y 0.000000 3.645680 0.000000 
#    z 0.000000 0.000000 3.216350 
# 
# 
# High freq. dielectric constant tensor:
#      x y z
#    x 1.690280 0.000000 0.000000 
#    y 0.000000 1.715310 0.000000 
#    z 0.000000 0.000000 1.682710 
# 
# From -- ./inp_files/21288.got.cif
#   From: 2010.03.12/outbox.cif.g09.slc.cpg/sg38_11_cif.got.tgz:21288.got - 2010.04.14 02:38:36.
