data_PCOD8177189
_publ_section_title
;
Structure prediction by ZEFSAII (Michael W. Deem and Ramdas Pophale) SiO2 
 PCOD8177189
Probable space group: A M M 2
;
_chemical_formula_sum "Si O2"
_cell_formula_units_Z 52
_cell_length_a 24.384045
_cell_length_b 22.983507
_cell_length_c 5.324205
_cell_angle_alpha 90.000000
_cell_angle_beta 90.000000
_cell_angle_gamma 90.000000
_cell_volume 2983.848835
_symmetry_space_group_name_H-M "A M M 2"
_symmetry_group_IT_number 38
_symmetry_cell_setting 'orthorhombic'
loop_
_space_group_symop_operation_xyz
x,y,z
-x,-y,z
-x,y,z
x,-y,z
x,1/2+y,1/2+z
-x,1/2-y,1/2+z
-x,1/2+y,1/2+z
x,1/2-y,1/2+z
loop_
_atom_site_type_symbol
_atom_site_label
_atom_site_fract_x
_atom_site_fract_y
_atom_site_fract_z
Si Si1 0.563347 0.568735 0.878690
Si Si2 0.500000 0.715060 0.400735
Si Si3 0.063646 0.181751 0.873715
Si Si4 0.236347 0.809005 0.373752
Si Si5 0.281260 0.819379 0.873755
Si Si6 0.401070 0.370242 0.374626
Si Si7 0.891107 0.190255 0.373716
O O1 0.500000 0.589532 0.885119
O O2 0.567003 0.500000 0.861316
O O3 0.592698 0.594047 0.632055
O O4 0.594372 0.588196 0.131849
O O5 0.500000 0.734575 0.691201
O O6 0.553598 0.678399 0.349326
O O7 0.092179 0.154405 0.624221
O O8 0.073345 0.250927 0.873590
O O9 0.000000 0.166383 0.873853
O O10 0.092220 0.154413 0.123130
O O11 0.252193 0.845507 0.623375
O O12 0.272477 0.750212 0.373697
O O13 0.172553 0.793022 0.373861
O O14 0.252155 0.845506 0.124060
O O15 0.344307 0.836109 0.873832
#
# Coordination Sequence:
#
# PCOD8177189 Si02
#       7
#     8   4   8   8   8   8   8
#     4  11  22  41  62  79  96 119 153 202 247 299
#     4  12  26  36  53  74 111 138 158 180 230 298
#     4  10  16  22  33  53  72  99 137 201 264 275
#     4  10  19  32  42  63  82 132 163 190 229 263
#     4  10  20  30  47  61  92 112 156 189 224 271
#     4  12  23  39  54  80 100 127 160 193 243 296
#     4  10  16  25  38  48  76 106 153 192 232 277
#
# _framework density 17.427157000000001
#
# number of rings (size 3 to 8) (size 9 to 14) (size 15 to 20)
#    0.000    1.385    1.538    9.231    4.308    1.231 
#    0.000    0.000    0.000    0.000    0.000    0.000 
#    0.000    0.000    0.000    0.000    0.000    0.000 
#
# Total GULP energy -322220.358705 kJ/mol
# GULP energy per Si atom -12393.090719 kJ/mol
# Density = 1.738749 g / cm^3
# Si number density = 17.427157 Si / 1000 Ang^3
#
#
#
# Elastic Constant Matrix: (Units=GPa)
#
#
# Indices 1 2 3 4 5 6 
#
# 1 135.2818 27.0254 59.6286 0.0000 0.0000 0.0000
# 2 27.0254 30.0802 17.2838 0.0000 0.0000 0.0000
# 3 59.6286 17.2838 203.1920 0.0000 0.0000 0.0000
# 4 0.0000 0.0000 0.0000 17.4597 0.0000 0.0000
# 5 0.0000 0.0000 0.0000 0.0000 30.9308 0.0000
# 6 0.0000 0.0000 0.0000 0.0000 0.0000 15.2078
#
#
#
# Elastic Compliance Matrix: (Units=1/GPa)
#
#
# Indices 1 2 3 4 5 6 
#
# 1 0.009907 -0.007602 -0.002261 0.000000 0.000000 0.000000
# 2 -0.007602 0.040786 -0.001238 0.000000 0.000000 0.000000
# 3 -0.002261 -0.001238 0.005690 0.000000 0.000000 0.000000
# 4 0.000000 0.000000 0.000000 0.057275 0.000000 0.000000
# 5 0.000000 0.000000 0.000000 0.000000 0.032330 0.000000
# 6 0.000000 0.000000 0.000000 0.000000 0.000000 0.065756
#
#
# Mechanical properties :
#
#
# Convention : Reuss Voigt Hill
#
# Bulk Modulus (GPa) = 29.25599 64.04776 46.65188
# Shear Modulus (GPa) = 20.37989 30.36075 25.37032
#
# Velocity S-wave (km/s) = 3.42341 4.17844 3.81962
# Velocity P-wave (km/s) = 5.69652 7.75310 6.80297
#
# Compressibility (1/GPa) = 0.03418103
#
# Stress axis : x y z
#
# Youngs Moduli (GPa) = 100.93785 24.51824 175.74016
#
# Poissons Ratio (x) = 0.18639 0.39729
# Poissons Ratio (y) = 0.76733 0.21764
# Poissons Ratio (z) = 0.22819 0.03036
#
# Static dielectric constant tensor:
#      x y z
#    x 3.088950 0.000000 0.000000 
#    y 0.000000 2.550740 0.000000 
#    z 0.000000 0.000000 5.273390 
# 
# 
# High freq. dielectric constant tensor:
#      x y z
#    x 1.680700 0.000000 0.000000 
#    y 0.000000 1.575110 0.000000 
#    z 0.000000 0.000000 1.723910 
# 
# From -- ./inp_files/1903.got.cif
#   From: 2010.03.12/outbox.cif.g09.slc.cpg/sg38_1_cif.got.tgz:1903.got - 2010.04.14 02:38:36.
