data_PCOD8177248
_publ_section_title
;
Structure prediction by ZEFSAII (Michael W. Deem and Ramdas Pophale) SiO2 
 PCOD8177248
Probable space group: A M M 2
;
_chemical_formula_sum "Si O2"
_cell_formula_units_Z 64
_cell_length_a 14.050306
_cell_length_b 9.611150
_cell_length_c 31.133576
_cell_angle_alpha 90.000000
_cell_angle_beta 90.000000
_cell_angle_gamma 90.000000
_cell_volume 4204.265603
_symmetry_space_group_name_H-M "A M M 2"
_symmetry_group_IT_number 38
_symmetry_cell_setting 'orthorhombic'
loop_
_space_group_symop_operation_xyz
x,y,z
-x,-y,z
-x,y,z
x,-y,z
x,1/2+y,1/2+z
-x,1/2-y,1/2+z
-x,1/2+y,1/2+z
x,1/2-y,1/2+z
loop_
_atom_site_type_symbol
_atom_site_label
_atom_site_fract_x
_atom_site_fract_y
_atom_site_fract_z
Si Si1 0.727117 0.334883 0.156140
Si Si2 0.275151 0.335905 0.992966
Si Si3 0.108696 0.339530 0.523219
Si Si4 0.394045 0.665324 0.236229
Si Si5 0.393790 0.835089 0.574509
Si Si6 0.609959 0.161294 0.408501
Si Si7 0.891018 0.159649 0.122440
Si Si8 0.386769 0.345268 0.330463
O O1 0.743507 0.500000 0.155799
O O2 0.678106 0.281357 0.199898
O O3 0.660424 0.285465 0.117052
O O4 0.828367 0.259499 0.152337
O O5 0.256339 0.500000 0.996010
O O6 0.174466 0.257265 0.993614
O O7 0.338529 0.281141 0.032604
O O8 0.329699 0.294539 0.949746
O O9 0.136132 0.500000 0.515988
O O10 0.122936 0.298054 0.572857
O O11 0.000000 0.312902 0.509348
O O12 0.500000 0.726967 0.227768
O O13 0.401231 0.500000 0.234501
O O14 0.354880 0.710298 0.283327
O O15 0.500000 0.771041 0.574706
O O16 0.400440 0.000000 0.573286
O O17 0.500000 0.198437 0.417771
O O18 0.651400 0.243972 0.367586
O O19 0.621970 0.000000 0.397906
O O20 0.000000 0.181637 0.136207
O O21 0.860564 0.000000 0.129469
O O22 0.500000 0.349609 0.330698
O O23 0.345946 0.500000 0.339000
#
# Coordination Sequence:
#
# PCOD8177248 Si02
#       8
#     8   8   8   8   8   8   8   8
#     4  10  17  26  44  68  87 110 146 182 211 245
#     4  10  18  28  43  65  88 113 145 179 212 247
#     4   9  18  32  47  61  81 112 146 180 219 259
#     4   8  14  25  42  65  91 116 143 177 215 252
#     4   9  16  25  38  59  88 118 144 168 199 244
#     4   9  17  28  42  62  90 119 145 176 213 252
#     4   9  18  32  46  59  82 116 146 176 219 262
#     4   8  14  26  43  61  83 113 148 182 213 248
#
# _framework density 15.222636
#
# number of rings (size 3 to 8) (size 9 to 14) (size 15 to 20)
#    0.000    3.000    1.250    2.250    0.000    4.000 
#    0.000    1.875    0.000    4.125    0.000    0.875 
#    0.000    1.000    0.000    0.000    0.000    0.000 
#
# Total GULP energy -396709.679170 kJ/mol
# GULP energy per Si atom -12397.177474 kJ/mol
# Density = 1.518799 g / cm^3
# Si number density = 15.222636 Si / 1000 Ang^3
#
#
#
# Elastic Constant Matrix: (Units=GPa)
#
#
# Indices 1 2 3 4 5 6 
#
# 1 85.9025 39.2413 53.9886 0.0000 0.0000 0.0000
# 2 39.2413 42.8476 44.7858 0.0000 0.0000 0.0000
# 3 53.9886 44.7858 128.8873 0.0000 0.0000 0.0000
# 4 0.0000 0.0000 0.0000 22.1517 0.0000 0.0000
# 5 0.0000 0.0000 0.0000 0.0000 13.0922 0.0000
# 6 0.0000 0.0000 0.0000 0.0000 0.0000 20.2436
#
#
#
# Elastic Compliance Matrix: (Units=1/GPa)
#
#
# Indices 1 2 3 4 5 6 
#
# 1 0.020871 -0.015666 -0.003299 0.000000 0.000000 0.000000
# 2 -0.015666 0.048409 -0.010259 0.000000 0.000000 0.000000
# 3 -0.003299 -0.010259 0.012705 0.000000 0.000000 0.000000
# 4 0.000000 0.000000 0.000000 0.045143 0.000000 0.000000
# 5 0.000000 0.000000 0.000000 0.000000 0.076381 0.000000
# 6 0.000000 0.000000 0.000000 0.000000 0.000000 0.049398
#
#
# Mechanical properties :
#
#
# Convention : Reuss Voigt Hill
#
# Bulk Modulus (GPa) = 42.48542 59.29653 50.89098
# Shear Modulus (GPa) = 15.66406 19.07228 17.36817
#
# Velocity S-wave (km/s) = 3.21128 3.54346 3.38145
# Velocity P-wave (km/s) = 6.45908 7.46853 6.98207
#
# Compressibility (1/GPa) = 0.02353749
#
# Stress axis : x y z
#
# Youngs Moduli (GPa) = 47.91366 20.65722 78.70770
#
# Poissons Ratio (x) = 0.32362 0.25963
# Poissons Ratio (y) = 0.75063 0.80745
# Poissons Ratio (z) = 0.15805 0.21192
#
# Static dielectric constant tensor:
#      x y z
#    x 2.816900 0.000000 0.000000 
#    y 0.000000 2.709610 0.000000 
#    z 0.000000 0.000000 3.056400 
# 
# 
# High freq. dielectric constant tensor:
#      x y z
#    x 1.564570 0.000000 0.000000 
#    y 0.000000 1.560390 0.000000 
#    z 0.000000 0.000000 1.576420 
# 
# From -- ./inp_files/22604.got.cif
#   From: 2010.03.12/outbox.cif.g09.slc.cpg/sg38_12_cif.got.tgz:22604.got - 2010.04.14 02:38:36.
