data_PCOD8177083
_publ_section_title
;
Structure prediction by ZEFSAII (Michael W. Deem and Ramdas Pophale) SiO2 
 PCOD8177083
Probable space group: C C C 2
;
_chemical_formula_sum "Si O2"
_cell_formula_units_Z 48
_cell_length_a 26.632494
_cell_length_b 9.218327
_cell_length_c 8.606510
_cell_angle_alpha 90.000000
_cell_angle_beta 90.000000
_cell_angle_gamma 90.000000
_cell_volume 2112.958782
_symmetry_space_group_name_H-M "C C C 2"
_symmetry_group_IT_number 37
_symmetry_cell_setting 'orthorhombic'
loop_
_space_group_symop_operation_xyz
x,y,z
-x,-y,z
-x,y,1/2+z
x,-y,1/2+z
1/2+x,1/2+y,z
1/2-x,1/2-y,z
1/2-x,1/2+y,1/2+z
1/2+x,1/2-y,1/2+z
loop_
_atom_site_type_symbol
_atom_site_label
_atom_site_fract_x
_atom_site_fract_y
_atom_site_fract_z
Si Si1 0.445319 0.067891 0.497340
Si Si2 0.607295 0.299897 0.817204
Si Si3 0.756333 0.098385 0.466091
Si Si4 0.307688 0.079562 0.260799
Si Si5 0.870765 0.084002 0.490483
Si Si6 0.110208 0.643537 0.298958
O O1 0.438922 0.193821 0.365444
O O2 0.432406 0.133308 0.666162
O O3 0.500000 0.000000 0.496548
O O4 0.407361 0.937107 0.456578
O O5 0.658944 0.209089 0.830788
O O6 0.599641 0.360103 0.642841
O O7 0.607786 0.428572 0.942149
O O8 0.750000 0.250000 0.369076
O O9 0.715406 0.129783 0.599674
O O10 0.811941 0.067992 0.529397
O O11 0.739576 0.957329 0.370693
O O12 0.339651 0.932643 0.235467
O O13 0.878863 0.190597 0.343757
#
# Coordination Sequence:
#
# PCOD8177083 Si02
#       6
#     8   8   8   8   8   8
#     4  11  24  44  72 101 126 171 222 281 351 434
#     4  11  24  43  67  97 141 181 231 286 352 407
#     4  12  23  39  61  96 140 188 247 279 318 392
#     4  11  22  42  61  92 135 191 235 281 320 395
#     4  12  24  42  65 103 145 188 229 286 344 399
#     4  11  22  42  69  97 136 174 225 281 346 410
#
# _framework density 22.716961999999999
#
# number of rings (size 3 to 8) (size 9 to 14) (size 15 to 20)
#    0.000    0.667    3.333    6.500    0.000    0.000 
#    3.000    1.667    0.000    6.000    0.000    0.000 
#    0.000    0.000    0.000    0.000    0.000    0.000 
#
# Total GULP energy -297605.012595 kJ/mol
# GULP energy per Si atom -12400.208858 kJ/mol
# Density = 2.266526 g / cm^3
# Si number density = 22.716962 Si / 1000 Ang^3
#
#
#
# Elastic Constant Matrix: (Units=GPa)
#
#
# Indices 1 2 3 4 5 6 
#
# 1 106.3801 42.4021 34.9944 0.0000 0.0000 0.0000
# 2 42.4021 132.9139 42.5081 0.0000 0.0000 0.0000
# 3 34.9944 42.5081 102.7483 0.0000 0.0000 0.0000
# 4 0.0000 0.0000 0.0000 42.4778 0.0000 0.0000
# 5 0.0000 0.0000 0.0000 0.0000 18.5442 0.0000
# 6 0.0000 0.0000 0.0000 0.0000 0.0000 36.8451
#
#
#
# Elastic Compliance Matrix: (Units=1/GPa)
#
#
# Indices 1 2 3 4 5 6 
#
# 1 0.011402 -0.002761 -0.002741 0.000000 0.000000 0.000000
# 2 -0.002761 0.009339 -0.002924 0.000000 0.000000 0.000000
# 3 -0.002741 -0.002924 0.011876 0.000000 0.000000 0.000000
# 4 0.000000 0.000000 0.000000 0.023542 0.000000 0.000000
# 5 0.000000 0.000000 0.000000 0.000000 0.053925 0.000000
# 6 0.000000 0.000000 0.000000 0.000000 0.000000 0.027141
#
#
# Mechanical properties :
#
#
# Convention : Reuss Voigt Hill
#
# Bulk Modulus (GPa) = 63.42691 64.65015 64.03853
# Shear Modulus (GPa) = 31.38102 34.38259 32.88181
#
# Velocity S-wave (km/s) = 3.72074 3.89462 3.80867
# Velocity P-wave (km/s) = 6.81467 6.98175 6.89871
#
# Compressibility (1/GPa) = 0.01576618
#
# Stress axis : x y z
#
# Youngs Moduli (GPa) = 87.70021 107.07284 84.20599
#
# Poissons Ratio (x) = 0.29562 0.23083
# Poissons Ratio (y) = 0.24213 0.24618
# Poissons Ratio (z) = 0.24041 0.31303
#
# Static dielectric constant tensor:
#      x y z
#    x 3.962100 0.000000 0.000000 
#    y 0.000000 4.252010 0.000000 
#    z 0.000000 0.000000 4.115750 
# 
# 
# High freq. dielectric constant tensor:
#      x y z
#    x 1.872290 0.000000 0.000000 
#    y 0.000000 1.909070 0.000000 
#    z 0.000000 0.000000 1.891640 
# 
# From -- ./inp_files/2397.got.cif
#   From: 2010.03.12/outbox.cif.g09.slc.cpg/sg37_2_cif.got.tgz:2397.got - 2010.04.14 02:25:27.
