data_PCOD8177131
_publ_section_title
;
Structure prediction by ZEFSAII (Michael W. Deem and Ramdas Pophale) SiO2 
 PCOD8177131
Probable space group: C C C 2
;
_chemical_formula_sum "Si O2"
_cell_formula_units_Z 48
_cell_length_a 13.701450
_cell_length_b 12.982411
_cell_length_c 12.338461
_cell_angle_alpha 90.000000
_cell_angle_beta 90.000000
_cell_angle_gamma 90.000000
_cell_volume 2194.738979
_symmetry_space_group_name_H-M "C C C 2"
_symmetry_group_IT_number 37
_symmetry_cell_setting 'orthorhombic'
loop_
_space_group_symop_operation_xyz
x,y,z
-x,-y,z
-x,y,1/2+z
x,-y,1/2+z
1/2+x,1/2+y,z
1/2-x,1/2-y,z
1/2-x,1/2+y,1/2+z
1/2+x,1/2-y,1/2+z
loop_
_atom_site_type_symbol
_atom_site_label
_atom_site_fract_x
_atom_site_fract_y
_atom_site_fract_z
Si Si1 0.582290 0.745921 0.594360
Si Si2 0.750000 0.750000 0.050935
Si Si3 0.934449 0.726381 0.926031
Si Si4 0.023452 0.114087 0.261598
Si Si5 0.253934 0.893677 0.741707
Si Si6 0.250000 0.250000 0.432903
Si Si7 0.903743 0.431838 0.250273
O O1 0.496837 0.802620 0.530300
O O2 0.539984 0.645298 0.656002
O O3 0.665597 0.707420 0.511721
O O4 0.619010 0.834464 0.674301
O O5 0.710512 0.840442 0.130150
O O6 0.836359 0.781768 0.968767
O O7 0.915200 0.617062 0.868978
O O8 0.997558 0.805645 0.855064
O O9 0.137622 0.113282 0.236201
O O10 0.000000 0.000000 0.301411
O O11 0.291048 0.838613 0.852362
O O12 0.302955 0.005105 0.744623
O O13 0.000000 0.500000 0.221566
#
# Coordination Sequence:
#
# PCOD8177131 Si02
#       7
#     8   4   8   8   8   4   8
#     4  11  24  46  69 100 136 182 228 284 350 410
#     4  11  24  43  72  94 138 181 228 285 348 412
#     4  11  24  46  69 100 136 182 228 284 350 410
#     4  11  26  45  67  97 144 180 228 284 344 416
#     4  11  24  45  68 104 134 181 231 284 347 412
#     4  11  24  43  72  94 138 181 228 285 348 412
#     4  11  26  42  70 101 139 173 231 292 337 412
#
# _framework density 21.870481000000002
#
# number of rings (size 3 to 8) (size 9 to 14) (size 15 to 20)
#    0.000    1.000    3.333    2.000    9.333    6.667 
#    0.000    0.000    0.000    0.000    0.000    0.000 
#    0.000    0.000    0.000    0.000    0.000    0.000 
#
# Total GULP energy -297495.594221 kJ/mol
# GULP energy per Si atom -12395.649759 kJ/mol
# Density = 2.182070 g / cm^3
# Si number density = 21.870481 Si / 1000 Ang^3
#
#
#
# Elastic Constant Matrix: (Units=GPa)
#
#
# Indices 1 2 3 4 5 6 
#
# 1 120.4704 29.1762 28.8381 0.0000 0.0000 0.0000
# 2 29.1762 114.4216 14.6341 0.0000 0.0000 0.0000
# 3 28.8381 14.6341 64.5178 0.0000 0.0000 0.0000
# 4 0.0000 0.0000 0.0000 10.7894 0.0000 0.0000
# 5 0.0000 0.0000 0.0000 0.0000 39.9802 0.0000
# 6 0.0000 0.0000 0.0000 0.0000 0.0000 41.5322
#
#
#
# Elastic Compliance Matrix: (Units=1/GPa)
#
#
# Indices 1 2 3 4 5 6 
#
# 1 0.009712 -0.001979 -0.003892 0.000000 0.000000 0.000000
# 2 -0.001979 0.009404 -0.001249 0.000000 0.000000 0.000000
# 3 -0.003892 -0.001249 0.017523 0.000000 0.000000 0.000000
# 4 0.000000 0.000000 0.000000 0.092684 0.000000 0.000000
# 5 0.000000 0.000000 0.000000 0.000000 0.025012 0.000000
# 6 0.000000 0.000000 0.000000 0.000000 0.000000 0.024078
#
#
# Mechanical properties :
#
#
# Convention : Reuss Voigt Hill
#
# Bulk Modulus (GPa) = 44.64414 49.41185 47.02799
# Shear Modulus (GPa) = 24.98537 33.57777 29.28157
#
# Velocity S-wave (km/s) = 3.38364 3.92254 3.66302
# Velocity P-wave (km/s) = 5.97685 6.56941 6.28012
#
# Compressibility (1/GPa) = 0.02239936
#
# Stress axis : x y z
#
# Youngs Moduli (GPa) = 102.96881 106.33977 57.06946
#
# Poissons Ratio (x) = 0.21040 0.22212
# Poissons Ratio (y) = 0.20373 0.07126
# Poissons Ratio (z) = 0.40077 0.13278
#
# Static dielectric constant tensor:
#      x y z
#    x 4.128130 0.000000 0.000000 
#    y 0.000000 3.813790 0.000000 
#    z 0.000000 0.000000 4.175300 
# 
# 
# High freq. dielectric constant tensor:
#      x y z
#    x 1.873440 0.000000 0.000000 
#    y 0.000000 1.840600 0.000000 
#    z 0.000000 0.000000 1.875390 
# 
# From -- ./inp_files/7808.got.cif
#   From: 2010.03.12/outbox.cif.g09.slc.cpg/sg37_4_cif.got.tgz:7808.got - 2010.04.14 02:25:27.
