data_PCOD8177509
_publ_section_title
;
Structure prediction by ZEFSAII (Michael W. Deem and Ramdas Pophale) SiO2 
 PCOD8177509
Probable space group: A M M 2
;
_chemical_formula_sum "Si O2"
_cell_formula_units_Z 32
_cell_length_a 9.153016
_cell_length_b 8.037593
_cell_length_c 23.830688
_cell_angle_alpha 90.000000
_cell_angle_beta 90.000000
_cell_angle_gamma 90.000000
_cell_volume 1753.181234
_symmetry_space_group_name_H-M "A M M 2"
_symmetry_group_IT_number 38
_symmetry_cell_setting 'orthorhombic'
loop_
_space_group_symop_operation_xyz
x,y,z
-x,-y,z
-x,y,z
x,-y,z
x,1/2+y,1/2+z
-x,1/2-y,1/2+z
-x,1/2+y,1/2+z
x,1/2-y,1/2+z
loop_
_atom_site_type_symbol
_atom_site_label
_atom_site_fract_x
_atom_site_fract_y
_atom_site_fract_z
Si Si1 0.662354 0.816549 0.398520
Si Si2 0.826103 0.315910 0.115049
Si Si3 0.837344 0.689007 0.498378
Si Si4 0.173747 0.500000 0.683167
Si Si5 0.826526 0.000000 0.311476
O O1 0.500000 0.748629 0.383924
O O2 0.737116 0.697259 0.443485
O O3 0.759044 0.834064 0.341386
O O4 0.651927 0.000000 0.426362
O O5 0.774576 0.500000 0.135801
O O6 0.762376 0.168326 0.154328
O O7 0.000000 0.303970 0.115830
O O8 0.772400 0.292192 0.050791
O O9 0.844360 0.500000 0.519054
O O10 0.000000 0.753565 0.482588
O O11 0.225102 0.500000 0.747401
O O12 0.000000 0.500000 0.679173
O O13 0.000000 0.000000 0.318077
#
# Coordination Sequence:
#
# PCOD8177509 Si02
#       5
#     8   8   8   4   4
#     4   9  19  33  49  71  99 136 176 216 263 316
#     4   9  16  27  46  74 107 139 168 211 269 316
#     4  10  18  29  49  78 109 137 175 221 261 316
#     4   9  16  29  47  73 105 135 176 221 264 315
#     4   9  17  31  53  73  97 137 178 223 266 303
#
# _framework density 18.252535000000002
#
# number of rings (size 3 to 8) (size 9 to 14) (size 15 to 20)
#    0.750    2.000    1.250    1.500    0.000    1.500 
#    0.000    1.250    0.000    7.500    0.000    0.000 
#    0.000    0.000    0.000    0.000    0.000    0.000 
#
# Total GULP energy -198224.463756 kJ/mol
# GULP energy per Si atom -12389.028985 kJ/mol
# Density = 1.821099 g / cm^3
# Si number density = 18.252535 Si / 1000 Ang^3
#
#
#
# Elastic Constant Matrix: (Units=GPa)
#
#
# Indices 1 2 3 4 5 6 
#
# 1 73.2214 13.4630 44.0188 0.0000 0.0000 0.0000
# 2 13.4630 101.4882 54.6665 0.0000 0.0000 0.0000
# 3 44.0188 54.6665 138.8604 0.0000 0.0000 0.0000
# 4 0.0000 0.0000 0.0000 29.9686 0.0000 0.0000
# 5 0.0000 0.0000 0.0000 0.0000 3.6668 0.0000
# 6 0.0000 0.0000 0.0000 0.0000 0.0000 11.1080
#
#
#
# Elastic Compliance Matrix: (Units=1/GPa)
#
#
# Indices 1 2 3 4 5 6 
#
# 1 0.016926 0.000818 -0.005688 0.000000 0.000000 0.000000
# 2 0.000818 0.012545 -0.005198 0.000000 0.000000 0.000000
# 3 -0.005688 -0.005198 0.011051 0.000000 0.000000 0.000000
# 4 0.000000 0.000000 0.000000 0.033368 0.000000 0.000000
# 5 0.000000 0.000000 0.000000 0.000000 0.272720 0.000000
# 6 0.000000 0.000000 0.000000 0.000000 0.000000 0.090025
#
#
# Mechanical properties :
#
#
# Convention : Reuss Voigt Hill
#
# Bulk Modulus (GPa) = 49.05129 59.76294 54.40711
# Shear Modulus (GPa) = 10.78596 22.37678 16.58137
#
# Velocity S-wave (km/s) = 2.43354 3.50516 3.01731
# Velocity P-wave (km/s) = 5.90154 7.01391 6.48163
#
# Compressibility (1/GPa) = 0.02038682
#
# Stress axis : x y z
#
# Youngs Moduli (GPa) = 59.08053 79.71485 90.49084
#
# Poissons Ratio (x) = -0.06524 0.51469
# Poissons Ratio (y) = -0.04835 0.47037
# Poissons Ratio (z) = 0.33603 0.41436
#
# Static dielectric constant tensor:
#      x y z
#    x 2.993740 0.000000 0.000000 
#    y 0.000000 3.310660 0.000000 
#    z 0.000000 0.000000 3.216750 
# 
# 
# High freq. dielectric constant tensor:
#      x y z
#    x 1.666020 0.000000 0.000000 
#    y 0.000000 1.696550 0.000000 
#    z 0.000000 0.000000 1.696500 
# 
# From -- ./inp_files/21626.got.cif
#   From: 2010.03.12/outbox.cif.g09.slc.cpg/sg38_11_cif.got.tgz:21626.got - 2010.04.14 02:38:36.
