data_PCOD8177964
_publ_section_title
;
Structure prediction by ZEFSAII (Michael W. Deem and Ramdas Pophale) SiO2 
 PCOD8177964
Probable space group: A M M 2
;
_chemical_formula_sum "Si O2"
_cell_formula_units_Z 64
_cell_length_a 14.259237
_cell_length_b 9.179845
_cell_length_c 31.066185
_cell_angle_alpha 90.000000
_cell_angle_beta 90.000000
_cell_angle_gamma 90.000000
_cell_volume 4066.488607
_symmetry_space_group_name_H-M "A M M 2"
_symmetry_group_IT_number 38
_symmetry_cell_setting 'orthorhombic'
loop_
_space_group_symop_operation_xyz
x,y,z
-x,-y,z
-x,y,z
x,-y,z
x,1/2+y,1/2+z
-x,1/2-y,1/2+z
-x,1/2+y,1/2+z
x,1/2-y,1/2+z
loop_
_atom_site_type_symbol
_atom_site_label
_atom_site_fract_x
_atom_site_fract_y
_atom_site_fract_z
Si Si1 0.890767 0.669963 0.904930
Si Si2 0.606500 0.669227 0.857069
Si Si3 0.890704 0.170415 0.577168
Si Si4 0.793002 0.172975 0.491654
Si Si5 0.781015 0.672116 0.329819
Si Si6 0.601920 0.173008 0.455366
Si Si7 0.111521 0.164392 0.161156
Si Si8 0.108064 0.830374 0.744935
O O1 0.867529 0.500000 0.898333
O O2 0.857127 0.723654 0.951820
O O3 0.836755 0.760575 0.869389
O O4 0.000000 0.702878 0.900632
O O5 0.500000 0.698090 0.841930
O O6 0.632470 0.500000 0.852127
O O7 0.675747 0.764572 0.827707
O O8 0.620167 0.720904 0.906301
O O9 0.835002 0.234603 0.536043
O O10 0.850836 0.252770 0.618967
O O11 0.000000 0.202282 0.569444
O O12 0.872473 0.000000 0.584004
O O13 0.686389 0.232401 0.485210
O O14 0.794032 0.000000 0.493931
O O15 0.777975 0.500000 0.335463
O O16 0.832435 0.718067 0.286047
O O17 0.500000 0.233272 0.471122
O O18 0.599713 0.000000 0.456665
O O19 0.148648 0.243489 0.204009
O O20 0.000000 0.169928 0.160964
O O21 0.149713 0.000000 0.160623
O O22 0.000000 0.790106 0.754203
O O23 0.119079 0.000000 0.734595
#
# Coordination Sequence:
#
# PCOD8177964 Si02
#       8
#     8   8   8   8   8   8   8   8
#     4  10  19  30  44  62  89 126 164 195 220 257
#     4   9  17  31  50  68  88 118 156 196 233 269
#     4   9  16  26  42  63  87 116 147 180 221 268
#     4   9  15  25  42  64  88 116 154 191 220 260
#     4  11  21  31  45  67  95 124 152 187 233 279
#     4   8  13  23  42  65  86 110 145 192 233 257
#     4   9  17  29  45  65  87 111 143 186 230 268
#     4   9  18  32  47  63  88 122 155 185 221 270
#
# _framework density 15.738394
#
# number of rings (size 3 to 8) (size 9 to 14) (size 15 to 20)
#    0.000    2.750    1.250    2.250    0.000    5.000 
#    0.000    1.875    0.000    1.500    0.000    0.875 
#    0.000    5.000    0.000    0.000    0.000    0.000 
#
# Total GULP energy -396708.645147 kJ/mol
# GULP energy per Si atom -12397.145161 kJ/mol
# Density = 1.570257 g / cm^3
# Si number density = 15.738394 Si / 1000 Ang^3
#
#
#
# Elastic Constant Matrix: (Units=GPa)
#
#
# Indices 1 2 3 4 5 6 
#
# 1 93.3821 34.5497 57.8621 0.0000 0.0000 0.0000
# 2 34.5497 49.6923 48.9859 0.0000 0.0000 0.0000
# 3 57.8621 48.9859 130.6982 0.0000 0.0000 0.0000
# 4 0.0000 0.0000 0.0000 21.6716 0.0000 0.0000
# 5 0.0000 0.0000 0.0000 0.0000 10.6383 0.0000
# 6 0.0000 0.0000 0.0000 0.0000 0.0000 16.5855
#
#
#
# Elastic Compliance Matrix: (Units=1/GPa)
#
#
# Indices 1 2 3 4 5 6 
#
# 1 0.016004 -0.006570 -0.004623 0.000000 0.000000 0.000000
# 2 -0.006570 0.034613 -0.010064 0.000000 0.000000 0.000000
# 3 -0.004623 -0.010064 0.013470 0.000000 0.000000 0.000000
# 4 0.000000 0.000000 0.000000 0.046143 0.000000 0.000000
# 5 0.000000 0.000000 0.000000 0.000000 0.094000 0.000000
# 6 0.000000 0.000000 0.000000 0.000000 0.000000 0.060294
#
#
# Mechanical properties :
#
#
# Convention : Reuss Voigt Hill
#
# Bulk Modulus (GPa) = 46.35511 61.84090 54.09801
# Shear Modulus (GPa) = 15.91195 18.60406 17.25800
#
# Velocity S-wave (km/s) = 3.18312 3.44187 3.31502
# Velocity P-wave (km/s) = 6.55950 7.42789 7.00716
#
# Compressibility (1/GPa) = 0.02157259
#
# Stress axis : x y z
#
# Youngs Moduli (GPa) = 62.48496 28.89076 74.23963
#
# Poissons Ratio (x) = 0.18981 0.34319
# Poissons Ratio (y) = 0.41053 0.74718
# Poissons Ratio (z) = 0.28885 0.29077
#
# Static dielectric constant tensor:
#      x y z
#    x 3.144670 0.000000 0.000000 
#    y 0.000000 2.810690 0.000000 
#    z 0.000000 0.000000 3.057080 
# 
# 
# High freq. dielectric constant tensor:
#      x y z
#    x 1.590420 0.000000 0.000000 
#    y 0.000000 1.581890 0.000000 
#    z 0.000000 0.000000 1.594690 
# 
# From -- ./inp_files/25051.got.cif
#   From: 2010.03.12/outbox.cif.g09.slc.cpg/sg38_13_cif.got.tgz:25051.got - 2010.04.14 02:38:36.
