data_PCOD8177705
_publ_section_title
;
Structure prediction by ZEFSAII (Michael W. Deem and Ramdas Pophale) SiO2 
 PCOD8177705
Probable space group: A M M 2
;
_chemical_formula_sum "Si O2"
_cell_formula_units_Z 64
_cell_length_a 8.703616
_cell_length_b 30.142298
_cell_length_c 14.573003
_cell_angle_alpha 90.000000
_cell_angle_beta 90.000000
_cell_angle_gamma 90.000000
_cell_volume 3823.183431
_symmetry_space_group_name_H-M "A M M 2"
_symmetry_group_IT_number 38
_symmetry_cell_setting 'orthorhombic'
loop_
_space_group_symop_operation_xyz
x,y,z
-x,-y,z
-x,y,z
x,-y,z
x,1/2+y,1/2+z
-x,1/2-y,1/2+z
-x,1/2+y,1/2+z
x,1/2-y,1/2+z
loop_
_atom_site_type_symbol
_atom_site_label
_atom_site_fract_x
_atom_site_fract_y
_atom_site_fract_z
Si Si1 0.819824 0.135965 0.579180
Si Si2 0.821626 0.549647 0.175780
Si Si3 0.680219 0.550557 0.370401
Si Si4 0.181969 0.867935 0.948218
Si Si5 0.681651 0.208873 0.064343
Si Si6 0.819144 0.323497 0.266155
Si Si7 0.680806 0.204601 0.449736
Si Si8 0.181305 0.776542 0.260834
O O1 0.785912 0.083217 0.591240
O O2 0.754048 0.158204 0.671401
O O3 0.723098 0.158244 0.498499
O O4 0.000000 0.145430 0.562710
O O5 0.777602 0.500000 0.143045
O O6 0.731089 0.563439 0.267240
O O7 0.000000 0.553485 0.202658
O O8 0.500000 0.557383 0.378415
O O9 0.728947 0.500000 0.391277
O O10 0.762192 0.580898 0.448369
O O11 0.247787 0.850055 0.851763
O O12 0.000000 0.864994 0.959522
O O13 0.257620 0.837619 0.025516
O O14 0.500000 0.209531 0.062578
O O15 0.738637 0.207656 0.168374
O O16 0.743478 0.252246 0.007355
O O17 0.766987 0.273473 0.278248
O O18 0.000000 0.329145 0.265430
O O19 0.500000 0.208524 0.436923
O O20 0.759449 0.198335 0.350830
O O21 0.000000 0.782713 0.249854
#
# Coordination Sequence:
#
# PCOD8177705 Si02
#       8
#     8   8   8   8   8   8   8   8
#     4  10  18  32  50  72 100 136 175 209 250 301
#     4   9  17  30  49  73 101 134 173 215 255 300
#     4  10  20  32  47  72 106 139 169 207 258 309
#     4  11  20  34  53  75 100 136 179 213 252 303
#     4  11  23  36  50  74 105 135 169 212 260 307
#     4   9  17  28  47  73 100 130 169 212 247 286
#     4  11  23  35  49  74 104 135 170 211 256 303
#     4  11  21  36  54  71  98 137 177 216 251 294
#
# _framework density 16.739977
#
# number of rings (size 3 to 8) (size 9 to 14) (size 15 to 20)
#    0.000    1.750    3.750    1.875    0.000    2.250 
#    0.000    0.000    0.000    0.000    0.000    0.875 
#    0.000    5.000    0.000    0.000    0.000    0.000 
#
# Total GULP energy -396689.127851 kJ/mol
# GULP energy per Si atom -12396.535245 kJ/mol
# Density = 1.670188 g / cm^3
# Si number density = 16.739977 Si / 1000 Ang^3
#
#
#
# Elastic Constant Matrix: (Units=GPa)
#
#
# Indices 1 2 3 4 5 6 
#
# 1 60.1827 26.8781 27.6689 0.0000 0.0000 0.0000
# 2 26.8781 121.0992 56.3767 0.0000 0.0000 0.0000
# 3 27.6689 56.3767 103.8134 0.0000 0.0000 0.0000
# 4 0.0000 0.0000 0.0000 32.5753 0.0000 0.0000
# 5 0.0000 0.0000 0.0000 0.0000 23.8899 0.0000
# 6 0.0000 0.0000 0.0000 0.0000 0.0000 23.2109
#
#
#
# Elastic Compliance Matrix: (Units=1/GPa)
#
#
# Indices 1 2 3 4 5 6 
#
# 1 0.019510 -0.002556 -0.003812 0.000000 0.000000 0.000000
# 2 -0.002556 0.011387 -0.005502 0.000000 0.000000 0.000000
# 3 -0.003812 -0.005502 0.013637 0.000000 0.000000 0.000000
# 4 0.000000 0.000000 0.000000 0.030698 0.000000 0.000000
# 5 0.000000 0.000000 0.000000 0.000000 0.041859 0.000000
# 6 0.000000 0.000000 0.000000 0.000000 0.000000 0.043083
#
#
# Mechanical properties :
#
#
# Convention : Reuss Voigt Hill
#
# Bulk Modulus (GPa) = 48.09269 56.32697 52.20983
# Shear Modulus (GPa) = 26.19933 27.54665 26.87299
#
# Velocity S-wave (km/s) = 3.96040 4.06095 4.01099
# Velocity P-wave (km/s) = 7.05015 7.46389 7.25997
#
# Compressibility (1/GPa) = 0.02079318
#
# Stress axis : x y z
#
# Youngs Moduli (GPa) = 51.25577 87.82319 73.33091
#
# Poissons Ratio (x) = 0.22444 0.27954
# Poissons Ratio (y) = 0.13099 0.40350
# Poissons Ratio (z) = 0.19539 0.48324
#
# Static dielectric constant tensor:
#      x y z
#    x 3.037550 0.000000 0.000000 
#    y 0.000000 3.257590 0.000000 
#    z 0.000000 0.000000 3.007830 
# 
# 
# High freq. dielectric constant tensor:
#      x y z
#    x 1.643370 0.000000 0.000000 
#    y 0.000000 1.642400 0.000000 
#    z 0.000000 0.000000 1.619210 
# 
# From -- ./inp_files/13116.got.cif
#   From: 2010.03.12/outbox.cif.g09.slc.cpg/sg38_7_cif.got.tgz:13116.got - 2010.04.14 02:38:36.
