data_PCOD8177068
_publ_section_title
;
Structure prediction by ZEFSAII (Michael W. Deem and Ramdas Pophale) SiO2 
 PCOD8177068
Probable space group: C C C 2
;
_chemical_formula_sum "Si O2"
_cell_formula_units_Z 48
_cell_length_a 13.905912
_cell_length_b 16.810237
_cell_length_c 9.293477
_cell_angle_alpha 90.000000
_cell_angle_beta 90.000000
_cell_angle_gamma 90.000000
_cell_volume 2172.458763
_symmetry_space_group_name_H-M "C C C 2"
_symmetry_group_IT_number 37
_symmetry_cell_setting 'orthorhombic'
loop_
_space_group_symop_operation_xyz
x,y,z
-x,-y,z
-x,y,1/2+z
x,-y,1/2+z
1/2+x,1/2+y,z
1/2-x,1/2-y,z
1/2-x,1/2+y,1/2+z
1/2+x,1/2-y,1/2+z
loop_
_atom_site_type_symbol
_atom_site_label
_atom_site_fract_x
_atom_site_fract_y
_atom_site_fract_z
Si Si1 0.250000 0.750000 0.154171
Si Si2 0.546158 0.084148 0.839527
Si Si3 0.750000 0.750000 0.156235
Si Si4 0.453842 0.415852 0.470878
Si Si5 0.250000 0.629266 0.905203
Si Si6 0.555712 0.817641 0.072737
Si Si7 0.944288 0.182359 0.237669
O O1 0.164243 0.783394 0.255372
O O2 0.220128 0.679601 0.045874
O O3 0.656904 0.074915 0.884748
O O4 0.547662 0.103409 0.670562
O O5 0.500000 0.000000 0.871866
O O6 0.489549 0.157153 0.919444
O O7 0.720128 0.679601 0.264531
O O8 0.664243 0.783394 0.055033
O O9 0.500000 0.500000 0.438539
O O10 0.343096 0.425085 0.425658
O O11 0.510451 0.342847 0.390961
O O12 0.452337 0.396591 0.639844
O O13 0.500000 0.750000 0.155203
#
# Coordination Sequence:
#
# PCOD8177068 Si02
#       7
#     4   8   4   8   8   8   8
#     4   9  18  36  65  88 114 163 213 252 298 369
#     4  11  23  41  63  93 129 165 204 259 315 373
#     4   9  18  36  65  88 114 163 213 252 298 369
#     4  11  23  41  63  93 129 165 204 259 315 373
#     4   9  18  38  64  82 121 172 202 236 323 380
#     4  11  21  41  66  92 124 164 213 254 306 368
#     4  11  21  41  66  92 124 164 213 254 306 368
#
# _framework density 22.094781000000001
#
# number of rings (size 3 to 8) (size 9 to 14) (size 15 to 20)
#    0.000    1.667    3.333    2.000    0.000    0.000 
#    6.000    6.667    0.000    0.000    0.000    0.000 
#    0.000    0.000    0.000    0.000    0.000    0.000 
#
# Total GULP energy -297423.414510 kJ/mol
# GULP energy per Si atom -12392.642271 kJ/mol
# Density = 2.204449 g / cm^3
# Si number density = 22.094781 Si / 1000 Ang^3
#
#
#
# Elastic Constant Matrix: (Units=GPa)
#
#
# Indices 1 2 3 4 5 6 
#
# 1 142.8012 44.6815 35.9378 0.0000 0.0000 0.0000
# 2 44.6815 93.3784 7.1431 0.0000 0.0000 0.0000
# 3 35.9378 7.1431 69.0997 0.0000 0.0000 0.0000
# 4 0.0000 0.0000 0.0000 20.2115 0.0000 0.0000
# 5 0.0000 0.0000 0.0000 0.0000 27.8428 0.0000
# 6 0.0000 0.0000 0.0000 0.0000 0.0000 36.3412
#
#
#
# Elastic Compliance Matrix: (Units=1/GPa)
#
#
# Indices 1 2 3 4 5 6 
#
# 1 0.009434 -0.004172 -0.004475 0.000000 0.000000 0.000000
# 2 -0.004172 0.012639 0.000863 0.000000 0.000000 0.000000
# 3 -0.004475 0.000863 0.016710 0.000000 0.000000 0.000000
# 4 0.000000 0.000000 0.000000 0.049477 0.000000 0.000000
# 5 0.000000 0.000000 0.000000 0.000000 0.035916 0.000000
# 6 0.000000 0.000000 0.000000 0.000000 0.000000 0.027517
#
#
# Mechanical properties :
#
#
# Convention : Reuss Voigt Hill
#
# Bulk Modulus (GPa) = 43.07450 53.42267 48.24858
# Shear Modulus (GPa) = 28.57129 31.38022 29.97575
#
# Velocity S-wave (km/s) = 3.59990 3.77272 3.68732
# Velocity P-wave (km/s) = 6.06768 6.57337 6.32558
#
# Compressibility (1/GPa) = 0.02321559
#
# Stress axis : x y z
#
# Youngs Moduli (GPa) = 105.99454 79.11770 59.84358
#
# Poissons Ratio (x) = 0.33008 0.26783
# Poissons Ratio (y) = 0.44221 -0.05166
# Poissons Ratio (z) = 0.47437 -0.06830
#
# Static dielectric constant tensor:
#      x y z
#    x 10.267970 0.000000 0.000000 
#    y 0.000000 3.719900 0.000000 
#    z 0.000000 0.000000 4.084200 
# 
# 
# High freq. dielectric constant tensor:
#      x y z
#    x 1.880040 0.000000 0.000000 
#    y 0.000000 1.851900 0.000000 
#    z 0.000000 0.000000 1.866850 
# 
# From -- ./inp_files/3519.got.cif
#   From: 2010.03.12/outbox.cif.g09.slc.cpg/sg37_2_cif.got.tgz:3519.got - 2010.04.14 02:25:27.
