data_PCOD8177587
_publ_section_title
;
Structure prediction by ZEFSAII (Michael W. Deem and Ramdas Pophale) SiO2 
 PCOD8177587
Probable space group: A M M 2
;
_chemical_formula_sum "Si O2"
_cell_formula_units_Z 56
_cell_length_a 14.338342
_cell_length_b 9.096246
_cell_length_c 25.327978
_cell_angle_alpha 90.000000
_cell_angle_beta 90.000000
_cell_angle_gamma 90.000000
_cell_volume 3303.403710
_symmetry_space_group_name_H-M "A M M 2"
_symmetry_group_IT_number 38
_symmetry_cell_setting 'orthorhombic'
loop_
_space_group_symop_operation_xyz
x,y,z
-x,-y,z
-x,y,z
x,-y,z
x,1/2+y,1/2+z
-x,1/2-y,1/2+z
-x,1/2+y,1/2+z
x,1/2-y,1/2+z
loop_
_atom_site_type_symbol
_atom_site_label
_atom_site_fract_x
_atom_site_fract_y
_atom_site_fract_z
Si Si1 0.290035 0.326890 0.879930
Si Si2 0.391749 0.671732 0.773518
Si Si3 0.604885 0.828885 0.970654
Si Si4 0.101222 0.174599 0.332350
Si Si5 0.717806 0.673792 0.180196
Si Si6 0.391221 0.167856 0.091545
Si Si7 0.105539 0.171182 0.212241
O O1 0.289845 0.500000 0.888209
O O2 0.357405 0.282629 0.831688
O O3 0.323341 0.255061 0.933761
O O4 0.185418 0.266277 0.868504
O O5 0.500000 0.711684 0.768678
O O6 0.373049 0.500000 0.763274
O O7 0.335279 0.762054 0.730585
O O8 0.500000 0.770624 0.960464
O O9 0.609865 0.000000 0.957626
O O10 0.633769 0.798850 0.030907
O O11 0.116663 0.226564 0.272382
O O12 0.000000 0.231985 0.353113
O O13 0.101561 0.000000 0.332179
O O14 0.719133 0.500000 0.184365
O O15 0.666710 0.720195 0.126736
O O16 0.823344 0.734464 0.177135
O O17 0.500000 0.194186 0.102179
O O18 0.365277 0.000000 0.106090
O O19 0.000000 0.199396 0.192324
O O20 0.131372 0.000000 0.207299
#
# Coordination Sequence:
#
# PCOD8177587 Si02
#       7
#     8   8   8   8   8   8   8
#     4  10  18  30  51  76 101 129 166 209 249 295
#     4  10  20  33  48  69 101 139 174 205 242 300
#     4   9  19  35  53  73  98 130 169 212 256 299
#     4   8  14  27  49  74  98 127 166 206 239 284
#     4  12  23  32  48  76 108 134 161 209 263 304
#     4   9  19  37  57  72  92 131 179 218 251 299
#     4   9  17  33  56  75  96 133 176 209 242 297
#
# _framework density 16.952210999999998
#
# number of rings (size 3 to 8) (size 9 to 14) (size 15 to 20)
#    0.000    2.429    1.429    3.857    0.000    4.571 
#    0.000    1.429    0.000    1.286    0.000    4.000 
#    0.000    0.000    0.000    0.000    0.000    0.000 
#
# Total GULP energy -347162.097909 kJ/mol
# GULP energy per Si atom -12398.646354 kJ/mol
# Density = 1.691363 g / cm^3
# Si number density = 16.952211 Si / 1000 Ang^3
#
#
#
# Elastic Constant Matrix: (Units=GPa)
#
#
# Indices 1 2 3 4 5 6 
#
# 1 120.7833 51.7873 54.6337 0.0000 0.0000 0.0000
# 2 51.7873 65.9250 42.5002 0.0000 0.0000 0.0000
# 3 54.6337 42.5002 83.7195 0.0000 0.0000 0.0000
# 4 0.0000 0.0000 0.0000 27.5436 0.0000 0.0000
# 5 0.0000 0.0000 0.0000 0.0000 23.8995 0.0000
# 6 0.0000 0.0000 0.0000 0.0000 0.0000 20.4665
#
#
#
# Elastic Compliance Matrix: (Units=1/GPa)
#
#
# Indices 1 2 3 4 5 6 
#
# 1 0.013872 -0.007523 -0.005234 0.000000 0.000000 0.000000
# 2 -0.007523 0.026628 -0.008608 0.000000 0.000000 0.000000
# 3 -0.005234 -0.008608 0.019730 0.000000 0.000000 0.000000
# 4 0.000000 0.000000 0.000000 0.036306 0.000000 0.000000
# 5 0.000000 0.000000 0.000000 0.000000 0.041842 0.000000
# 6 0.000000 0.000000 0.000000 0.000000 0.000000 0.048860
#
#
# Mechanical properties :
#
#
# Convention : Reuss Voigt Hill
#
# Bulk Modulus (GPa) = 57.14235 63.14113 60.14174
# Shear Modulus (GPa) = 21.20420 22.48238 21.84329
#
# Velocity S-wave (km/s) = 3.54053 3.64568 3.59349
# Velocity P-wave (km/s) = 7.10598 7.41948 7.26442
#
# Compressibility (1/GPa) = 0.01750016
#
# Stress axis : x y z
#
# Youngs Moduli (GPa) = 72.08589 37.55405 50.68450
#
# Poissons Ratio (x) = 0.28254 0.26526
# Poissons Ratio (y) = 0.54234 0.43630
# Poissons Ratio (z) = 0.37726 0.32327
#
# Static dielectric constant tensor:
#      x y z
#    x 3.502480 0.000000 0.000000 
#    y 0.000000 2.917650 0.000000 
#    z 0.000000 0.000000 3.043590 
# 
# 
# High freq. dielectric constant tensor:
#      x y z
#    x 1.662810 0.000000 0.000000 
#    y 0.000000 1.631530 0.000000 
#    z 0.000000 0.000000 1.636770 
# 
# From -- ./inp_files/21103.got.cif
#   From: 2010.03.12/outbox.cif.g09.slc.cpg/sg38_11_cif.got.tgz:21103.got - 2010.04.14 02:38:36.
