data_PCOD8177467
_publ_section_title
;
Structure prediction by ZEFSAII (Michael W. Deem and Ramdas Pophale) SiO2 
 PCOD8177467
Probable space group: A M M 2
;
_chemical_formula_sum "Si O2"
_cell_formula_units_Z 64
_cell_length_a 14.238256
_cell_length_b 9.360279
_cell_length_c 30.787252
_cell_angle_alpha 90.000000
_cell_angle_beta 90.000000
_cell_angle_gamma 90.000000
_cell_volume 4103.141720
_symmetry_space_group_name_H-M "A M M 2"
_symmetry_group_IT_number 38
_symmetry_cell_setting 'orthorhombic'
loop_
_space_group_symop_operation_xyz
x,y,z
-x,-y,z
-x,y,z
x,-y,z
x,1/2+y,1/2+z
-x,1/2-y,1/2+z
-x,1/2+y,1/2+z
x,1/2-y,1/2+z
loop_
_atom_site_type_symbol
_atom_site_label
_atom_site_fract_x
_atom_site_fract_y
_atom_site_fract_z
Si Si1 0.388321 0.841872 0.100670
Si Si2 0.607551 0.333411 0.181646
Si Si3 0.392904 0.331162 0.504390
Si Si4 0.106511 0.165832 0.290637
Si Si5 0.609354 0.834941 0.339892
Si Si6 0.720109 0.330303 0.266682
Si Si7 0.898070 0.830540 0.389524
Si Si8 0.292394 0.167083 0.429436
O O1 0.500000 0.845747 0.101261
O O2 0.349514 0.740201 0.138632
O O3 0.347974 0.000000 0.109327
O O4 0.357663 0.788207 0.052798
O O5 0.500000 0.286844 0.189568
O O6 0.616102 0.500000 0.173473
O O7 0.665467 0.284276 0.223410
O O8 0.500000 0.280730 0.496941
O O9 0.384993 0.500000 0.497719
O O10 0.326076 0.252024 0.471050
O O11 0.175964 0.263649 0.262288
O O12 0.117431 0.219357 0.340135
O O13 0.000000 0.189696 0.274313
O O14 0.134999 0.000000 0.286060
O O15 0.500000 0.799864 0.335143
O O16 0.666494 0.734373 0.307780
O O17 0.639986 0.800296 0.388926
O O18 0.631671 0.000000 0.328787
O O19 0.725571 0.500000 0.272024
O O20 0.812884 0.775206 0.419216
O O21 0.000000 0.774215 0.406569
O O22 0.898258 0.000000 0.389185
O O23 0.292311 0.000000 0.440519
#
# Coordination Sequence:
#
# PCOD8177467 Si02
#       8
#     8   8   8   8   8   8   8   8
#     4   8  15  29  47  65  85 113 150 190 228 266
#     4   9  18  31  45  64  92 123 153 185 223 269
#     4   9  18  31  45  64  93 123 149 181 226 276
#     4   9  17  32  52  68  86 117 156 196 234 271
#     4  10  20  32  44  61  90 126 163 196 220 256
#     4  11  21  31  45  67  96 125 152 187 232 279
#     4   8  14  27  47  66  85 112 147 190 232 263
#     4  10  18  29  46  67  89 116 155 193 222 260
#
# _framework density 15.597803000000001
#
# number of rings (size 3 to 8) (size 9 to 14) (size 15 to 20)
#    0.000    2.750    1.250    2.625    0.000    3.750 
#    0.000    2.500    0.000    0.375    0.000    0.875 
#    0.000    3.000    0.000    0.000    0.000    0.000 
#
# Total GULP energy -396683.762183 kJ/mol
# GULP energy per Si atom -12396.367568 kJ/mol
# Density = 1.556230 g / cm^3
# Si number density = 15.597803 Si / 1000 Ang^3
#
#
#
# Elastic Constant Matrix: (Units=GPa)
#
#
# Indices 1 2 3 4 5 6 
#
# 1 94.6697 37.9247 48.2973 0.0000 0.0000 0.0000
# 2 37.9247 49.3597 46.5103 0.0000 0.0000 0.0000
# 3 48.2973 46.5103 102.5816 0.0000 0.0000 0.0000
# 4 0.0000 0.0000 0.0000 29.5775 0.0000 0.0000
# 5 0.0000 0.0000 0.0000 0.0000 10.8740 0.0000
# 6 0.0000 0.0000 0.0000 0.0000 0.0000 21.2945
#
#
#
# Elastic Compliance Matrix: (Units=1/GPa)
#
#
# Indices 1 2 3 4 5 6 
#
# 1 0.015912 -0.009020 -0.003402 0.000000 0.000000 0.000000
# 2 -0.009020 0.040484 -0.014108 0.000000 0.000000 0.000000
# 3 -0.003402 -0.014108 0.017747 0.000000 0.000000 0.000000
# 4 0.000000 0.000000 0.000000 0.033809 0.000000 0.000000
# 5 0.000000 0.000000 0.000000 0.000000 0.091962 0.000000
# 6 0.000000 0.000000 0.000000 0.000000 0.000000 0.046961
#
#
# Mechanical properties :
#
#
# Convention : Reuss Voigt Hill
#
# Bulk Modulus (GPa) = 47.43476 56.89729 52.16603
# Shear Modulus (GPa) = 16.28857 19.94111 18.11484
#
# Velocity S-wave (km/s) = 3.23505 3.57943 3.41159
# Velocity P-wave (km/s) = 6.66568 7.32394 7.00255
#
# Compressibility (1/GPa) = 0.02108159
#
# Stress axis : x y z
#
# Youngs Moduli (GPa) = 62.84516 24.70108 56.34819
#
# Poissons Ratio (x) = 0.22281 0.19169
# Poissons Ratio (y) = 0.56688 0.79499
# Poissons Ratio (z) = 0.21380 0.34850
#
# Static dielectric constant tensor:
#      x y z
#    x 3.165430 0.000000 0.000000 
#    y 0.000000 2.864370 0.000000 
#    z 0.000000 0.000000 2.984670 
# 
# 
# High freq. dielectric constant tensor:
#      x y z
#    x 1.585900 0.000000 0.000000 
#    y 0.000000 1.587180 0.000000 
#    z 0.000000 0.000000 1.586090 
# 
# From -- ./inp_files/25043.got.cif
#   From: 2010.03.12/outbox.cif.g09.slc.cpg/sg38_13_cif.got.tgz:25043.got - 2010.04.14 02:38:36.
