data_PCOD8177109
_publ_section_title
;
Structure prediction by ZEFSAII (Michael W. Deem and Ramdas Pophale) SiO2 
 PCOD8177109
Probable space group: C C C 2
;
_chemical_formula_sum "Si O2"
_cell_formula_units_Z 48
_cell_length_a 16.524694
_cell_length_b 13.728217
_cell_length_c 9.906189
_cell_angle_alpha 90.000000
_cell_angle_beta 90.000000
_cell_angle_gamma 90.000000
_cell_volume 2247.264395
_symmetry_space_group_name_H-M "C C C 2"
_symmetry_group_IT_number 37
_symmetry_cell_setting 'orthorhombic'
loop_
_space_group_symop_operation_xyz
x,y,z
-x,-y,z
-x,y,1/2+z
x,-y,1/2+z
1/2+x,1/2+y,z
1/2-x,1/2-y,z
1/2-x,1/2+y,1/2+z
1/2+x,1/2-y,1/2+z
loop_
_atom_site_type_symbol
_atom_site_label
_atom_site_fract_x
_atom_site_fract_y
_atom_site_fract_z
Si Si1 0.346992 0.993404 0.556650
Si Si2 0.778259 0.855127 0.511944
Si Si3 0.468123 0.391196 0.534907
Si Si4 0.811959 0.681921 0.240326
Si Si5 0.431375 0.072451 0.796222
Si Si6 0.481287 0.728510 0.786184
O O1 0.347974 0.895623 0.641416
O O2 0.361003 0.963051 0.400628
O O3 0.265047 0.053105 0.581223
O O4 0.413507 0.058992 0.636047
O O5 0.750000 0.750000 0.574936
O O6 0.871548 0.879498 0.536286
O O7 0.746663 0.858578 0.358032
O O8 0.500000 0.500000 0.564852
O O9 0.506375 0.315036 0.638877
O O10 0.501418 0.358123 0.389822
O O11 0.750000 0.750000 0.155001
O O12 0.888364 0.737268 0.307389
O O13 0.457057 0.183704 0.817510
O O14 0.500000 0.000000 0.844017
#
# Coordination Sequence:
#
# PCOD8177109 Si02
#       6
#     8   8   8   8   8   8
#     4  12  24  43  69 108 137 184 239 299 351 445
#     4  11  23  47  71  95 142 199 235 289 373 442
#     4  12  28  47  75 104 145 191 248 301 373 438
#     4  11  23  43  72  97 140 192 232 285 366 434
#     4  12  25  40  71 108 145 175 234 298 371 426
#     4  12  25  47  71 107 143 188 238 304 366 442
#
# _framework density 21.359302
#
# number of rings (size 3 to 8) (size 9 to 14) (size 15 to 20)
#    0.000    0.333    6.667    3.000    4.667    1.333 
#    0.000    0.833    0.000    0.000    0.000    0.000 
#    0.000    0.000    0.000    0.000    0.000    0.000 
#
# Total GULP energy -297366.835754 kJ/mol
# GULP energy per Si atom -12390.284823 kJ/mol
# Density = 2.131069 g / cm^3
# Si number density = 21.359302 Si / 1000 Ang^3
#
#
#
# Elastic Constant Matrix: (Units=GPa)
#
#
# Indices 1 2 3 4 5 6 
#
# 1 110.5172 45.3085 19.4770 0.0000 0.0000 0.0000
# 2 45.3085 122.7765 16.1390 0.0000 0.0000 0.0000
# 3 19.4770 16.1390 80.2953 0.0000 0.0000 0.0000
# 4 0.0000 0.0000 0.0000 -66.4430 0.0000 0.0000
# 5 0.0000 0.0000 0.0000 0.0000 18.8974 0.0000
# 6 0.0000 0.0000 0.0000 0.0000 0.0000 40.0887
#
#
#
# Elastic Compliance Matrix: (Units=1/GPa)
#
#
# Indices 1 2 3 4 5 6 
#
# 1 0.010934 -0.003786 -0.001891 0.000000 0.000000 0.000000
# 2 -0.003786 0.009677 -0.001027 0.000000 0.000000 0.000000
# 3 -0.001891 -0.001027 0.013119 0.000000 0.000000 0.000000
# 4 0.000000 0.000000 0.000000 -0.015050 0.000000 0.000000
# 5 0.000000 0.000000 0.000000 0.000000 0.052917 0.000000
# 6 0.000000 0.000000 0.000000 0.000000 0.000000 0.024945
#
#
# Mechanical properties :
#
#
# Convention : Reuss Voigt Hill
#
# Bulk Modulus (GPa) = 49.20809 52.82644 51.01727
# Shear Modulus (GPa) = 42.83612 14.01958 28.42785
#
# Velocity S-wave (km/s) = 4.48314 2.56475 3.65216
# Velocity P-wave (km/s) = 7.06303 5.79280 6.45921
#
# Compressibility (1/GPa) = 0.02032186
#
# Stress axis : x y z
#
# Youngs Moduli (GPa) = 91.45820 103.33641 76.22468
#
# Poissons Ratio (x) = 0.39127 0.14415
# Poissons Ratio (y) = 0.34630 0.07825
# Poissons Ratio (z) = 0.17296 0.10609
#
# Static dielectric constant tensor:
#      x y z
#    x 4.193320 0.000000 0.000000 
#    y 0.000000 4.258500 0.000000 
#    z 0.000000 0.000000 3.773190 
# 
# 
# High freq. dielectric constant tensor:
#      x y z
#    x 1.839080 0.000000 0.000000 
#    y 0.000000 1.853700 0.000000 
#    z 0.000000 0.000000 1.828920 
# 
# From -- ./inp_files/3972.got.cif
#   From: 2010.03.12/outbox.cif.g09.slc.cpg/sg37_2_cif.got.tgz:3972.got - 2010.04.14 02:25:27.
