data_PCOD8177715
_publ_section_title
;
Structure prediction by ZEFSAII (Michael W. Deem and Ramdas Pophale) SiO2 
 PCOD8177715
Probable space group: A M M 2
;
_chemical_formula_sum "Si O2"
_cell_formula_units_Z 36
_cell_length_a 11.450216
_cell_length_b 11.985036
_cell_length_c 14.626274
_cell_angle_alpha 90.000000
_cell_angle_beta 90.000000
_cell_angle_gamma 90.000000
_cell_volume 2007.181878
_symmetry_space_group_name_H-M "A M M 2"
_symmetry_group_IT_number 38
_symmetry_cell_setting 'orthorhombic'
loop_
_space_group_symop_operation_xyz
x,y,z
-x,-y,z
-x,y,z
x,-y,z
x,1/2+y,1/2+z
-x,1/2-y,1/2+z
-x,1/2+y,1/2+z
x,1/2-y,1/2+z
loop_
_atom_site_type_symbol
_atom_site_label
_atom_site_fract_x
_atom_site_fract_y
_atom_site_fract_z
Si Si1 0.259414 0.125943 0.578930
Si Si2 0.500000 0.876474 0.188925
Si Si3 0.135885 0.128652 0.396437
Si Si4 0.500000 0.790170 0.523372
Si Si5 0.699483 0.247665 0.760406
Si Si6 0.500000 0.873065 0.853997
O O1 0.164889 0.158129 0.501720
O O2 0.385691 0.133574 0.529919
O O3 0.242726 0.208975 0.664642
O O4 0.240061 0.000000 0.613437
O O5 0.500000 0.792670 0.106738
O O6 0.616157 0.855496 0.248394
O O7 0.500000 0.000000 0.149933
O O8 0.200680 0.216335 0.330578
O O9 0.000000 0.147919 0.379973
O O10 0.171043 0.000000 0.375287
O O11 0.500000 0.718193 0.432573
O O12 0.617819 0.145431 0.795007
O O13 0.500000 0.000000 0.890588
#
# Coordination Sequence:
#
# PCOD8177715 Si02
#       6
#     8   4   8   4   8   4
#     4  10  20  35  56  82 110 142 179 223 272 326
#     4   9  18  30  48  77 107 134 175 219 267 333
#     4  10  21  37  57  80 107 144 190 232 268 312
#     4  10  18  32  52  80 107 146 173 213 275 329
#     4  10  20  34  54  80 110 144 180 221 276 322
#     4  11  20  32  52  83 114 142 174 218 278 336
#
# _framework density 17.935594999999999
#
# number of rings (size 3 to 8) (size 9 to 14) (size 15 to 20)
#    0.000    2.000    2.222    2.667    0.000    0.889 
#    0.000    0.000    0.000    2.000    0.000    0.000 
#    0.000    0.000    0.000    0.000    0.000    0.000 
#
# Total GULP energy -223170.853566 kJ/mol
# GULP energy per Si atom -12398.380754 kJ/mol
# Density = 1.789477 g / cm^3
# Si number density = 17.935595 Si / 1000 Ang^3
#
#
#
# Elastic Constant Matrix: (Units=GPa)
#
#
# Indices 1 2 3 4 5 6 
#
# 1 83.2791 33.8063 44.3793 0.0000 0.0000 0.0000
# 2 33.8063 77.9347 37.1880 0.0000 0.0000 0.0000
# 3 44.3793 37.1880 100.0140 0.0000 0.0000 0.0000
# 4 0.0000 0.0000 0.0000 -68.0536 0.0000 0.0000
# 5 0.0000 0.0000 0.0000 0.0000 22.4906 0.0000
# 6 0.0000 0.0000 0.0000 0.0000 0.0000 12.0839
#
#
#
# Elastic Compliance Matrix: (Units=1/GPa)
#
#
# Indices 1 2 3 4 5 6 
#
# 1 0.016973 -0.004582 -0.005828 0.000000 0.000000 0.000000
# 2 -0.004582 0.016836 -0.004227 0.000000 0.000000 0.000000
# 3 -0.005828 -0.004227 0.014156 0.000000 0.000000 0.000000
# 4 0.000000 0.000000 0.000000 -0.014694 0.000000 0.000000
# 5 0.000000 0.000000 0.000000 0.000000 0.044463 0.000000
# 6 0.000000 0.000000 0.000000 0.000000 0.000000 0.082754
#
#
# Mechanical properties :
#
#
# Convention : Reuss Voigt Hill
#
# Bulk Modulus (GPa) = 53.49848 54.66389 54.08119
# Shear Modulus (GPa) = 25.51116 3.02780 14.26948
#
# Velocity S-wave (km/s) = 3.77553 1.30070 2.82369
# Velocity P-wave (km/s) = 6.99279 5.72711 6.39136
#
# Compressibility (1/GPa) = 0.01869212
#
# Stress axis : x y z
#
# Youngs Moduli (GPa) = 58.91539 59.39774 70.63966
#
# Poissons Ratio (x) = 0.27215 0.41169
# Poissons Ratio (y) = 0.26994 0.29859
# Poissons Ratio (z) = 0.34336 0.25107
#
# Static dielectric constant tensor:
#      x y z
#    x 3.310340 0.000000 0.000000 
#    y 0.000000 3.217600 0.000000 
#    z 0.000000 0.000000 3.426840 
# 
# 
# High freq. dielectric constant tensor:
#      x y z
#    x 1.680730 0.000000 0.000000 
#    y 0.000000 1.683670 0.000000 
#    z 0.000000 0.000000 1.702380 
# 
# From -- ./inp_files/17539.got.cif
#   From: 2010.03.12/outbox.cif.g09.slc.cpg/sg38_9_cif.got.tgz:17539.got - 2010.04.14 02:38:36.
