data_PCOD8177733
_publ_section_title
;
Structure prediction by ZEFSAII (Michael W. Deem and Ramdas Pophale) SiO2 
 PCOD8177733
Probable space group: A M M 2
;
_chemical_formula_sum "Si O2"
_cell_formula_units_Z 48
_cell_length_a 17.216020
_cell_length_b 8.796208
_cell_length_c 15.641704
_cell_angle_alpha 90.000000
_cell_angle_beta 90.000000
_cell_angle_gamma 90.000000
_cell_volume 2368.712283
_symmetry_space_group_name_H-M "A M M 2"
_symmetry_group_IT_number 38
_symmetry_cell_setting 'orthorhombic'
loop_
_space_group_symop_operation_xyz
x,y,z
-x,-y,z
-x,y,z
x,-y,z
x,1/2+y,1/2+z
-x,1/2-y,1/2+z
-x,1/2+y,1/2+z
x,1/2-y,1/2+z
loop_
_atom_site_type_symbol
_atom_site_label
_atom_site_fract_x
_atom_site_fract_y
_atom_site_fract_z
Si Si1 0.000000 0.178457 0.751340
Si Si2 0.166531 0.319733 0.245875
Si Si3 0.845849 0.823469 0.430174
Si Si4 0.316572 0.320604 0.675934
Si Si5 0.679804 0.175278 0.501858
Si Si6 0.000000 0.680135 0.445920
Si Si7 0.587652 0.181088 0.337380
O O1 0.918902 0.230182 0.707703
O O2 0.000000 0.236861 0.848218
O O3 0.000000 0.000000 0.757799
O O4 0.178213 0.500000 0.242026
O O5 0.172904 0.267396 0.343727
O O6 0.229583 0.240373 0.187091
O O7 0.771966 0.803001 0.491402
O O8 0.920142 0.754153 0.481943
O O9 0.859649 0.000000 0.408176
O O10 0.314750 0.500000 0.678007
O O11 0.349543 0.264887 0.585264
O O12 0.371024 0.256293 0.751754
O O13 0.634212 0.242009 0.419861
O O14 0.658073 0.000000 0.514657
O O15 0.000000 0.500000 0.461242
O O16 0.500000 0.243948 0.340236
O O17 0.589143 0.000000 0.336239
#
# Coordination Sequence:
#
# PCOD8177733 Si02
#       7
#     4   8   8   8   8   4   8
#     4   7  14  27  46  75 106 142 188 232 277 329
#     4  10  18  32  55  81 114 154 195 241 293 344
#     4  10  18  32  54  81 114 153 199 245 290 343
#     4  11  22  37  58  88 119 152 195 239 290 349
#     4  10  21  38  59  86 117 153 195 236 289 350
#     4   9  17  29  48  79 114 152 198 242 291 343
#     4   9  19  39  64  86 115 153 188 232 293 355
#
# _framework density 20.264175000000002
#
# number of rings (size 3 to 8) (size 9 to 14) (size 15 to 20)
#    0.000    2.333    1.667    2.750    0.000    2.000 
#    0.000    2.083    0.000    5.500    0.000    0.000 
#    0.000    0.000    0.000    0.000    0.000    0.000 
#
# Total GULP energy -297481.454669 kJ/mol
# GULP energy per Si atom -12395.060611 kJ/mol
# Density = 2.021805 g / cm^3
# Si number density = 20.264175 Si / 1000 Ang^3
#
#
#
# Elastic Constant Matrix: (Units=GPa)
#
#
# Indices 1 2 3 4 5 6 
#
# 1 224.2073 61.3829 40.0616 0.0000 0.0000 0.0000
# 2 61.3829 70.6998 30.4322 0.0000 0.0000 0.0000
# 3 40.0616 30.4322 129.8438 0.0000 0.0000 0.0000
# 4 0.0000 0.0000 0.0000 29.4537 0.0000 0.0000
# 5 0.0000 0.0000 0.0000 0.0000 9.8194 0.0000
# 6 0.0000 0.0000 0.0000 0.0000 0.0000 18.6235
#
#
#
# Elastic Compliance Matrix: (Units=1/GPa)
#
#
# Indices 1 2 3 4 5 6 
#
# 1 0.005906 -0.004831 -0.000690 0.000000 0.000000 0.000000
# 2 -0.004831 0.019683 -0.003123 0.000000 0.000000 0.000000
# 3 -0.000690 -0.003123 0.008646 0.000000 0.000000 0.000000
# 4 0.000000 0.000000 0.000000 0.033952 0.000000 0.000000
# 5 0.000000 0.000000 0.000000 0.000000 0.101839 0.000000
# 6 0.000000 0.000000 0.000000 0.000000 0.000000 0.053696
#
#
# Mechanical properties :
#
#
# Convention : Reuss Voigt Hill
#
# Bulk Modulus (GPa) = 59.00356 76.50049 67.75202
# Shear Modulus (GPa) = 20.27104 31.10425 25.68765
#
# Velocity S-wave (km/s) = 3.16624 3.92208 3.56425
# Velocity P-wave (km/s) = 6.52282 7.63831 7.10250
#
# Compressibility (1/GPa) = 0.01694813
#
# Stress axis : x y z
#
# Youngs Moduli (GPa) = 169.31984 50.80645 115.65591
#
# Poissons Ratio (x) = 0.24543 0.07981
# Poissons Ratio (y) = 0.81793 0.36116
# Poissons Ratio (z) = 0.11683 0.15865
#
# Static dielectric constant tensor:
#      x y z
#    x 4.081340 0.000000 0.000000 
#    y 0.000000 3.436500 0.000000 
#    z 0.000000 0.000000 2.471410 
# 
# 
# High freq. dielectric constant tensor:
#      x y z
#    x 1.802140 0.000000 0.000000 
#    y 0.000000 1.769690 0.000000 
#    z 0.000000 0.000000 1.771360 
# 
# From -- ./inp_files/15046.got.cif
#   From: 2010.03.12/outbox.cif.g09.slc.cpg/sg38_8_cif.got.tgz:15046.got - 2010.04.14 02:38:36.
