data_PCOD8177963
_publ_section_title
;
Structure prediction by ZEFSAII (Michael W. Deem and Ramdas Pophale) SiO2 
 PCOD8177963
Probable space group: A M M 2
;
_chemical_formula_sum "Si O2"
_cell_formula_units_Z 64
_cell_length_a 14.313236
_cell_length_b 8.971354
_cell_length_c 31.120095
_cell_angle_alpha 90.000000
_cell_angle_beta 90.000000
_cell_angle_gamma 90.000000
_cell_volume 3996.103610
_symmetry_space_group_name_H-M "A M M 2"
_symmetry_group_IT_number 38
_symmetry_cell_setting 'orthorhombic'
loop_
_space_group_symop_operation_xyz
x,y,z
-x,-y,z
-x,y,z
x,-y,z
x,1/2+y,1/2+z
-x,1/2-y,1/2+z
-x,1/2+y,1/2+z
x,1/2-y,1/2+z
loop_
_atom_site_type_symbol
_atom_site_label
_atom_site_fract_x
_atom_site_fract_y
_atom_site_fract_z
Si Si1 0.110984 0.165747 0.001120
Si Si2 0.891884 0.825394 0.262874
Si Si3 0.398471 0.322721 0.715135
Si Si4 0.215830 0.823957 0.840175
Si Si5 0.104493 0.322269 0.594979
Si Si6 0.210341 0.176878 0.176964
Si Si7 0.605714 0.673835 0.813085
Si Si8 0.889784 0.828702 0.416743
O O1 0.144898 0.224623 0.048049
O O2 0.000000 0.157083 0.003022
O O3 0.151012 0.000000 0.991685
O O4 0.144479 0.277787 0.964002
O O5 0.834166 0.736545 0.297915
O O6 0.857686 0.776130 0.215767
O O7 0.000000 0.783929 0.267387
O O8 0.874232 0.000000 0.270605
O O9 0.500000 0.263682 0.698848
O O10 0.398460 0.500000 0.714395
O O11 0.314995 0.259327 0.685379
O O12 0.381710 0.271597 0.764033
O O13 0.322429 0.765900 0.842400
O O14 0.161661 0.770775 0.882059
O O15 0.215189 0.000000 0.839185
O O16 0.100785 0.500000 0.597504
O O17 0.171066 0.255908 0.632357
O O18 0.000000 0.258443 0.602105
O O19 0.214124 0.000000 0.173787
O O20 0.500000 0.705921 0.828792
O O21 0.629550 0.500000 0.817250
O O22 0.000000 0.803727 0.411297
O O23 0.862214 0.000000 0.410208
#
# Coordination Sequence:
#
# PCOD8177963 Si02
#       8
#     8   8   8   8   8   8   8   8
#     4   8  14  26  43  63  88 114 143 184 233 278
#     4  10  19  30  44  62  88 124 164 197 222 259
#     4   8  13  22  39  62  86 113 147 189 229 260
#     4  12  23  32  45  66  94 124 152 186 232 281
#     4   8  13  21  36  61  89 114 142 181 229 275
#     4   9  14  22  39  63  89 116 151 191 226 263
#     4   9  17  32  52  69  88 117 154 195 233 268
#     4  10  20  33  49  67  88 117 156 196 231 274
#
# _framework density 16.015599999999999
#
# number of rings (size 3 to 8) (size 9 to 14) (size 15 to 20)
#    0.000    2.750    1.250    3.750    0.000    4.250 
#    0.000    0.000    0.000    0.750    0.000    2.625 
#    0.000    3.000    0.000    0.000    0.000    0.000 
#
# Total GULP energy -396622.284403 kJ/mol
# GULP energy per Si atom -12394.446388 kJ/mol
# Density = 1.597915 g / cm^3
# Si number density = 16.015600 Si / 1000 Ang^3
#
#
#
# Elastic Constant Matrix: (Units=GPa)
#
#
# Indices 1 2 3 4 5 6 
#
# 1 87.6795 36.6334 42.5780 0.0000 0.0000 0.0000
# 2 36.6334 50.4577 35.8902 0.0000 0.0000 0.0000
# 3 42.5780 35.8902 103.5402 0.0000 0.0000 0.0000
# 4 0.0000 0.0000 0.0000 16.3675 0.0000 0.0000
# 5 0.0000 0.0000 0.0000 0.0000 8.8762 0.0000
# 6 0.0000 0.0000 0.0000 0.0000 0.0000 11.7833
#
#
#
# Elastic Compliance Matrix: (Units=1/GPa)
#
#
# Indices 1 2 3 4 5 6 
#
# 1 0.017366 -0.009992 -0.003678 0.000000 0.000000 0.000000
# 2 -0.009992 0.032053 -0.007002 0.000000 0.000000 0.000000
# 3 -0.003678 -0.007002 0.013597 0.000000 0.000000 0.000000
# 4 0.000000 0.000000 0.000000 0.061097 0.000000 0.000000
# 5 0.000000 0.000000 0.000000 0.000000 0.112660 0.000000
# 6 0.000000 0.000000 0.000000 0.000000 0.000000 0.084866
#
#
# Mechanical properties :
#
#
# Convention : Reuss Voigt Hill
#
# Bulk Modulus (GPa) = 46.13890 52.43120 49.28505
# Shear Modulus (GPa) = 13.50595 15.84378 14.67486
#
# Velocity S-wave (km/s) = 2.90711 3.14868 3.03030
# Velocity P-wave (km/s) = 6.33559 6.78436 6.56381
#
# Compressibility (1/GPa) = 0.02167369
#
# Stress axis : x y z
#
# Youngs Moduli (GPa) = 57.58415 31.19803 73.54340
#
# Poissons Ratio (x) = 0.31173 0.27047
# Poissons Ratio (y) = 0.57539 0.51493
# Poissons Ratio (z) = 0.21177 0.21844
#
# Static dielectric constant tensor:
#      x y z
#    x 3.214830 0.000000 0.000000 
#    y 0.000000 2.726930 0.000000 
#    z 0.000000 0.000000 3.259570 
# 
# 
# High freq. dielectric constant tensor:
#      x y z
#    x 1.601960 0.000000 0.000000 
#    y 0.000000 1.579280 0.000000 
#    z 0.000000 0.000000 1.607840 
# 
# From -- ./inp_files/25059.got.cif
#   From: 2010.03.12/outbox.cif.g09.slc.cpg/sg38_13_cif.got.tgz:25059.got - 2010.04.14 02:38:36.
