data_PCOD8177574
_publ_section_title
;
Structure prediction by ZEFSAII (Michael W. Deem and Ramdas Pophale) SiO2 
 PCOD8177574
Probable space group: A M M 2
;
_chemical_formula_sum "Si O2"
_cell_formula_units_Z 32
_cell_length_a 10.504517
_cell_length_b 8.694949
_cell_length_c 18.907202
_cell_angle_alpha 90.000000
_cell_angle_beta 90.000000
_cell_angle_gamma 90.000000
_cell_volume 1726.912732
_symmetry_space_group_name_H-M "A M M 2"
_symmetry_group_IT_number 38
_symmetry_cell_setting 'orthorhombic'
loop_
_space_group_symop_operation_xyz
x,y,z
-x,-y,z
-x,y,z
x,-y,z
x,1/2+y,1/2+z
-x,1/2-y,1/2+z
-x,1/2+y,1/2+z
x,1/2-y,1/2+z
loop_
_atom_site_type_symbol
_atom_site_label
_atom_site_fract_x
_atom_site_fract_y
_atom_site_fract_z
Si Si1 0.000000 0.682994 0.971640
Si Si2 0.500000 0.170329 0.216092
Si Si3 0.229116 0.315387 0.875547
Si Si4 0.500000 0.168174 0.383845
Si Si5 0.763083 0.182227 0.722497
Si Si6 0.000000 0.182500 0.630087
O O1 0.123966 0.743625 0.930310
O O2 0.000000 0.500000 0.972585
O O3 0.000000 0.750994 0.050641
O O4 0.500000 0.155434 0.299689
O O5 0.372374 0.259416 0.192229
O O6 0.500000 0.000000 0.181845
O O7 0.234125 0.500000 0.869315
O O8 0.366440 0.250223 0.904560
O O9 0.199575 0.249354 0.798597
O O10 0.500000 0.000000 0.419214
O O11 0.873013 0.240192 0.669442
O O12 0.757906 0.000000 0.728214
O O13 0.000000 0.000000 0.626965
#
# Coordination Sequence:
#
# PCOD8177574 Si02
#       6
#     4   4   8   4   8   4
#     4   9  17  30  47  67  94 129 168 204 234 275
#     4   9  17  31  50  73  99 123 159 207 244 284
#     4   9  16  28  48  70  92 121 160 203 240 278
#     4   7  12  23  40  65  89 107 137 187 238 272
#     4  10  18  30  50  74 101 130 159 196 246 297
#     4   9  19  32  45  69 104 135 164 200 240 287
#
# _framework density 18.530179
#
# number of rings (size 3 to 8) (size 9 to 14) (size 15 to 20)
#    0.000    3.000    0.000    3.375    0.000    0.000 
#    0.000    3.125    0.000   12.000    0.000    0.000 
#    0.000    0.000    0.000    0.000    0.000    0.000 
#
# Total GULP energy -198251.849305 kJ/mol
# GULP energy per Si atom -12390.740582 kJ/mol
# Density = 1.848800 g / cm^3
# Si number density = 18.530179 Si / 1000 Ang^3
#
#
#
# Elastic Constant Matrix: (Units=GPa)
#
#
# Indices 1 2 3 4 5 6 
#
# 1 218.2567 29.8347 95.3365 0.0000 0.0000 0.0000
# 2 29.8347 45.2728 20.5151 0.0000 0.0000 0.0000
# 3 95.3365 20.5151 112.0542 0.0000 0.0000 0.0000
# 4 0.0000 0.0000 0.0000 15.9340 0.0000 0.0000
# 5 0.0000 0.0000 0.0000 0.0000 6.7206 0.0000
# 6 0.0000 0.0000 0.0000 0.0000 0.0000 21.0841
#
#
#
# Elastic Compliance Matrix: (Units=1/GPa)
#
#
# Indices 1 2 3 4 5 6 
#
# 1 0.007493 -0.002235 -0.005966 0.000000 0.000000 0.000000
# 2 -0.002235 0.024753 -0.002631 0.000000 0.000000 0.000000
# 3 -0.005966 -0.002631 0.014482 0.000000 0.000000 0.000000
# 4 0.000000 0.000000 0.000000 0.062759 0.000000 0.000000
# 5 0.000000 0.000000 0.000000 0.000000 0.148797 0.000000
# 6 0.000000 0.000000 0.000000 0.000000 0.000000 0.047429
#
#
# Mechanical properties :
#
#
# Convention : Reuss Voigt Hill
#
# Bulk Modulus (GPa) = 39.89571 74.10624 57.00098
# Shear Modulus (GPa) = 14.89286 24.07424 19.48355
#
# Velocity S-wave (km/s) = 2.83805 3.60834 3.24612
# Velocity P-wave (km/s) = 5.68474 7.57886 6.69908
#
# Compressibility (1/GPa) = 0.02506535
#
# Stress axis : x y z
#
# Youngs Moduli (GPa) = 133.45195 40.39931 69.05108
#
# Poissons Ratio (x) = 0.09027 0.41198
# Poissons Ratio (y) = 0.29820 0.18165
# Poissons Ratio (z) = 0.79621 0.10628
#
# Static dielectric constant tensor:
#      x y z
#    x 4.053920 0.000000 0.000000 
#    y 0.000000 3.100020 0.000000 
#    z 0.000000 0.000000 3.205880 
# 
# 
# High freq. dielectric constant tensor:
#      x y z
#    x 1.748360 0.000000 0.000000 
#    y 0.000000 1.683390 0.000000 
#    z 0.000000 0.000000 1.680300 
# 
# From -- ./inp_files/13328.got.cif
#   From: 2010.03.12/outbox.cif.g09.slc.cpg/sg38_7_cif.got.tgz:13328.got - 2010.04.14 02:38:36.
