data_PCOD8177675
_publ_section_title
;
Structure prediction by ZEFSAII (Michael W. Deem and Ramdas Pophale) SiO2 
 PCOD8177675
Probable space group: A M M 2
;
_chemical_formula_sum "Si O2"
_cell_formula_units_Z 64
_cell_length_a 19.969424
_cell_length_b 9.300657
_cell_length_c 20.031246
_cell_angle_alpha 90.000000
_cell_angle_beta 90.000000
_cell_angle_gamma 90.000000
_cell_volume 3720.378543
_symmetry_space_group_name_H-M "A M M 2"
_symmetry_group_IT_number 38
_symmetry_cell_setting 'orthorhombic'
loop_
_space_group_symop_operation_xyz
x,y,z
-x,-y,z
-x,y,z
x,-y,z
x,1/2+y,1/2+z
-x,1/2-y,1/2+z
-x,1/2+y,1/2+z
x,1/2-y,1/2+z
loop_
_atom_site_type_symbol
_atom_site_label
_atom_site_fract_x
_atom_site_fract_y
_atom_site_fract_z
Si Si1 0.291984 0.664922 0.655100
Si Si2 0.840753 0.669425 0.183779
Si Si3 0.923424 0.668771 0.582657
Si Si4 0.671015 0.665197 0.799042
Si Si5 0.674512 0.666885 0.509375
Si Si6 0.575834 0.668669 0.914401
Si Si7 0.198445 0.833474 0.827956
Si Si8 0.178261 0.831363 0.972759
O O1 0.265952 0.500000 0.656565
O O2 0.227570 0.767300 0.653573
O O3 0.338001 0.699206 0.720015
O O4 0.335792 0.691067 0.588847
O O5 0.842777 0.500000 0.170077
O O6 0.903945 0.746103 0.149768
O O7 0.845365 0.705693 0.262942
O O8 0.911936 0.500000 0.594861
O O9 0.878199 0.731867 0.522043
O O10 0.000000 0.702184 0.564735
O O11 0.689821 0.500000 0.809519
O O12 0.604464 0.705112 0.840476
O O13 0.731463 0.753353 0.829908
O O14 0.667804 0.500000 0.489706
O O15 0.617204 0.753712 0.472068
O O16 0.747789 0.728432 0.489659
O O17 0.500000 0.725683 0.916233
O O18 0.579292 0.500000 0.928796
O O19 0.158777 0.793267 0.896019
O O20 0.217458 0.000000 0.827261
O O21 0.179549 0.000000 0.984873
#
# Coordination Sequence:
#
# PCOD8177675 Si02
#       8
#     8   8   8   8   8   8   8   8
#     4   9  17  31  51  75 100 125 163 211 250 288
#     4  10  19  30  48  75 104 131 160 200 251 302
#     4  10  20  35  54  73  98 136 174 206 248 301
#     4   9  17  30  49  72  97 127 164 202 243 291
#     4  10  18  31  53  76 100 129 166 214 253 290
#     4  10  21  35  49  70 104 139 168 202 251 309
#     4   9  17  30  49  73 100 127 158 202 251 289
#     4   9  16  30  51  75 100 126 164 211 249 288
#
# _framework density 17.202551
#
# number of rings (size 3 to 8) (size 9 to 14) (size 15 to 20)
#    0.000    2.500    2.500    0.375    0.000    1.500 
#    0.000    1.875    0.000    4.500    0.000    0.000 
#    0.000    0.000    0.000    0.000    0.000    0.000 
#
# Total GULP energy -396675.707172 kJ/mol
# GULP energy per Si atom -12396.115849 kJ/mol
# Density = 1.716340 g / cm^3
# Si number density = 17.202551 Si / 1000 Ang^3
#
#
#
# Elastic Constant Matrix: (Units=GPa)
#
#
# Indices 1 2 3 4 5 6 
#
# 1 117.1248 39.2660 74.1256 0.0000 0.0000 0.0000
# 2 39.2660 43.8560 39.1333 0.0000 0.0000 0.0000
# 3 74.1256 39.1333 138.0582 0.0000 0.0000 0.0000
# 4 0.0000 0.0000 0.0000 24.1085 0.0000 0.0000
# 5 0.0000 0.0000 0.0000 0.0000 26.0363 0.0000
# 6 0.0000 0.0000 0.0000 0.0000 0.0000 22.3021
#
#
#
# Elastic Compliance Matrix: (Units=1/GPa)
#
#
# Indices 1 2 3 4 5 6 
#
# 1 0.014891 -0.008297 -0.005643 0.000000 0.000000 0.000000
# 2 -0.008297 0.035144 -0.005507 0.000000 0.000000 0.000000
# 3 -0.005643 -0.005507 0.011834 0.000000 0.000000 0.000000
# 4 0.000000 0.000000 0.000000 0.041479 0.000000 0.000000
# 5 0.000000 0.000000 0.000000 0.000000 0.038408 0.000000
# 6 0.000000 0.000000 0.000000 0.000000 0.000000 0.044839
#
#
# Mechanical properties :
#
#
# Convention : Reuss Voigt Hill
#
# Bulk Modulus (GPa) = 43.52550 67.12097 55.32323
# Shear Modulus (GPa) = 21.44551 24.25698 22.85125
#
# Velocity S-wave (km/s) = 3.53462 3.75918 3.64863
# Velocity P-wave (km/s) = 6.48188 7.61214 7.06963
#
# Compressibility (1/GPa) = 0.02297504
#
# Stress axis : x y z
#
# Youngs Moduli (GPa) = 67.15466 28.45398 84.49919
#
# Poissons Ratio (x) = 0.23608 0.47687
# Poissons Ratio (y) = 0.55717 0.46536
# Poissons Ratio (z) = 0.37898 0.15670
#
# Static dielectric constant tensor:
#      x y z
#    x 3.033110 0.000000 0.000000 
#    y 0.000000 3.102050 0.000000 
#    z 0.000000 0.000000 3.599060 
# 
# 
# High freq. dielectric constant tensor:
#      x y z
#    x 1.631310 0.000000 0.000000 
#    y 0.000000 1.649750 0.000000 
#    z 0.000000 0.000000 1.682650 
# 
# From -- ./inp_files/21390.got.cif
#   From: 2010.03.12/outbox.cif.g09.slc.cpg/sg38_11_cif.got.tgz:21390.got - 2010.04.14 02:38:36.
