data_PCOD8177634
_publ_section_title
;
Structure prediction by ZEFSAII (Michael W. Deem and Ramdas Pophale) SiO2 
 PCOD8177634
Probable space group: A M M 2
;
_chemical_formula_sum "Si O2"
_cell_formula_units_Z 64
_cell_length_a 9.040226
_cell_length_b 19.889641
_cell_length_c 20.732810
_cell_angle_alpha 90.000000
_cell_angle_beta 90.000000
_cell_angle_gamma 90.000000
_cell_volume 3727.901252
_symmetry_space_group_name_H-M "A M M 2"
_symmetry_group_IT_number 38
_symmetry_cell_setting 'orthorhombic'
loop_
_space_group_symop_operation_xyz
x,y,z
-x,-y,z
-x,y,z
x,-y,z
x,1/2+y,1/2+z
-x,1/2-y,1/2+z
-x,1/2+y,1/2+z
x,1/2-y,1/2+z
loop_
_atom_site_type_symbol
_atom_site_label
_atom_site_fract_x
_atom_site_fract_y
_atom_site_fract_z
Si Si1 0.172199 0.924395 0.420210
Si Si2 0.675885 0.784667 0.993473
Si Si3 0.824943 0.927172 0.565056
Si Si4 0.675161 0.572643 0.530784
Si Si5 0.326866 0.287592 0.728234
Si Si6 0.824311 0.286869 0.114503
Si Si7 0.672126 0.200333 0.371919
Si Si8 0.324697 0.572870 0.675995
O O1 0.235343 0.915022 0.492695
O O2 0.253651 0.872587 0.373677
O O3 0.000000 0.907751 0.418132
O O4 0.204195 0.000000 0.395757
O O5 0.500000 0.777755 0.002201
O O6 0.733183 0.749140 0.928170
O O7 0.724937 0.863296 0.988052
O O8 0.752641 0.752996 0.055584
O O9 0.775691 0.865446 0.610194
O O10 0.000000 0.930740 0.560326
O O11 0.765921 0.000000 0.591171
O O12 0.500000 0.569935 0.532823
O O13 0.734077 0.500000 0.503708
O O14 0.735076 0.583430 0.603341
O O15 0.500000 0.281342 0.710743
O O16 0.234989 0.238207 0.682864
O O17 0.295265 0.266715 0.802171
O O18 0.269650 0.364475 0.718779
O O19 0.000000 0.278184 0.110893
O O20 0.500000 0.188341 0.381415
O O21 0.500000 0.571791 0.675614
O O22 0.266703 0.500000 0.702359
#
# Coordination Sequence:
#
# PCOD8177634 Si02
#       8
#     8   8   8   8   8   8   8   8
#     4   9  17  31  50  70  98 136 169 201 245 293
#     4  10  18  31  50  72  97 124 157 202 247 287
#     4   8  15  29  49  72  96 123 159 201 244 292
#     4   8  13  23  44  70  89 113 155 196 230 277
#     4  10  20  34  48  67 100 136 161 197 245 289
#     4  11  20  31  52  77  95 123 166 205 242 289
#     4  10  21  32  47  72 101 133 167 200 245 297
#     4   8  13  23  42  65  86 118 162 192 218 270
#
# _framework density 17.167836999999999
#
# number of rings (size 3 to 8) (size 9 to 14) (size 15 to 20)
#    0.000    2.750    2.500    1.875    0.000    1.250 
#    0.000    1.250    0.000    3.750    0.000    1.750 
#    0.000    0.000    0.000    0.000    0.000    0.000 
#
# Total GULP energy -396500.183440 kJ/mol
# GULP energy per Si atom -12390.630733 kJ/mol
# Density = 1.712876 g / cm^3
# Si number density = 17.167837 Si / 1000 Ang^3
#
#
#
# Elastic Constant Matrix: (Units=GPa)
#
#
# Indices 1 2 3 4 5 6 
#
# 1 27.8656 29.4361 26.4868 0.0000 0.0000 0.0000
# 2 29.4361 136.3946 58.9145 0.0000 0.0000 0.0000
# 3 26.4868 58.9145 89.8980 0.0000 0.0000 0.0000
# 4 0.0000 0.0000 0.0000 24.5171 0.0000 0.0000
# 5 0.0000 0.0000 0.0000 0.0000 16.4333 0.0000
# 6 0.0000 0.0000 0.0000 0.0000 0.0000 20.6200
#
#
#
# Elastic Compliance Matrix: (Units=1/GPa)
#
#
# Indices 1 2 3 4 5 6 
#
# 1 0.053851 -0.006651 -0.011507 0.000000 0.000000 0.000000
# 2 -0.006651 0.011048 -0.005281 0.000000 0.000000 0.000000
# 3 -0.011507 -0.005281 0.017975 0.000000 0.000000 0.000000
# 4 0.000000 0.000000 0.000000 0.040788 0.000000 0.000000
# 5 0.000000 0.000000 0.000000 0.000000 0.060852 0.000000
# 6 0.000000 0.000000 0.000000 0.000000 0.000000 0.048497
#
#
# Mechanical properties :
#
#
# Convention : Reuss Voigt Hill
#
# Bulk Modulus (GPa) = 27.78153 53.75922 40.77038
# Shear Modulus (GPa) = 17.12996 21.60214 19.36605
#
# Velocity S-wave (km/s) = 3.16221 3.55109 3.36228
# Velocity P-wave (km/s) = 5.43601 6.94230 6.23481
#
# Compressibility (1/GPa) = 0.03599513
#
# Stress axis : x y z
#
# Youngs Moduli (GPa) = 18.56992 90.51359 55.63375
#
# Poissons Ratio (x) = 0.60204 0.64018
# Poissons Ratio (y) = 0.12352 0.29378
# Poissons Ratio (z) = 0.21369 0.47797
#
# Static dielectric constant tensor:
#      x y z
#    x 2.832090 0.000000 0.000000 
#    y 0.000000 3.857410 0.000000 
#    z 0.000000 0.000000 3.075210 
# 
# 
# High freq. dielectric constant tensor:
#      x y z
#    x 1.623810 0.000000 0.000000 
#    y 0.000000 1.675600 0.000000 
#    z 0.000000 0.000000 1.635990 
# 
# From -- ./inp_files/20211.got.cif
#   From: 2010.03.12/outbox.cif.g09.slc.cpg/sg38_11_cif.got.tgz:20211.got - 2010.04.14 02:38:36.
