data_PCOD8177293
_publ_section_title
;
Structure prediction by ZEFSAII (Michael W. Deem and Ramdas Pophale) SiO2 
 PCOD8177293
Probable space group: A M M 2
;
_chemical_formula_sum "Si O2"
_cell_formula_units_Z 56
_cell_length_a 8.943201
_cell_length_b 16.253220
_cell_length_c 23.242509
_cell_angle_alpha 90.000000
_cell_angle_beta 90.000000
_cell_angle_gamma 90.000000
_cell_volume 3378.433800
_symmetry_space_group_name_H-M "A M M 2"
_symmetry_group_IT_number 38
_symmetry_cell_setting 'orthorhombic'
loop_
_space_group_symop_operation_xyz
x,y,z
-x,-y,z
-x,y,z
x,-y,z
x,1/2+y,1/2+z
-x,1/2-y,1/2+z
-x,1/2+y,1/2+z
x,1/2-y,1/2+z
loop_
_atom_site_type_symbol
_atom_site_label
_atom_site_fract_x
_atom_site_fract_y
_atom_site_fract_z
Si Si1 0.822972 0.500000 0.630821
Si Si2 0.822134 0.000000 0.000606
Si Si3 0.172300 0.906277 0.549075
Si Si4 0.822914 0.842073 0.197135
Si Si5 0.177597 0.906985 0.318231
Si Si6 0.323089 0.331468 0.489585
Si Si7 0.826275 0.316911 0.932191
Si Si8 0.324387 0.259747 0.105242
O O1 0.765536 0.500000 0.566065
O O2 0.760010 0.420568 0.662889
O O3 0.000000 0.500000 0.634090
O O4 0.754606 0.917606 0.972583
O O5 0.000000 0.000000 0.993818
O O6 0.199385 0.881966 0.483004
O O7 0.272569 0.851929 0.591358
O O8 0.000000 0.893072 0.565872
O O9 0.222603 0.000000 0.557150
O O10 0.771322 0.853027 0.263158
O O11 0.748240 0.763869 0.166441
O O12 0.000000 0.832993 0.192288
O O13 0.236035 0.860030 0.374633
O O14 0.000000 0.913924 0.319398
O O15 0.243571 0.000000 0.315351
O O16 0.500000 0.341242 0.485698
O O17 0.268497 0.265441 0.442726
O O18 0.272089 0.301081 0.553347
O O19 0.000000 0.292476 0.926438
O O20 0.500000 0.258227 0.111945
#
# Coordination Sequence:
#
# PCOD8177293 Si02
#       8
#     4   4   8   8   8   8   8   8
#     4   9  16  25  43  69  97 125 155 188 225 270
#     4  11  19  29  49  73  95 123 159 198 237 280
#     4   9  17  30  49  71  94 121 156 196 237 279
#     4  10  17  29  47  70  98 128 159 191 229 275
#     4   9  16  27  48  75  99 124 158 197 233 271
#     4  10  20  32  45  66  97 130 160 193 236 284
#     4   9  17  30  48  71  97 125 158 195 232 275
#     4  10  20  31  44  66  97 129 159 192 233 280
#
# _framework density 16.575728999999999
#
# number of rings (size 3 to 8) (size 9 to 14) (size 15 to 20)
#    0.000    2.429    2.143    1.500    0.000    3.143 
#    0.000    1.071    0.000    2.143    1.857    0.000 
#    0.000    0.000    0.000    0.000    0.000    0.000 
#
# Total GULP energy -347178.477599 kJ/mol
# GULP energy per Si atom -12399.231343 kJ/mol
# Density = 1.653800 g / cm^3
# Si number density = 16.575729 Si / 1000 Ang^3
#
#
#
# Elastic Constant Matrix: (Units=GPa)
#
#
# Indices 1 2 3 4 5 6 
#
# 1 49.4081 40.6633 29.6170 0.0000 0.0000 0.0000
# 2 40.6633 123.9086 57.9064 0.0000 0.0000 0.0000
# 3 29.6170 57.9064 107.7736 0.0000 0.0000 0.0000
# 4 0.0000 0.0000 0.0000 26.5619 0.0000 0.0000
# 5 0.0000 0.0000 0.0000 0.0000 14.0110 0.0000
# 6 0.0000 0.0000 0.0000 0.0000 0.0000 16.4933
#
#
#
# Elastic Compliance Matrix: (Units=1/GPa)
#
#
# Indices 1 2 3 4 5 6 
#
# 1 0.028845 -0.007693 -0.003793 0.000000 0.000000 0.000000
# 2 -0.007693 0.012828 -0.004778 0.000000 0.000000 0.000000
# 3 -0.003793 -0.004778 0.012889 0.000000 0.000000 0.000000
# 4 0.000000 0.000000 0.000000 0.037648 0.000000 0.000000
# 5 0.000000 0.000000 0.000000 0.000000 0.071373 0.000000
# 6 0.000000 0.000000 0.000000 0.000000 0.000000 0.060631
#
#
# Mechanical properties :
#
#
# Convention : Reuss Voigt Hill
#
# Bulk Modulus (GPa) = 45.38876 59.71820 52.55348
# Shear Modulus (GPa) = 18.93315 21.60682 20.26998
#
# Velocity S-wave (km/s) = 3.38334 3.61435 3.50075
# Velocity P-wave (km/s) = 6.53489 7.31599 6.93644
#
# Compressibility (1/GPa) = 0.02203189
#
# Stress axis : x y z
#
# Youngs Moduli (GPa) = 34.66786 77.95243 77.58836
#
# Poissons Ratio (x) = 0.59972 0.29431
# Poissons Ratio (y) = 0.26672 0.37075
# Poissons Ratio (z) = 0.13150 0.37249
#
# Static dielectric constant tensor:
#      x y z
#    x 2.848630 0.000000 0.000000 
#    y 0.000000 3.124390 0.000000 
#    z 0.000000 0.000000 3.068710 
# 
# 
# High freq. dielectric constant tensor:
#      x y z
#    x 1.619230 0.000000 0.000000 
#    y 0.000000 1.635470 0.000000 
#    z 0.000000 0.000000 1.616440 
# 
# From -- ./inp_files/19871.got.cif
#   From: 2010.03.12/outbox.cif.g09.slc.cpg/sg38_10_cif.got.tgz:19871.got - 2010.04.14 02:38:36.
