data_PCOD8177376
_publ_section_title
;
Structure prediction by ZEFSAII (Michael W. Deem and Ramdas Pophale) SiO2 
 PCOD8177376
Probable space group: A M M 2
;
_chemical_formula_sum "Si O2"
_cell_formula_units_Z 64
_cell_length_a 8.615804
_cell_length_b 18.493045
_cell_length_c 26.414175
_cell_angle_alpha 90.000000
_cell_angle_beta 90.000000
_cell_angle_gamma 90.000000
_cell_volume 4208.635246
_symmetry_space_group_name_H-M "A M M 2"
_symmetry_group_IT_number 38
_symmetry_cell_setting 'orthorhombic'
loop_
_space_group_symop_operation_xyz
x,y,z
-x,-y,z
-x,y,z
x,-y,z
x,1/2+y,1/2+z
-x,1/2-y,1/2+z
-x,1/2+y,1/2+z
x,1/2-y,1/2+z
loop_
_atom_site_type_symbol
_atom_site_label
_atom_site_fract_x
_atom_site_fract_y
_atom_site_fract_z
Si Si1 0.683032 0.417826 0.023830
Si Si2 0.815988 0.917995 0.025547
Si Si3 0.319417 0.789525 0.973871
Si Si4 0.818989 0.659440 0.927136
Si Si5 0.320061 0.083767 0.333512
Si Si6 0.819910 0.344410 0.627573
Si Si7 0.180160 0.288450 0.068008
Si Si8 0.820022 0.083993 0.227704
O O1 0.500000 0.411715 0.029791
O O2 0.740069 0.500000 0.029489
O O3 0.765072 0.372016 0.069559
O O4 0.730278 0.388768 0.968680
O O5 0.746725 0.870893 0.979226
O O6 0.751484 0.888254 0.079437
O O7 0.000000 0.910837 0.023826
O O8 0.759814 0.000000 0.018376
O O9 0.500000 0.792941 0.961631
O O10 0.287285 0.747590 0.025751
O O11 0.234904 0.743498 0.929702
O O12 0.781800 0.630570 0.871606
O O13 0.000000 0.653533 0.938213
O O14 0.500000 0.098979 0.343495
O O15 0.276859 0.107353 0.276756
O O16 0.278066 0.000000 0.341790
O O17 0.793225 0.257576 0.619673
O O18 0.747156 0.370657 0.680602
O O19 0.000000 0.364069 0.630835
O O20 0.000000 0.283041 0.051848
O O21 0.000000 0.102183 0.237721
O O22 0.797059 0.000000 0.214799
#
# Coordination Sequence:
#
# PCOD8177376 Si02
#       8
#     8   8   8   8   8   8   8   8
#     4  10  19  29  41  59  84 111 137 168 208 249
#     4   9  16  27  43  62  85 113 144 175 205 239
#     4  10  18  28  41  58  83 110 136 169 208 247
#     4  11  20  30  45  61  78 105 142 175 205 245
#     4  10  20  32  43  58  83 110 136 170 210 246
#     4   8  14  25  42  62  82 108 141 174 206 237
#     4   9  16  27  42  59  80 107 140 173 204 241
#     4   9  16  27  43  61  81 107 140 173 202 236
#
# _framework density 15.20683
#
# number of rings (size 3 to 8) (size 9 to 14) (size 15 to 20)
#    0.000    2.500    0.000    6.375    0.000    5.000 
#    0.000    3.125    0.000    3.000    0.000    0.000 
#    0.000    1.000    0.000    5.250    0.000    4.875 
#
# Total GULP energy -396615.167968 kJ/mol
# GULP energy per Si atom -12394.223999 kJ/mol
# Density = 1.517222 g / cm^3
# Si number density = 15.206830 Si / 1000 Ang^3
#
#
#
# Elastic Constant Matrix: (Units=GPa)
#
#
# Indices 1 2 3 4 5 6 
#
# 1 41.4684 25.7763 17.9492 0.0000 0.0000 0.0000
# 2 25.7763 114.9590 49.4109 0.0000 0.0000 0.0000
# 3 17.9492 49.4109 73.4415 0.0000 0.0000 0.0000
# 4 0.0000 0.0000 0.0000 28.0187 0.0000 0.0000
# 5 0.0000 0.0000 0.0000 0.0000 10.3257 0.0000
# 6 0.0000 0.0000 0.0000 0.0000 0.0000 21.8806
#
#
#
# Elastic Compliance Matrix: (Units=1/GPa)
#
#
# Indices 1 2 3 4 5 6 
#
# 1 0.028748 -0.004820 -0.003783 0.000000 0.000000 0.000000
# 2 -0.004820 0.013046 -0.007599 0.000000 0.000000 0.000000
# 3 -0.003783 -0.007599 0.019654 0.000000 0.000000 0.000000
# 4 0.000000 0.000000 0.000000 0.035690 0.000000 0.000000
# 5 0.000000 0.000000 0.000000 0.000000 0.096846 0.000000
# 6 0.000000 0.000000 0.000000 0.000000 0.000000 0.045703
#
#
# Mechanical properties :
#
#
# Convention : Reuss Voigt Hill
#
# Bulk Modulus (GPa) = 34.43178 46.23797 40.33488
# Shear Modulus (GPa) = 17.74487 21.16051 19.45269
#
# Velocity S-wave (km/s) = 3.41970 3.73435 3.58048
# Velocity P-wave (km/s) = 6.18740 7.00470 6.60870
#
# Compressibility (1/GPa) = 0.02904293
#
# Stress axis : x y z
#
# Youngs Moduli (GPa) = 34.78471 76.65406 50.88150
#
# Poissons Ratio (x) = 0.36946 0.19250
# Poissons Ratio (y) = 0.16766 0.38665
# Poissons Ratio (z) = 0.13160 0.58250
#
# Static dielectric constant tensor:
#      x y z
#    x 2.864070 0.000000 0.000000 
#    y 0.000000 3.234880 0.000000 
#    z 0.000000 0.000000 2.805860 
# 
# 
# High freq. dielectric constant tensor:
#      x y z
#    x 1.583630 0.000000 0.000000 
#    y 0.000000 1.576190 0.000000 
#    z 0.000000 0.000000 1.545160 
# 
# From -- ./inp_files/23649.got.cif
#   From: 2010.03.12/outbox.cif.g09.slc.cpg/sg38_12_cif.got.tgz:23649.got - 2010.04.14 02:38:36.
