data_PCOD8177486
_publ_section_title
;
Structure prediction by ZEFSAII (Michael W. Deem and Ramdas Pophale) SiO2 
 PCOD8177486
Probable space group: A M M 2
;
_chemical_formula_sum "Si O2"
_cell_formula_units_Z 64
_cell_length_a 9.086037
_cell_length_b 27.351343
_cell_length_c 14.704005
_cell_angle_alpha 90.000000
_cell_angle_beta 90.000000
_cell_angle_gamma 90.000000
_cell_volume 3654.170427
_symmetry_space_group_name_H-M "A M M 2"
_symmetry_group_IT_number 38
_symmetry_cell_setting 'orthorhombic'
loop_
_space_group_symop_operation_xyz
x,y,z
-x,-y,z
-x,y,z
x,-y,z
x,1/2+y,1/2+z
-x,1/2-y,1/2+z
-x,1/2+y,1/2+z
x,1/2-y,1/2+z
loop_
_atom_site_type_symbol
_atom_site_label
_atom_site_fract_x
_atom_site_fract_y
_atom_site_fract_z
Si Si1 0.330477 0.827421 0.269310
Si Si2 0.330332 0.443153 0.289762
Si Si3 0.173486 0.782859 0.589425
Si Si4 0.325601 0.446348 0.084627
Si Si5 0.173078 0.638619 0.396735
Si Si6 0.325708 0.284439 0.272642
Si Si7 0.830596 0.329379 0.592750
Si Si8 0.327193 0.356927 0.965606
O O1 0.500000 0.827670 0.244397
O O2 0.279840 0.771782 0.289034
O O3 0.250786 0.850382 0.181686
O O4 0.296277 0.860321 0.357767
O O5 0.500000 0.427381 0.302476
O O6 0.309627 0.500000 0.312801
O O7 0.277383 0.431922 0.186804
O O8 0.228463 0.412720 0.357591
O O9 0.255033 0.803497 0.678729
O O10 0.215718 0.726510 0.573864
O O11 0.235391 0.811512 0.503035
O O12 0.000000 0.791272 0.599198
O O13 0.500000 0.449357 0.082034
O O14 0.261011 0.500000 0.059142
O O15 0.267957 0.406598 0.012475
O O16 0.258636 0.684059 0.353679
O O17 0.208341 0.638551 0.504412
O O18 0.000000 0.645116 0.378708
O O19 0.500000 0.292351 0.269057
O O20 0.000000 0.332379 0.617077
O O21 0.500000 0.348254 0.984910
#
# Coordination Sequence:
#
# PCOD8177486 Si02
#       8
#     8   8   8   8   8   8   8   8
#     4   9  19  32  47  69  95 126 165 204 238 279
#     4   9  18  33  52  74  99 127 158 192 238 295
#     4  10  19  31  47  69  97 128 162 197 235 283
#     4   8  15  29  49  71  95 122 149 181 228 285
#     4  11  21  32  49  73  97 125 164 202 241 292
#     4  10  19  31  46  67  98 131 160 195 241 287
#     4   9  20  35  48  65  94 131 165 198 237 283
#     4  10  18  29  48  73  97 122 157 197 238 285
#
# _framework density 17.514236
#
# number of rings (size 3 to 8) (size 9 to 14) (size 15 to 20)
#    0.000    2.500    0.000    3.375    0.000    3.750 
#    0.000    0.000    0.000    1.875    0.000    1.750 
#    0.000    0.000    0.000    0.000    0.000    0.000 
#
# Total GULP energy -396794.869987 kJ/mol
# GULP energy per Si atom -12399.839687 kJ/mol
# Density = 1.747437 g / cm^3
# Si number density = 17.514236 Si / 1000 Ang^3
#
#
#
# Elastic Constant Matrix: (Units=GPa)
#
#
# Indices 1 2 3 4 5 6 
#
# 1 61.9478 29.5606 50.1259 0.0000 0.0000 0.0000
# 2 29.5606 73.8813 59.8099 0.0000 0.0000 0.0000
# 3 50.1259 59.8099 131.1419 0.0000 0.0000 0.0000
# 4 0.0000 0.0000 0.0000 27.0859 0.0000 0.0000
# 5 0.0000 0.0000 0.0000 0.0000 28.8881 0.0000
# 6 0.0000 0.0000 0.0000 0.0000 0.0000 19.7051
#
#
#
# Elastic Compliance Matrix: (Units=1/GPa)
#
#
# Indices 1 2 3 4 5 6 
#
# 1 0.023909 -0.003437 -0.007571 0.000000 0.000000 0.000000
# 2 -0.003437 0.021952 -0.008698 0.000000 0.000000 0.000000
# 3 -0.007571 -0.008698 0.014486 0.000000 0.000000 0.000000
# 4 0.000000 0.000000 0.000000 0.036920 0.000000 0.000000
# 5 0.000000 0.000000 0.000000 0.000000 0.034616 0.000000
# 6 0.000000 0.000000 0.000000 0.000000 0.000000 0.050748
#
#
# Mechanical properties :
#
#
# Convention : Reuss Voigt Hill
#
# Bulk Modulus (GPa) = 47.76746 60.66264 54.21505
# Shear Modulus (GPa) = 21.83209 23.63415 22.73312
#
# Velocity S-wave (km/s) = 3.53446 3.67744 3.60666
# Velocity P-wave (km/s) = 6.63244 7.26242 6.95457
#
# Compressibility (1/GPa) = 0.02093475
#
# Stress axis : x y z
#
# Youngs Moduli (GPa) = 41.82518 45.55482 69.03239
#
# Poissons Ratio (x) = 0.15658 0.52265
# Poissons Ratio (y) = 0.14376 0.60042
# Poissons Ratio (z) = 0.31666 0.39622
#
# Static dielectric constant tensor:
#      x y z
#    x 3.143950 0.000000 0.000000 
#    y 0.000000 3.266370 0.000000 
#    z 0.000000 0.000000 3.343720 
# 
# 
# High freq. dielectric constant tensor:
#      x y z
#    x 1.667450 0.000000 0.000000 
#    y 0.000000 1.654620 0.000000 
#    z 0.000000 0.000000 1.677550 
# 
# From -- ./inp_files/8545.got.cif
#   From: 2010.03.12/outbox.cif.g09.slc.cpg/sg38_5_cif.got.tgz:8545.got - 2010.04.14 02:38:36.
