data_PCOD8177560
_publ_section_title
;
Structure prediction by ZEFSAII (Michael W. Deem and Ramdas Pophale) SiO2 
 PCOD8177560
Probable space group: A M M 2
;
_chemical_formula_sum "Si O2"
_cell_formula_units_Z 40
_cell_length_a 13.827232
_cell_length_b 13.630757
_cell_length_c 12.847567
_cell_angle_alpha 90.000000
_cell_angle_beta 90.000000
_cell_angle_gamma 90.000000
_cell_volume 2421.453405
_symmetry_space_group_name_H-M "A M M 2"
_symmetry_group_IT_number 38
_symmetry_cell_setting 'orthorhombic'
loop_
_space_group_symop_operation_xyz
x,y,z
-x,-y,z
-x,y,z
x,-y,z
x,1/2+y,1/2+z
-x,1/2-y,1/2+z
-x,1/2+y,1/2+z
x,1/2-y,1/2+z
loop_
_atom_site_type_symbol
_atom_site_label
_atom_site_fract_x
_atom_site_fract_y
_atom_site_fract_z
Si Si1 0.391030 0.269788 0.061580
Si Si2 0.742379 0.228323 0.752603
Si Si3 0.606566 0.610553 0.392515
Si Si4 0.753001 0.613425 0.928964
Si Si5 0.111986 0.387000 0.118302
O O1 0.500000 0.303450 0.088958
O O2 0.332546 0.240708 0.164044
O O3 0.389949 0.170209 0.998125
O O4 0.342403 0.356870 0.994251
O O5 0.690991 0.141993 0.815565
O O6 0.766259 0.321641 0.825109
O O7 0.840082 0.184485 0.703487
O O8 0.500000 0.623023 0.339989
O O9 0.626763 0.500000 0.424987
O O10 0.743743 0.500000 0.895424
O O11 0.845092 0.631343 0.003306
O O12 0.129200 0.500000 0.151316
O O13 0.000000 0.359709 0.113639
#
# Coordination Sequence:
#
# PCOD8177560 Si02
#       5
#     8   8   8   8   8
#     4   9  18  31  45  65  95 126 156 190 227 270
#     4  10  18  30  49  71  92 119 156 194 230 271
#     4   9  17  29  45  66  93 123 152 184 225 271
#     4   9  19  33  48  69  96 126 157 190 231 276
#     4   9  18  33  51  70  92 118 151 192 237 283
#
# _framework density 16.519005
#
# number of rings (size 3 to 8) (size 9 to 14) (size 15 to 20)
#    0.000    2.800    0.000    1.200    0.000    3.600 
#    0.000    0.000    0.000    0.000    0.000    0.000 
#    0.000    0.000    0.000    0.000    0.000    0.000 
#
# Total GULP energy -247948.215607 kJ/mol
# GULP energy per Si atom -12397.410780 kJ/mol
# Density = 1.648141 g / cm^3
# Si number density = 16.519005 Si / 1000 Ang^3
#
#
#
# Elastic Constant Matrix: (Units=GPa)
#
#
# Indices 1 2 3 4 5 6 
#
# 1 135.3418 62.0983 60.7314 0.0000 0.0000 0.0000
# 2 62.0983 117.7439 58.8220 0.0000 0.0000 0.0000
# 3 60.7314 58.8220 100.6611 0.0000 0.0000 0.0000
# 4 0.0000 0.0000 0.0000 22.2311 0.0000 0.0000
# 5 0.0000 0.0000 0.0000 0.0000 18.5308 0.0000
# 6 0.0000 0.0000 0.0000 0.0000 0.0000 20.9681
#
#
#
# Elastic Compliance Matrix: (Units=1/GPa)
#
#
# Indices 1 2 3 4 5 6 
#
# 1 0.011085 -0.003538 -0.004621 0.000000 0.000000 0.000000
# 2 -0.003538 0.013124 -0.005534 0.000000 0.000000 0.000000
# 3 -0.004621 -0.005534 0.015956 0.000000 0.000000 0.000000
# 4 0.000000 0.000000 0.000000 0.044982 0.000000 0.000000
# 5 0.000000 0.000000 0.000000 0.000000 0.053964 0.000000
# 6 0.000000 0.000000 0.000000 0.000000 0.000000 0.047692
#
#
# Mechanical properties :
#
#
# Convention : Reuss Voigt Hill
#
# Bulk Modulus (GPa) = 78.25221 79.67227 78.96224
# Shear Modulus (GPa) = 22.88861 23.81900 23.35381
#
# Velocity S-wave (km/s) = 3.72639 3.80137 3.76407
# Velocity P-wave (km/s) = 8.12333 8.22208 8.17286
#
# Compressibility (1/GPa) = 0.01277919
#
# Stress axis : x y z
#
# Youngs Moduli (GPa) = 90.20804 76.19698 62.67197
#
# Poissons Ratio (x) = 0.26960 0.28958
# Poissons Ratio (y) = 0.31917 0.34685
# Poissons Ratio (z) = 0.41682 0.42170
#
# Static dielectric constant tensor:
#      x y z
#    x 3.291570 0.000000 0.000000 
#    y 0.000000 3.038130 0.000000 
#    z 0.000000 0.000000 3.122290 
# 
# 
# High freq. dielectric constant tensor:
#      x y z
#    x 1.636190 0.000000 0.000000 
#    y 0.000000 1.632920 0.000000 
#    z 0.000000 0.000000 1.633610 
# 
# From -- ./inp_files/9061.got.cif
#   From: 2010.03.12/outbox.cif.g09.slc.cpg/sg38_5_cif.got.tgz:9061.got - 2010.04.14 02:38:36.
