data_PCOD8177040
_publ_section_title
;
Structure prediction by ZEFSAII (Michael W. Deem and Ramdas Pophale) SiO2 
 PCOD8177040
Probable space group: C C C 2
;
_chemical_formula_sum "Si O2"
_cell_formula_units_Z 44
_cell_length_a 11.338940
_cell_length_b 21.091058
_cell_length_c 8.338469
_cell_angle_alpha 90.000000
_cell_angle_beta 90.000000
_cell_angle_gamma 90.000000
_cell_volume 1994.146873
_symmetry_space_group_name_H-M "C C C 2"
_symmetry_group_IT_number 37
_symmetry_cell_setting 'orthorhombic'
loop_
_space_group_symop_operation_xyz
x,y,z
-x,-y,z
-x,y,1/2+z
x,-y,1/2+z
1/2+x,1/2+y,z
1/2-x,1/2-y,z
1/2-x,1/2+y,1/2+z
1/2+x,1/2-y,1/2+z
loop_
_atom_site_type_symbol
_atom_site_label
_atom_site_fract_x
_atom_site_fract_y
_atom_site_fract_z
Si Si1 0.156276 0.062824 0.470190
Si Si2 0.904906 0.555512 0.581848
Si Si3 0.063585 0.266497 0.109716
Si Si4 0.000000 0.000000 0.214337
Si Si5 0.145432 0.208018 0.413323
Si Si6 0.057605 0.641121 0.358020
O O1 0.280987 0.029048 0.514100
O O2 0.106618 0.030548 0.311608
O O3 0.180794 0.136111 0.441782
O O4 0.058603 0.055067 0.608204
O O5 0.872269 0.588842 0.753811
O O6 0.000000 0.500000 0.611757
O O7 0.955010 0.606241 0.457086
O O8 0.142375 0.219854 0.219142
O O9 0.000681 0.310882 0.236538
O O10 0.132374 0.314785 0.984970
O O11 0.974871 0.223899 0.005083
O O12 0.250000 0.250000 0.489107
#
# Coordination Sequence:
#
# PCOD8177040 Si02
#       6
#     8   8   8   4   8   8
#     4  11  24  45  65  94 134 173 237 275 332 407
#     4  11  23  37  65  97 133 173 217 278 337 387
#     4   9  19  37  61  91 129 165 214 253 331 397
#     4  10  26  46  66  90 130 192 228 282 328 398
#     4  11  21  40  67  95 128 177 210 280 336 392
#     4   9  19  37  56  96 133 162 206 275 322 403
#
# _framework density 22.064575000000001
#
# number of rings (size 3 to 8) (size 9 to 14) (size 15 to 20)
#    0.000    1.818    0.000    4.909    5.091    0.000 
#    0.000    9.091    0.000    0.000    0.000    0.000 
#    0.000    0.000    0.000    0.000    0.000    0.000 
#
# Total GULP energy -272563.838586 kJ/mol
# GULP energy per Si atom -12389.265390 kJ/mol
# Density = 2.201436 g / cm^3
# Si number density = 22.064575 Si / 1000 Ang^3
#
#
#
# Elastic Constant Matrix: (Units=GPa)
#
#
# Indices 1 2 3 4 5 6 
#
# 1 91.4463 35.5547 29.9950 0.0000 0.0000 0.0000
# 2 35.5547 117.3370 44.1362 0.0000 0.0000 0.0000
# 3 29.9950 44.1362 122.7147 0.0000 0.0000 0.0000
# 4 0.0000 0.0000 0.0000 21.2649 0.0000 0.0000
# 5 0.0000 0.0000 0.0000 0.0000 29.6704 0.0000
# 6 0.0000 0.0000 0.0000 0.0000 0.000013184.8314
#
#
#
# Elastic Compliance Matrix: (Units=1/GPa)
#
#
# Indices 1 2 3 4 5 6 
#
# 1 0.012809 -0.003127 -0.002006 0.000000 0.000000 0.000000
# 2 -0.003127 0.010619 -0.003055 0.000000 0.000000 0.000000
# 3 -0.002006 -0.003055 0.009738 0.000000 0.000000 0.000000
# 4 0.000000 0.000000 0.000000 0.047026 0.000000 0.000000
# 5 0.000000 0.000000 0.000000 0.000000 0.033704 0.000000
# 6 0.000000 0.000000 0.000000 0.000000 0.000000 0.000076
#
#
# Mechanical properties :
#
#
# Convention : Reuss Voigt Hill
#
# Bulk Modulus (GPa) = 59.55851 61.20777 60.38314
# Shear Modulus (GPa) = 36.77968 2661.94080 1349.36024
#
# Velocity S-wave (km/s) = 4.08721 34.77141 24.75638
# Velocity P-wave (km/s) = 7.02319 40.49529 29.06195
#
# Compressibility (1/GPa) = 0.01679021
#
# Stress axis : x y z
#
# Youngs Moduli (GPa) = 78.06927 94.17053 102.68840
#
# Poissons Ratio (x) = 0.29444 0.20603
# Poissons Ratio (y) = 0.24409 0.31372
# Poissons Ratio (z) = 0.15664 0.28770
#
# Static dielectric constant tensor:
#      x y z
#    x 3.527560 0.000000 0.000000 
#    y 0.000000 4.156530 0.000000 
#    z 0.000000 0.000000 4.820870 
# 
# 
# High freq. dielectric constant tensor:
#      x y z
#    x 1.835100 0.000000 0.000000 
#    y 0.000000 1.871380 0.000000 
#    z 0.000000 0.000000 1.891240 
# 
# From -- ./inp_files/2906.got.cif
#   From: 2010.03.12/outbox.cif.g09.slc.cpg/sg37_2_cif.got.tgz:2906.got - 2010.04.14 02:25:27.
