data_PCOD8177944
_publ_section_title
;
Structure prediction by ZEFSAII (Michael W. Deem and Ramdas Pophale) SiO2 
 PCOD8177944
Probable space group: A M M 2
;
_chemical_formula_sum "Si O2"
_cell_formula_units_Z 64
_cell_length_a 17.991350
_cell_length_b 9.252361
_cell_length_c 22.683378
_cell_angle_alpha 90.000000
_cell_angle_beta 90.000000
_cell_angle_gamma 90.000000
_cell_volume 3775.931018
_symmetry_space_group_name_H-M "A M M 2"
_symmetry_group_IT_number 38
_symmetry_cell_setting 'orthorhombic'
loop_
_space_group_symop_operation_xyz
x,y,z
-x,-y,z
-x,y,z
x,-y,z
x,1/2+y,1/2+z
-x,1/2-y,1/2+z
-x,1/2+y,1/2+z
x,1/2-y,1/2+z
loop_
_atom_site_type_symbol
_atom_site_label
_atom_site_fract_x
_atom_site_fract_y
_atom_site_fract_z
Si Si1 0.727559 0.664775 0.764720
Si Si2 0.207133 0.166372 0.143556
Si Si3 0.917989 0.665819 0.444542
Si Si4 0.582162 0.665654 0.695576
Si Si5 0.137170 0.337669 0.049272
Si Si6 0.229459 0.169683 0.880329
Si Si7 0.292190 0.659153 0.981573
Si Si8 0.649817 0.669310 0.099884
O O1 0.723507 0.500000 0.787023
O O2 0.791479 0.680530 0.714567
O O3 0.645803 0.714646 0.741888
O O4 0.752221 0.766104 0.817418
O O5 0.139901 0.254706 0.112449
O O6 0.284001 0.231426 0.122427
O O7 0.201017 0.000000 0.123818
O O8 0.902479 0.500000 0.461683
O O9 0.917939 0.757335 0.504645
O O10 0.854323 0.717665 0.398874
O O11 0.000000 0.684714 0.415554
O O12 0.500000 0.679865 0.724597
O O13 0.598339 0.500000 0.676669
O O14 0.580670 0.767983 0.637087
O O15 0.108181 0.500000 0.060120
O O16 0.218504 0.336829 0.021086
O O17 0.288641 0.225891 0.928911
O O18 0.238088 0.000000 0.876254
O O19 0.302148 0.500000 0.953273
O O20 0.358745 0.691163 0.028645
O O21 0.663343 0.500000 0.113973
#
# Coordination Sequence:
#
# PCOD8177944 Si02
#       8
#     8   8   8   8   8   8   8   8
#     4   9  18  31  47  67  93 125 160 197 235 279
#     4   9  16  27  44  65  89 119 151 183 225 275
#     4   9  18  32  48  67  93 124 156 192 238 292
#     4   9  18  32  49  69  93 123 157 192 236 291
#     4   9  16  26  43  68  93 115 143 183 230 275
#     4  10  19  29  46  70  92 120 161 203 238 275
#     4   8  15  27  42  62  90 118 142 176 223 273
#     4   9  16  26  43  68  93 116 144 182 229 274
#
# _framework density 16.949463000000002
#
# number of rings (size 3 to 8) (size 9 to 14) (size 15 to 20)
#    0.000    3.000    0.000    3.000    0.000    7.000 
#    0.000    0.000    0.000    1.500    0.000    5.250 
#    0.000    0.000    0.000    0.000    0.000    0.000 
#
# Total GULP energy -396475.407669 kJ/mol
# GULP energy per Si atom -12389.856490 kJ/mol
# Density = 1.691089 g / cm^3
# Si number density = 16.949463 Si / 1000 Ang^3
#
#
#
# Elastic Constant Matrix: (Units=GPa)
#
#
# Indices 1 2 3 4 5 6 
#
# 1 61.6165 30.5589 40.8937 0.0000 0.0000 0.0000
# 2 30.5589 102.3243 63.5499 0.0000 0.0000 0.0000
# 3 40.8937 63.5499 107.8346 0.0000 0.0000 0.0000
# 4 0.0000 0.0000 0.0000 34.0078 0.0000 0.0000
# 5 0.0000 0.0000 0.0000 0.0000 16.4268 0.0000
# 6 0.0000 0.0000 0.0000 0.0000 0.0000 15.4396
#
#
#
# Elastic Compliance Matrix: (Units=1/GPa)
#
#
# Indices 1 2 3 4 5 6 
#
# 1 0.021995 -0.002190 -0.007050 0.000000 0.000000 0.000000
# 2 -0.002190 0.015633 -0.008382 0.000000 0.000000 0.000000
# 3 -0.007050 -0.008382 0.016887 0.000000 0.000000 0.000000
# 4 0.000000 0.000000 0.000000 0.029405 0.000000 0.000000
# 5 0.000000 0.000000 0.000000 0.000000 0.060876 0.000000
# 6 0.000000 0.000000 0.000000 0.000000 0.000000 0.064769
#
#
# Mechanical properties :
#
#
# Convention : Reuss Voigt Hill
#
# Bulk Modulus (GPa) = 51.89606 60.19783 56.04694
# Shear Modulus (GPa) = 19.90185 22.29304 21.09744
#
# Velocity S-wave (km/s) = 3.43036 3.63059 3.53190
# Velocity P-wave (km/s) = 6.80988 7.29165 7.05487
#
# Compressibility (1/GPa) = 0.01926929
#
# Stress axis : x y z
#
# Youngs Moduli (GPa) = 45.46546 63.96769 59.21662
#
# Poissons Ratio (x) = 0.14009 0.41750
# Poissons Ratio (y) = 0.09957 0.49638
# Poissons Ratio (z) = 0.32055 0.53620
#
# Static dielectric constant tensor:
#      x y z
#    x 3.064500 0.000000 0.000000 
#    y 0.000000 3.343340 0.000000 
#    z 0.000000 0.000000 3.228070 
# 
# 
# High freq. dielectric constant tensor:
#      x y z
#    x 1.614350 0.000000 0.000000 
#    y 0.000000 1.665460 0.000000 
#    z 0.000000 0.000000 1.637710 
# 
# From -- ./inp_files/23111.got.cif
#   From: 2010.03.12/outbox.cif.g09.slc.cpg/sg38_12_cif.got.tgz:23111.got - 2010.04.14 02:38:36.
