data_PCOD8177133
_publ_section_title
;
Structure prediction by ZEFSAII (Michael W. Deem and Ramdas Pophale) SiO2 
 PCOD8177133
Probable space group: C C C 2
;
_chemical_formula_sum "Si O2"
_cell_formula_units_Z 56
_cell_length_a 15.293047
_cell_length_b 15.248313
_cell_length_c 10.694294
_cell_angle_alpha 90.000000
_cell_angle_beta 90.000000
_cell_angle_gamma 90.000000
_cell_volume 2493.836291
_symmetry_space_group_name_H-M "C C C 2"
_symmetry_group_IT_number 37
_symmetry_cell_setting 'orthorhombic'
loop_
_space_group_symop_operation_xyz
x,y,z
-x,-y,z
-x,y,1/2+z
x,-y,1/2+z
1/2+x,1/2+y,z
1/2-x,1/2-y,z
1/2-x,1/2+y,1/2+z
1/2+x,1/2-y,1/2+z
loop_
_atom_site_type_symbol
_atom_site_label
_atom_site_fract_x
_atom_site_fract_y
_atom_site_fract_z
Si Si1 0.016626 0.823197 0.308470
Si Si2 0.050177 0.915986 0.043289
Si Si3 0.403517 0.839433 0.793479
Si Si4 0.154439 0.580263 0.546346
Si Si5 0.733928 0.421870 0.106153
Si Si6 0.750000 0.250000 0.953523
Si Si7 0.000000 0.500000 0.408853
Si Si8 0.284854 0.341548 0.855415
O O1 0.015035 0.871144 0.172537
O O2 0.111249 0.830681 0.374049
O O3 0.950260 0.856574 0.416997
O O4 0.988505 0.722912 0.280242
O O5 0.142617 0.964124 0.067320
O O6 0.000000 0.000000 0.000024
O O7 0.355994 0.856589 0.663470
O O8 0.330672 0.790645 0.876369
O O9 0.434729 0.936929 0.832864
O O10 0.183795 0.479628 0.567344
O O11 0.232225 0.630936 0.477491
O O12 0.059288 0.569511 0.484815
O O13 0.739183 0.415382 0.255084
O O14 0.720707 0.326881 0.044572
O O15 0.250000 0.250000 0.803705
#
# Coordination Sequence:
#
# PCOD8177133 Si02
#       8
#     8   8   8   8   8   4   4   8
#     4  11  26  44  74 108 148 199 256 318 390 458
#     4  11  24  45  72 106 147 194 251 317 381 463
#     4  12  28  47  74 111 151 198 255 320 390 463
#     4  12  27  45  75 108 149 186 260 311 379 456
#     4  11  24  47  71 100 142 198 239 301 378 456
#     4  12  24  48  72 100 148 198 244 300 392 452
#     4  12  26  48  74 108 152 202 244 324 390 460
#     4  11  25  44  70 101 143 194 244 306 371 454
#
# _framework density 22.455363999999999
#
# number of rings (size 3 to 8) (size 9 to 14) (size 15 to 20)
#    0.000    0.571    3.571    3.429    5.000    3.429 
#    0.000    0.000    0.000    0.000    0.000    0.000 
#    0.000    0.000    0.000    0.000    0.000    0.000 
#
# Total GULP energy -346905.644031 kJ/mol
# GULP energy per Si atom -12389.487287 kJ/mol
# Density = 2.240425 g / cm^3
# Si number density = 22.455364 Si / 1000 Ang^3
#
#
#
# Elastic Constant Matrix: (Units=GPa)
#
#
# Indices 1 2 3 4 5 6 
#
# 1 99.0602 35.0704 38.8257 0.0000 0.0000 0.0000
# 2 35.0704 92.7568 25.3341 0.0000 0.0000 0.0000
# 3 38.8257 25.3341 121.3793 0.0000 0.0000 0.0000
# 4 0.0000 0.0000 0.0000 25.9846 0.0000 0.0000
# 5 0.0000 0.0000 0.0000 0.0000 36.1842 0.0000
# 6 0.0000 0.0000 0.0000 0.0000 0.0000 52.6038
#
#
#
# Elastic Compliance Matrix: (Units=1/GPa)
#
#
# Indices 1 2 3 4 5 6 
#
# 1 0.012767 -0.003936 -0.003262 0.000000 0.000000 0.000000
# 2 -0.003936 0.012646 -0.001380 0.000000 0.000000 0.000000
# 3 -0.003262 -0.001380 0.009570 0.000000 0.000000 0.000000
# 4 0.000000 0.000000 0.000000 0.038484 0.000000 0.000000
# 5 0.000000 0.000000 0.000000 0.000000 0.027636 0.000000
# 6 0.000000 0.000000 0.000000 0.000000 0.000000 0.019010
#
#
# Mechanical properties :
#
#
# Convention : Reuss Voigt Hill
#
# Bulk Modulus (GPa) = 56.09842 56.85074 56.47458
# Shear Modulus (GPa) = 34.91289 37.21891 36.06590
#
# Velocity S-wave (km/s) = 3.94733 4.07561 4.01198
# Velocity P-wave (km/s) = 6.76843 6.89345 6.83123
#
# Compressibility (1/GPa) = 0.01782581
#
# Stress axis : x y z
#
# Youngs Moduli (GPa) = 78.32712 79.07579 104.49037
#
# Poissons Ratio (x) = 0.31125 0.34087
# Poissons Ratio (y) = 0.30830 0.14424
# Poissons Ratio (z) = 0.25552 0.10916
#
# Static dielectric constant tensor:
#      x y z
#    x 3.829060 0.000000 0.000000 
#    y 0.000000 3.960780 0.000000 
#    z 0.000000 0.000000 4.017260 
# 
# 
# High freq. dielectric constant tensor:
#      x y z
#    x 1.899500 0.000000 0.000000 
#    y 0.000000 1.892110 0.000000 
#    z 0.000000 0.000000 1.889600 
# 
# From -- ./inp_files/7864.got.cif
#   From: 2010.03.12/outbox.cif.g09.slc.cpg/sg37_4_cif.got.tgz:7864.got - 2010.04.14 02:25:27.
