data_PCOD8177937
_publ_section_title
;
Structure prediction by ZEFSAII (Michael W. Deem and Ramdas Pophale) SiO2 
 PCOD8177937
Probable space group: A M M 2
;
_chemical_formula_sum "Si O2"
_cell_formula_units_Z 56
_cell_length_a 9.085071
_cell_length_b 18.891143
_cell_length_c 18.061581
_cell_angle_alpha 90.000000
_cell_angle_beta 90.000000
_cell_angle_gamma 90.000000
_cell_volume 3099.861743
_symmetry_space_group_name_H-M "A M M 2"
_symmetry_group_IT_number 38
_symmetry_cell_setting 'orthorhombic'
loop_
_space_group_symop_operation_xyz
x,y,z
-x,-y,z
-x,y,z
x,-y,z
x,1/2+y,1/2+z
-x,1/2-y,1/2+z
-x,1/2+y,1/2+z
x,1/2-y,1/2+z
loop_
_atom_site_type_symbol
_atom_site_label
_atom_site_fract_x
_atom_site_fract_y
_atom_site_fract_z
Si Si1 0.333731 0.076175 0.623480
Si Si2 0.827553 0.209499 0.999973
Si Si3 0.159800 0.300606 0.139659
Si Si4 0.163950 0.664923 0.738537
Si Si5 0.175277 0.580313 0.598882
Si Si6 0.673484 0.197238 0.386796
Si Si7 0.833057 0.920986 0.472822
O O1 0.500000 0.088713 0.596007
O O2 0.278882 0.142739 0.672205
O O3 0.218580 0.076470 0.556964
O O4 0.322976 0.000000 0.665268
O O5 0.794863 0.272688 0.057971
O O6 0.768049 0.134539 0.034499
O O7 0.000000 0.202579 0.982648
O O8 0.745117 0.232029 0.924003
O O9 0.149625 0.236112 0.193730
O O10 0.000000 0.337384 0.135460
O O11 0.226452 0.605263 0.681367
O O12 0.275945 0.682420 0.803444
O O13 0.000000 0.643573 0.768493
O O14 0.232315 0.500000 0.583719
O O15 0.000000 0.583742 0.598569
O O16 0.500000 0.207652 0.388530
O O17 0.719782 0.126843 0.428989
O O18 0.000000 0.890928 0.468192
O O19 0.827150 0.000000 0.438855
#
# Coordination Sequence:
#
# PCOD8177937 Si02
#       7
#     8   8   8   8   8   8   8
#     4  10  19  29  45  72 102 129 158 198 248 298
#     4   9  17  31  53  77 101 132 171 216 260 307
#     4   9  17  31  51  72  95 129 173 215 251 297
#     4   9  19  34  52  75 103 136 173 212 256 312
#     4   8  15  31  57  85 106 129 170 221 268 314
#     4  12  23  33  48  74 107 142 175 212 259 311
#     4  10  20  33  49  69  96 132 170 205 242 289
#
# _framework density 18.065321999999998
#
# number of rings (size 3 to 8) (size 9 to 14) (size 15 to 20)
#    0.000    2.429    1.429    3.857    0.000    2.857 
#    0.000    3.571    0.000    2.143    0.000    2.000 
#    0.000    0.000    0.000    0.000    0.000    0.000 
#
# Total GULP energy -346874.531448 kJ/mol
# GULP energy per Si atom -12388.376123 kJ/mol
# Density = 1.802420 g / cm^3
# Si number density = 18.065322 Si / 1000 Ang^3
#
#
#
# Elastic Constant Matrix: (Units=GPa)
#
#
# Indices 1 2 3 4 5 6 
#
# 1 79.9064 45.3882 18.6754 0.0000 0.0000 0.0000
# 2 45.3882 108.5717 23.4506 0.0000 0.0000 0.0000
# 3 18.6754 23.4506 50.1073 0.0000 0.0000 0.0000
# 4 0.0000 0.0000 0.0000 12.0013 0.0000 0.0000
# 5 0.0000 0.0000 0.0000 0.0000 21.1475 0.0000
# 6 0.0000 0.0000 0.0000 0.0000 0.0000 5.9846
#
#
#
# Elastic Compliance Matrix: (Units=1/GPa)
#
#
# Indices 1 2 3 4 5 6 
#
# 1 0.016896 -0.006345 -0.003328 0.000000 0.000000 0.000000
# 2 -0.006345 0.012629 -0.003546 0.000000 0.000000 0.000000
# 3 -0.003328 -0.003546 0.022857 0.000000 0.000000 0.000000
# 4 0.000000 0.000000 0.000000 0.083325 0.000000 0.000000
# 5 0.000000 0.000000 0.000000 0.000000 0.047287 0.000000
# 6 0.000000 0.000000 0.000000 0.000000 0.000000 0.167096
#
#
# Mechanical properties :
#
#
# Convention : Reuss Voigt Hill
#
# Bulk Modulus (GPa) = 38.54262 45.95710 42.24986
# Shear Modulus (GPa) = 12.98112 17.89807 15.43960
#
# Velocity S-wave (km/s) = 2.68352 3.15102 2.92662
# Velocity P-wave (km/s) = 5.56625 6.22360 5.90408
#
# Compressibility (1/GPa) = 0.02594530
#
# Stress axis : x y z
#
# Youngs Moduli (GPa) = 59.18441 79.18469 43.75041
#
# Poissons Ratio (x) = 0.50240 0.14560
# Poissons Ratio (y) = 0.37550 0.15512
# Poissons Ratio (z) = 0.19697 0.28076
#
# Static dielectric constant tensor:
#      x y z
#    x 2.982760 0.000000 0.000000 
#    y 0.000000 3.785170 0.000000 
#    z 0.000000 0.000000 3.370560 
# 
# 
# High freq. dielectric constant tensor:
#      x y z
#    x 1.683960 0.000000 0.000000 
#    y 0.000000 1.709630 0.000000 
#    z 0.000000 0.000000 1.661720 
# 
# From -- ./inp_files/17115.got.cif
#   From: 2010.03.12/outbox.cif.g09.slc.cpg/sg38_9_cif.got.tgz:17115.got - 2010.04.14 02:38:36.
