data_PCOD8177622
_publ_section_title
;
Structure prediction by ZEFSAII (Michael W. Deem and Ramdas Pophale) SiO2 
 PCOD8177622
Probable space group: A M M 2
;
_chemical_formula_sum "Si O2"
_cell_formula_units_Z 48
_cell_length_a 15.663733
_cell_length_b 20.445488
_cell_length_c 8.051906
_cell_angle_alpha 90.000000
_cell_angle_beta 90.000000
_cell_angle_gamma 90.000000
_cell_volume 2578.644356
_symmetry_space_group_name_H-M "A M M 2"
_symmetry_group_IT_number 38
_symmetry_cell_setting 'orthorhombic'
loop_
_space_group_symop_operation_xyz
x,y,z
-x,-y,z
-x,y,z
x,-y,z
x,1/2+y,1/2+z
-x,1/2-y,1/2+z
-x,1/2+y,1/2+z
x,1/2-y,1/2+z
loop_
_atom_site_type_symbol
_atom_site_label
_atom_site_fract_x
_atom_site_fract_y
_atom_site_fract_z
Si Si1 0.239848 0.179245 0.767210
Si Si2 0.250112 0.076427 0.040908
Si Si3 0.097078 0.151639 0.174299
Si Si4 0.341076 0.772228 0.474016
Si Si5 0.097152 0.785154 0.528929
Si Si6 0.405307 0.153466 0.168092
O O1 0.314754 0.183212 0.629527
O O2 0.149729 0.180085 0.674650
O O3 0.248643 0.110883 0.861951
O O4 0.254356 0.242439 0.888958
O O5 0.164630 0.093836 0.145158
O O6 0.334204 0.097811 0.142293
O O7 0.252851 0.000000 0.009847
O O8 0.117099 0.185567 0.349497
O O9 0.113366 0.206296 0.030910
O O10 0.000000 0.124296 0.167766
O O11 0.395294 0.816569 0.351004
O O12 0.397143 0.710414 0.531164
O O13 0.000000 0.798167 0.581179
O O14 0.500000 0.122675 0.153170
#
# Coordination Sequence:
#
# PCOD8177622 Si02
#       6
#     8   8   8   8   8   8
#     4  10  18  32  52  77 110 140 169 211 260 313
#     4  11  24  38  52  71 102 149 189 214 248 298
#     4  10  20  34  55  82 109 135 168 215 266 316
#     4   9  18  32  55  85 109 129 161 212 273 318
#     4  10  18  30  54  85 109 129 162 216 278 322
#     4  10  19  34  58  84 109 134 166 212 264 317
#
# _framework density 18.614432000000001
#
# number of rings (size 3 to 8) (size 9 to 14) (size 15 to 20)
#    0.000    2.000    0.000    6.500    0.000    2.667 
#    0.000    4.167    0.000    1.000    0.000    0.000 
#    0.000    0.000    0.000    0.000    0.000    0.000 
#
# Total GULP energy -297595.429416 kJ/mol
# GULP energy per Si atom -12399.809559 kJ/mol
# Density = 1.857206 g / cm^3
# Si number density = 18.614432 Si / 1000 Ang^3
#
#
#
# Elastic Constant Matrix: (Units=GPa)
#
#
# Indices 1 2 3 4 5 6 
#
# 1 128.4455 51.4321 28.2046 0.0000 0.0000 0.0000
# 2 51.4321 107.7657 42.8584 0.0000 0.0000 0.0000
# 3 28.2046 42.8584 83.2510 0.0000 0.0000 0.0000
# 4 0.0000 0.0000 0.0000 18.0872 0.0000 0.0000
# 5 0.0000 0.0000 0.0000 0.0000 21.1471 0.0000
# 6 0.0000 0.0000 0.0000 0.0000 0.0000 13.3993
#
#
#
# Elastic Compliance Matrix: (Units=1/GPa)
#
#
# Indices 1 2 3 4 5 6 
#
# 1 0.009709 -0.004182 -0.001137 0.000000 0.000000 0.000000
# 2 -0.004182 0.013470 -0.005517 0.000000 0.000000 0.000000
# 3 -0.001137 -0.005517 0.015237 0.000000 0.000000 0.000000
# 4 0.000000 0.000000 0.000000 0.055288 0.000000 0.000000
# 5 0.000000 0.000000 0.000000 0.000000 0.047288 0.000000
# 6 0.000000 0.000000 0.000000 0.000000 0.000000 0.074631
#
#
# Mechanical properties :
#
#
# Convention : Reuss Voigt Hill
#
# Bulk Modulus (GPa) = 59.72114 62.71692 61.21903
# Shear Modulus (GPa) = 20.58663 23.65787 22.12225
#
# Velocity S-wave (km/s) = 3.32919 3.56890 3.45112
# Velocity P-wave (km/s) = 6.85061 7.12380 6.98854
#
# Compressibility (1/GPa) = 0.01674449
#
# Stress axis : x y z
#
# Youngs Moduli (GPa) = 102.99195 74.24166 65.62813
#
# Poissons Ratio (x) = 0.31047 0.07459
# Poissons Ratio (y) = 0.43070 0.36210
# Poissons Ratio (z) = 0.11706 0.40962
#
# Static dielectric constant tensor:
#      x y z
#    x 3.529150 0.000000 0.000000 
#    y 0.000000 2.890610 0.000000 
#    z 0.000000 0.000000 3.587480 
# 
# 
# High freq. dielectric constant tensor:
#      x y z
#    x 1.739960 0.000000 0.000000 
#    y 0.000000 1.662780 0.000000 
#    z 0.000000 0.000000 1.736710 
# 
# From -- ./inp_files/5575.got.cif
#   From: 2010.03.12/outbox.cif.g09.slc.cpg/sg38_3_cif.got.tgz:5575.got - 2010.04.14 02:38:36.
