data_PCOD8177833
_publ_section_title
;
Structure prediction by ZEFSAII (Michael W. Deem and Ramdas Pophale) SiO2 
 PCOD8177833
Probable space group: A M M 2
;
_chemical_formula_sum "Si O2"
_cell_formula_units_Z 64
_cell_length_a 15.404784
_cell_length_b 9.034960
_cell_length_c 23.877563
_cell_angle_alpha 90.000000
_cell_angle_beta 90.000000
_cell_angle_gamma 90.000000
_cell_volume 3323.317596
_symmetry_space_group_name_H-M "A M M 2"
_symmetry_group_IT_number 38
_symmetry_cell_setting 'orthorhombic'
loop_
_space_group_symop_operation_xyz
x,y,z
-x,-y,z
-x,y,z
x,-y,z
x,1/2+y,1/2+z
-x,1/2-y,1/2+z
-x,1/2+y,1/2+z
x,1/2-y,1/2+z
loop_
_atom_site_type_symbol
_atom_site_label
_atom_site_fract_x
_atom_site_fract_y
_atom_site_fract_z
Si Si1 0.145401 0.827970 0.684980
Si Si2 0.404574 0.676147 0.298118
Si Si3 0.097964 0.169270 0.295227
Si Si4 0.750904 0.174649 0.995825
Si Si5 0.656716 0.325024 0.179902
Si Si6 0.598385 0.673303 0.060527
Si Si7 0.902497 0.669708 0.060786
Si Si8 0.758256 0.324742 0.367851
O O1 0.099383 0.734428 0.732868
O O2 0.244011 0.774071 0.679002
O O3 0.097576 0.795662 0.626745
O O4 0.140133 0.000000 0.701703
O O5 0.500000 0.729450 0.318419
O O6 0.400351 0.500000 0.296551
O O7 0.388355 0.740133 0.235593
O O8 0.330851 0.736203 0.340109
O O9 0.159288 0.258009 0.336897
O O10 0.000000 0.182371 0.318272
O O11 0.128829 0.000000 0.293202
O O12 0.760065 0.226676 0.931894
O O13 0.743365 0.000000 0.000927
O O14 0.662715 0.243374 0.019183
O O15 0.835946 0.226010 0.028758
O O16 0.648875 0.500000 0.180952
O O17 0.610377 0.265356 0.123823
O O18 0.500000 0.704756 0.041142
O O19 0.620885 0.500000 0.058380
O O20 0.874047 0.500000 0.050680
O O21 0.000000 0.698668 0.038274
O O22 0.764137 0.500000 0.361663
#
# Coordination Sequence:
#
# PCOD8177833 Si02
#       8
#     8   8   8   8   8   8   8   8
#     4  10  18  34  61  87 113 147 187 230 278 339
#     4   9  16  29  54  85 110 134 174 229 278 320
#     4  11  24  39  57  85 118 150 184 230 290 347
#     4  11  24  39  57  82 116 153 194 247 297 340
#     4   9  15  28  55  87 113 139 180 231 277 327
#     4  10  20  36  60  88 117 151 193 239 287 345
#     4  10  21  38  61  86 112 148 194 239 286 347
#     4  10  22  40  59  81 108 149 199 239 279 332
#
# _framework density 19.257864999999999
#
# number of rings (size 3 to 8) (size 9 to 14) (size 15 to 20)
#    0.000    2.000    2.500    1.500    0.000    6.000 
#    0.000    3.750    0.000    0.375    0.000    0.000 
#    0.000    0.000    0.000    0.000    0.000    0.000 
#
# Total GULP energy -396808.495935 kJ/mol
# GULP energy per Si atom -12400.265498 kJ/mol
# Density = 1.921403 g / cm^3
# Si number density = 19.257865 Si / 1000 Ang^3
#
#
#
# Elastic Constant Matrix: (Units=GPa)
#
#
# Indices 1 2 3 4 5 6 
#
# 1 128.7920 32.0152 57.2245 0.0000 0.0000 0.0000
# 2 32.0152 40.5406 40.1750 0.0000 0.0000 0.0000
# 3 57.2245 40.1750 125.7286 0.0000 0.0000 0.0000
# 4 0.0000 0.0000 0.0000 24.9174 0.0000 0.0000
# 5 0.0000 0.0000 0.0000 0.0000 1.5749 0.0000
# 6 0.0000 0.0000 0.0000 0.0000 0.0000 24.5394
#
#
#
# Elastic Compliance Matrix: (Units=1/GPa)
#
#
# Indices 1 2 3 4 5 6 
#
# 1 0.010423 -0.005166 -0.003093 0.000000 0.000000 0.000000
# 2 -0.005166 0.038657 -0.010001 0.000000 0.000000 0.000000
# 3 -0.003093 -0.010001 0.012557 0.000000 0.000000 0.000000
# 4 0.000000 0.000000 0.000000 0.040133 0.000000 0.000000
# 5 0.000000 0.000000 0.000000 0.000000 0.634977 0.000000
# 6 0.000000 0.000000 0.000000 0.000000 0.000000 0.040751
#
#
# Mechanical properties :
#
#
# Convention : Reuss Voigt Hill
#
# Bulk Modulus (GPa) = 39.81395 61.54342 50.67868
# Shear Modulus (GPa) = 6.07984 21.24945 13.66464
#
# Velocity S-wave (km/s) = 1.77874 3.32538 2.66665
# Velocity P-wave (km/s) = 4.99375 6.83894 5.98785
#
# Compressibility (1/GPa) = 0.02511683
#
# Stress axis : x y z
#
# Youngs Moduli (GPa) = 95.94213 25.86854 79.63491
#
# Poissons Ratio (x) = 0.13363 0.24634
# Poissons Ratio (y) = 0.49560 0.79645
# Poissons Ratio (z) = 0.29678 0.25872
#
# Static dielectric constant tensor:
#      x y z
#    x 3.668710 0.000000 0.000000 
#    y 0.000000 3.186030 0.000000 
#    z 0.000000 0.000000 3.619510 
# 
# 
# High freq. dielectric constant tensor:
#      x y z
#    x 1.766260 0.000000 0.000000 
#    y 0.000000 1.712260 0.000000 
#    z 0.000000 0.000000 1.749840 
# 
# From -- ./inp_files/22897.got.cif
#   From: 2010.03.12/outbox.cif.g09.slc.cpg/sg38_12_cif.got.tgz:22897.got - 2010.04.14 02:38:36.
