data_PCOD8177578
_publ_section_title
;
Structure prediction by ZEFSAII (Michael W. Deem and Ramdas Pophale) SiO2 
 PCOD8177578
Probable space group: A M M 2
;
_chemical_formula_sum "Si O2"
_cell_formula_units_Z 48
_cell_length_a 9.171475
_cell_length_b 11.915258
_cell_length_c 25.543458
_cell_angle_alpha 90.000000
_cell_angle_beta 90.000000
_cell_angle_gamma 90.000000
_cell_volume 2791.401629
_symmetry_space_group_name_H-M "A M M 2"
_symmetry_group_IT_number 38
_symmetry_cell_setting 'orthorhombic'
loop_
_space_group_symop_operation_xyz
x,y,z
-x,-y,z
-x,y,z
x,-y,z
x,1/2+y,1/2+z
-x,1/2-y,1/2+z
-x,1/2+y,1/2+z
x,1/2-y,1/2+z
loop_
_atom_site_type_symbol
_atom_site_label
_atom_site_fract_x
_atom_site_fract_y
_atom_site_fract_z
Si Si1 0.673258 0.374527 0.198340
Si Si2 0.327741 0.500000 0.780534
Si Si3 0.669649 0.130600 0.999744
Si Si4 0.327366 0.245723 0.302561
Si Si5 0.672976 0.217661 0.108577
Si Si6 0.325280 0.000000 0.164787
Si Si7 0.166951 0.367978 0.395628
O O1 0.500000 0.379238 0.198164
O O2 0.738267 0.500000 0.204753
O O3 0.724277 0.295787 0.246495
O O4 0.728755 0.324932 0.142184
O O5 0.500000 0.500000 0.775165
O O6 0.278741 0.615161 0.808824
O O7 0.260358 0.500000 0.722843
O O8 0.500000 0.147701 0.986703
O O9 0.761672 0.170702 0.950039
O O10 0.699346 0.000000 0.014242
O O11 0.720324 0.212117 0.047586
O O12 0.500000 0.260021 0.308803
O O13 0.249643 0.312309 0.347994
O O14 0.500000 0.212458 0.111104
O O15 0.738599 0.108360 0.136192
O O16 0.500000 0.000000 0.164549
O O17 0.183574 0.500000 0.388648
O O18 0.000000 0.329231 0.395650
#
# Coordination Sequence:
#
# PCOD8177578 Si02
#       7
#     8   4   8   8   8   4   8
#     4   9  16  24  39  68 102 129 150 181 231 285
#     4   9  16  26  45  75 103 125 151 192 241 284
#     4   9  16  27  47  72  92 116 156 201 239 276
#     4  10  18  30  50  74  99 125 158 198 238 282
#     4   9  14  22  40  67  96 120 148 188 234 282
#     4   9  12  20  38  67  99 123 145 180 233 282
#     4  10  21  35  49  67  94 128 163 200 243 286
#
# _framework density 17.195663
#
# number of rings (size 3 to 8) (size 9 to 14) (size 15 to 20)
#    0.000    2.667    2.500    1.000    0.000    1.667 
#    0.000    0.417    1.833    1.000    0.000    0.000 
#    0.000    0.000    0.000    0.000    0.000    0.000 
#
# Total GULP energy -297403.326394 kJ/mol
# GULP energy per Si atom -12391.805266 kJ/mol
# Density = 1.715652 g / cm^3
# Si number density = 17.195663 Si / 1000 Ang^3
#
#
#
# Elastic Constant Matrix: (Units=GPa)
#
#
# Indices 1 2 3 4 5 6 
#
# 1 34.1973 21.9362 39.5839 0.0000 0.0000 0.0000
# 2 21.9362 81.6832 48.0445 0.0000 0.0000 0.0000
# 3 39.5839 48.0445 139.2863 0.0000 0.0000 0.0000
# 4 0.0000 0.0000 0.0000 32.2689 0.0000 0.0000
# 5 0.0000 0.0000 0.0000 0.0000 -3.5923 0.0000
# 6 0.0000 0.0000 0.0000 0.0000 0.0000 10.1397
#
#
#
# Elastic Compliance Matrix: (Units=1/GPa)
#
#
# Indices 1 2 3 4 5 6 
#
# 1 0.045674 -0.005810 -0.010976 0.000000 0.000000 0.000000
# 2 -0.005810 0.016097 -0.003901 0.000000 0.000000 0.000000
# 3 -0.010976 -0.003901 0.011644 0.000000 0.000000 0.000000
# 4 0.000000 0.000000 0.000000 0.030990 0.000000 0.000000
# 5 0.000000 0.000000 0.000000 0.000000 -0.278373 0.000000
# 6 0.000000 0.000000 0.000000 0.000000 0.000000 0.098622
#
#
# Mechanical properties :
#
#
# Convention : Reuss Voigt Hill
#
# Bulk Modulus (GPa) = 31.21002 52.69958 41.95480
# Shear Modulus (GPa) = -214.68508 17.47006 -98.60751
#
# Velocity S-wave (km/s) = -11.18568 3.19087 -7.58082
# Velocity P-wave (km/s) = 12.19166 6.65500 7.22314
#
# Compressibility (1/GPa) = 0.03204099
#
# Stress axis : x y z
#
# Youngs Moduli (GPa) = 21.89433 62.12175 85.87747
#
# Poissons Ratio (x) = 0.36092 0.94260
# Poissons Ratio (y) = 0.12720 0.33504
# Poissons Ratio (z) = 0.24031 0.24236
#
# Static dielectric constant tensor:
#      x y z
#    x 2.720690 0.000000 0.000000 
#    y 0.000000 3.391470 0.000000 
#    z 0.000000 0.000000 3.351240 
# 
# 
# High freq. dielectric constant tensor:
#      x y z
#    x 1.605160 0.000000 0.000000 
#    y 0.000000 1.653990 0.000000 
#    z 0.000000 0.000000 1.671590 
# 
# From -- ./inp_files/22499.got.cif
#   From: 2010.03.12/outbox.cif.g09.slc.cpg/sg38_12_cif.got.tgz:22499.got - 2010.04.14 02:38:36.
