data_PCOD8177250
_publ_section_title
;
Structure prediction by ZEFSAII (Michael W. Deem and Ramdas Pophale) SiO2 
 PCOD8177250
Probable space group: A M M 2
;
_chemical_formula_sum "Si O2"
_cell_formula_units_Z 64
_cell_length_a 8.919293
_cell_length_b 14.787515
_cell_length_c 28.264795
_cell_angle_alpha 90.000000
_cell_angle_beta 90.000000
_cell_angle_gamma 90.000000
_cell_volume 3727.961932
_symmetry_space_group_name_H-M "A M M 2"
_symmetry_group_IT_number 38
_symmetry_cell_setting 'orthorhombic'
loop_
_space_group_symop_operation_xyz
x,y,z
-x,-y,z
-x,y,z
x,-y,z
x,1/2+y,1/2+z
-x,1/2-y,1/2+z
-x,1/2+y,1/2+z
x,1/2-y,1/2+z
loop_
_atom_site_type_symbol
_atom_site_label
_atom_site_fract_x
_atom_site_fract_y
_atom_site_fract_z
Si Si1 0.825529 0.397249 0.903520
Si Si2 0.178603 0.283691 0.989705
Si Si3 0.174534 0.396069 0.078476
Si Si4 0.177815 0.216332 0.758478
Si Si5 0.177243 0.399094 0.345397
Si Si6 0.323256 0.397292 0.176866
Si Si7 0.178089 0.900810 0.298730
Si Si8 0.821720 0.099527 0.950778
O O1 0.797996 0.500000 0.919386
O O2 0.752166 0.333479 0.943535
O O3 0.756107 0.379816 0.851286
O O4 0.000000 0.374194 0.900900
O O5 0.230059 0.178155 0.987135
O O6 0.000000 0.293157 0.989357
O O7 0.238863 0.330968 0.037256
O O8 0.201287 0.500000 0.063279
O O9 0.265849 0.370804 0.125135
O O10 0.000000 0.378053 0.088530
O O11 0.241369 0.168740 0.805973
O O12 0.253345 0.173239 0.713074
O O13 0.225660 0.322143 0.762137
O O14 0.000000 0.204363 0.753765
O O15 0.226831 0.500000 0.330810
O O16 0.238769 0.376593 0.397981
O O17 0.000000 0.390368 0.346225
O O18 0.500000 0.387630 0.178013
O O19 0.273171 0.500000 0.189477
O O20 0.000000 0.903397 0.303318
O O21 0.235447 0.000000 0.281216
O O22 0.000000 0.096115 0.948677
O O23 0.761541 0.000000 0.966807
#
# Coordination Sequence:
#
# PCOD8177250 Si02
#       8
#     8   8   8   8   8   8   8   8
#     4   8  12  18  30  53  87 119 141 165 202 246
#     4   9  14  20  34  56  82 111 141 171 204 243
#     4   9  17  29  45  65  86 106 133 172 214 254
#     4  10  17  26  45  68  88 114 148 182 213 248
#     4   8  13  20  32  56  89 118 142 169 203 245
#     4  10  21  35  48  63  85 111 138 173 221 272
#     4   8  14  23  36  60  94 124 146 172 209 250
#     4   8  13  20  30  50  85 121 143 163 198 243
#
# _framework density 17.167556999999999
#
# number of rings (size 3 to 8) (size 9 to 14) (size 15 to 20)
#    0.000    3.250    0.000    3.375    0.000    5.750 
#    0.000    0.000    0.000    1.125    0.000    7.000 
#    0.000    2.000    0.000    0.000    0.000    0.000 
#
# Total GULP energy -396485.108519 kJ/mol
# GULP energy per Si atom -12390.159641 kJ/mol
# Density = 1.712848 g / cm^3
# Si number density = 17.167557 Si / 1000 Ang^3
#
#
#
# Elastic Constant Matrix: (Units=GPa)
#
#
# Indices 1 2 3 4 5 6 
#
# 1 16.5157 22.1673 20.5092 0.0000 0.0000 0.0000
# 2 22.1673 140.2749 91.9478 0.0000 0.0000 0.0000
# 3 20.5092 91.9478 111.2887 0.0000 0.0000 0.0000
# 4 0.0000 0.0000 0.0000 32.9773 0.0000 0.0000
# 5 0.0000 0.0000 0.0000 0.0000 -3.1733 0.0000
# 6 0.0000 0.0000 0.0000 0.0000 0.0000 7.1757
#
#
#
# Elastic Compliance Matrix: (Units=1/GPa)
#
#
# Indices 1 2 3 4 5 6 
#
# 1 0.081222 -0.006596 -0.009519 0.000000 0.000000 0.000000
# 2 -0.006596 0.016086 -0.012075 0.000000 0.000000 0.000000
# 3 -0.009519 -0.012075 0.020716 0.000000 0.000000 0.000000
# 4 0.000000 0.000000 0.000000 0.030324 0.000000 0.000000
# 5 0.000000 0.000000 0.000000 0.000000 -0.315129 0.000000
# 6 0.000000 0.000000 0.000000 0.000000 0.000000 0.139359
#
#
# Mechanical properties :
#
#
# Convention : Reuss Voigt Hill
#
# Bulk Modulus (GPa) = 16.22188 59.70309 37.96249
# Shear Modulus (GPa) = 100.99844 16.29293 58.64568
#
# Velocity S-wave (km/s) = 7.67846 3.08401 5.85106
# Velocity P-wave (km/s) = 9.38516 6.89447 8.23453
#
# Compressibility (1/GPa) = 0.06164514
#
# Stress axis : x y z
#
# Youngs Moduli (GPa) = 12.31196 62.16544 48.27139
#
# Poissons Ratio (x) = 0.41004 0.45947
# Poissons Ratio (y) = 0.08121 0.58287
# Poissons Ratio (z) = 0.11719 0.75064
#
# Static dielectric constant tensor:
#      x y z
#    x 2.550020 0.000000 0.000000 
#    y 0.000000 3.555280 0.000000 
#    z 0.000000 0.000000 3.245290 
# 
# 
# High freq. dielectric constant tensor:
#      x y z
#    x 1.590280 0.000000 0.000000 
#    y 0.000000 1.671290 0.000000 
#    z 0.000000 0.000000 1.647720 
# 
# From -- ./inp_files/24799.got.cif
#   From: 2010.03.12/outbox.cif.g09.slc.cpg/sg38_13_cif.got.tgz:24799.got - 2010.04.14 02:38:36.
