data_PCOD8177334
_publ_section_title
;
Structure prediction by ZEFSAII (Michael W. Deem and Ramdas Pophale) SiO2 
 PCOD8177334
Probable space group: A M M 2
;
_chemical_formula_sum "Si O2"
_cell_formula_units_Z 52
_cell_length_a 7.805474
_cell_length_b 17.390119
_cell_length_c 24.599441
_cell_angle_alpha 90.000000
_cell_angle_beta 90.000000
_cell_angle_gamma 90.000000
_cell_volume 3339.081916
_symmetry_space_group_name_H-M "A M M 2"
_symmetry_group_IT_number 38
_symmetry_cell_setting 'orthorhombic'
loop_
_space_group_symop_operation_xyz
x,y,z
-x,-y,z
-x,y,z
x,-y,z
x,1/2+y,1/2+z
-x,1/2-y,1/2+z
-x,1/2+y,1/2+z
x,1/2-y,1/2+z
loop_
_atom_site_type_symbol
_atom_site_label
_atom_site_fract_x
_atom_site_fract_y
_atom_site_fract_z
Si Si1 0.195053 0.585487 0.453980
Si Si2 0.301646 0.333817 0.559410
Si Si3 0.686147 0.771160 0.896501
Si Si4 0.303608 0.410652 0.671423
Si Si5 0.000000 0.590101 0.971074
Si Si6 0.309479 0.320391 0.008226
Si Si7 0.000000 0.910273 0.250795
Si Si8 0.000000 0.184692 0.359720
O O1 0.275915 0.500000 0.452243
O O2 0.197766 0.617619 0.515302
O O3 0.293680 0.639063 0.411009
O O4 0.000000 0.583425 0.434914
O O5 0.500000 0.350078 0.547342
O O6 0.249667 0.360929 0.619282
O O7 0.262843 0.242288 0.554733
O O8 0.500000 0.759613 0.868535
O O9 0.695164 0.724749 0.952072
O O10 0.833348 0.739487 0.856973
O O11 0.500000 0.393375 0.689548
O O12 0.281748 0.500000 0.656256
O O13 0.172833 0.386794 0.718877
O O14 0.168064 0.612439 0.006362
O O15 0.000000 0.632015 0.913169
O O16 0.000000 0.500000 0.960494
O O17 0.500000 0.355703 0.018096
O O18 0.000000 0.868480 0.307805
O O19 0.000000 0.000000 0.263298
#
# Coordination Sequence:
#
# PCOD8177334 Si02
#       8
#     8   8   8   8   4   8   4   4
#     4  10  18  25  39  67  99 126 151 175 202 249
#     4   9  17  28  43  63  91 128 157 174 204 250
#     4   9  17  30  46  62  84 116 148 181 220 256
#     4   9  18  31  45  65  93 121 151 183 212 251
#     4  10  19  29  45  62  81 113 144 179 226 268
#     4   8  16  28  42  63  87 111 143 178 210 253
#     4  10  21  33  47  64  85 115 148 191 240 266
#     4  10  19  34  47  60  82 108 152 196 225 266
#
# _framework density 15.573142000000001
#
# number of rings (size 3 to 8) (size 9 to 14) (size 15 to 20)
#    0.000    2.769    0.769    2.077    4.308    2.769 
#    0.000    0.000    0.000    2.769    0.000    0.000 
#    0.000    4.923    0.000    8.000    0.000    0.000 
#
# Total GULP energy -322282.799926 kJ/mol
# GULP energy per Si atom -12395.492305 kJ/mol
# Density = 1.553770 g / cm^3
# Si number density = 15.573142 Si / 1000 Ang^3
#
#
#
# Elastic Constant Matrix: (Units=GPa)
#
#
# Indices 1 2 3 4 5 6 
#
# 1 112.9499 46.8663 37.7452 0.0000 0.0000 0.0000
# 2 46.8663 79.2500 28.9375 0.0000 0.0000 0.0000
# 3 37.7452 28.9375 62.8829 0.0000 0.0000 0.0000
# 4 0.0000 0.0000 0.0000 26.1723 0.0000 0.0000
# 5 0.0000 0.0000 0.0000 0.0000 11.0176 0.0000
# 6 0.0000 0.0000 0.0000 0.0000 0.0000 18.9177
#
#
#
# Elastic Compliance Matrix: (Units=1/GPa)
#
#
# Indices 1 2 3 4 5 6 
#
# 1 0.012971 -0.005803 -0.005115 0.000000 0.000000 0.000000
# 2 -0.005803 0.017763 -0.004691 0.000000 0.000000 0.000000
# 3 -0.005115 -0.004691 0.021132 0.000000 0.000000 0.000000
# 4 0.000000 0.000000 0.000000 0.038208 0.000000 0.000000
# 5 0.000000 0.000000 0.000000 0.000000 0.090764 0.000000
# 6 0.000000 0.000000 0.000000 0.000000 0.000000 0.052861
#
#
# Mechanical properties :
#
#
# Convention : Reuss Voigt Hill
#
# Bulk Modulus (GPa) = 48.43296 53.57565 51.00431
# Shear Modulus (GPa) = 18.39602 20.65711 19.52656
#
# Velocity S-wave (km/s) = 3.44068 3.64601 3.54483
# Velocity P-wave (km/s) = 6.85217 7.22508 7.04109
#
# Compressibility (1/GPa) = 0.02064709
#
# Stress axis : x y z
#
# Youngs Moduli (GPa) = 77.09749 56.29764 47.32224
#
# Poissons Ratio (x) = 0.32668 0.24207
# Poissons Ratio (y) = 0.44737 0.22199
# Poissons Ratio (z) = 0.39438 0.26409
#
# Static dielectric constant tensor:
#      x y z
#    x 3.306640 0.000000 0.000000 
#    y 0.000000 2.936270 0.000000 
#    z 0.000000 0.000000 2.604520 
# 
# 
# High freq. dielectric constant tensor:
#      x y z
#    x 1.617600 0.000000 0.000000 
#    y 0.000000 1.581320 0.000000 
#    z 0.000000 0.000000 1.546560 
# 
# From -- ./inp_files/19710.got.cif
#   From: 2010.03.12/outbox.cif.g09.slc.cpg/sg38_10_cif.got.tgz:19710.got - 2010.04.14 02:38:36.
