data_PCOD8177084
_publ_section_title
;
Structure prediction by ZEFSAII (Michael W. Deem and Ramdas Pophale) SiO2 
 PCOD8177084
Probable space group: C C C 2
;
_chemical_formula_sum "Si O2"
_cell_formula_units_Z 64
_cell_length_a 8.397497
_cell_length_b 13.622514
_cell_length_c 27.110780
_cell_angle_alpha 90.000000
_cell_angle_beta 90.000000
_cell_angle_gamma 90.000000
_cell_volume 3101.338232
_symmetry_space_group_name_H-M "C C C 2"
_symmetry_group_IT_number 37
_symmetry_cell_setting 'orthorhombic'
loop_
_space_group_symop_operation_xyz
x,y,z
-x,-y,z
-x,y,1/2+z
x,-y,1/2+z
1/2+x,1/2+y,z
1/2-x,1/2-y,z
1/2-x,1/2+y,1/2+z
1/2+x,1/2-y,1/2+z
loop_
_atom_site_type_symbol
_atom_site_label
_atom_site_fract_x
_atom_site_fract_y
_atom_site_fract_z
Si Si1 0.880216 0.075378 0.519400
Si Si2 0.116504 0.333422 0.255977
Si Si3 0.858917 0.344892 0.340306
Si Si4 0.341264 0.054162 0.586582
Si Si5 0.094230 0.598628 0.450603
Si Si6 0.823133 0.649118 0.687577
Si Si7 0.316307 0.525390 0.270015
Si Si8 0.081313 0.265452 0.520900
O O1 0.770637 0.097032 0.472644
O O2 0.979323 0.170473 0.539909
O O3 0.797072 0.016308 0.564797
O O4 0.000000 0.000000 0.494501
O O5 0.250000 0.250000 0.253344
O O6 0.209261 0.435045 0.253608
O O7 0.011779 0.323362 0.305706
O O8 0.001292 0.332127 0.208303
O O9 0.750000 0.250000 0.344295
O O10 0.918272 0.379047 0.393261
O O11 0.751333 0.434910 0.321493
O O12 0.319342 0.066790 0.645027
O O13 0.366070 0.163836 0.565806
O O14 0.500000 0.000000 0.572050
O O15 0.000000 0.500000 0.463981
O O16 0.021421 0.689613 0.478313
O O17 0.750000 0.750000 0.667134
O O18 0.705240 0.612187 0.730465
O O19 0.500000 0.500000 0.276081
O O20 0.250000 0.250000 0.493987
#
# Coordination Sequence:
#
# PCOD8177084 Si02
#       8
#     8   8   8   8   8   8   8   8
#     4  12  24  42  67  92 129 175 217 281 335 401
#     4  11  22  43  67  98 134 176 217 270 335 393
#     4  11  23  40  66  98 134 173 218 274 327 405
#     4  12  24  45  65  95 131 173 223 274 334 399
#     4  12  23  44  66  98 131 175 225 273 341 401
#     4  11  24  43  66  96 132 171 215 273 327 399
#     4  11  22  42  67  96 133 173 216 272 328 389
#     4  12  23  43  65  93 130 170 220 275 336 393
#
# _framework density 20.636251999999999
#
# number of rings (size 3 to 8) (size 9 to 14) (size 15 to 20)
#    0.000    0.500    3.750    7.500    0.000    1.500 
#    4.500    5.000    0.000    0.000    0.000    0.000 
#    0.000    0.000    0.000    0.000    0.000    0.000 
#
# Total GULP energy -396641.111961 kJ/mol
# GULP energy per Si atom -12395.034749 kJ/mol
# Density = 2.058928 g / cm^3
# Si number density = 20.636252 Si / 1000 Ang^3
#
#
#
# Elastic Constant Matrix: (Units=GPa)
#
#
# Indices 1 2 3 4 5 6 
#
# 1 149.4080 59.3999 40.6262 0.0000 0.0000 0.0000
# 2 59.3999 128.9063 27.9249 0.0000 0.0000 0.0000
# 3 40.6262 27.9249 107.5147 0.0000 0.0000 0.0000
# 4 0.0000 0.0000 0.0000 37.2988 0.0000 0.0000
# 5 0.0000 0.0000 0.0000 0.0000 38.1927 0.0000
# 6 0.0000 0.0000 0.0000 0.0000 0.0000 55.8409
#
#
#
# Elastic Compliance Matrix: (Units=1/GPa)
#
#
# Indices 1 2 3 4 5 6 
#
# 1 0.008738 -0.003509 -0.002391 0.000000 0.000000 0.000000
# 2 -0.003509 0.009629 -0.001175 0.000000 0.000000 0.000000
# 3 -0.002391 -0.001175 0.010510 0.000000 0.000000 0.000000
# 4 0.000000 0.000000 0.000000 0.026811 0.000000 0.000000
# 5 0.000000 0.000000 0.000000 0.000000 0.026183 0.000000
# 6 0.000000 0.000000 0.000000 0.000000 0.000000 0.017908
#
#
# Mechanical properties :
#
#
# Convention : Reuss Voigt Hill
#
# Bulk Modulus (GPa) = 67.89805 71.30347 69.60076
# Shear Modulus (GPa) = 42.07484 43.45834 42.76659
#
# Velocity S-wave (km/s) = 4.52029 4.59401 4.55730
# Velocity P-wave (km/s) = 7.76001 7.92259 7.84172
#
# Compressibility (1/GPa) = 0.01472796
#
# Stress axis : x y z
#
# Youngs Moduli (GPa) = 114.44251 103.85393 95.15143
#
# Poissons Ratio (x) = 0.36438 0.22746
# Poissons Ratio (y) = 0.40153 0.11182
# Poissons Ratio (z) = 0.27358 0.12204
#
# Static dielectric constant tensor:
#      x y z
#    x 3.989210 0.000000 0.000000 
#    y 0.000000 3.883450 0.000000 
#    z 0.000000 0.000000 3.571890 
# 
# 
# High freq. dielectric constant tensor:
#      x y z
#    x 1.824350 0.000000 0.000000 
#    y 0.000000 1.828680 0.000000 
#    z 0.000000 0.000000 1.795310 
# 
# From -- ./inp_files/20442.got.cif
#   From: 2010.03.12/outbox.cif.g09.slc.cpg/sg37_11_cif.got.tgz:20442.got - 2010.04.14 02:25:27.
