data_PCOD8177829
_publ_section_title
;
Structure prediction by ZEFSAII (Michael W. Deem and Ramdas Pophale) SiO2 
 PCOD8177829
Probable space group: A M M 2
;
_chemical_formula_sum "Si O2"
_cell_formula_units_Z 48
_cell_length_a 10.348412
_cell_length_b 8.885720
_cell_length_c 28.359909
_cell_angle_alpha 90.000000
_cell_angle_beta 90.000000
_cell_angle_gamma 90.000000
_cell_volume 2607.781307
_symmetry_space_group_name_H-M "A M M 2"
_symmetry_group_IT_number 38
_symmetry_cell_setting 'orthorhombic'
loop_
_space_group_symop_operation_xyz
x,y,z
-x,-y,z
-x,y,z
x,-y,z
x,1/2+y,1/2+z
-x,1/2-y,1/2+z
-x,1/2+y,1/2+z
x,1/2-y,1/2+z
loop_
_atom_site_type_symbol
_atom_site_label
_atom_site_fract_x
_atom_site_fract_y
_atom_site_fract_z
Si Si1 0.500000 0.820617 0.041461
Si Si2 0.250201 0.677964 0.486940
Si Si3 0.240958 0.678254 0.697856
Si Si4 0.356862 0.321919 0.793431
Si Si5 0.500000 0.178232 0.146550
Si Si6 0.000000 0.178146 0.646871
Si Si7 0.000000 0.178599 0.043985
Si Si8 0.648826 0.823124 0.397922
O O1 0.500000 0.754041 0.094034
O O2 0.500000 0.000000 0.042530
O O3 0.626441 0.759130 0.015182
O O4 0.251642 0.500000 0.483399
O O5 0.123700 0.733680 0.514442
O O6 0.254504 0.742647 0.434141
O O7 0.217572 0.500000 0.691478
O O8 0.254862 0.725246 0.753007
O O9 0.371795 0.733507 0.672767
O O10 0.124167 0.768088 0.675457
O O11 0.500000 0.254679 0.782859
O O12 0.371241 0.500000 0.793156
O O13 0.309440 0.269957 0.845270
O O14 0.500000 0.000000 0.145136
O O15 0.000000 0.245965 0.594796
O O16 0.000000 0.000000 0.643090
O O17 0.000000 0.000000 0.051687
O O18 0.500000 0.775478 0.407269
O O19 0.665368 0.000000 0.403848
#
# Coordination Sequence:
#
# PCOD8177829 Si02
#       8
#     4   8   8   8   4   4   4   8
#     4   9  16  26  44  73 103 125 159 219 272 311
#     4  10  19  33  53  77 105 135 178 226 267 312
#     4  10  18  34  60  84 106 139 187 231 269 316
#     4   8  14  28  53  85 111 134 172 224 270 312
#     4   9  16  28  54  85 103 125 175 239 280 305
#     4  12  26  40  53  76 115 153 180 217 275 338
#     4  10  22  40  59  76  99 139 186 231 271 312
#     4   9  17  30  51  80 114 143 170 211 268 326
#
# _framework density 18.406452000000002
#
# number of rings (size 3 to 8) (size 9 to 14) (size 15 to 20)
#    0.000    2.500    1.667    2.750    0.000    3.333 
#    0.000    2.083    0.000    4.000    0.000    0.000 
#    0.000    0.000    0.000    0.000    0.000    0.000 
#
# Total GULP energy -297516.459228 kJ/mol
# GULP energy per Si atom -12396.519135 kJ/mol
# Density = 1.836456 g / cm^3
# Si number density = 18.406452 Si / 1000 Ang^3
#
#
#
# Elastic Constant Matrix: (Units=GPa)
#
#
# Indices 1 2 3 4 5 6 
#
# 1 142.4856 32.0797 87.9388 0.0000 0.0000 0.0000
# 2 32.0797 30.1878 36.1748 0.0000 0.0000 0.0000
# 3 87.9388 36.1748 187.7165 0.0000 0.0000 0.0000
# 4 0.0000 0.0000 0.0000 25.9685 0.0000 0.0000
# 5 0.0000 0.0000 0.0000 0.0000 32.9951 0.0000
# 6 0.0000 0.0000 0.0000 0.0000 0.0000 11.8680
#
#
#
# Elastic Compliance Matrix: (Units=1/GPa)
#
#
# Indices 1 2 3 4 5 6 
#
# 1 0.010938 -0.007130 -0.003750 0.000000 0.000000 0.000000
# 2 -0.007130 0.047720 -0.005856 0.000000 0.000000 0.000000
# 3 -0.003750 -0.005856 0.008213 0.000000 0.000000 0.000000
# 4 0.000000 0.000000 0.000000 0.038508 0.000000 0.000000
# 5 0.000000 0.000000 0.000000 0.000000 0.030308 0.000000
# 6 0.000000 0.000000 0.000000 0.000000 0.000000 0.084260
#
#
# Mechanical properties :
#
#
# Convention : Reuss Voigt Hill
#
# Bulk Modulus (GPa) = 29.94131 74.75295 52.34713
# Shear Modulus (GPa) = 18.90001 27.77943 23.33972
#
# Velocity S-wave (km/s) = 3.20787 3.88909 3.56479
# Velocity P-wave (km/s) = 5.47929 7.80174 6.74128
#
# Compressibility (1/GPa) = 0.03339867
#
# Stress axis : x y z
#
# Youngs Moduli (GPa) = 91.42527 20.95567 121.76531
#
# Poissons Ratio (x) = 0.14940 0.45663
# Poissons Ratio (y) = 0.65182 0.71308
# Poissons Ratio (z) = 0.34285 0.12272
#
# Static dielectric constant tensor:
#      x y z
#    x 4.440850 0.000000 0.000000 
#    y 0.000000 2.913950 0.000000 
#    z 0.000000 0.000000 3.824580 
# 
# 
# High freq. dielectric constant tensor:
#      x y z
#    x 1.702520 0.000000 0.000000 
#    y 0.000000 1.666650 0.000000 
#    z 0.000000 0.000000 1.735490 
# 
# From -- ./inp_files/24487.got.cif
#   From: 2010.03.12/outbox.cif.g09.slc.cpg/sg38_13_cif.got.tgz:24487.got - 2010.04.14 02:38:36.
