data_PCOD8177143
_publ_section_title
;
Structure prediction by ZEFSAII (Michael W. Deem and Ramdas Pophale) SiO2 
 PCOD8177143
Probable space group: C C C 2
;
_chemical_formula_sum "Si O2"
_cell_formula_units_Z 56
_cell_length_a 9.286194
_cell_length_b 13.354883
_cell_length_c 21.349662
_cell_angle_alpha 90.000000
_cell_angle_beta 90.000000
_cell_angle_gamma 90.000000
_cell_volume 2647.700417
_symmetry_space_group_name_H-M "C C C 2"
_symmetry_group_IT_number 37
_symmetry_cell_setting 'orthorhombic'
loop_
_space_group_symop_operation_xyz
x,y,z
-x,-y,z
-x,y,1/2+z
x,-y,1/2+z
1/2+x,1/2+y,z
1/2-x,1/2-y,z
1/2-x,1/2+y,1/2+z
1/2+x,1/2-y,1/2+z
loop_
_atom_site_type_symbol
_atom_site_label
_atom_site_fract_x
_atom_site_fract_y
_atom_site_fract_z
Si Si1 0.517967 0.734970 0.648750
Si Si2 0.779072 0.587059 0.791787
Si Si3 0.838299 0.540414 0.032926
Si Si4 0.250000 0.250000 0.068040
Si Si5 0.750000 0.750000 0.371472
Si Si6 0.338299 0.959586 0.906587
Si Si7 0.720928 0.912941 0.647725
Si Si8 0.482033 0.265030 0.790762
O O1 0.380025 0.705916 0.608668
O O2 0.578297 0.846497 0.633774
O O3 0.640333 0.654261 0.635982
O O4 0.467298 0.730850 0.719756
O O5 0.769041 0.496351 0.840965
O O6 0.782933 0.547137 0.719756
O O7 0.640333 0.654261 0.803531
O O8 0.921703 0.653503 0.805739
O O9 0.818209 0.660171 0.027376
O O10 0.769041 0.503649 0.098547
O O11 0.000000 0.500000 0.031377
O O12 0.759999 0.500000 0.969756
O O13 0.681791 0.839829 0.412136
O O14 0.619975 0.705916 0.330845
O O15 0.500000 0.000000 0.908135
#
# Coordination Sequence:
#
# PCOD8177143 Si02
#       8
#     8   8   8   4   4   8   8   8
#     4   9  19  36  64  99 131 167 216 266 323 389
#     4   9  19  40  65  92 133 174 207 267 331 380
#     4  11  25  45  64  95 131 171 216 268 332 387
#     4  12  23  40  66  96 121 174 220 266 320 394
#     4  12  23  40  66  96 121 174 220 266 320 394
#     4  11  25  45  64  95 131 171 216 268 332 387
#     4   9  19  40  65  92 133 174 207 267 331 380
#     4   9  19  36  64  99 131 167 216 266 323 389
#
# _framework density 21.150428999999999
#
# number of rings (size 3 to 8) (size 9 to 14) (size 15 to 20)
#    0.000    2.000    2.857    2.143    0.000    6.286 
#    0.000    4.286    0.000    0.000    0.000    0.000 
#    0.000    0.000    0.000    0.000    0.000    0.000 
#
# Total GULP energy -347038.466895 kJ/mol
# GULP energy per Si atom -12394.230961 kJ/mol
# Density = 2.110229 g / cm^3
# Si number density = 21.150429 Si / 1000 Ang^3
#
#
#
# Elastic Constant Matrix: (Units=GPa)
#
#
# Indices 1 2 3 4 5 6 
#
# 1 82.5135 26.0645 30.8457 0.0000 0.0000 0.0000
# 2 26.0645 133.6617 65.0969 0.0000 0.0000 0.0000
# 3 30.8457 65.0969 134.0780 0.0000 0.0000 0.0000
# 4 0.0000 0.0000 0.0000 16.0685 0.0000 0.0000
# 5 0.0000 0.0000 0.0000 0.0000 -1.8156 0.0000
# 6 0.0000 0.0000 0.0000 0.0000 0.0000 23.1483
#
#
#
# Elastic Compliance Matrix: (Units=1/GPa)
#
#
# Indices 1 2 3 4 5 6 
#
# 1 0.013475 -0.001464 -0.002389 0.000000 0.000000 0.000000
# 2 -0.001464 0.009958 -0.004498 0.000000 0.000000 0.000000
# 3 -0.002389 -0.004498 0.010192 0.000000 0.000000 0.000000
# 4 0.000000 0.000000 0.000000 0.062234 0.000000 0.000000
# 5 0.000000 0.000000 0.000000 0.000000 -0.550790 0.000000
# 6 0.000000 0.000000 0.000000 0.000000 0.000000 0.043200
#
#
# Mechanical properties :
#
#
# Convention : Reuss Voigt Hill
#
# Bulk Modulus (GPa) = 59.09395 66.02971 62.56183
# Shear Modulus (GPa) = -12.84060 22.69667 4.92803
#
# Velocity S-wave (km/s) = -2.46663 3.27938 1.52809
# Velocity P-wave (km/s) = 4.45961 6.75470 5.72338
#
# Compressibility (1/GPa) = 0.01692221
#
# Stress axis : x y z
#
# Youngs Moduli (GPa) = 74.21249 100.42589 98.11890
#
# Poissons Ratio (x) = 0.14703 0.23442
# Poissons Ratio (y) = 0.10865 0.44131
# Poissons Ratio (z) = 0.17731 0.45169
#
# Static dielectric constant tensor:
#      x y z
#    x 3.648230 0.000000 0.000000 
#    y 0.000000 3.869930 0.000000 
#    z 0.000000 0.000000 4.135480 
# 
# 
# High freq. dielectric constant tensor:
#      x y z
#    x 1.819870 0.000000 0.000000 
#    y 0.000000 1.823020 0.000000 
#    z 0.000000 0.000000 1.827430 
# 
# From -- ./inp_files/16477.got.cif
#   From: 2010.03.12/outbox.cif.g09.slc.cpg/sg37_9_cif.got.tgz:16477.got - 2010.04.14 02:25:27.
