data_PCOD8177388
_publ_section_title
;
Structure prediction by ZEFSAII (Michael W. Deem and Ramdas Pophale) SiO2 
 PCOD8177388
Probable space group: A M M 2
;
_chemical_formula_sum "Si O2"
_cell_formula_units_Z 56
_cell_length_a 8.774396
_cell_length_b 29.564136
_cell_length_c 13.528984
_cell_angle_alpha 90.000000
_cell_angle_beta 90.000000
_cell_angle_gamma 90.000000
_cell_volume 3509.519060
_symmetry_space_group_name_H-M "A M M 2"
_symmetry_group_IT_number 38
_symmetry_cell_setting 'orthorhombic'
loop_
_space_group_symop_operation_xyz
x,y,z
-x,-y,z
-x,y,z
x,-y,z
x,1/2+y,1/2+z
-x,1/2-y,1/2+z
-x,1/2+y,1/2+z
x,1/2-y,1/2+z
loop_
_atom_site_type_symbol
_atom_site_label
_atom_site_fract_x
_atom_site_fract_y
_atom_site_fract_z
Si Si1 0.178966 0.680829 0.772920
Si Si2 0.678609 0.265174 0.173625
Si Si3 0.322638 0.597055 0.466374
Si Si4 0.319179 0.592383 0.690967
Si Si5 0.320345 0.686421 0.370660
Si Si6 0.677241 0.500000 0.479848
Si Si7 0.821902 0.230604 0.471875
Si Si8 0.178530 0.500000 0.688792
O O1 0.241258 0.717353 0.695013
O O2 0.259459 0.633017 0.758056
O O3 0.219653 0.696176 0.884082
O O4 0.000000 0.676003 0.756311
O O5 0.500000 0.256096 0.168330
O O6 0.721328 0.301736 0.257818
O O7 0.738172 0.285956 0.071090
O O8 0.500000 0.606380 0.472334
O O9 0.259002 0.599652 0.578357
O O10 0.255464 0.636108 0.395428
O O11 0.289946 0.546699 0.420014
O O12 0.500000 0.590096 0.695813
O O13 0.252159 0.545496 0.735004
O O14 0.500000 0.691447 0.388623
O O15 0.235874 0.719534 0.445659
O O16 0.500000 0.500000 0.516653
O O17 0.787563 0.500000 0.572765
O O18 0.000000 0.232374 0.492038
O O19 0.000000 0.500000 0.710095
#
# Coordination Sequence:
#
# PCOD8177388 Si02
#       8
#     8   8   8   8   8   4   8   4
#     4  10  20  32  46  66  89 115 149 186 227 271
#     4  10  19  30  45  64  88 118 150 185 223 267
#     4   8  14  25  42  63  86 112 142 176 215 260
#     4  10  18  29  46  67  91 119 149 182 221 266
#     4   9  17  29  45  65  87 113 149 185 220 265
#     4   8  14  26  42  60  85 116 147 180 221 266
#     4  10  20  32  45  62  88 118 148 184 223 266
#     4  10  18  28  42  62  91 122 149 180 217 260
#
# _framework density 15.956602
#
# number of rings (size 3 to 8) (size 9 to 14) (size 15 to 20)
#    0.000    2.571    0.000    4.071    0.000    3.429 
#    0.000    2.857    0.000    0.000    0.000    1.000 
#    0.000    2.286    0.000    0.000    0.000    0.286 
#
# Total GULP energy -347059.218899 kJ/mol
# GULP energy per Si atom -12394.972104 kJ/mol
# Density = 1.592028 g / cm^3
# Si number density = 15.956602 Si / 1000 Ang^3
#
#
#
# Elastic Constant Matrix: (Units=GPa)
#
#
# Indices 1 2 3 4 5 6 
#
# 1 62.8185 39.3344 28.2325 0.0000 0.0000 0.0000
# 2 39.3344 153.8623 49.7812 0.0000 0.0000 0.0000
# 3 28.2325 49.7812 77.7284 0.0000 0.0000 0.0000
# 4 0.0000 0.0000 0.0000 22.0110 0.0000 0.0000
# 5 0.0000 0.0000 0.0000 0.0000 21.4187 0.0000
# 6 0.0000 0.0000 0.0000 0.0000 0.0000 20.3158
#
#
#
# Elastic Compliance Matrix: (Units=1/GPa)
#
#
# Indices 1 2 3 4 5 6 
#
# 1 0.020466 -0.003566 -0.005150 0.000000 0.000000 0.000000
# 2 -0.003566 0.008819 -0.004353 0.000000 0.000000 0.000000
# 3 -0.005150 -0.004353 0.017524 0.000000 0.000000 0.000000
# 4 0.000000 0.000000 0.000000 0.045432 0.000000 0.000000
# 5 0.000000 0.000000 0.000000 0.000000 0.046688 0.000000
# 6 0.000000 0.000000 0.000000 0.000000 0.000000 0.049223
#
#
# Mechanical properties :
#
#
# Convention : Reuss Voigt Hill
#
# Bulk Modulus (GPa) = 48.37594 58.78949 53.58272
# Shear Modulus (GPa) = 22.60594 24.55317 23.57956
#
# Velocity S-wave (km/s) = 3.76801 3.92694 3.84830
# Velocity P-wave (km/s) = 7.02236 7.58185 7.30746
#
# Compressibility (1/GPa) = 0.02067143
#
# Stress axis : x y z
#
# Youngs Moduli (GPa) = 48.86100 113.38677 57.06497
#
# Poissons Ratio (x) = 0.40432 0.29388
# Poissons Ratio (y) = 0.17423 0.24841
# Poissons Ratio (z) = 0.25163 0.49359
#
# Static dielectric constant tensor:
#      x y z
#    x 2.972470 0.000000 0.000000 
#    y 0.000000 3.316130 0.000000 
#    z 0.000000 0.000000 2.904820 
# 
# 
# High freq. dielectric constant tensor:
#      x y z
#    x 1.613410 0.000000 0.000000 
#    y 0.000000 1.616270 0.000000 
#    z 0.000000 0.000000 1.577670 
# 
# From -- ./inp_files/13039.got.cif
#   From: 2010.03.12/outbox.cif.g09.slc.cpg/sg38_7_cif.got.tgz:13039.got - 2010.04.14 02:38:36.
