data_PCOD8177013
_publ_section_title
;
Structure prediction by ZEFSAII (Michael W. Deem and Ramdas Pophale) SiO2 
 PCOD8177013
Probable space group: C C C 2
;
_chemical_formula_sum "Si O2"
_cell_formula_units_Z 40
_cell_length_a 4.984004
_cell_length_b 26.085532
_cell_length_c 12.509830
_cell_angle_alpha 90.000000
_cell_angle_beta 90.000000
_cell_angle_gamma 90.000000
_cell_volume 1626.407950
_symmetry_space_group_name_H-M "C C C 2"
_symmetry_group_IT_number 37
_symmetry_cell_setting 'orthorhombic'
loop_
_space_group_symop_operation_xyz
x,y,z
-x,-y,z
-x,y,1/2+z
x,-y,1/2+z
1/2+x,1/2+y,z
1/2-x,1/2-y,z
1/2-x,1/2+y,1/2+z
1/2+x,1/2-y,1/2+z
loop_
_atom_site_type_symbol
_atom_site_label
_atom_site_fract_x
_atom_site_fract_y
_atom_site_fract_z
Si Si1 0.249900 0.036461 0.380590
Si Si2 0.544961 0.441082 0.658715
Si Si3 0.831173 0.692618 0.165378
Si Si4 0.308006 0.356024 0.761620
Si Si5 0.890392 0.387879 0.489290
O O1 0.205844 0.066801 0.269991
O O2 0.328182 0.081426 0.466528
O O3 0.500000 0.000000 0.363007
O O4 0.000000 0.000000 0.414967
O O5 0.500000 0.500000 0.641214
O O6 0.278700 0.405276 0.679460
O O7 0.705867 0.426056 0.554915
O O8 0.750000 0.750000 0.136141
O O9 0.601257 0.666063 0.234991
O O10 0.093731 0.688812 0.239555
O O11 0.917192 0.665042 0.054585
O O12 0.276610 0.375936 0.881882
#
# Coordination Sequence:
#
# PCOD8177013 Si02
#       5
#     8   8   8   8   8
#     4  11  25  44  67 103 152 196 234 282 348 426
#     4  10  24  45  68 105 151 194 236 287 345 426
#     4  11  27  49  72 102 139 182 240 309 374 431
#     4  11  25  46  71 102 142 186 238 300 360 426
#     4  11  24  44  73 106 140 190 243 294 354 429
#
# _framework density 24.594076000000001
#
# number of rings (size 3 to 8) (size 9 to 14) (size 15 to 20)
#    0.000    1.200    0.000    5.400    0.000   16.800 
#    0.000    1.000    0.000    0.000    0.000    0.000 
#    0.000    0.000    0.000    0.000    0.000    0.000 
#
# Total GULP energy -247838.562115 kJ/mol
# GULP energy per Si atom -12391.928106 kJ/mol
# Density = 2.453810 g / cm^3
# Si number density = 24.594076 Si / 1000 Ang^3
#
#
#
# Elastic Constant Matrix: (Units=GPa)
#
#
# Indices 1 2 3 4 5 6 
#
# 1 131.5803 53.8827 50.2846 0.0000 0.0000 0.0000
# 2 53.8827 192.7421 64.7348 0.0000 0.0000 0.0000
# 3 50.2846 64.7348 167.1077 0.0000 0.0000 0.0000
# 4 0.0000 0.0000 0.0000 40.0209 0.0000 0.0000
# 5 0.0000 0.0000 0.0000 0.0000 7.4720 0.0000
# 6 0.0000 0.0000 0.0000 0.0000 0.0000 43.0509
#
#
#
# Elastic Compliance Matrix: (Units=1/GPa)
#
#
# Indices 1 2 3 4 5 6 
#
# 1 0.009142 -0.001876 -0.002024 0.000000 0.000000 0.000000
# 2 -0.001876 0.006349 -0.001895 0.000000 0.000000 0.000000
# 3 -0.002024 -0.001895 0.007327 0.000000 0.000000 0.000000
# 4 0.000000 0.000000 0.000000 0.024987 0.000000 0.000000
# 5 0.000000 0.000000 0.000000 0.000000 0.133833 0.000000
# 6 0.000000 0.000000 0.000000 0.000000 0.000000 0.023228
#
#
# Mechanical properties :
#
#
# Convention : Reuss Voigt Hill
#
# Bulk Modulus (GPa) = 89.06268 92.13715 90.59992
# Shear Modulus (GPa) = 22.70673 39.61063 31.15868
#
# Velocity S-wave (km/s) = 3.04182 4.01755 3.56324
# Velocity P-wave (km/s) = 6.97342 7.68540 7.33805
#
# Compressibility (1/GPa) = 0.01122805
#
# Stress axis : x y z
#
# Youngs Moduli (GPa) = 109.38979 157.50096 136.47405
#
# Poissons Ratio (x) = 0.29544 0.27625
# Poissons Ratio (y) = 0.20519 0.25863
# Poissons Ratio (z) = 0.22142 0.29848
#
# Static dielectric constant tensor:
#      x y z
#    x 4.854430 0.000000 0.000000 
#    y 0.000000 4.762930 0.000000 
#    z 0.000000 0.000000 4.764080 
# 
# 
# High freq. dielectric constant tensor:
#      x y z
#    x 1.984090 0.000000 0.000000 
#    y 0.000000 1.978890 0.000000 
#    z 0.000000 0.000000 1.994760 
# 
# From -- ./inp_files/5530.got.cif
#   From: 2010.03.12/outbox.cif.g09.slc.cpg/sg37_3_cif.got.tgz:5530.got - 2010.04.14 02:25:27.
