data_PCOD8177923
_publ_section_title
;
Structure prediction by ZEFSAII (Michael W. Deem and Ramdas Pophale) SiO2 
 PCOD8177923
Probable space group: A M M 2
;
_chemical_formula_sum "Si O2"
_cell_formula_units_Z 56
_cell_length_a 9.099920
_cell_length_b 13.641640
_cell_length_c 29.267192
_cell_angle_alpha 90.000000
_cell_angle_beta 90.000000
_cell_angle_gamma 90.000000
_cell_volume 3633.165783
_symmetry_space_group_name_H-M "A M M 2"
_symmetry_group_IT_number 38
_symmetry_cell_setting 'orthorhombic'
loop_
_space_group_symop_operation_xyz
x,y,z
-x,-y,z
-x,y,z
x,-y,z
x,1/2+y,1/2+z
-x,1/2-y,1/2+z
-x,1/2+y,1/2+z
x,1/2-y,1/2+z
loop_
_atom_site_type_symbol
_atom_site_label
_atom_site_fract_x
_atom_site_fract_y
_atom_site_fract_z
Si Si1 0.825700 0.722234 0.063870
Si Si2 0.326443 0.886929 0.483529
Si Si3 0.174451 0.701187 0.700269
Si Si4 0.827568 0.111712 0.294502
Si Si5 0.827040 0.393062 0.152695
Si Si6 0.669951 0.886791 0.115531
Si Si7 0.662277 0.116415 0.381960
O O1 0.778872 0.644802 0.102882
O O2 0.751655 0.826036 0.075846
O O3 0.000000 0.736501 0.061196
O O4 0.765237 0.683367 0.016166
O O5 0.500000 0.872611 0.490913
O O6 0.280113 0.853866 0.432232
O O7 0.282868 0.000000 0.492410
O O8 0.226872 0.674413 0.751167
O O9 0.221539 0.814111 0.690929
O O10 0.254895 0.630624 0.664577
O O11 0.000000 0.685983 0.693808
O O12 0.762735 0.157949 0.341075
O O13 0.000000 0.117269 0.299478
O O14 0.774602 0.000000 0.287275
O O15 0.754030 0.500000 0.162000
O O16 0.000000 0.404476 0.153879
O O17 0.500000 0.854848 0.118287
O O18 0.685987 0.000000 0.102340
O O19 0.500000 0.159661 0.374309
O O20 0.658040 0.000000 0.380010
#
# Coordination Sequence:
#
# PCOD8177923 Si02
#       7
#     8   8   8   8   8   8   8
#     4  10  19  29  44  65  87 113 144 177 213 256
#     4   9  17  29  44  63  89 117 143 176 216 256
#     4   9  17  28  43  63  86 113 143 176 216 257
#     4   9  16  25  38  58  84 111 139 174 214 255
#     4   8  14  25  40  59  83 109 138 170 202 241
#     4  10  20  32  45  62  85 113 145 179 213 255
#     4   8  15  27  41  58  82 112 142 171 209 256
#
# _framework density 15.413555000000001
#
# number of rings (size 3 to 8) (size 9 to 14) (size 15 to 20)
#    0.000    3.000    0.000    3.429    0.000    3.714 
#    0.000    2.857    0.000    3.857    0.000    1.000 
#    0.000    3.429    0.000    0.000    0.000    0.000 
#
# Total GULP energy -347053.272859 kJ/mol
# GULP energy per Si atom -12394.759745 kJ/mol
# Density = 1.537847 g / cm^3
# Si number density = 15.413555 Si / 1000 Ang^3
#
#
#
# Elastic Constant Matrix: (Units=GPa)
#
#
# Indices 1 2 3 4 5 6 
#
# 1 54.9471 34.5334 48.5955 0.0000 0.0000 0.0000
# 2 34.5334 84.0268 56.3835 0.0000 0.0000 0.0000
# 3 48.5955 56.3835 141.9143 0.0000 0.0000 0.0000
# 4 0.0000 0.0000 0.0000 23.4772 0.0000 0.0000
# 5 0.0000 0.0000 0.0000 0.0000 26.6491 0.0000
# 6 0.0000 0.0000 0.0000 0.0000 0.0000 17.1578
#
#
#
# Elastic Compliance Matrix: (Units=1/GPa)
#
#
# Indices 1 2 3 4 5 6 
#
# 1 0.028948 -0.007152 -0.007071 0.000000 0.000000 0.000000
# 2 -0.007152 0.017994 -0.004700 0.000000 0.000000 0.000000
# 3 -0.007071 -0.004700 0.011335 0.000000 0.000000 0.000000
# 4 0.000000 0.000000 0.000000 0.042594 0.000000 0.000000
# 5 0.000000 0.000000 0.000000 0.000000 0.037525 0.000000
# 6 0.000000 0.000000 0.000000 0.000000 0.000000 0.058283
#
#
# Mechanical properties :
#
#
# Convention : Reuss Voigt Hill
#
# Bulk Modulus (GPa) = 48.94588 62.21254 55.57921
# Shear Modulus (GPa) = 20.71799 22.88190 21.79994
#
# Velocity S-wave (km/s) = 3.67023 3.85714 3.76485
# Velocity P-wave (km/s) = 7.05584 7.76444 7.41860
#
# Compressibility (1/GPa) = 0.02043073
#
# Stress axis : x y z
#
# Youngs Moduli (GPa) = 34.54468 55.57325 88.22106
#
# Poissons Ratio (x) = 0.39748 0.62381
# Poissons Ratio (y) = 0.24708 0.41465
# Poissons Ratio (z) = 0.24426 0.26120
#
# Static dielectric constant tensor:
#      x y z
#    x 2.913520 0.000000 0.000000 
#    y 0.000000 2.940610 0.000000 
#    z 0.000000 0.000000 3.076150 
# 
# 
# High freq. dielectric constant tensor:
#      x y z
#    x 1.583980 0.000000 0.000000 
#    y 0.000000 1.563000 0.000000 
#    z 0.000000 0.000000 1.588600 
# 
# From -- ./inp_files/24647.got.cif
#   From: 2010.03.12/outbox.cif.g09.slc.cpg/sg38_13_cif.got.tgz:24647.got - 2010.04.14 02:38:36.
