data_PCOD8177282
_publ_section_title
;
Structure prediction by ZEFSAII (Michael W. Deem and Ramdas Pophale) SiO2 
 PCOD8177282
Probable space group: A M M 2
;
_chemical_formula_sum "Si O2"
_cell_formula_units_Z 64
_cell_length_a 9.055165
_cell_length_b 30.523968
_cell_length_c 14.323375
_cell_angle_alpha 90.000000
_cell_angle_beta 90.000000
_cell_angle_gamma 90.000000
_cell_volume 3958.974644
_symmetry_space_group_name_H-M "A M M 2"
_symmetry_group_IT_number 38
_symmetry_cell_setting 'orthorhombic'
loop_
_space_group_symop_operation_xyz
x,y,z
-x,-y,z
-x,y,z
x,-y,z
x,1/2+y,1/2+z
-x,1/2-y,1/2+z
-x,1/2+y,1/2+z
x,1/2-y,1/2+z
loop_
_atom_site_type_symbol
_atom_site_label
_atom_site_fract_x
_atom_site_fract_y
_atom_site_fract_z
Si Si1 0.669730 0.367605 0.703330
Si Si2 0.667081 0.225960 0.866869
Si Si3 0.172170 0.132269 0.560727
Si Si4 0.335319 0.674447 0.897625
Si Si5 0.174361 0.283714 0.174933
Si Si6 0.674774 0.796181 0.067899
Si Si7 0.326279 0.450822 0.010742
Si Si8 0.676177 0.452047 0.797433
O O1 0.500000 0.376866 0.681689
O O2 0.692416 0.335510 0.790037
O O3 0.737566 0.340958 0.615834
O O4 0.743502 0.414966 0.727660
O O5 0.500000 0.216916 0.831943
O O6 0.681842 0.274128 0.909471
O O7 0.778313 0.217413 0.782856
O O8 0.708543 0.197074 0.957904
O O9 0.215024 0.149924 0.458974
O O10 0.221715 0.168392 0.636784
O O11 0.250336 0.085253 0.577834
O O12 0.000000 0.123791 0.564844
O O13 0.500000 0.658759 0.927896
O O14 0.249363 0.246183 0.113314
O O15 0.000000 0.276876 0.168124
O O16 0.500000 0.790685 0.086616
O O17 0.500000 0.445637 0.020769
O O18 0.278139 0.500000 0.040995
O O19 0.275150 0.442293 0.903749
O O20 0.500000 0.450765 0.795229
O O21 0.733682 0.500000 0.765571
#
# Coordination Sequence:
#
# PCOD8177282 Si02
#       8
#     8   8   8   8   8   8   8   8
#     4   9  15  25  43  67  92 119 153 191 230 276
#     4  10  20  33  49  67  90 124 165 206 243 279
#     4  11  22  32  44  68  99 131 161 192 237 288
#     4  10  17  28  48  68  91 124 159 198 237 277
#     4  11  23  34  46  67  97 129 161 196 237 292
#     4  10  19  32  50  71  92 120 163 205 242 285
#     4   9  17  30  49  71  93 122 161 199 236 283
#     4   8  13  22  40  67  95 120 147 181 224 276
#
# _framework density 16.165801999999999
#
# number of rings (size 3 to 8) (size 9 to 14) (size 15 to 20)
#    0.000    2.250    3.750    1.500    0.000    2.750 
#    0.000    0.000    0.000    0.000    0.000    0.875 
#    0.000    3.000    0.000    0.000    0.000    0.000 
#
# Total GULP energy -396550.087449 kJ/mol
# GULP energy per Si atom -12392.190233 kJ/mol
# Density = 1.612901 g / cm^3
# Si number density = 16.165802 Si / 1000 Ang^3
#
#
#
# Elastic Constant Matrix: (Units=GPa)
#
#
# Indices 1 2 3 4 5 6 
#
# 1 35.7988 31.5414 23.3109 0.0000 0.0000 0.0000
# 2 31.5414 95.1773 45.5641 0.0000 0.0000 0.0000
# 3 23.3109 45.5641 59.6138 0.0000 0.0000 0.0000
# 4 0.0000 0.0000 0.0000 25.7791 0.0000 0.0000
# 5 0.0000 0.0000 0.0000 0.0000 18.1731 0.0000
# 6 0.0000 0.0000 0.0000 0.0000 0.0000 17.3817
#
#
#
# Elastic Compliance Matrix: (Units=1/GPa)
#
#
# Indices 1 2 3 4 5 6 
#
# 1 0.042440 -0.009651 -0.009219 0.000000 0.000000 0.000000
# 2 -0.009651 0.018764 -0.010568 0.000000 0.000000 0.000000
# 3 -0.009219 -0.010568 0.028457 0.000000 0.000000 0.000000
# 4 0.000000 0.000000 0.000000 0.038791 0.000000 0.000000
# 5 0.000000 0.000000 0.000000 0.000000 0.055026 0.000000
# 6 0.000000 0.000000 0.000000 0.000000 0.000000 0.057532
#
#
# Mechanical properties :
#
#
# Convention : Reuss Voigt Hill
#
# Bulk Modulus (GPa) = 32.48307 43.49141 37.98724
# Shear Modulus (GPa) = 16.12129 18.27835 17.19982
#
# Velocity S-wave (km/s) = 3.16135 3.36621 3.26538
# Velocity P-wave (km/s) = 5.78470 6.48616 6.14545
#
# Compressibility (1/GPa) = 0.03078527
#
# Stress axis : x y z
#
# Youngs Moduli (GPa) = 23.56241 53.29267 35.14090
#
# Poissons Ratio (x) = 0.51434 0.32396
# Poissons Ratio (y) = 0.22741 0.37137
# Poissons Ratio (z) = 0.21722 0.56320
#
# Static dielectric constant tensor:
#      x y z
#    x 2.809160 0.000000 0.000000 
#    y 0.000000 3.465990 0.000000 
#    z 0.000000 0.000000 2.960530 
# 
# 
# High freq. dielectric constant tensor:
#      x y z
#    x 1.594030 0.000000 0.000000 
#    y 0.000000 1.625120 0.000000 
#    z 0.000000 0.000000 1.593840 
# 
# From -- ./inp_files/13063.got.cif
#   From: 2010.03.12/outbox.cif.g09.slc.cpg/sg38_7_cif.got.tgz:13063.got - 2010.04.14 02:38:36.
