data_PCOD8177070
_publ_section_title
;
Structure prediction by ZEFSAII (Michael W. Deem and Ramdas Pophale) SiO2 
 PCOD8177070
Probable space group: C C C 2
;
_chemical_formula_sum "Si O2"
_cell_formula_units_Z 56
_cell_length_a 14.154995
_cell_length_b 15.277713
_cell_length_c 11.689098
_cell_angle_alpha 90.000000
_cell_angle_beta 90.000000
_cell_angle_gamma 90.000000
_cell_volume 2527.837006
_symmetry_space_group_name_H-M "C C C 2"
_symmetry_group_IT_number 37
_symmetry_cell_setting 'orthorhombic'
loop_
_space_group_symop_operation_xyz
x,y,z
-x,-y,z
-x,y,1/2+z
x,-y,1/2+z
1/2+x,1/2+y,z
1/2-x,1/2-y,z
1/2-x,1/2+y,1/2+z
1/2+x,1/2-y,1/2+z
loop_
_atom_site_type_symbol
_atom_site_label
_atom_site_fract_x
_atom_site_fract_y
_atom_site_fract_z
Si Si1 0.801816 0.902945 0.266400
Si Si2 0.998972 0.841265 0.711216
Si Si3 0.801816 0.402945 0.532826
Si Si4 0.855803 0.423838 0.931393
Si Si5 0.644197 0.423838 0.367833
Si Si6 0.000000 0.500000 0.257986
Si Si7 0.500000 0.500000 0.041240
Si Si8 0.501028 0.158735 0.088010
O O1 0.898192 0.847237 0.270107
O O2 0.750000 0.879681 0.149613
O O3 0.734077 0.876344 0.372723
O O4 0.823405 0.006892 0.271367
O O5 0.922304 0.850097 0.812739
O O6 0.984419 0.750000 0.649613
O O7 0.980721 0.916623 0.619615
O O8 0.823405 0.506892 0.527859
O O9 0.734077 0.376344 0.426503
O O10 0.898192 0.347237 0.529119
O O11 0.908960 0.481465 0.835354
O O12 0.922304 0.350097 0.986487
O O13 0.591040 0.481465 0.463872
O O14 0.980721 0.416623 0.179611
#
# Coordination Sequence:
#
# PCOD8177070 Si02
#       8
#     8   8   8   8   8   4   4   8
#     4  11  21  41  70  99 136 183 237 288 351 428
#     4  12  25  43  70 106 143 184 235 300 359 424
#     4  11  21  41  70  99 136 183 237 288 351 428
#     4  11  22  42  72  98 135 195 232 289 364 423
#     4  11  22  42  72  98 135 195 232 289 364 423
#     4  12  20  46  68  96 144 182 236 286 358 434
#     4  12  20  46  68  96 144 182 236 286 358 434
#     4  12  25  43  70 106 143 184 235 300 359 424
#
# _framework density 22.153327000000001
#
# number of rings (size 3 to 8) (size 9 to 14) (size 15 to 20)
#    0.000    0.571    8.571    0.000    0.000    1.714 
#    0.000    0.000    6.286    6.857    0.000    0.000 
#    0.000    0.000    0.000    0.000    0.000    0.000 
#
# Total GULP energy -347269.369417 kJ/mol
# GULP energy per Si atom -12402.477479 kJ/mol
# Density = 2.210290 g / cm^3
# Si number density = 22.153327 Si / 1000 Ang^3
#
#
#
# Elastic Constant Matrix: (Units=GPa)
#
#
# Indices 1 2 3 4 5 6 
#
# 1 174.8193 60.2331 71.8525 0.0000 0.0000 0.0000
# 2 60.2331 126.8258 62.3687 0.0000 0.0000 0.0000
# 3 71.8525 62.3687 93.9920 0.0000 0.0000 0.0000
# 4 0.0000 0.0000 0.0000 26.5852 0.0000 0.0000
# 5 0.0000 0.0000 0.0000 0.0000 54.4222 0.0000
# 6 0.0000 0.0000 0.0000 0.0000 0.0000 18.8750
#
#
#
# Elastic Compliance Matrix: (Units=1/GPa)
#
#
# Indices 1 2 3 4 5 6 
#
# 1 0.008471 -0.001245 -0.005650 0.000000 0.000000 0.000000
# 2 -0.001245 0.011887 -0.006936 0.000000 0.000000 0.000000
# 3 -0.005650 -0.006936 0.019561 0.000000 0.000000 0.000000
# 4 0.000000 0.000000 0.000000 0.037615 0.000000 0.000000
# 5 0.000000 0.000000 0.000000 0.000000 0.018375 0.000000
# 6 0.000000 0.000000 0.000000 0.000000 0.000000 0.052980
#
#
# Mechanical properties :
#
#
# Convention : Reuss Voigt Hill
#
# Bulk Modulus (GPa) = 81.58295 87.17174 84.37735
# Shear Modulus (GPa) = 27.67999 33.38867 30.53433
#
# Velocity S-wave (km/s) = 3.53862 3.88643 3.71660
# Velocity P-wave (km/s) = 7.32136 7.71841 7.52250
#
# Compressibility (1/GPa) = 0.01225746
#
# Stress axis : x y z
#
# Youngs Moduli (GPa) = 118.04652 84.12600 51.12303
#
# Poissons Ratio (x) = 0.10472 0.28884
# Poissons Ratio (y) = 0.14695 0.35459
# Poissons Ratio (z) = 0.66695 0.58350
#
# Static dielectric constant tensor:
#      x y z
#    x 4.402570 0.000000 0.000000 
#    y 0.000000 3.313400 0.000000 
#    z 0.000000 0.000000 4.205060 
# 
# 
# High freq. dielectric constant tensor:
#      x y z
#    x 1.891780 0.000000 0.000000 
#    y 0.000000 1.834620 0.000000 
#    z 0.000000 0.000000 1.881630 
# 
# From -- ./inp_files/7861.got.cif
#   From: 2010.03.12/outbox.cif.g09.slc.cpg/sg37_4_cif.got.tgz:7861.got - 2010.04.14 02:25:27.
