data_PCOD8177693
_publ_section_title
;
Structure prediction by ZEFSAII (Michael W. Deem and Ramdas Pophale) SiO2 
 PCOD8177693
Probable space group: A M M 2
;
_chemical_formula_sum "Si O2"
_cell_formula_units_Z 48
_cell_length_a 8.766501
_cell_length_b 18.459638
_cell_length_c 15.047068
_cell_angle_alpha 90.000000
_cell_angle_beta 90.000000
_cell_angle_gamma 90.000000
_cell_volume 2435.013371
_symmetry_space_group_name_H-M "A M M 2"
_symmetry_group_IT_number 38
_symmetry_cell_setting 'orthorhombic'
loop_
_space_group_symop_operation_xyz
x,y,z
-x,-y,z
-x,y,z
x,-y,z
x,1/2+y,1/2+z
-x,1/2-y,1/2+z
-x,1/2+y,1/2+z
x,1/2-y,1/2+z
loop_
_atom_site_type_symbol
_atom_site_label
_atom_site_fract_x
_atom_site_fract_y
_atom_site_fract_z
Si Si1 0.180272 0.231122 0.603540
Si Si2 0.680804 0.156489 0.244657
Si Si3 0.821132 0.421766 0.168036
Si Si4 0.318358 0.500000 0.687420
Si Si5 0.672796 0.736541 0.916311
Si Si6 0.672598 0.607491 0.347295
Si Si7 0.321422 0.500000 0.492968
O O1 0.248939 0.290934 0.669677
O O2 0.249331 0.150260 0.622615
O O3 0.219481 0.245999 0.501037
O O4 0.000000 0.232936 0.616850
O O5 0.500000 0.163219 0.232572
O O6 0.739504 0.073843 0.233875
O O7 0.728663 0.175662 0.346174
O O8 0.760503 0.500000 0.129400
O O9 0.784526 0.420248 0.271891
O O10 0.000000 0.419251 0.154645
O O11 0.500000 0.500000 0.686603
O O12 0.243442 0.500000 0.589159
O O13 0.500000 0.722521 0.949559
O O14 0.682267 0.807203 0.855675
O O15 0.500000 0.582508 0.324565
O O16 0.727383 0.571717 0.439540
O O17 0.500000 0.500000 0.510716
#
# Coordination Sequence:
#
# PCOD8177693 Si02
#       7
#     8   8   8   4   8   8   4
#     4  11  23  38  59  84 114 152 193 236 284 341
#     4  10  20  38  63  86 115 151 190 237 285 337
#     4  10  21  37  55  78 112 150 186 228 281 336
#     4   9  18  34  57  84 115 148 182 231 287 335
#     4  10  21  36  57  85 114 149 192 236 282 336
#     4  10  18  31  54  82 110 141 182 230 283 337
#     4   9  16  26  47  80 111 136 170 221 281 339
#
# _framework density 19.712416000000001
#
# number of rings (size 3 to 8) (size 9 to 14) (size 15 to 20)
#    0.000    2.000    2.500    1.500    0.000    4.667 
#    1.500    0.417    0.000    0.000    0.000    0.000 
#    0.000    0.000    0.000    0.000    0.000    0.000 
#
# Total GULP energy -297412.648277 kJ/mol
# GULP energy per Si atom -12392.193678 kJ/mol
# Density = 1.966755 g / cm^3
# Si number density = 19.712416 Si / 1000 Ang^3
#
#
#
# Elastic Constant Matrix: (Units=GPa)
#
#
# Indices 1 2 3 4 5 6 
#
# 1 23.8170 22.6848 17.1971 0.0000 0.0000 0.0000
# 2 22.6848 145.5846 36.3963 0.0000 0.0000 0.0000
# 3 17.1971 36.3963 83.2021 0.0000 0.0000 0.0000
# 4 0.0000 0.0000 0.0000 26.1244 0.0000 0.0000
# 5 0.0000 0.0000 0.0000 0.0000 22.2222 0.0000
# 6 0.0000 0.0000 0.0000 0.0000 0.0000 16.4498
#
#
#
# Elastic Compliance Matrix: (Units=1/GPa)
#
#
# Indices 1 2 3 4 5 6 
#
# 1 0.054085 -0.006324 -0.008412 0.000000 0.000000 0.000000
# 2 -0.006324 0.008452 -0.002390 0.000000 0.000000 0.000000
# 3 -0.008412 -0.002390 0.014803 0.000000 0.000000 0.000000
# 4 0.000000 0.000000 0.000000 0.038278 0.000000 0.000000
# 5 0.000000 0.000000 0.000000 0.000000 0.045000 0.000000
# 6 0.000000 0.000000 0.000000 0.000000 0.000000 0.060791
#
#
# Mechanical properties :
#
#
# Convention : Reuss Voigt Hill
#
# Bulk Modulus (GPa) = 23.20919 45.01780 34.11349
# Shear Modulus (GPa) = 18.51686 24.71432 21.61559
#
# Velocity S-wave (km/s) = 3.06821 3.54467 3.31501
# Velocity P-wave (km/s) = 4.93470 6.29601 5.65646
#
# Compressibility (1/GPa) = 0.04308638
#
# Stress axis : x y z
#
# Youngs Moduli (GPa) = 18.48956 118.31773 67.55317
#
# Poissons Ratio (x) = 0.74828 0.56827
# Poissons Ratio (y) = 0.11693 0.16145
# Poissons Ratio (z) = 0.15554 0.28278
#
# Static dielectric constant tensor:
#      x y z
#    x 3.266210 0.000000 0.000000 
#    y 0.000000 4.198960 0.000000 
#    z 0.000000 0.000000 3.492740 
# 
# 
# High freq. dielectric constant tensor:
#      x y z
#    x 1.732050 0.000000 0.000000 
#    y 0.000000 1.789120 0.000000 
#    z 0.000000 0.000000 1.759790 
# 
# From -- ./inp_files/12082.got.cif
#   From: 2010.03.12/outbox.cif.g09.slc.cpg/sg38_7_cif.got.tgz:12082.got - 2010.04.14 02:38:36.
