data_PCOD8177117
_publ_section_title
;
Structure prediction by ZEFSAII (Michael W. Deem and Ramdas Pophale) SiO2 
 PCOD8177117
Probable space group: C C C 2
;
_chemical_formula_sum "Si O2"
_cell_formula_units_Z 40
_cell_length_a 7.747236
_cell_length_b 17.830866
_cell_length_c 12.419102
_cell_angle_alpha 90.000000
_cell_angle_beta 90.000000
_cell_angle_gamma 90.000000
_cell_volume 1715.573844
_symmetry_space_group_name_H-M "C C C 2"
_symmetry_group_IT_number 37
_symmetry_cell_setting 'orthorhombic'
loop_
_space_group_symop_operation_xyz
x,y,z
-x,-y,z
-x,y,1/2+z
x,-y,1/2+z
1/2+x,1/2+y,z
1/2-x,1/2-y,z
1/2-x,1/2+y,1/2+z
1/2+x,1/2-y,1/2+z
loop_
_atom_site_type_symbol
_atom_site_label
_atom_site_fract_x
_atom_site_fract_y
_atom_site_fract_z
Si Si1 0.670655 0.403489 0.980730
Si Si2 0.098839 0.576987 0.180927
Si Si3 0.316490 0.334452 0.039215
Si Si4 0.319942 0.958325 0.410125
Si Si5 0.787466 0.334875 0.764516
O O1 0.660735 0.493826 0.963229
O O2 0.770804 0.382766 0.871319
O O3 0.781423 0.388667 0.087857
O O4 0.496362 0.355073 0.981451
O O5 0.217949 0.557258 0.284367
O O6 0.000000 0.500000 0.144802
O O7 0.975537 0.645976 0.215736
O O8 0.250000 0.250000 0.024844
O O9 0.341130 0.355183 0.165311
O O10 0.167850 0.382673 0.980686
O O11 0.500000 0.000000 0.425437
O O12 0.750000 0.250000 0.797591
#
# Coordination Sequence:
#
# PCOD8177117 Si02
#       5
#     8   8   8   8   8
#     4  12  25  45  79 107 148 201 247 307 375 437
#     4  11  24  45  77 110 149 191 255 312 375 435
#     4  11  28  49  71 109 158 190 255 306 368 448
#     4  11  23  46  76 109 144 198 245 312 366 440
#     4  11  26  45  69 109 154 190 251 303 367 450
#
# _framework density 23.315815000000001
#
# number of rings (size 3 to 8) (size 9 to 14) (size 15 to 20)
#    0.000    0.800    4.000    3.600    5.600    1.600 
#    0.000    1.000    0.000    0.000    0.000    0.000 
#    0.000    0.000    0.000    0.000    0.000    0.000 
#
# Total GULP energy -247829.035948 kJ/mol
# GULP energy per Si atom -12391.451797 kJ/mol
# Density = 2.326275 g / cm^3
# Si number density = 23.315815 Si / 1000 Ang^3
#
#
#
# Elastic Constant Matrix: (Units=GPa)
#
#
# Indices 1 2 3 4 5 6 
#
# 1 91.3769 58.1645 37.1978 0.0000 0.0000 0.0000
# 2 58.1645 134.3974 64.8495 0.0000 0.0000 0.0000
# 3 37.1978 64.8495 161.9488 0.0000 0.0000 0.0000
# 4 0.0000 0.0000 0.0000 29.0373 0.0000 0.0000
# 5 0.0000 0.0000 0.0000 0.0000 35.8074 0.0000
# 6 0.0000 0.0000 0.0000 0.0000 0.0000 30.0554
#
#
#
# Elastic Compliance Matrix: (Units=1/GPa)
#
#
# Indices 1 2 3 4 5 6 
#
# 1 0.015252 -0.006086 -0.001066 0.000000 0.000000 0.000000
# 2 -0.006086 0.011651 -0.003268 0.000000 0.000000 0.000000
# 3 -0.001066 -0.003268 0.007728 0.000000 0.000000 0.000000
# 4 0.000000 0.000000 0.000000 0.034438 0.000000 0.000000
# 5 0.000000 0.000000 0.000000 0.000000 0.027927 0.000000
# 6 0.000000 0.000000 0.000000 0.000000 0.000000 0.033272
#
#
# Mechanical properties :
#
#
# Convention : Reuss Voigt Hill
#
# Bulk Modulus (GPa) = 72.50915 78.68299 75.59607
# Shear Modulus (GPa) = 32.11186 34.14744 33.12965
#
# Velocity S-wave (km/s) = 3.71517 3.83111 3.77358
# Velocity P-wave (km/s) = 7.04056 7.30683 7.17493
#
# Compressibility (1/GPa) = 0.01379136
#
# Stress axis : x y z
#
# Youngs Moduli (GPa) = 65.56619 85.82705 129.39781
#
# Poissons Ratio (x) = 0.52237 0.13794
# Poissons Ratio (y) = 0.39905 0.42282
# Poissons Ratio (z) = 0.06989 0.28045
#
# Static dielectric constant tensor:
#      x y z
#    x 3.864400 0.000000 0.000000 
#    y 0.000000 4.333180 0.000000 
#    z 0.000000 0.000000 4.636640 
# 
# 
# High freq. dielectric constant tensor:
#      x y z
#    x 1.897450 0.000000 0.000000 
#    y 0.000000 1.921920 0.000000 
#    z 0.000000 0.000000 1.953170 
# 
# From -- ./inp_files/6135.got.cif
#   From: 2010.03.12/outbox.cif.g09.slc.cpg/sg37_4_cif.got.tgz:6135.got - 2010.04.14 02:25:27.
