data_PCOD8177386
_publ_section_title
;
Structure prediction by ZEFSAII (Michael W. Deem and Ramdas Pophale) SiO2 
 PCOD8177386
Probable space group: A M M 2
;
_chemical_formula_sum "Si O2"
_cell_formula_units_Z 64
_cell_length_a 8.643796
_cell_length_b 26.453674
_cell_length_c 18.294166
_cell_angle_alpha 90.000000
_cell_angle_beta 90.000000
_cell_angle_gamma 90.000000
_cell_volume 4183.146952
_symmetry_space_group_name_H-M "A M M 2"
_symmetry_group_IT_number 38
_symmetry_cell_setting 'orthorhombic'
loop_
_space_group_symop_operation_xyz
x,y,z
-x,-y,z
-x,y,z
x,-y,z
x,1/2+y,1/2+z
-x,1/2-y,1/2+z
-x,1/2+y,1/2+z
x,1/2-y,1/2+z
loop_
_atom_site_type_symbol
_atom_site_label
_atom_site_fract_x
_atom_site_fract_y
_atom_site_fract_z
Si Si1 0.680456 0.256003 0.491760
Si Si2 0.317414 0.556218 0.341191
Si Si3 0.683757 0.149115 0.748012
Si Si4 0.819338 0.297967 0.120497
Si Si5 0.679972 0.791655 0.208433
Si Si6 0.182364 0.243054 0.834303
Si Si7 0.179919 0.443268 0.493629
Si Si8 0.676316 0.857588 0.079501
O O1 0.500000 0.251703 0.473460
O O2 0.730462 0.209325 0.543740
O O3 0.780403 0.252141 0.419131
O O4 0.720662 0.308725 0.531448
O O5 0.500000 0.554730 0.343658
O O6 0.250138 0.500000 0.324934
O O7 0.261218 0.594742 0.278685
O O8 0.261580 0.575929 0.419963
O O9 0.500000 0.153825 0.745025
O O10 0.753190 0.154162 0.666102
O O11 0.747022 0.191368 0.803235
O O12 0.788654 0.249670 0.170827
O O13 0.000000 0.305080 0.105280
O O14 0.500000 0.775222 0.202149
O O15 0.738238 0.791466 0.292479
O O16 0.703556 0.844656 0.165676
O O17 0.000000 0.243746 0.822119
O O18 0.235305 0.500000 0.514385
O O19 0.219409 0.405474 0.559604
O O20 0.000000 0.442199 0.478561
O O21 0.500000 0.872875 0.064904
#
# Coordination Sequence:
#
# PCOD8177386 Si02
#       8
#     8   8   8   8   8   8   8   8
#     4  10  19  31  44  60  84 112 142 173 208 248
#     4   9  18  31  45  60  80 109 145 180 209 241
#     4  10  18  29  44  60  82 113 144 173 210 250
#     4  10  18  28  42  61  83 107 138 173 208 246
#     4   9  17  30  44  59  81 109 140 171 207 248
#     4  11  20  28  41  63  87 111 141 173 207 246
#     4  10  20  30  41  60  85 111 139 174 214 249
#     4   9  18  30  45  61  78 108 145 175 205 244
#
# _framework density 15.299486
#
# number of rings (size 3 to 8) (size 9 to 14) (size 15 to 20)
#    0.000    2.250    0.000    6.750    0.000    7.750 
#    0.000    0.000    0.000    0.000    0.000    0.000 
#    0.000    1.000    0.000    5.250    0.000    4.250 
#
# Total GULP energy -396659.415413 kJ/mol
# GULP energy per Si atom -12395.606732 kJ/mol
# Density = 1.526466 g / cm^3
# Si number density = 15.299486 Si / 1000 Ang^3
#
#
#
# Elastic Constant Matrix: (Units=GPa)
#
#
# Indices 1 2 3 4 5 6 
#
# 1 49.4583 26.3372 19.4610 0.0000 0.0000 0.0000
# 2 26.3372 72.8191 41.1472 0.0000 0.0000 0.0000
# 3 19.4610 41.1472 74.5498 0.0000 0.0000 0.0000
# 4 0.0000 0.0000 0.0000 25.1310 0.0000 0.0000
# 5 0.0000 0.0000 0.0000 0.0000 24.3699 0.0000
# 6 0.0000 0.0000 0.0000 0.0000 0.0000 15.1883
#
#
#
# Elastic Compliance Matrix: (Units=1/GPa)
#
#
# Indices 1 2 3 4 5 6 
#
# 1 0.025301 -0.007875 -0.002258 0.000000 0.000000 0.000000
# 2 -0.007875 0.022408 -0.010312 0.000000 0.000000 0.000000
# 3 -0.002258 -0.010312 0.019695 0.000000 0.000000 0.000000
# 4 0.000000 0.000000 0.000000 0.039792 0.000000 0.000000
# 5 0.000000 0.000000 0.000000 0.000000 0.041034 0.000000
# 6 0.000000 0.000000 0.000000 0.000000 0.000000 0.065840
#
#
# Mechanical properties :
#
#
# Convention : Reuss Voigt Hill
#
# Bulk Modulus (GPa) = 37.71669 41.19089 39.45379
# Shear Modulus (GPa) = 18.95387 20.26328 19.60857
#
# Velocity S-wave (km/s) = 3.52356 3.64324 3.58390
# Velocity P-wave (km/s) = 6.42337 6.68424 6.55510
#
# Compressibility (1/GPa) = 0.02651346
#
# Stress axis : x y z
#
# Youngs Moduli (GPa) = 39.52393 44.62732 50.77413
#
# Poissons Ratio (x) = 0.35143 0.11467
# Poissons Ratio (y) = 0.31124 0.52359
# Poissons Ratio (z) = 0.08926 0.46020
#
# Static dielectric constant tensor:
#      x y z
#    x 2.951840 0.000000 0.000000 
#    y 0.000000 2.951220 0.000000 
#    z 0.000000 0.000000 3.131380 
# 
# 
# High freq. dielectric constant tensor:
#      x y z
#    x 1.600090 0.000000 0.000000 
#    y 0.000000 1.549220 0.000000 
#    z 0.000000 0.000000 1.577060 
# 
# From -- ./inp_files/17351.got.cif
#   From: 2010.03.12/outbox.cif.g09.slc.cpg/sg38_9_cif.got.tgz:17351.got - 2010.04.14 02:38:36.
