data_PCOD8177215
_publ_section_title
;
Structure prediction by ZEFSAII (Michael W. Deem and Ramdas Pophale) SiO2 
 PCOD8177215
Probable space group: A M M 2
;
_chemical_formula_sum "Si O2"
_cell_formula_units_Z 44
_cell_length_a 11.724800
_cell_length_b 14.159328
_cell_length_c 13.810963
_cell_angle_alpha 90.000000
_cell_angle_beta 90.000000
_cell_angle_gamma 90.000000
_cell_volume 2292.831013
_symmetry_space_group_name_H-M "A M M 2"
_symmetry_group_IT_number 38
_symmetry_cell_setting 'orthorhombic'
loop_
_space_group_symop_operation_xyz
x,y,z
-x,-y,z
-x,y,z
x,-y,z
x,1/2+y,1/2+z
-x,1/2-y,1/2+z
-x,1/2+y,1/2+z
x,1/2-y,1/2+z
loop_
_atom_site_type_symbol
_atom_site_label
_atom_site_fract_x
_atom_site_fract_y
_atom_site_fract_z
Si Si1 0.746960 0.612060 0.789550
Si Si2 0.133784 0.241929 0.143875
Si Si3 0.500000 0.894249 0.687990
Si Si4 0.254277 0.734305 0.444970
Si Si5 0.500000 0.890596 0.308700
Si Si6 0.256024 0.108319 0.767653
Si Si7 0.500000 0.223053 0.496751
O O1 0.765557 0.500000 0.803100
O O2 0.830698 0.650970 0.707571
O O3 0.765997 0.664081 0.892738
O O4 0.617088 0.640333 0.755073
O O5 0.192988 0.337361 0.181180
O O6 0.000000 0.254862 0.152145
O O7 0.167489 0.225376 0.033203
O O8 0.608576 0.878254 0.756217
O O9 0.500000 0.819018 0.603339
O O10 0.500000 0.000000 0.643943
O O11 0.221236 0.651320 0.370798
O O12 0.383997 0.717200 0.482090
O O13 0.500000 0.859838 0.419386
O O14 0.500000 0.000000 0.315992
O O15 0.217628 0.000000 0.763217
#
# Coordination Sequence:
#
# PCOD8177215 Si02
#       7
#     8   8   4   8   4   8   4
#     4   9  20  38  61  88 118 148 185 238 294 351
#     4  11  24  40  57  82 115 156 206 246 283 339
#     4  10  18  32  60  92 119 147 186 235 296 363
#     4  10  21  36  59  88 118 153 191 236 291 352
#     4   8  15  30  55  89 120 142 176 224 286 355
#     4  10  22  40  61  88 120 153 191 242 297 352
#     4  10  16  30  56  89 117 153 180 225 290 352
#
# _framework density 19.190251
#
# number of rings (size 3 to 8) (size 9 to 14) (size 15 to 20)
#    0.000    2.182    1.818    0.818    0.000    8.727 
#    0.000    0.000    0.000    3.273    0.000    0.000 
#    0.000    0.000    0.000    0.000    0.000    0.000 
#
# Total GULP energy -272730.540219 kJ/mol
# GULP energy per Si atom -12396.842737 kJ/mol
# Density = 1.914657 g / cm^3
# Si number density = 19.190251 Si / 1000 Ang^3
#
#
#
# Elastic Constant Matrix: (Units=GPa)
#
#
# Indices 1 2 3 4 5 6 
#
# 1 109.2261 22.6010 32.6180 0.0000 0.0000 0.0000
# 2 22.6010 97.9365 32.9739 0.0000 0.0000 0.0000
# 3 32.6180 32.9739 134.3128 0.0000 0.0000 0.0000
# 4 0.0000 0.0000 0.0000 17.6524 0.0000 0.0000
# 5 0.0000 0.0000 0.0000 0.0000 17.7184 0.0000
# 6 0.0000 0.0000 0.0000 0.0000 0.0000 12.5398
#
#
#
# Elastic Compliance Matrix: (Units=1/GPa)
#
#
# Indices 1 2 3 4 5 6 
#
# 1 0.010108 -0.001642 -0.002052 0.000000 0.000000 0.000000
# 2 -0.001642 0.011397 -0.002399 0.000000 0.000000 0.000000
# 3 -0.002052 -0.002399 0.008533 0.000000 0.000000 0.000000
# 4 0.000000 0.000000 0.000000 0.056650 0.000000 0.000000
# 5 0.000000 0.000000 0.000000 0.000000 0.056439 0.000000
# 6 0.000000 0.000000 0.000000 0.000000 0.000000 0.079746
#
#
# Mechanical properties :
#
#
# Convention : Reuss Voigt Hill
#
# Bulk Modulus (GPa) = 56.01568 57.54015 56.77791
# Shear Modulus (GPa) = 20.74615 26.46760 23.60687
#
# Velocity S-wave (km/s) = 3.29154 3.71782 3.51115
# Velocity P-wave (km/s) = 6.61050 6.96266 6.78886
#
# Compressibility (1/GPa) = 0.01785214
#
# Stress axis : x y z
#
# Youngs Moduli (GPa) = 98.93437 87.73919 117.19779
#
# Poissons Ratio (x) = 0.14405 0.24044
# Poissons Ratio (y) = 0.16243 0.28120
# Poissons Ratio (z) = 0.20297 0.21052
#
# Static dielectric constant tensor:
#      x y z
#    x 2.785110 0.000000 0.000000 
#    y 0.000000 3.501780 0.000000 
#    z 0.000000 0.000000 3.293960 
# 
# 
# High freq. dielectric constant tensor:
#      x y z
#    x 1.742220 0.000000 0.000000 
#    y 0.000000 1.741070 0.000000 
#    z 0.000000 0.000000 1.740890 
# 
# From -- ./inp_files/13658.got.cif
#   From: 2010.03.12/outbox.cif.g09.slc.cpg/sg38_7_cif.got.tgz:13658.got - 2010.04.14 02:38:36.
