data_PCOD8177235
_publ_section_title
;
Structure prediction by ZEFSAII (Michael W. Deem and Ramdas Pophale) SiO2 
 PCOD8177235
Probable space group: A M M 2
;
_chemical_formula_sum "Si O2"
_cell_formula_units_Z 64
_cell_length_a 8.889843
_cell_length_b 26.753554
_cell_length_c 18.323517
_cell_angle_alpha 90.000000
_cell_angle_beta 90.000000
_cell_angle_gamma 90.000000
_cell_volume 4357.971737
_symmetry_space_group_name_H-M "A M M 2"
_symmetry_group_IT_number 38
_symmetry_cell_setting 'orthorhombic'
loop_
_space_group_symop_operation_xyz
x,y,z
-x,-y,z
-x,y,z
x,-y,z
x,1/2+y,1/2+z
-x,1/2-y,1/2+z
-x,1/2+y,1/2+z
x,1/2-y,1/2+z
loop_
_atom_site_type_symbol
_atom_site_label
_atom_site_fract_x
_atom_site_fract_y
_atom_site_fract_z
Si Si1 0.176377 0.351037 0.812870
Si Si2 0.669294 0.700018 0.275285
Si Si3 0.178378 0.554928 0.062689
Si Si4 0.320953 0.759208 0.556096
Si Si5 0.665782 0.302692 0.688081
Si Si6 0.822147 0.252574 0.900539
Si Si7 0.821025 0.555364 0.899265
Si Si8 0.179138 0.152120 0.644379
O O1 0.231539 0.342860 0.729837
O O2 0.224647 0.305587 0.865394
O O3 0.246202 0.402299 0.845393
O O4 0.000000 0.354876 0.808559
O O5 0.500000 0.682138 0.294175
O O6 0.664519 0.751234 0.231682
O O7 0.765253 0.707507 0.349002
O O8 0.751260 0.659159 0.224680
O O9 0.233828 0.500000 0.089418
O O10 0.234380 0.597505 0.117916
O O11 0.000000 0.555788 0.058902
O O12 0.240330 0.565349 0.981010
O O13 0.500000 0.768038 0.557974
O O14 0.277035 0.711255 0.606762
O O15 0.263861 0.746675 0.476115
O O16 0.239084 0.808506 0.585357
O O17 0.500000 0.326198 0.684763
O O18 0.000000 0.248293 0.912171
O O19 0.770389 0.500000 0.872700
O O20 0.000000 0.559066 0.899629
O O21 0.000000 0.157109 0.648704
#
# Coordination Sequence:
#
# PCOD8177235 Si02
#       8
#     8   8   8   8   8   8   8   8
#     4   9  16  25  39  58  77 100 131 164 195 226
#     4   9  17  29  41  55  79 108 134 161 200 245
#     4   8  14  24  38  57  81 107 135 170 208 238
#     4  10  19  29  40  56  80 109 137 163 200 247
#     4   8  16  28  39  52  73 103 133 159 190 232
#     4  10  18  27  41  61  81 102 134 171 201 232
#     4   8  13  22  36  55  79 104 130 161 196 231
#     4  10  17  26  42  61  80 105 140 175 202 233
#
# _framework density 14.68573
#
# number of rings (size 3 to 8) (size 9 to 14) (size 15 to 20)
#    0.000    3.000    0.000    3.750    0.000    6.000 
#    0.000    0.000    0.000    1.875    0.000    3.500 
#    0.000    1.000    0.000    9.750    0.000    2.750 
#
# Total GULP energy -396578.623812 kJ/mol
# GULP energy per Si atom -12393.081994 kJ/mol
# Density = 1.465231 g / cm^3
# Si number density = 14.685730 Si / 1000 Ang^3
#
#
#
# Elastic Constant Matrix: (Units=GPa)
#
#
# Indices 1 2 3 4 5 6 
#
# 1 42.7881 27.2969 29.7823 0.0000 0.0000 0.0000
# 2 27.2969 95.1354 60.9238 0.0000 0.0000 0.0000
# 3 29.7823 60.9238 99.3784 0.0000 0.0000 0.0000
# 4 0.0000 0.0000 0.0000 26.2718 0.0000 0.0000
# 5 0.0000 0.0000 0.0000 0.0000 24.5120 0.0000
# 6 0.0000 0.0000 0.0000 0.0000 0.0000 7.6359
#
#
#
# Elastic Compliance Matrix: (Units=1/GPa)
#
#
# Indices 1 2 3 4 5 6 
#
# 1 0.030818 -0.004820 -0.006280 0.000000 0.000000 0.000000
# 2 -0.004820 0.018059 -0.009627 0.000000 0.000000 0.000000
# 3 -0.006280 -0.009627 0.017846 0.000000 0.000000 0.000000
# 4 0.000000 0.000000 0.000000 0.038064 0.000000 0.000000
# 5 0.000000 0.000000 0.000000 0.000000 0.040796 0.000000
# 6 0.000000 0.000000 0.000000 0.000000 0.000000 0.130960
#
#
# Mechanical properties :
#
#
# Convention : Reuss Voigt Hill
#
# Bulk Modulus (GPa) = 39.57544 52.58976 46.08260
# Shear Modulus (GPa) = 15.31766 19.63721 17.47744
#
# Velocity S-wave (km/s) = 3.23310 3.66069 3.45352
# Velocity P-wave (km/s) = 6.39875 7.33181 6.88111
#
# Compressibility (1/GPa) = 0.02526820
#
# Stress axis : x y z
#
# Youngs Moduli (GPa) = 32.44897 55.37348 56.03427
#
# Poissons Ratio (x) = 0.26693 0.35192
# Poissons Ratio (y) = 0.15642 0.53942
# Poissons Ratio (z) = 0.20379 0.53305
#
# Static dielectric constant tensor:
#      x y z
#    x 2.769540 0.000000 0.000000 
#    y 0.000000 2.908810 0.000000 
#    z 0.000000 0.000000 2.971680 
# 
# 
# High freq. dielectric constant tensor:
#      x y z
#    x 1.553240 0.000000 0.000000 
#    y 0.000000 1.530570 0.000000 
#    z 0.000000 0.000000 1.552540 
# 
# From -- ./inp_files/17324.got.cif
#   From: 2010.03.12/outbox.cif.g09.slc.cpg/sg38_9_cif.got.tgz:17324.got - 2010.04.14 02:38:36.
