data_PCOD8177120
_publ_section_title
;
Structure prediction by ZEFSAII (Michael W. Deem and Ramdas Pophale) SiO2 
 PCOD8177120
Probable space group: C C C 2
;
_chemical_formula_sum "Si O2"
_cell_formula_units_Z 64
_cell_length_a 22.441293
_cell_length_b 14.308334
_cell_length_c 9.086508
_cell_angle_alpha 90.000000
_cell_angle_beta 90.000000
_cell_angle_gamma 90.000000
_cell_volume 2917.655145
_symmetry_space_group_name_H-M "C C C 2"
_symmetry_group_IT_number 37
_symmetry_cell_setting 'orthorhombic'
loop_
_space_group_symop_operation_xyz
x,y,z
-x,-y,z
-x,y,1/2+z
x,-y,1/2+z
1/2+x,1/2+y,z
1/2-x,1/2-y,z
1/2-x,1/2+y,1/2+z
1/2+x,1/2-y,1/2+z
loop_
_atom_site_type_symbol
_atom_site_label
_atom_site_fract_x
_atom_site_fract_y
_atom_site_fract_z
Si Si1 0.885943 0.855203 0.185700
Si Si2 0.789747 0.531457 0.164636
Si Si3 0.716125 0.338029 0.480704
Si Si4 0.147993 0.599421 0.957217
Si Si5 0.018025 0.732443 0.557982
Si Si6 0.164770 0.943496 0.218406
Si Si7 0.978152 0.396290 0.821342
Si Si8 0.611779 0.291419 0.011386
O O1 0.902515 0.811791 0.341570
O O2 0.938381 0.823044 0.072358
O O3 0.879144 0.967151 0.211446
O O4 0.823598 0.813038 0.124603
O O5 0.810881 0.579145 0.315593
O O6 0.732979 0.467787 0.193690
O O7 0.772281 0.602612 0.035803
O O8 0.841325 0.468094 0.095502
O O9 0.750000 0.250000 0.406732
O O10 0.667854 0.390125 0.375323
O O11 0.078668 0.590752 0.924182
O O12 0.158199 0.705000 0.015410
O O13 0.023455 0.676575 0.402779
O O14 0.951113 0.769022 0.589096
O O15 0.039233 0.652537 0.670087
O O16 0.143599 0.877366 0.088216
O O17 0.000000 0.500000 0.786993
#
# Coordination Sequence:
#
# PCOD8177120 Si02
#       8
#     8   8   8   8   8   8   8   8
#     4  11  23  48  70  95 143 182 233 291 353 422
#     4  11  24  46  65 105 140 186 241 282 355 429
#     4  11  25  41  67 103 139 187 230 290 347 418
#     4  11  25  43  71  98 143 187 233 290 357 430
#     4  11  24  47  67 106 134 182 242 282 362 422
#     4  11  26  46  69 103 140 184 241 295 349 416
#     4  11  26  43  70 102 143 183 230 295 352 424
#     4  11  26  45  70 105 135 189 236 293 361 413
#
# _framework density 21.935421999999999
#
# number of rings (size 3 to 8) (size 9 to 14) (size 15 to 20)
#    0.000    1.000    3.750    2.625   10.500    0.500 
#    0.000    1.250    0.000    0.000    0.000    0.000 
#    0.000    0.000    0.000    0.000    0.000    0.000 
#
# Total GULP energy -396621.742784 kJ/mol
# GULP energy per Si atom -12394.429462 kJ/mol
# Density = 2.188550 g / cm^3
# Si number density = 21.935422 Si / 1000 Ang^3
#
#
#
# Elastic Constant Matrix: (Units=GPa)
#
#
# Indices 1 2 3 4 5 6 
#
# 1 85.1880 57.8752 15.7838 0.0000 0.0000 0.0000
# 2 57.8752 132.4343 36.0196 0.0000 0.0000 0.0000
# 3 15.7838 36.0196 53.1375 0.0000 0.0000 0.0000
# 4 0.0000 0.0000 0.0000 39.9284 0.0000 0.0000
# 5 0.0000 0.0000 0.0000 0.0000 39.3476 0.0000
# 6 0.0000 0.0000 0.0000 0.0000 0.0000 43.9675
#
#
#
# Elastic Compliance Matrix: (Units=1/GPa)
#
#
# Indices 1 2 3 4 5 6 
#
# 1 0.016696 -0.007292 -0.000017 0.000000 0.000000 0.000000
# 2 -0.007292 0.012442 -0.006268 0.000000 0.000000 0.000000
# 3 -0.000017 -0.006268 0.023073 0.000000 0.000000 0.000000
# 4 0.000000 0.000000 0.000000 0.025045 0.000000 0.000000
# 5 0.000000 0.000000 0.000000 0.000000 0.025415 0.000000
# 6 0.000000 0.000000 0.000000 0.000000 0.000000 0.022744
#
#
# Mechanical properties :
#
#
# Convention : Reuss Voigt Hill
#
# Bulk Modulus (GPa) = 39.90724 54.45745 47.18235
# Shear Modulus (GPa) = 31.07139 35.38744 33.22941
#
# Velocity S-wave (km/s) = 3.76772 4.02089 3.89636
# Velocity P-wave (km/s) = 6.09591 6.81446 6.46518
#
# Compressibility (1/GPa) = 0.02505811
#
# Stress axis : x y z
#
# Youngs Moduli (GPa) = 59.89588 80.37111 43.34083
#
# Poissons Ratio (x) = 0.58604 0.00072
# Poissons Ratio (y) = 0.43674 0.27167
# Poissons Ratio (z) = 0.00099 0.50378
#
# Static dielectric constant tensor:
#      x y z
#    x 3.832270 0.000000 0.000000 
#    y 0.000000 4.357340 0.000000 
#    z 0.000000 0.000000 3.975710 
# 
# 
# High freq. dielectric constant tensor:
#      x y z
#    x 1.851970 0.000000 0.000000 
#    y 0.000000 1.875610 0.000000 
#    z 0.000000 0.000000 1.867240 
# 
# From -- ./inp_files/4650.got.cif
#   From: 2010.03.12/outbox.cif.g09.slc.cpg/sg37_3_cif.got.tgz:4650.got - 2010.04.14 02:25:27.
