data_PCOD8177676
_publ_section_title
;
Structure prediction by ZEFSAII (Michael W. Deem and Ramdas Pophale) SiO2 
 PCOD8177676
Probable space group: A M M 2
;
_chemical_formula_sum "Si O2"
_cell_formula_units_Z 48
_cell_length_a 14.075514
_cell_length_b 9.344946
_cell_length_c 20.650166
_cell_angle_alpha 90.000000
_cell_angle_beta 90.000000
_cell_angle_gamma 90.000000
_cell_volume 2716.217897
_symmetry_space_group_name_H-M "A M M 2"
_symmetry_group_IT_number 38
_symmetry_cell_setting 'orthorhombic'
loop_
_space_group_symop_operation_xyz
x,y,z
-x,-y,z
-x,y,z
x,-y,z
x,1/2+y,1/2+z
-x,1/2-y,1/2+z
-x,1/2+y,1/2+z
x,1/2-y,1/2+z
loop_
_atom_site_type_symbol
_atom_site_label
_atom_site_fract_x
_atom_site_fract_y
_atom_site_fract_z
Si Si1 0.892012 0.334527 0.598350
Si Si2 0.279102 0.168852 0.642423
Si Si3 0.103031 0.169676 0.951748
Si Si4 0.389864 0.336484 0.014091
Si Si5 0.606901 0.329886 0.266683
Si Si6 0.299314 0.329939 0.398790
O O1 0.862759 0.500000 0.602911
O O2 0.823793 0.243027 0.644626
O O3 0.879819 0.276790 0.524975
O O4 0.000000 0.311774 0.621911
O O5 0.333120 0.214696 0.577275
O O6 0.339450 0.226963 0.703167
O O7 0.264630 0.000000 0.647275
O O8 0.189672 0.222515 0.906631
O O9 0.000000 0.227841 0.926490
O O10 0.098844 0.000000 0.953129
O O11 0.500000 0.319723 0.030779
O O12 0.364418 0.500000 0.996592
O O13 0.364519 0.236853 0.954063
O O14 0.500000 0.267382 0.267849
O O15 0.602995 0.500000 0.266080
O O16 0.663501 0.274936 0.329728
O O17 0.307259 0.500000 0.405314
#
# Coordination Sequence:
#
# PCOD8177676 Si02
#       6
#     8   8   8   8   8   8
#     4   9  17  31  51  74 101 131 160 198 251 299
#     4  10  19  32  50  72  99 132 168 202 239 290
#     4   8  14  26  46  72  99 124 152 192 245 294
#     4  10  20  32  47  69  98 130 163 203 251 296
#     4   9  18  32  49  71 101 135 166 199 246 296
#     4  10  18  31  53  76  96 124 167 210 244 285
#
# _framework density 17.67163
#
# number of rings (size 3 to 8) (size 9 to 14) (size 15 to 20)
#    0.000    2.667    1.667    2.000    0.000    3.333 
#    0.000    1.667    0.000    6.000    0.000    0.000 
#    0.000    0.000    0.000    0.000    0.000    0.000 
#
# Total GULP energy -297543.084215 kJ/mol
# GULP energy per Si atom -12397.628509 kJ/mol
# Density = 1.763141 g / cm^3
# Si number density = 17.671630 Si / 1000 Ang^3
#
#
#
# Elastic Constant Matrix: (Units=GPa)
#
#
# Indices 1 2 3 4 5 6 
#
# 1 145.5784 29.4058 65.3805 0.0000 0.0000 0.0000
# 2 29.4058 25.9741 27.3000 0.0000 0.0000 0.0000
# 3 65.3805 27.3000 116.6950 0.0000 0.0000 0.0000
# 4 0.0000 0.0000 0.0000 18.8885 0.0000 0.0000
# 5 0.0000 0.0000 0.0000 0.0000 34.2673 0.0000
# 6 0.0000 0.0000 0.0000 0.0000 0.0000 26.2121
#
#
#
# Elastic Compliance Matrix: (Units=1/GPa)
#
#
# Indices 1 2 3 4 5 6 
#
# 1 0.010123 -0.007293 -0.003966 0.000000 0.000000 0.000000
# 2 -0.007293 0.056307 -0.009087 0.000000 0.000000 0.000000
# 3 -0.003966 -0.009087 0.012917 0.000000 0.000000 0.000000
# 4 0.000000 0.000000 0.000000 0.052942 0.000000 0.000000
# 5 0.000000 0.000000 0.000000 0.000000 0.029182 0.000000
# 6 0.000000 0.000000 0.000000 0.000000 0.000000 0.038150
#
#
# Mechanical properties :
#
#
# Convention : Reuss Voigt Hill
#
# Bulk Modulus (GPa) = 25.86865 59.15780 42.51323
# Shear Modulus (GPa) = 19.74743 26.95099 23.34921
#
# Velocity S-wave (km/s) = 3.34648 3.90949 3.63889
# Velocity P-wave (km/s) = 5.44079 7.34354 6.46258
#
# Compressibility (1/GPa) = 0.03865683
#
# Stress axis : x y z
#
# Youngs Moduli (GPa) = 98.78278 17.75987 77.41757
#
# Poissons Ratio (x) = 0.12952 0.30701
# Poissons Ratio (y) = 0.72039 0.70347
# Poissons Ratio (z) = 0.39174 0.16138
#
# Static dielectric constant tensor:
#      x y z
#    x 3.640850 0.000000 0.000000 
#    y 0.000000 2.873750 0.000000 
#    z 0.000000 0.000000 3.238790 
# 
# 
# High freq. dielectric constant tensor:
#      x y z
#    x 1.702460 0.000000 0.000000 
#    y 0.000000 1.641620 0.000000 
#    z 0.000000 0.000000 1.668300 
# 
# From -- ./inp_files/17652.got.cif
#   From: 2010.03.12/outbox.cif.g09.slc.cpg/sg38_9_cif.got.tgz:17652.got - 2010.04.14 02:38:36.
