data_PCOD8177381
_publ_section_title
;
Structure prediction by ZEFSAII (Michael W. Deem and Ramdas Pophale) SiO2 
 PCOD8177381
Probable space group: A M M 2
;
_chemical_formula_sum "Si O2"
_cell_formula_units_Z 64
_cell_length_a 9.114283
_cell_length_b 18.426867
_cell_length_c 26.099767
_cell_angle_alpha 90.000000
_cell_angle_beta 90.000000
_cell_angle_gamma 90.000000
_cell_volume 4383.395333
_symmetry_space_group_name_H-M "A M M 2"
_symmetry_group_IT_number 38
_symmetry_cell_setting 'orthorhombic'
loop_
_space_group_symop_operation_xyz
x,y,z
-x,-y,z
-x,y,z
x,-y,z
x,1/2+y,1/2+z
-x,1/2-y,1/2+z
-x,1/2+y,1/2+z
x,1/2-y,1/2+z
loop_
_atom_site_type_symbol
_atom_site_label
_atom_site_fract_x
_atom_site_fract_y
_atom_site_fract_z
Si Si1 0.172168 0.418787 0.641320
Si Si2 0.336002 0.214925 0.585697
Si Si3 0.661581 0.798958 0.192053
Si Si4 0.326239 0.342272 0.246910
Si Si5 0.325372 0.419441 0.144551
Si Si6 0.671523 0.583858 0.445080
Si Si7 0.828076 0.583609 0.339962
Si Si8 0.827391 0.661653 0.537455
O O1 0.236746 0.500000 0.646261
O O2 0.233700 0.368698 0.687149
O O3 0.216787 0.388007 0.585813
O O4 0.000000 0.419299 0.647699
O O5 0.500000 0.212801 0.561556
O O6 0.342775 0.255294 0.639513
O O7 0.275201 0.133763 0.598089
O O8 0.225352 0.255707 0.547351
O O9 0.500000 0.828600 0.205172
O O10 0.712620 0.742390 0.235911
O O11 0.500000 0.352560 0.255752
O O12 0.269381 0.391562 0.199698
O O13 0.236898 0.365155 0.296508
O O14 0.500000 0.418980 0.145951
O O15 0.262291 0.500000 0.134302
O O16 0.500000 0.601130 0.440751
O O17 0.700641 0.500000 0.458384
O O18 0.748526 0.605430 0.392302
O O19 0.742287 0.632113 0.488913
O O20 0.795275 0.500000 0.325981
O O21 0.000000 0.598141 0.346258
O O22 0.000000 0.660821 0.526936
#
# Coordination Sequence:
#
# PCOD8177381 Si02
#       8
#     8   8   8   8   8   8   8   8
#     4   9  17  27  39  57  81 109 138 166 200 242
#     4   8  14  25  39  56  79 105 136 170 199 234
#     4   8  15  26  39  57  79 104 135 169 201 233
#     4   9  16  27  43  60  80 108 140 170 201 238
#     4   8  13  22  39  61  82 107 139 172 203 234
#     4  10  20  32  45  60  78 103 136 171 204 237
#     4  10  20  31  42  59  83 108 135 168 203 237
#     4  10  18  28  42  58  80 109 137 166 203 243
#
# _framework density 14.600554000000001
#
# number of rings (size 3 to 8) (size 9 to 14) (size 15 to 20)
#    0.000    3.000    0.000    3.375    0.000    3.750 
#    0.000    1.875    0.000    1.125    0.000    0.000 
#    0.000    1.000    0.000    5.250    0.000    4.250 
#
# Total GULP energy -396646.452079 kJ/mol
# GULP energy per Si atom -12395.201627 kJ/mol
# Density = 1.456732 g / cm^3
# Si number density = 14.600554 Si / 1000 Ang^3
#
#
#
# Elastic Constant Matrix: (Units=GPa)
#
#
# Indices 1 2 3 4 5 6 
#
# 1 60.5406 41.4912 44.5669 0.0000 0.0000 0.0000
# 2 41.4912 111.7939 55.6038 0.0000 0.0000 0.0000
# 3 44.5669 55.6038 81.7288 0.0000 0.0000 0.0000
# 4 0.0000 0.0000 0.0000 24.5172 0.0000 0.0000
# 5 0.0000 0.0000 0.0000 0.0000 22.2639 0.0000
# 6 0.0000 0.0000 0.0000 0.0000 0.0000 20.1192
#
#
#
# Elastic Compliance Matrix: (Units=1/GPa)
#
#
# Indices 1 2 3 4 5 6 
#
# 1 0.028943 -0.004371 -0.012809 0.000000 0.000000 0.000000
# 2 -0.004371 0.014180 -0.007264 0.000000 0.000000 0.000000
# 3 -0.012809 -0.007264 0.024162 0.000000 0.000000 0.000000
# 4 0.000000 0.000000 0.000000 0.040788 0.000000 0.000000
# 5 0.000000 0.000000 0.000000 0.000000 0.044916 0.000000
# 6 0.000000 0.000000 0.000000 0.000000 0.000000 0.049704
#
#
# Mechanical properties :
#
#
# Convention : Reuss Voigt Hill
#
# Bulk Modulus (GPa) = 54.35441 59.70968 57.03205
# Shear Modulus (GPa) = 19.40152 20.87349 20.13751
#
# Velocity S-wave (km/s) = 3.64925 3.78516 3.71783
# Velocity P-wave (km/s) = 7.42055 7.75161 7.58789
#
# Compressibility (1/GPa) = 0.01839777
#
# Stress axis : x y z
#
# Youngs Moduli (GPa) = 34.55122 70.52089 41.38712
#
# Poissons Ratio (x) = 0.30825 0.53011
# Poissons Ratio (y) = 0.15102 0.30063
# Poissons Ratio (z) = 0.44255 0.51226
#
# Static dielectric constant tensor:
#      x y z
#    x 2.811750 0.000000 0.000000 
#    y 0.000000 3.133750 0.000000 
#    z 0.000000 0.000000 2.623740 
# 
# 
# High freq. dielectric constant tensor:
#      x y z
#    x 1.554630 0.000000 0.000000 
#    y 0.000000 1.550530 0.000000 
#    z 0.000000 0.000000 1.525270 
# 
# From -- ./inp_files/22262.got.cif
#   From: 2010.03.12/outbox.cif.g09.slc.cpg/sg38_12_cif.got.tgz:22262.got - 2010.04.14 02:38:36.
