data_PCOD8177508
_publ_section_title
;
Structure prediction by ZEFSAII (Michael W. Deem and Ramdas Pophale) SiO2 
 PCOD8177508
Probable space group: A M M 2
;
_chemical_formula_sum "Si O2"
_cell_formula_units_Z 56
_cell_length_a 15.669540
_cell_length_b 9.247612
_cell_length_c 20.112768
_cell_angle_alpha 90.000000
_cell_angle_beta 90.000000
_cell_angle_gamma 90.000000
_cell_volume 2914.457263
_symmetry_space_group_name_H-M "A M M 2"
_symmetry_group_IT_number 38
_symmetry_cell_setting 'orthorhombic'
loop_
_space_group_symop_operation_xyz
x,y,z
-x,-y,z
-x,y,z
x,-y,z
x,1/2+y,1/2+z
-x,1/2-y,1/2+z
-x,1/2+y,1/2+z
x,1/2-y,1/2+z
loop_
_atom_site_type_symbol
_atom_site_label
_atom_site_fract_x
_atom_site_fract_y
_atom_site_fract_z
Si Si1 0.269558 0.667405 0.035430
Si Si2 0.095807 0.166121 0.708761
Si Si3 0.856527 0.665692 0.357421
Si Si4 0.692402 0.832970 0.389392
Si Si5 0.263306 0.327724 0.664618
Si Si6 0.407005 0.668913 0.765284
Si Si7 0.908563 0.836631 0.478842
O O1 0.285057 0.500000 0.053945
O O2 0.301471 0.769429 0.094807
O O3 0.319782 0.709422 0.967141
O O4 0.168832 0.703769 0.027319
O O5 0.095815 0.184522 0.787954
O O6 0.168660 0.264911 0.676094
O O7 0.000000 0.210009 0.684464
O O8 0.115220 0.000000 0.688769
O O9 0.841262 0.500000 0.375704
O O10 0.765727 0.742834 0.353968
O O11 0.913722 0.735492 0.414649
O O12 0.609234 0.803409 0.344219
O O13 0.720102 0.000000 0.386264
O O14 0.256986 0.500000 0.663626
O O15 0.330147 0.268724 0.720074
O O16 0.500000 0.738289 0.748219
O O17 0.411252 0.500000 0.750564
O O18 0.000000 0.821512 0.516566
O O19 0.894037 0.000000 0.453439
#
# Coordination Sequence:
#
# PCOD8177508 Si02
#       7
#     8   8   8   8   8   8   8
#     4   9  19  34  53  76 108 147 181 219 274 328
#     4  10  21  35  51  74 109 152 189 223 273 329
#     4  10  18  29  49  77 109 140 174 223 280 325
#     4   9  17  34  58  81 105 138 181 222 265 322
#     4  11  22  36  56  82 112 145 185 230 273 321
#     4   9  18  35  61  88 111 139 179 226 275 328
#     4   9  18  32  50  72 100 140 189 232 269 318
#
# _framework density 19.214555000000001
#
# number of rings (size 3 to 8) (size 9 to 14) (size 15 to 20)
#    0.000    2.429    1.429    2.143    0.000    4.571 
#    0.000    2.143    0.000    4.714    0.000    0.000 
#    0.000    0.000    0.000    0.000    0.000    0.000 
#
# Total GULP energy -346978.415917 kJ/mol
# GULP energy per Si atom -12392.086283 kJ/mol
# Density = 1.917082 g / cm^3
# Si number density = 19.214555 Si / 1000 Ang^3
#
#
#
# Elastic Constant Matrix: (Units=GPa)
#
#
# Indices 1 2 3 4 5 6 
#
# 1 104.9294 29.1814 49.4736 0.0000 0.0000 0.0000
# 2 29.1814 66.4591 40.4560 0.0000 0.0000 0.0000
# 3 49.4736 40.4560 110.8611 0.0000 0.0000 0.0000
# 4 0.0000 0.0000 0.0000 31.4026 0.0000 0.0000
# 5 0.0000 0.0000 0.0000 0.0000 10.7285 0.0000
# 6 0.0000 0.0000 0.0000 0.0000 0.0000 12.2562
#
#
#
# Elastic Compliance Matrix: (Units=1/GPa)
#
#
# Indices 1 2 3 4 5 6 
#
# 1 0.012429 -0.002675 -0.004570 0.000000 0.000000 0.000000
# 2 -0.002675 0.019920 -0.006075 0.000000 0.000000 0.000000
# 3 -0.004570 -0.006075 0.013277 0.000000 0.000000 0.000000
# 4 0.000000 0.000000 0.000000 0.031845 0.000000 0.000000
# 5 0.000000 0.000000 0.000000 0.000000 0.093209 0.000000
# 6 0.000000 0.000000 0.000000 0.000000 0.000000 0.081591
#
#
# Mechanical properties :
#
#
# Convention : Reuss Voigt Hill
#
# Bulk Modulus (GPa) = 52.67651 57.83017 55.25334
# Shear Modulus (GPa) = 17.52902 21.75337 19.64119
#
# Velocity S-wave (km/s) = 3.02367 3.36836 3.20066
# Velocity P-wave (km/s) = 6.29798 6.72980 6.51747
#
# Compressibility (1/GPa) = 0.01898379
#
# Stress axis : x y z
#
# Youngs Moduli (GPa) = 80.45591 50.20125 75.31838
#
# Poissons Ratio (x) = 0.13430 0.34424
# Poissons Ratio (y) = 0.21524 0.45758
# Poissons Ratio (z) = 0.36772 0.30499
#
# Static dielectric constant tensor:
#      x y z
#    x 3.599830 0.000000 0.000000 
#    y 0.000000 3.337340 0.000000 
#    z 0.000000 0.000000 3.522410 
# 
# 
# High freq. dielectric constant tensor:
#      x y z
#    x 1.732250 0.000000 0.000000 
#    y 0.000000 1.726350 0.000000 
#    z 0.000000 0.000000 1.747730 
# 
# From -- ./inp_files/21081.got.cif
#   From: 2010.03.12/outbox.cif.g09.slc.cpg/sg38_11_cif.got.tgz:21081.got - 2010.04.14 02:38:36.
