data_PCOD8177834
_publ_section_title
;
Structure prediction by ZEFSAII (Michael W. Deem and Ramdas Pophale) SiO2 
 PCOD8177834
Probable space group: A M M 2
;
_chemical_formula_sum "Si O2"
_cell_formula_units_Z 48
_cell_length_a 8.854368
_cell_length_b 18.319243
_cell_length_c 15.165765
_cell_angle_alpha 90.000000
_cell_angle_beta 90.000000
_cell_angle_gamma 90.000000
_cell_volume 2459.967750
_symmetry_space_group_name_H-M "A M M 2"
_symmetry_group_IT_number 38
_symmetry_cell_setting 'orthorhombic'
loop_
_space_group_symop_operation_xyz
x,y,z
-x,-y,z
-x,y,z
x,-y,z
x,1/2+y,1/2+z
-x,1/2-y,1/2+z
-x,1/2+y,1/2+z
x,1/2-y,1/2+z
loop_
_atom_site_type_symbol
_atom_site_label
_atom_site_fract_x
_atom_site_fract_y
_atom_site_fract_z
Si Si1 0.175971 0.500000 0.164611
Si Si2 0.673573 0.609530 0.494208
Si Si3 0.679248 0.150913 0.609700
Si Si4 0.331317 0.500000 0.342239
Si Si5 0.678075 0.733800 0.939677
Si Si6 0.320970 0.221914 0.242826
Si Si7 0.173405 0.919637 0.166349
O O1 0.248053 0.427425 0.124410
O O2 0.204010 0.500000 0.268662
O O3 0.000000 0.500000 0.143999
O O4 0.500000 0.605101 0.526974
O O5 0.690360 0.571992 0.399823
O O6 0.731642 0.691507 0.483922
O O7 0.780919 0.571021 0.564393
O O8 0.500000 0.144541 0.618860
O O9 0.727095 0.171689 0.509373
O O10 0.739103 0.211968 0.680217
O O11 0.500000 0.500000 0.299736
O O12 0.500000 0.734766 0.927826
O O13 0.749084 0.726442 0.841785
O O14 0.500000 0.226161 0.243978
O O15 0.276465 0.142275 0.208625
O O16 0.000000 0.895834 0.174539
O O17 0.198456 0.000000 0.210506
#
# Coordination Sequence:
#
# PCOD8177834 Si02
#       7
#     4   8   8   4   8   8   8
#     4  12  26  40  56  83 122 161 200 237 286 358
#     4  10  18  34  61  89 114 144 191 242 292 348
#     4  10  20  39  64  86 117 152 192 249 300 343
#     4  10  20  34  60  91 118 149 190 245 298 346
#     4   9  18  34  60  91 112 140 191 247 299 341
#     4  10  20  38  65  90 113 146 196 251 294 347
#     4  11  23  37  54  82 125 163 189 229 289 353
#
# _framework density 19.512452
#
# number of rings (size 3 to 8) (size 9 to 14) (size 15 to 20)
#    0.000    1.833    2.500    2.250    0.000    5.000 
#    1.500    1.667    0.000    0.000    0.000    0.000 
#    0.000    0.000    0.000    0.000    0.000    0.000 
#
# Total GULP energy -297491.565124 kJ/mol
# GULP energy per Si atom -12395.481880 kJ/mol
# Density = 1.946804 g / cm^3
# Si number density = 19.512452 Si / 1000 Ang^3
#
#
#
# Elastic Constant Matrix: (Units=GPa)
#
#
# Indices 1 2 3 4 5 6 
#
# 1 26.8433 27.9570 26.0206 0.0000 0.0000 0.0000
# 2 27.9570 147.3170 55.0487 0.0000 0.0000 0.0000
# 3 26.0206 55.0487 116.9043 0.0000 0.0000 0.0000
# 4 0.0000 0.0000 0.0000 4.1274 0.0000 0.0000
# 5 0.0000 0.0000 0.0000 0.0000 13.9026 0.0000
# 6 0.0000 0.0000 0.0000 0.0000 0.0000 18.0813
#
#
#
# Elastic Compliance Matrix: (Units=1/GPa)
#
#
# Indices 1 2 3 4 5 6 
#
# 1 0.052576 -0.006801 -0.008500 0.000000 0.000000 0.000000
# 2 -0.006801 0.009117 -0.002779 0.000000 0.000000 0.000000
# 3 -0.008500 -0.002779 0.011755 0.000000 0.000000 0.000000
# 4 0.000000 0.000000 0.000000 0.242285 0.000000 0.000000
# 5 0.000000 0.000000 0.000000 0.000000 0.071929 0.000000
# 6 0.000000 0.000000 0.000000 0.000000 0.000000 0.055306
#
#
# Mechanical properties :
#
#
# Convention : Reuss Voigt Hill
#
# Bulk Modulus (GPa) = 26.81893 56.56857 41.69375
# Shear Modulus (GPa) = 10.17174 19.35814 14.76494
#
# Velocity S-wave (km/s) = 2.28567 3.15317 2.75379
# Velocity P-wave (km/s) = 4.55412 6.50466 5.61474
#
# Compressibility (1/GPa) = 0.03728710
#
# Stress axis : x y z
#
# Youngs Moduli (GPa) = 19.02003 109.68010 85.07275
#
# Poissons Ratio (x) = 0.74599 0.72309
# Poissons Ratio (y) = 0.12936 0.23645
# Poissons Ratio (z) = 0.16166 0.30484
#
# Static dielectric constant tensor:
#      x y z
#    x 3.223910 0.000000 0.000000 
#    y 0.000000 3.724700 0.000000 
#    z 0.000000 0.000000 3.754880 
# 
# 
# High freq. dielectric constant tensor:
#      x y z
#    x 1.723820 0.000000 0.000000 
#    y 0.000000 1.774500 0.000000 
#    z 0.000000 0.000000 1.759260 
# 
# From -- ./inp_files/12105.got.cif
#   From: 2010.03.12/outbox.cif.g09.slc.cpg/sg38_7_cif.got.tgz:12105.got - 2010.04.14 02:38:36.
