data_PCOD8177959
_publ_section_title
;
Structure prediction by ZEFSAII (Michael W. Deem and Ramdas Pophale) SiO2 
 PCOD8177959
Probable space group: A M M 2
;
_chemical_formula_sum "Si O2"
_cell_formula_units_Z 56
_cell_length_a 14.276769
_cell_length_b 25.711821
_cell_length_c 9.509607
_cell_angle_alpha 90.000000
_cell_angle_beta 90.000000
_cell_angle_gamma 90.000000
_cell_volume 3490.802980
_symmetry_space_group_name_H-M "A M M 2"
_symmetry_group_IT_number 38
_symmetry_cell_setting 'orthorhombic'
loop_
_space_group_symop_operation_xyz
x,y,z
-x,-y,z
-x,y,z
x,-y,z
x,1/2+y,1/2+z
-x,1/2-y,1/2+z
-x,1/2+y,1/2+z
x,1/2-y,1/2+z
loop_
_atom_site_type_symbol
_atom_site_label
_atom_site_fract_x
_atom_site_fract_y
_atom_site_fract_z
Si Si1 0.101330 0.685510 0.383170
Si Si2 0.101953 0.216136 0.566243
Si Si3 0.390733 0.442698 0.953216
Si Si4 0.389680 0.142285 0.231652
Si Si5 0.703561 0.787813 0.458019
Si Si6 0.703512 0.163629 0.945443
Si Si7 0.610062 0.141760 0.665102
O O1 0.097027 0.724642 0.514511
O O2 0.120501 0.715133 0.234491
O O3 0.188081 0.646837 0.415596
O O4 0.000000 0.656261 0.375071
O O5 0.189562 0.190826 0.482266
O O6 0.000000 0.189424 0.532599
O O7 0.500000 0.449597 0.979480
O O8 0.342975 0.500000 0.949237
O O9 0.348167 0.407910 0.079941
O O10 0.373452 0.413018 0.806554
O O11 0.500000 0.154674 0.213020
O O12 0.341511 0.188606 0.318395
O O13 0.336311 0.138091 0.085218
O O14 0.698218 0.725932 0.447331
O O15 0.644996 0.804858 0.594468
O O16 0.640146 0.138683 0.825257
O O17 0.500000 0.141541 0.652549
#
# Coordination Sequence:
#
# PCOD8177959 Si02
#       7
#     8   8   8   8   8   8   8
#     4   9  18  30  44  62  88 124 162 200 235 264
#     4   9  17  29  44  62  85 120 164 202 232 261
#     4   8  16  34  54  66  83 115 151 194 244 281
#     4  10  21  32  45  67  95 126 161 190 220 273
#     4  10  19  30  43  63  93 136 162 182 221 263
#     4  11  20  29  43  67  99 129 154 192 225 262
#     4  10  19  30  45  67  92 121 161 191 222 273
#
# _framework density 16.042155000000001
#
# number of rings (size 3 to 8) (size 9 to 14) (size 15 to 20)
#    0.000    2.429    1.429    2.571    6.000    3.429 
#    0.000    0.714    0.000    3.429    0.000    0.000 
#    0.000   21.714    0.000    0.000    0.000    0.000 
#
# Total GULP energy -346895.560604 kJ/mol
# GULP energy per Si atom -12389.127164 kJ/mol
# Density = 1.600564 g / cm^3
# Si number density = 16.042155 Si / 1000 Ang^3
#
#
#
# Elastic Constant Matrix: (Units=GPa)
#
#
# Indices 1 2 3 4 5 6 
#
# 1 103.9386 24.1666 30.1473 0.0000 0.0000 0.0000
# 2 24.1666 63.0286 22.8032 0.0000 0.0000 0.0000
# 3 30.1473 22.8032 87.2088 0.0000 0.0000 0.0000
# 4 0.0000 0.0000 0.0000 4.2888 0.0000 0.0000
# 5 0.0000 0.0000 0.0000 0.0000 27.6423 0.0000
# 6 0.0000 0.0000 0.0000 0.0000 0.0000 3.6771
#
#
#
# Elastic Compliance Matrix: (Units=1/GPa)
#
#
# Indices 1 2 3 4 5 6 
#
# 1 0.011252 -0.003211 -0.003050 0.000000 0.000000 0.000000
# 2 -0.003211 0.018440 -0.003712 0.000000 0.000000 0.000000
# 3 -0.003050 -0.003712 0.013492 0.000000 0.000000 0.000000
# 4 0.000000 0.000000 0.000000 0.233168 0.000000 0.000000
# 5 0.000000 0.000000 0.000000 0.000000 0.036176 0.000000
# 6 0.000000 0.000000 0.000000 0.000000 0.000000 0.271950
#
#
# Mechanical properties :
#
#
# Convention : Reuss Voigt Hill
#
# Bulk Modulus (GPa) = 43.03239 45.37890 44.20564
# Shear Modulus (GPa) = 8.16766 18.92557 13.54662
#
# Velocity S-wave (km/s) = 2.25886 3.43846 2.90908
# Velocity P-wave (km/s) = 5.80397 6.64174 6.23694
#
# Compressibility (1/GPa) = 0.02323831
#
# Stress axis : x y z
#
# Youngs Moduli (GPa) = 88.87046 54.23063 74.11964
#
# Poissons Ratio (x) = 0.17413 0.22608
# Poissons Ratio (y) = 0.28535 0.27511
# Poissons Ratio (z) = 0.27108 0.20128
#
# Static dielectric constant tensor:
#      x y z
#    x 3.475120 0.000000 0.000000 
#    y 0.000000 2.797420 0.000000 
#    z 0.000000 0.000000 3.171170 
# 
# 
# High freq. dielectric constant tensor:
#      x y z
#    x 1.625320 0.000000 0.000000 
#    y 0.000000 1.554710 0.000000 
#    z 0.000000 0.000000 1.630110 
# 
# From -- ./inp_files/5962.got.cif
#   From: 2010.03.12/outbox.cif.g09.slc.cpg/sg38_3_cif.got.tgz:5962.got - 2010.04.14 02:38:36.
