data_PCOD8177625
_publ_section_title
;
Structure prediction by ZEFSAII (Michael W. Deem and Ramdas Pophale) SiO2 
 PCOD8177625
Probable space group: A M M 2
;
_chemical_formula_sum "Si O2"
_cell_formula_units_Z 56
_cell_length_a 14.076837
_cell_length_b 13.393480
_cell_length_c 18.498747
_cell_angle_alpha 90.000000
_cell_angle_beta 90.000000
_cell_angle_gamma 90.000000
_cell_volume 3487.713706
_symmetry_space_group_name_H-M "A M M 2"
_symmetry_group_IT_number 38
_symmetry_cell_setting 'orthorhombic'
loop_
_space_group_symop_operation_xyz
x,y,z
-x,-y,z
-x,y,z
x,-y,z
x,1/2+y,1/2+z
-x,1/2-y,1/2+z
-x,1/2+y,1/2+z
x,1/2-y,1/2+z
loop_
_atom_site_type_symbol
_atom_site_label
_atom_site_fract_x
_atom_site_fract_y
_atom_site_fract_z
Si Si1 0.111286 0.707725 0.946510
Si Si2 0.799028 0.386322 0.521760
Si Si3 0.396097 0.881472 0.077473
Si Si4 0.603786 0.881667 0.239306
Si Si5 0.796369 0.881758 0.306494
Si Si6 0.888204 0.891177 0.595738
Si Si7 0.888071 0.690036 0.662177
O O1 0.170289 0.671845 0.878386
O O2 0.000000 0.704962 0.928371
O O3 0.141365 0.820721 0.965468
O O4 0.137964 0.636957 0.013505
O O5 0.804286 0.500000 0.494329
O O6 0.689392 0.346328 0.525185
O O7 0.840906 0.381687 0.602792
O O8 0.500000 0.846032 0.048191
O O9 0.380112 0.838436 0.158506
O O10 0.393080 0.000000 0.082287
O O11 0.500000 0.846305 0.268648
O O12 0.688359 0.845249 0.291486
O O13 0.606713 0.000000 0.235109
O O14 0.863432 0.847283 0.241420
O O15 0.804850 0.000000 0.316055
O O16 0.851392 0.804503 0.649742
O O17 0.000000 0.899544 0.603254
O O18 0.842452 0.000000 0.614167
O O19 0.000000 0.684834 0.649738
#
# Coordination Sequence:
#
# PCOD8177625 Si02
#       7
#     8   8   8   8   8   8   8
#     4  10  21  32  43  64  94 129 164 190 221 277
#     4  10  18  31  48  67  93 124 154 190 238 280
#     4   8  13  24  45  71  94 115 144 186 235 283
#     4   8  14  26  45  69  94 117 142 181 238 290
#     4  11  20  31  47  68  94 122 152 193 239 276
#     4   8  15  30  47  60  82 120 157 187 221 263
#     4  10  19  28  44  71  93 112 152 199 231 270
#
# _framework density 16.056363999999999
#
# number of rings (size 3 to 8) (size 9 to 14) (size 15 to 20)
#    0.000    2.714    1.429    3.429    0.000    3.429 
#    0.000    1.429    0.000    1.714    0.000    0.000 
#    0.000   11.429    0.000    0.000    0.000    0.000 
#
# Total GULP energy -346977.753892 kJ/mol
# GULP energy per Si atom -12392.062639 kJ/mol
# Density = 1.601982 g / cm^3
# Si number density = 16.056364 Si / 1000 Ang^3
#
#
#
# Elastic Constant Matrix: (Units=GPa)
#
#
# Indices 1 2 3 4 5 6 
#
# 1 73.9435 16.5667 8.0652 0.0000 0.0000 0.0000
# 2 16.5667 65.5577 17.9923 0.0000 0.0000 0.0000
# 3 8.0652 17.9923 46.0190 0.0000 0.0000 0.0000
# 4 0.0000 0.0000 0.0000 16.0327 0.0000 0.0000
# 5 0.0000 0.0000 0.0000 0.0000 24.4377 0.0000
# 6 0.0000 0.0000 0.0000 0.0000 0.0000 14.2183
#
#
#
# Elastic Compliance Matrix: (Units=1/GPa)
#
#
# Indices 1 2 3 4 5 6 
#
# 1 0.014398 -0.003300 -0.001233 0.000000 0.000000 0.000000
# 2 -0.003300 0.017844 -0.006398 0.000000 0.000000 0.000000
# 3 -0.001233 -0.006398 0.024448 0.000000 0.000000 0.000000
# 4 0.000000 0.000000 0.000000 0.062373 0.000000 0.000000
# 5 0.000000 0.000000 0.000000 0.000000 0.040920 0.000000
# 6 0.000000 0.000000 0.000000 0.000000 0.000000 0.070332
#
#
# Mechanical properties :
#
#
# Convention : Reuss Voigt Hill
#
# Bulk Modulus (GPa) = 28.71352 30.08539 29.39945
# Shear Modulus (GPa) = 18.95485 20.46415 19.70950
#
# Velocity S-wave (km/s) = 3.43960 3.57391 3.50740
# Velocity P-wave (km/s) = 5.80484 5.98402 5.89511
#
# Compressibility (1/GPa) = 0.03482680
#
# Stress axis : x y z
#
# Youngs Moduli (GPa) = 69.45566 56.04252 40.90361
#
# Poissons Ratio (x) = 0.18494 0.05044
# Poissons Ratio (y) = 0.22920 0.26170
# Poissons Ratio (z) = 0.08565 0.35856
#
# Static dielectric constant tensor:
#      x y z
#    x 3.392450 0.000000 0.000000 
#    y 0.000000 3.035630 0.000000 
#    z 0.000000 0.000000 2.799530 
# 
# 
# High freq. dielectric constant tensor:
#      x y z
#    x 1.621430 0.000000 0.000000 
#    y 0.000000 1.591820 0.000000 
#    z 0.000000 0.000000 1.589780 
# 
# From -- ./inp_files/18480.got.cif
#   From: 2010.03.12/outbox.cif.g09.slc.cpg/sg38_10_cif.got.tgz:18480.got - 2010.04.14 02:38:36.
