data_PCOD8177426
_publ_section_title
;
Structure prediction by ZEFSAII (Michael W. Deem and Ramdas Pophale) SiO2 
 PCOD8177426
Probable space group: A M M 2
;
_chemical_formula_sum "Si O2"
_cell_formula_units_Z 56
_cell_length_a 8.662016
_cell_length_b 13.699670
_cell_length_c 29.185172
_cell_angle_alpha 90.000000
_cell_angle_beta 90.000000
_cell_angle_gamma 90.000000
_cell_volume 3463.309823
_symmetry_space_group_name_H-M "A M M 2"
_symmetry_group_IT_number 38
_symmetry_cell_setting 'orthorhombic'
loop_
_space_group_symop_operation_xyz
x,y,z
-x,-y,z
-x,y,z
x,-y,z
x,1/2+y,1/2+z
-x,1/2-y,1/2+z
-x,1/2+y,1/2+z
x,1/2-y,1/2+z
loop_
_atom_site_type_symbol
_atom_site_label
_atom_site_fract_x
_atom_site_fract_y
_atom_site_fract_z
Si Si1 0.680138 0.110878 0.116890
Si Si2 0.828526 0.615802 0.877299
Si Si3 0.678554 0.113332 0.284887
Si Si4 0.680174 0.388743 0.150323
Si Si5 0.180658 0.217295 0.200822
Si Si6 0.183803 0.891204 0.476909
Si Si7 0.182572 0.217723 0.565921
O O1 0.500000 0.127286 0.125889
O O2 0.768348 0.137632 0.163464
O O3 0.736744 0.178513 0.075228
O O4 0.718074 0.000000 0.103551
O O5 0.837796 0.500000 0.880363
O O6 0.715081 0.648947 0.836584
O O7 0.765270 0.651709 0.927051
O O8 0.000000 0.657928 0.867509
O O9 0.500000 0.130406 0.274264
O O10 0.779343 0.178139 0.250913
O O11 0.724306 0.000000 0.278746
O O12 0.500000 0.372722 0.140808
O O13 0.717915 0.500000 0.163534
O O14 0.733359 0.320116 0.192233
O O15 0.772975 0.360349 0.104702
O O16 0.000000 0.235467 0.196694
O O17 0.244658 0.820541 0.517006
O O18 0.000000 0.897199 0.478275
O O19 0.252148 0.000000 0.484878
O O20 0.000000 0.232304 0.566124
#
# Coordination Sequence:
#
# PCOD8177426 Si02
#       7
#     8   8   8   8   8   8   8
#     4  10  20  33  46  61  87 120 150 184 224 263
#     4   8  14  26  43  62  86 116 148 179 213 258
#     4  10  19  30  44  64  92 121 147 179 220 265
#     4  10  20  33  47  64  90 121 149 180 218 259
#     4  11  21  31  47  68  88 114 149 185 219 260
#     4   8  14  25  42  65  92 119 145 176 216 259
#     4  10  18  28  46  69  91 117 150 185 219 259
#
# _framework density 16.169502999999999
#
# number of rings (size 3 to 8) (size 9 to 14) (size 15 to 20)
#    0.000    2.429    0.000    6.429    0.000    5.429 
#    0.000    1.429    0.000    3.429    0.000    1.000 
#    0.000    5.714    0.000    0.000    0.000    0.000 
#
# Total GULP energy -347135.204363 kJ/mol
# GULP energy per Si atom -12397.685870 kJ/mol
# Density = 1.613270 g / cm^3
# Si number density = 16.169503 Si / 1000 Ang^3
#
#
#
# Elastic Constant Matrix: (Units=GPa)
#
#
# Indices 1 2 3 4 5 6 
#
# 1 45.8208 23.5318 14.6074 0.0000 0.0000 0.0000
# 2 23.5318 94.6541 46.0747 0.0000 0.0000 0.0000
# 3 14.6074 46.0747 115.0884 0.0000 0.0000 0.0000
# 4 0.0000 0.0000 0.0000 22.8914 0.0000 0.0000
# 5 0.0000 0.0000 0.0000 0.0000 11.7615 0.0000
# 6 0.0000 0.0000 0.0000 0.0000 0.0000 19.4988
#
#
#
# Elastic Compliance Matrix: (Units=1/GPa)
#
#
# Indices 1 2 3 4 5 6 
#
# 1 0.025086 -0.005821 -0.000854 0.000000 0.000000 0.000000
# 2 -0.005821 0.014473 -0.005055 0.000000 0.000000 0.000000
# 3 -0.000854 -0.005055 0.010821 0.000000 0.000000 0.000000
# 4 0.000000 0.000000 0.000000 0.043685 0.000000 0.000000
# 5 0.000000 0.000000 0.000000 0.000000 0.085023 0.000000
# 6 0.000000 0.000000 0.000000 0.000000 0.000000 0.051285
#
#
# Mechanical properties :
#
#
# Convention : Reuss Voigt Hill
#
# Bulk Modulus (GPa) = 37.14719 47.11010 42.12865
# Shear Modulus (GPa) = 19.02551 22.25365 20.63958
#
# Velocity S-wave (km/s) = 3.43392 3.71384 3.57662
# Velocity P-wave (km/s) = 6.22462 6.89845 6.57018
#
# Compressibility (1/GPa) = 0.02691993
#
# Stress axis : x y z
#
# Youngs Moduli (GPa) = 39.86337 69.09589 92.41202
#
# Poissons Ratio (x) = 0.40221 0.07888
# Poissons Ratio (y) = 0.23205 0.46716
# Poissons Ratio (z) = 0.03403 0.34929
#
# Static dielectric constant tensor:
#      x y z
#    x 3.039160 0.000000 0.000000 
#    y 0.000000 2.952440 0.000000 
#    z 0.000000 0.000000 3.270430 
# 
# 
# High freq. dielectric constant tensor:
#      x y z
#    x 1.623810 0.000000 0.000000 
#    y 0.000000 1.591120 0.000000 
#    z 0.000000 0.000000 1.618730 
# 
# From -- ./inp_files/24650.got.cif
#   From: 2010.03.12/outbox.cif.g09.slc.cpg/sg38_13_cif.got.tgz:24650.got - 2010.04.14 02:38:36.
