data_PCOD8177020
_publ_section_title
;
Structure prediction by ZEFSAII (Michael W. Deem and Ramdas Pophale) SiO2 
 PCOD8177020
Probable space group: C C C 2
;
_chemical_formula_sum "Si O2"
_cell_formula_units_Z 60
_cell_length_a 11.009814
_cell_length_b 18.780569
_cell_length_c 13.049174
_cell_angle_alpha 90.000000
_cell_angle_beta 90.000000
_cell_angle_gamma 90.000000
_cell_volume 2698.185166
_symmetry_space_group_name_H-M "C C C 2"
_symmetry_group_IT_number 37
_symmetry_cell_setting 'orthorhombic'
loop_
_space_group_symop_operation_xyz
x,y,z
-x,-y,z
-x,y,1/2+z
x,-y,1/2+z
1/2+x,1/2+y,z
1/2-x,1/2-y,z
1/2-x,1/2+y,1/2+z
1/2+x,1/2-y,1/2+z
loop_
_atom_site_type_symbol
_atom_site_label
_atom_site_fract_x
_atom_site_fract_y
_atom_site_fract_z
Si Si1 0.374397 0.621807 0.494660
Si Si2 0.500350 0.807031 0.155705
Si Si3 0.250000 0.250000 0.085086
Si Si4 0.939206 0.578280 0.293301
Si Si5 0.730857 0.974835 0.136384
Si Si6 0.603078 0.557283 0.776941
Si Si7 0.854417 0.397198 0.016616
Si Si8 0.394185 0.335563 0.602146
O O1 0.278145 0.684371 0.510849
O O2 0.343064 0.558710 0.574654
O O3 0.356892 0.594202 0.380973
O O4 0.510404 0.650720 0.510379
O O5 0.633532 0.770180 0.154875
O O6 0.474992 0.854280 0.260210
O O7 0.399459 0.744573 0.146165
O O8 0.475383 0.858454 0.057865
O O9 0.852857 0.583170 0.192283
O O10 0.863879 0.597679 0.394218
O O11 0.000000 0.500000 0.302485
O O12 0.777444 0.020905 0.231911
O O13 0.650772 0.022808 0.060110
O O14 0.500000 0.500000 0.800999
O O15 0.560012 0.615140 0.695048
O O16 0.736190 0.353539 0.054018
#
# Coordination Sequence:
#
# PCOD8177020 Si02
#       8
#     8   8   4   8   8   8   8   8
#     4  11  23  42  70  99 140 181 237 281 356 426
#     4  11  24  49  69 100 140 182 238 293 354 421
#     4  10  24  46  70  92 136 186 222 294 344 418
#     4  12  26  44  76 106 137 188 237 293 361 430
#     4  11  23  44  65 102 142 179 227 297 354 422
#     4  11  24  39  67 101 133 180 230 285 349 416
#     4  11  26  44  72 101 144 182 232 290 361 423
#     4  10  25  47  68 101 145 188 228 299 351 427
#
# _framework density 22.237169999999999
#
# number of rings (size 3 to 8) (size 9 to 14) (size 15 to 20)
#    0.000    1.067    4.000    1.200    7.467    3.200 
#    7.200    0.000    0.000    0.000    0.000    0.000 
#    0.000    0.000    0.000    0.000    0.000    0.000 
#
# Total GULP energy -371903.491080 kJ/mol
# GULP energy per Si atom -12396.783036 kJ/mol
# Density = 2.218656 g / cm^3
# Si number density = 22.237170 Si / 1000 Ang^3
#
#
#
# Elastic Constant Matrix: (Units=GPa)
#
#
# Indices 1 2 3 4 5 6 
#
# 1 71.4709 25.5442 39.4331 0.0000 0.0000 0.0000
# 2 25.5442 132.7248 57.1823 0.0000 0.0000 0.0000
# 3 39.4331 57.1823 134.8651 0.0000 0.0000 0.0000
# 4 0.0000 0.0000 0.0000 21.0750 0.0000 0.0000
# 5 0.0000 0.0000 0.0000 0.0000 30.5746 0.0000
# 6 0.0000 0.0000 0.0000 0.0000 0.0000 32.6849
#
#
#
# Elastic Compliance Matrix: (Units=1/GPa)
#
#
# Indices 1 2 3 4 5 6 
#
# 1 0.016885 -0.001374 -0.004355 0.000000 0.000000 0.000000
# 2 -0.001374 0.009330 -0.003554 0.000000 0.000000 0.000000
# 3 -0.004355 -0.003554 0.010195 0.000000 0.000000 0.000000
# 4 0.000000 0.000000 0.000000 0.047450 0.000000 0.000000
# 5 0.000000 0.000000 0.000000 0.000000 0.032707 0.000000
# 6 0.000000 0.000000 0.000000 0.000000 0.000000 0.030595
#
#
# Mechanical properties :
#
#
# Convention : Reuss Voigt Hill
#
# Bulk Modulus (GPa) = 56.03715 64.82000 60.42857
# Shear Modulus (GPa) = 29.12470 31.32698 30.22584
#
# Velocity S-wave (km/s) = 3.62295 3.75743 3.69080
# Velocity P-wave (km/s) = 6.53877 6.93087 6.73767
#
# Compressibility (1/GPa) = 0.01784531
#
# Stress axis : x y z
#
# Youngs Moduli (GPa) = 59.22317 107.18050 98.08647
#
# Poissons Ratio (x) = 0.14722 0.42713
# Poissons Ratio (y) = 0.08135 0.34863
# Poissons Ratio (z) = 0.25790 0.38095
#
# Static dielectric constant tensor:
#      x y z
#    x 3.883660 0.000000 0.000000 
#    y 0.000000 4.367590 0.000000 
#    z 0.000000 0.000000 3.771420 
# 
# 
# High freq. dielectric constant tensor:
#      x y z
#    x 1.873560 0.000000 0.000000 
#    y 0.000000 1.896470 0.000000 
#    z 0.000000 0.000000 1.862280 
# 
# From -- ./inp_files/7331.got.cif
#   From: 2010.03.12/outbox.cif.g09.slc.cpg/sg37_4_cif.got.tgz:7331.got - 2010.04.14 02:25:27.
