data_PCOD8177089
_publ_section_title
;
Structure prediction by ZEFSAII (Michael W. Deem and Ramdas Pophale) SiO2 
 PCOD8177089
Probable space group: C C C 2
;
_chemical_formula_sum "Si O2"
_cell_formula_units_Z 40
_cell_length_a 25.870460
_cell_length_b 7.920076
_cell_length_c 8.513530
_cell_angle_alpha 90.000000
_cell_angle_beta 90.000000
_cell_angle_gamma 90.000000
_cell_volume 1744.388323
_symmetry_space_group_name_H-M "C C C 2"
_symmetry_group_IT_number 37
_symmetry_cell_setting 'orthorhombic'
loop_
_space_group_symop_operation_xyz
x,y,z
-x,-y,z
-x,y,1/2+z
x,-y,1/2+z
1/2+x,1/2+y,z
1/2-x,1/2-y,z
1/2-x,1/2+y,1/2+z
1/2+x,1/2-y,1/2+z
loop_
_atom_site_type_symbol
_atom_site_label
_atom_site_fract_x
_atom_site_fract_y
_atom_site_fract_z
Si Si1 0.943946 0.461833 0.729810
Si Si2 0.653388 0.115726 0.947316
Si Si3 0.907236 0.845649 0.037751
Si Si4 0.306553 0.202970 0.135180
Si Si5 0.594665 0.310372 0.167100
O O1 0.900462 0.429034 0.859506
O O2 0.942970 0.304545 0.606646
O O3 0.934627 0.634491 0.632127
O O4 0.000000 0.500000 0.807545
O O5 0.697094 0.161545 0.820136
O O6 0.647860 0.273298 0.069391
O O7 0.671027 0.953357 0.040827
O O8 0.849255 0.849599 0.111892
O O9 0.932551 0.025310 0.089351
O O10 0.900284 0.836128 0.851885
O O11 0.250000 0.250000 0.071611
#
# Coordination Sequence:
#
# PCOD8177089 Si02
#       5
#     8   8   8   8   8
#     4  11  24  46  74 102 142 188 236 292 363 423
#     4  11  22  46  69 102 144 184 234 303 350 424
#     4  11  24  43  69 103 138 185 234 294 350 422
#     4  11  23  43  69 102 138 186 240 288 362 424
#     4  12  23  44  70  97 147 180 232 294 353 419
#
# _framework density 22.930674
#
# number of rings (size 3 to 8) (size 9 to 14) (size 15 to 20)
#    0.000    0.800    6.000    2.400    0.000    7.200 
#    0.000    4.000    0.000    0.000    0.000    0.000 
#    0.000    0.000    0.000    0.000    0.000    0.000 
#
# Total GULP energy -247763.709002 kJ/mol
# GULP energy per Si atom -12388.185450 kJ/mol
# Density = 2.287848 g / cm^3
# Si number density = 22.930674 Si / 1000 Ang^3
#
#
#
# Elastic Constant Matrix: (Units=GPa)
#
#
# Indices 1 2 3 4 5 6 
#
# 1 94.8400 26.7287 22.9767 0.0000 0.0000 0.0000
# 2 26.7287 181.7018 60.3310 0.0000 0.0000 0.0000
# 3 22.9767 60.3310 155.1259 0.0000 0.0000 0.0000
# 4 0.0000 0.0000 0.0000 38.3424 0.0000 0.0000
# 5 0.0000 0.0000 0.0000 0.0000 19.4879 0.0000
# 6 0.0000 0.0000 0.0000 0.0000 0.0000 14.5638
#
#
#
# Elastic Compliance Matrix: (Units=1/GPa)
#
#
# Indices 1 2 3 4 5 6 
#
# 1 0.011181 -0.001257 -0.001167 0.000000 0.000000 0.000000
# 2 -0.001257 0.006461 -0.002327 0.000000 0.000000 0.000000
# 3 -0.001167 -0.002327 0.007524 0.000000 0.000000 0.000000
# 4 0.000000 0.000000 0.000000 0.026081 0.000000 0.000000
# 5 0.000000 0.000000 0.000000 0.000000 0.051314 0.000000
# 6 0.000000 0.000000 0.000000 0.000000 0.000000 0.068663
#
#
# Mechanical properties :
#
#
# Convention : Reuss Voigt Hill
#
# Bulk Modulus (GPa) = 63.83935 72.41559 68.12747
# Shear Modulus (GPa) = 26.88932 35.92091 31.40512
#
# Velocity S-wave (km/s) = 3.42809 3.96220 3.70478
# Velocity P-wave (km/s) = 6.60073 7.25126 6.93363
#
# Compressibility (1/GPa) = 0.01566432
#
# Stress axis : x y z
#
# Youngs Moduli (GPa) = 89.43611 154.77581 132.90655
#
# Poissons Ratio (x) = 0.19459 0.15512
# Poissons Ratio (y) = 0.11244 0.30921
# Poissons Ratio (z) = 0.10439 0.36009
#
# Static dielectric constant tensor:
#      x y z
#    x 4.328240 0.000000 0.000000 
#    y 0.000000 4.681970 0.000000 
#    z 0.000000 0.000000 4.366950 
# 
# 
# High freq. dielectric constant tensor:
#      x y z
#    x 1.864740 0.000000 0.000000 
#    y 0.000000 1.918290 0.000000 
#    z 0.000000 0.000000 1.927120 
# 
# From -- ./inp_files/2295.got.cif
#   From: 2010.03.12/outbox.cif.g09.slc.cpg/sg37_2_cif.got.tgz:2295.got - 2010.04.14 02:25:27.
