data_PCOD8177704
_publ_section_title
;
Structure prediction by ZEFSAII (Michael W. Deem and Ramdas Pophale) SiO2 
 PCOD8177704
Probable space group: A M M 2
;
_chemical_formula_sum "Si O2"
_cell_formula_units_Z 48
_cell_length_a 28.290508
_cell_length_b 15.212132
_cell_length_c 5.256715
_cell_angle_alpha 90.000000
_cell_angle_beta 90.000000
_cell_angle_gamma 90.000000
_cell_volume 2262.274306
_symmetry_space_group_name_H-M "A M M 2"
_symmetry_group_IT_number 38
_symmetry_cell_setting 'orthorhombic'
loop_
_space_group_symop_operation_xyz
x,y,z
-x,-y,z
-x,y,z
x,-y,z
x,1/2+y,1/2+z
-x,1/2-y,1/2+z
-x,1/2+y,1/2+z
x,1/2-y,1/2+z
loop_
_atom_site_type_symbol
_atom_site_label
_atom_site_fract_x
_atom_site_fract_y
_atom_site_fract_z
Si Si1 0.399658 0.693771 0.222260
Si Si2 0.303025 0.897169 0.680019
Si Si3 0.750531 0.605238 0.679784
Si Si4 0.856309 0.153231 0.183392
Si Si5 0.000000 0.805376 0.717233
Si Si6 0.500000 0.695904 0.123497
Si Si7 0.896523 0.851153 0.683370
O O1 0.395873 0.730155 0.509133
O O2 0.358188 0.624814 0.179494
O O3 0.450746 0.644575 0.183082
O O4 0.278472 0.860656 0.424800
O O5 0.297717 0.000000 0.681438
O O6 0.277311 0.860219 0.931464
O O7 0.758093 0.500000 0.679977
O O8 0.799964 0.656124 0.683302
O O9 0.874922 0.102063 0.433825
O O10 0.879508 0.249805 0.186182
O O11 0.875039 0.102041 0.933400
O O12 0.046983 0.862918 0.679401
O O13 0.000000 0.729672 0.504995
O O14 0.500000 0.777298 0.326026
#
# Coordination Sequence:
#
# PCOD8177704 Si02
#       7
#     8   8   8   8   4   4   8
#     4  10  19  35  54  82 107 136 179 216 267 311
#     4  10  21  38  54  74 105 142 180 218 259 315
#     4  10  21  37  54  69  97 143 177 203 253 306
#     4  10  18  32  45  70  98 122 163 199 241 288
#     4  12  16  30  48  70 102 130 156 180 254 332
#     4   8  16  30  53  74 107 140 164 212 264 324
#     4  10  19  30  48  75  99 125 152 201 256 293
#
# _framework density 21.217585
#
# number of rings (size 3 to 8) (size 9 to 14) (size 15 to 20)
#    0.000    2.000    3.333    2.000    0.000    0.000 
#   18.000    0.417    0.000    0.000    0.000   16.917 
#    0.000    0.000    0.000    0.000    0.000    0.000 
#
# Total GULP energy -297393.527707 kJ/mol
# GULP energy per Si atom -12391.396988 kJ/mol
# Density = 2.116929 g / cm^3
# Si number density = 21.217585 Si / 1000 Ang^3
#
#
#
# Elastic Constant Matrix: (Units=GPa)
#
#
# Indices 1 2 3 4 5 6 
#
# 1 220.9045 8.2814 72.4472 0.0000 0.0000 0.0000
# 2 8.2814 8.3614 3.4674 0.0000 0.0000 0.0000
# 3 72.4472 3.4674 203.6466 0.0000 0.0000 0.0000
# 4 0.0000 0.0000 0.0000 1.6796 0.0000 0.0000
# 5 0.0000 0.0000 0.0000 0.0000 40.2217 0.0000
# 6 0.0000 0.0000 0.0000 0.0000 0.0000 1.7856
#
#
#
# Elastic Compliance Matrix: (Units=1/GPa)
#
#
# Indices 1 2 3 4 5 6 
#
# 1 0.005287 -0.004488 -0.001804 0.000000 0.000000 0.000000
# 2 -0.004488 0.124257 -0.000519 0.000000 0.000000 0.000000
# 3 -0.001804 -0.000519 0.005561 0.000000 0.000000 0.000000
# 4 0.000000 0.000000 0.000000 0.595392 0.000000 0.000000
# 5 0.000000 0.000000 0.000000 0.000000 0.024862 0.000000
# 6 0.000000 0.000000 0.000000 0.000000 0.000000 0.560050
#
#
# Mechanical properties :
#
#
# Convention : Reuss Voigt Hill
#
# Bulk Modulus (GPa) = 8.23166 66.81163 37.52164
# Shear Modulus (GPa) = 3.65090 31.98514 17.81802
#
# Velocity S-wave (km/s) = 1.31318 3.88684 2.90103
# Velocity P-wave (km/s) = 2.48743 7.19031 5.37996
#
# Compressibility (1/GPa) = 0.12148213
#
# Stress axis : x y z
#
# Youngs Moduli (GPa) = 189.14864 8.04784 179.81685
#
# Poissons Ratio (x) = 0.03612 0.32446
# Poissons Ratio (y) = 0.84889 0.09335
# Poissons Ratio (z) = 0.34130 0.00418
#
# Static dielectric constant tensor:
#      x y z
#    x 4.186380 0.000000 0.000000 
#    y 0.000000 2.980370 0.000000 
#    z 0.000000 0.000000 6.531110 
# 
# 
# High freq. dielectric constant tensor:
#      x y z
#    x 1.855400 0.000000 0.000000 
#    y 0.000000 1.749840 0.000000 
#    z 0.000000 0.000000 1.871780 
# 
# From -- ./inp_files/2109.got.cif
#   From: 2010.03.12/outbox.cif.g09.slc.cpg/sg38_2_cif.got.tgz:2109.got - 2010.04.14 02:38:36.
