data_PCOD8177298
_publ_section_title
;
Structure prediction by ZEFSAII (Michael W. Deem and Ramdas Pophale) SiO2 
 PCOD8177298
Probable space group: A M M 2
;
_chemical_formula_sum "Si O2"
_cell_formula_units_Z 64
_cell_length_a 19.345026
_cell_length_b 9.251242
_cell_length_c 20.818705
_cell_angle_alpha 90.000000
_cell_angle_beta 90.000000
_cell_angle_gamma 90.000000
_cell_volume 3725.830304
_symmetry_space_group_name_H-M "A M M 2"
_symmetry_group_IT_number 38
_symmetry_cell_setting 'orthorhombic'
loop_
_space_group_symop_operation_xyz
x,y,z
-x,-y,z
-x,y,z
x,-y,z
x,1/2+y,1/2+z
-x,1/2-y,1/2+z
-x,1/2+y,1/2+z
x,1/2-y,1/2+z
loop_
_atom_site_type_symbol
_atom_site_label
_atom_site_fract_x
_atom_site_fract_y
_atom_site_fract_z
Si Si1 0.076342 0.164931 0.529700
Si Si2 0.783821 0.166641 0.473133
Si Si3 0.291350 0.171665 0.344066
Si Si4 0.076797 0.170151 0.159188
Si Si5 0.579008 0.669227 0.387550
Si Si6 0.574505 0.328959 0.532569
Si Si7 0.784124 0.328929 0.717850
Si Si8 0.286043 0.328533 0.588870
O O1 0.132737 0.188314 0.473281
O O2 0.095270 0.261080 0.590983
O O3 0.000000 0.205118 0.502674
O O4 0.077975 0.000000 0.553726
O O5 0.752817 0.221214 0.405918
O O6 0.755595 0.260825 0.530839
O O7 0.763765 0.000000 0.484610
O O8 0.367416 0.242557 0.343448
O O9 0.249119 0.233450 0.282839
O O10 0.300213 0.000000 0.340902
O O11 0.135132 0.218204 0.210899
O O12 0.000000 0.217415 0.183115
O O13 0.080405 0.000000 0.148233
O O14 0.500000 0.701556 0.365852
O O15 0.595310 0.500000 0.381090
O O16 0.590567 0.725352 0.460409
O O17 0.500000 0.266965 0.555794
O O18 0.569963 0.500000 0.528848
O O19 0.633786 0.279559 0.581887
O O20 0.778356 0.500000 0.719688
O O21 0.741377 0.269120 0.656696
O O22 0.277673 0.500000 0.583737
#
# Coordination Sequence:
#
# PCOD8177298 Si02
#       8
#     8   8   8   8   8   8   8   8
#     4   9  17  29  45  67  94 122 156 197 239 281
#     4  10  19  30  46  69  96 124 156 196 238 280
#     4  10  20  33  47  68 102 134 158 190 236 289
#     4   9  16  28  48  71  93 120 157 198 238 279
#     4   9  17  31  51  73  95 121 159 202 238 279
#     4   8  14  25  44  70  93 113 147 195 237 271
#     4   9  18  31  46  70 100 127 157 195 237 281
#     4  10  17  29  51  71  91 121 158 199 237 276
#
# _framework density 17.177378000000001
#
# number of rings (size 3 to 8) (size 9 to 14) (size 15 to 20)
#    0.000    2.750    2.500    0.750    0.000    0.250 
#    0.000    2.500    0.000    6.375    0.000    0.000 
#    0.000    5.000    0.000    0.000    0.000    0.000 
#
# Total GULP energy -396568.553211 kJ/mol
# GULP energy per Si atom -12392.767288 kJ/mol
# Density = 1.713828 g / cm^3
# Si number density = 17.177378 Si / 1000 Ang^3
#
#
#
# Elastic Constant Matrix: (Units=GPa)
#
#
# Indices 1 2 3 4 5 6 
#
# 1 156.7438 28.3355 75.4016 0.0000 0.0000 0.0000
# 2 28.3355 22.9549 21.6316 0.0000 0.0000 0.0000
# 3 75.4016 21.6316 107.4034 0.0000 0.0000 0.0000
# 4 0.0000 0.0000 0.0000 16.7369 0.0000 0.0000
# 5 0.0000 0.0000 0.0000 0.0000 29.0029 0.0000
# 6 0.0000 0.0000 0.0000 0.0000 0.0000 22.1885
#
#
#
# Elastic Compliance Matrix: (Units=1/GPa)
#
#
# Indices 1 2 3 4 5 6 
#
# 1 0.010581 -0.007481 -0.005921 0.000000 0.000000 0.000000
# 2 -0.007481 0.059058 -0.006643 0.000000 0.000000 0.000000
# 3 -0.005921 -0.006643 0.014806 0.000000 0.000000 0.000000
# 4 0.000000 0.000000 0.000000 0.059748 0.000000 0.000000
# 5 0.000000 0.000000 0.000000 0.000000 0.034479 0.000000
# 6 0.000000 0.000000 0.000000 0.000000 0.000000 0.045068
#
#
# Mechanical properties :
#
#
# Convention : Reuss Voigt Hill
#
# Bulk Modulus (GPa) = 22.54572 59.75991 41.15282
# Shear Modulus (GPa) = 17.94594 24.36789 21.15691
#
# Velocity S-wave (km/s) = 3.23575 3.77052 3.51333
# Velocity P-wave (km/s) = 5.20710 7.33629 6.36141
#
# Compressibility (1/GPa) = 0.04435432
#
# Stress axis : x y z
#
# Youngs Moduli (GPa) = 94.51207 16.93258 67.54178
#
# Poissons Ratio (x) = 0.12667 0.39994
# Poissons Ratio (y) = 0.70702 0.44866
# Poissons Ratio (z) = 0.55964 0.11248
#
# Static dielectric constant tensor:
#      x y z
#    x 3.866140 0.000000 0.000000 
#    y 0.000000 2.923980 0.000000 
#    z 0.000000 0.000000 3.140700 
# 
# 
# High freq. dielectric constant tensor:
#      x y z
#    x 1.685840 0.000000 0.000000 
#    y 0.000000 1.632930 0.000000 
#    z 0.000000 0.000000 1.630580 
# 
# From -- ./inp_files/21509.got.cif
#   From: 2010.03.12/outbox.cif.g09.slc.cpg/sg38_11_cif.got.tgz:21509.got - 2010.04.14 02:38:36.
