data_PCOD8177087
_publ_section_title
;
Structure prediction by ZEFSAII (Michael W. Deem and Ramdas Pophale) SiO2 
 PCOD8177087
Probable space group: C C C 2
;
_chemical_formula_sum "Si O2"
_cell_formula_units_Z 48
_cell_length_a 26.492243
_cell_length_b 9.458869
_cell_length_c 8.554412
_cell_angle_alpha 90.000000
_cell_angle_beta 90.000000
_cell_angle_gamma 90.000000
_cell_volume 2143.621498
_symmetry_space_group_name_H-M "C C C 2"
_symmetry_group_IT_number 37
_symmetry_cell_setting 'orthorhombic'
loop_
_space_group_symop_operation_xyz
x,y,z
-x,-y,z
-x,y,1/2+z
x,-y,1/2+z
1/2+x,1/2+y,z
1/2-x,1/2-y,z
1/2-x,1/2+y,1/2+z
1/2+x,1/2-y,1/2+z
loop_
_atom_site_type_symbol
_atom_site_label
_atom_site_fract_x
_atom_site_fract_y
_atom_site_fract_z
Si Si1 0.446553 0.853553 0.379150
Si Si2 0.348961 0.687144 0.823627
Si Si3 0.949816 0.337041 0.745428
Si Si4 0.691383 0.453076 0.510783
Si Si5 0.302885 0.933331 0.007894
Si Si6 0.337960 0.192659 0.833988
O O1 0.453226 0.856128 0.562627
O O2 0.495727 0.780686 0.303355
O O3 0.397158 0.765559 0.326651
O O4 0.438261 0.013856 0.324706
O O5 0.406756 0.726138 0.791640
O O6 0.322646 0.616899 0.674012
O O7 0.349536 0.572328 0.963708
O O8 0.315532 0.823305 0.869755
O O9 0.743892 0.535577 0.514435
O O10 0.693967 0.332126 0.376762
O O11 0.332522 0.078624 0.974191
O O12 0.319558 0.870673 0.172327
#
# Coordination Sequence:
#
# PCOD8177087 Si02
#       6
#     8   8   8   8   8   8
#     4  11  22  42  73 112 138 185 240 302 358 421
#     4  12  26  49  72 105 145 192 241 297 367 432
#     4  11  23  42  75 109 144 184 241 305 361 427
#     4  12  27  48  69 105 148 187 240 299 363 433
#     4  12  26  44  74 104 139 196 244 295 358 434
#     4  12  24  45  73 105 144 186 242 302 361 429
#
# _framework density 22.392014
#
# number of rings (size 3 to 8) (size 9 to 14) (size 15 to 20)
#    0.000    0.333    3.333    7.000    2.333    2.667 
#    0.000    2.500    0.000    0.000    0.000    0.000 
#    0.000    0.000    0.000    0.000    0.000    0.000 
#
# Total GULP energy -297708.660181 kJ/mol
# GULP energy per Si atom -12404.527508 kJ/mol
# Density = 2.234105 g / cm^3
# Si number density = 22.392014 Si / 1000 Ang^3
#
#
#
# Elastic Constant Matrix: (Units=GPa)
#
#
# Indices 1 2 3 4 5 6 
#
# 1 150.7994 55.6769 94.4796 0.0000 0.0000 0.0000
# 2 55.6769 98.2674 43.3374 0.0000 0.0000 0.0000
# 3 94.4796 43.3374 135.2659 0.0000 0.0000 0.0000
# 4 0.0000 0.0000 0.0000 69.1587 0.0000 0.0000
# 5 0.0000 0.0000 0.0000 0.0000 37.0994 0.0000
# 6 0.0000 0.0000 0.0000 0.0000 0.0000 23.9026
#
#
#
# Elastic Compliance Matrix: (Units=1/GPa)
#
#
# Indices 1 2 3 4 5 6 
#
# 1 0.012960 -0.003902 -0.007802 0.000000 0.000000 0.000000
# 2 -0.003902 0.013026 -0.001448 0.000000 0.000000 0.000000
# 3 -0.007802 -0.001448 0.013306 0.000000 0.000000 0.000000
# 4 0.000000 0.000000 0.000000 0.014459 0.000000 0.000000
# 5 0.000000 0.000000 0.000000 0.000000 0.026955 0.000000
# 6 0.000000 0.000000 0.000000 0.000000 0.000000 0.041836
#
#
# Mechanical properties :
#
#
# Convention : Reuss Voigt Hill
#
# Bulk Modulus (GPa) = 76.99351 85.70228 81.34790
# Shear Modulus (GPa) = 32.64208 38.75475 35.69841
#
# Velocity S-wave (km/s) = 3.82220 4.16473 3.99713
# Velocity P-wave (km/s) = 7.34425 7.84113 7.59675
#
# Compressibility (1/GPa) = 0.01298811
#
# Stress axis : x y z
#
# Youngs Moduli (GPa) = 77.15821 76.77125 75.15234
#
# Poissons Ratio (x) = 0.29958 0.58636
# Poissons Ratio (y) = 0.30109 0.10879
# Poissons Ratio (z) = 0.60201 0.11114
#
# Static dielectric constant tensor:
#      x y z
#    x 4.461880 0.000000 0.000000 
#    y 0.000000 4.044490 0.000000 
#    z 0.000000 0.000000 4.204090 
# 
# 
# High freq. dielectric constant tensor:
#      x y z
#    x 1.891540 0.000000 0.000000 
#    y 0.000000 1.871460 0.000000 
#    z 0.000000 0.000000 1.902230 
# 
# From -- ./inp_files/4952.got.cif
#   From: 2010.03.12/outbox.cif.g09.slc.cpg/sg37_3_cif.got.tgz:4952.got - 2010.04.14 02:25:27.
