data_PCOD8177646
_publ_section_title
;
Structure prediction by ZEFSAII (Michael W. Deem and Ramdas Pophale) SiO2 
 PCOD8177646
Probable space group: A M M 2
;
_chemical_formula_sum "Si O2"
_cell_formula_units_Z 64
_cell_length_a 9.348691
_cell_length_b 33.062733
_cell_length_c 11.665892
_cell_angle_alpha 90.000000
_cell_angle_beta 90.000000
_cell_angle_gamma 90.000000
_cell_volume 3605.848757
_symmetry_space_group_name_H-M "A M M 2"
_symmetry_group_IT_number 38
_symmetry_cell_setting 'orthorhombic'
loop_
_space_group_symop_operation_xyz
x,y,z
-x,-y,z
-x,y,z
x,-y,z
x,1/2+y,1/2+z
-x,1/2-y,1/2+z
-x,1/2+y,1/2+z
x,1/2-y,1/2+z
loop_
_atom_site_type_symbol
_atom_site_label
_atom_site_fract_x
_atom_site_fract_y
_atom_site_fract_z
Si Si1 0.337273 0.110184 0.375000
Si Si2 0.836200 0.170470 0.507163
Si Si3 0.841449 0.953832 0.264107
Si Si4 0.832212 0.545966 0.501014
Si Si5 0.329371 0.876652 0.932052
Si Si6 0.336889 0.831241 0.161775
Si Si7 0.166335 0.228484 0.303737
Si Si8 0.834682 0.818823 0.770803
O O1 0.500000 0.103398 0.410071
O O2 0.259741 0.131434 0.481374
O O3 0.266379 0.067104 0.351660
O O4 0.318089 0.135859 0.260287
O O5 0.791566 0.207022 0.422837
O O6 0.807929 0.184165 0.635637
O O7 0.000000 0.158304 0.485941
O O8 0.000000 0.934662 0.275736
O O9 0.845771 0.000000 0.301673
O O10 0.788664 0.949565 0.133660
O O11 0.797299 0.500000 0.459743
O O12 0.738298 0.578371 0.431079
O O13 0.000000 0.554934 0.483148
O O14 0.500000 0.880613 0.923385
O O15 0.267432 0.852945 0.823008
O O16 0.281210 0.851577 0.044617
O O17 0.500000 0.817280 0.148374
O O18 0.246160 0.791676 0.195117
O O19 0.210347 0.275120 0.319988
O O20 0.000000 0.224829 0.274386
O O21 0.000000 0.829142 0.798898
#
# Coordination Sequence:
#
# PCOD8177646 Si02
#       8
#     8   8   8   8   8   8   8   8
#     4  10  18  31  51  74 103 138 172 209 254 308
#     4   9  19  36  53  74 102 134 175 218 264 313
#     4   9  17  29  48  77 109 138 169 208 258 314
#     4   9  18  33  54  80 110 143 179 220 268 322
#     4  11  22  35  52  79 113 146 179 218 267 325
#     4   9  19  33  48  73 107 139 172 209 256 314
#     4   9  19  34  56  79 100 132 175 223 267 310
#     4  10  22  37  55  78 104 137 180 228 270 315
#
# _framework density 17.748942
#
# number of rings (size 3 to 8) (size 9 to 14) (size 15 to 20)
#    0.000    2.500    1.250    1.500    1.750    3.000 
#    0.000    1.250    0.000    0.750    0.000    5.250 
#    0.000    0.000    0.000    0.000    0.000    0.000 
#
# Total GULP energy -396812.863075 kJ/mol
# GULP energy per Si atom -12400.401971 kJ/mol
# Density = 1.770854 g / cm^3
# Si number density = 17.748942 Si / 1000 Ang^3
#
#
#
# Elastic Constant Matrix: (Units=GPa)
#
#
# Indices 1 2 3 4 5 6 
#
# 1 83.1563 60.7283 36.4798 0.0000 0.0000 0.0000
# 2 60.7283 118.7566 40.3615 0.0000 0.0000 0.0000
# 3 36.4798 40.3615 65.2749 0.0000 0.0000 0.0000
# 4 0.0000 0.0000 0.0000 26.5033 0.0000 0.0000
# 5 0.0000 0.0000 0.0000 0.0000 24.6203 0.0000
# 6 0.0000 0.0000 0.0000 0.0000 0.0000 20.9961
#
#
#
# Elastic Compliance Matrix: (Units=1/GPa)
#
#
# Indices 1 2 3 4 5 6 
#
# 1 0.021171 -0.008615 -0.006504 0.000000 0.000000 0.000000
# 2 -0.008615 0.014167 -0.003945 0.000000 0.000000 0.000000
# 3 -0.006504 -0.003945 0.021394 0.000000 0.000000 0.000000
# 4 0.000000 0.000000 0.000000 0.037731 0.000000 0.000000
# 5 0.000000 0.000000 0.000000 0.000000 0.040617 0.000000
# 6 0.000000 0.000000 0.000000 0.000000 0.000000 0.047628
#
#
# Mechanical properties :
#
#
# Convention : Reuss Voigt Hill
#
# Bulk Modulus (GPa) = 53.75685 60.25855 57.00770
# Shear Modulus (GPa) = 22.02271 23.06515 22.54393
#
# Velocity S-wave (km/s) = 3.52631 3.60880 3.56779
# Velocity P-wave (km/s) = 6.85076 7.16860 7.01148
#
# Compressibility (1/GPa) = 0.01860228
#
# Stress axis : x y z
#
# Youngs Moduli (GPa) = 47.23517 70.58648 46.74154
#
# Poissons Ratio (x) = 0.60813 0.30402
# Poissons Ratio (y) = 0.40695 0.18440
# Poissons Ratio (z) = 0.30723 0.27847
#
# Static dielectric constant tensor:
#      x y z
#    x 3.275480 0.000000 0.000000 
#    y 0.000000 3.269950 0.000000 
#    z 0.000000 0.000000 3.052350 
# 
# 
# High freq. dielectric constant tensor:
#      x y z
#    x 1.685830 0.000000 0.000000 
#    y 0.000000 1.685310 0.000000 
#    z 0.000000 0.000000 1.660430 
# 
# From -- ./inp_files/8650.got.cif
#   From: 2010.03.12/outbox.cif.g09.slc.cpg/sg38_5_cif.got.tgz:8650.got - 2010.04.14 02:38:36.
