data_PCOD8177314
_publ_section_title
;
Structure prediction by ZEFSAII (Michael W. Deem and Ramdas Pophale) SiO2 
 PCOD8177314
Probable space group: A M M 2
;
_chemical_formula_sum "Si O2"
_cell_formula_units_Z 64
_cell_length_a 9.002350
_cell_length_b 30.251379
_cell_length_c 14.376136
_cell_angle_alpha 90.000000
_cell_angle_beta 90.000000
_cell_angle_gamma 90.000000
_cell_volume 3915.103458
_symmetry_space_group_name_H-M "A M M 2"
_symmetry_group_IT_number 38
_symmetry_cell_setting 'orthorhombic'
loop_
_space_group_symop_operation_xyz
x,y,z
-x,-y,z
-x,y,z
x,-y,z
x,1/2+y,1/2+z
-x,1/2-y,1/2+z
-x,1/2+y,1/2+z
x,1/2-y,1/2+z
loop_
_atom_site_type_symbol
_atom_site_label
_atom_site_fract_x
_atom_site_fract_y
_atom_site_fract_z
Si Si1 0.832295 0.630023 0.436520
Si Si2 0.175697 0.200237 0.449921
Si Si3 0.823937 0.215335 0.825024
Si Si4 0.326551 0.950085 0.005247
Si Si5 0.675252 0.228360 0.626694
Si Si6 0.824577 0.134294 0.298366
Si Si7 0.826207 0.049156 0.201520
Si Si8 0.830625 0.683767 0.618727
O O1 0.770623 0.669115 0.370701
O O2 0.737517 0.584796 0.429737
O O3 0.823939 0.645778 0.542561
O O4 0.000000 0.618512 0.407610
O O5 0.222397 0.243751 0.391039
O O6 0.261320 0.195729 0.547559
O O7 0.229198 0.156070 0.394566
O O8 0.000000 0.200770 0.468521
O O9 0.745282 0.218364 0.726266
O O10 0.000000 0.216020 0.810701
O O11 0.500000 0.942158 0.014120
O O12 0.290088 0.000000 0.971221
O O13 0.257391 0.941525 0.106020
O O14 0.500000 0.223664 0.633396
O O15 0.723273 0.276511 0.590524
O O16 0.771662 0.083627 0.281485
O O17 0.766118 0.164396 0.214140
O O18 0.000000 0.136261 0.295069
O O19 0.000000 0.055635 0.180051
O O20 0.791791 0.000000 0.239303
O O21 0.000000 0.701687 0.628368
#
# Coordination Sequence:
#
# PCOD8177314 Si02
#       8
#     8   8   8   8   8   8   8   8
#     4  10  19  32  52  73  93 125 169 208 242 283
#     4  10  19  34  53  68  91 129 170 204 236 289
#     4  10  20  35  54  72  92 127 169 207 246 288
#     4  10  20  31  44  68 103 136 161 190 238 296
#     4  12  24  34  46  70 103 131 161 203 249 290
#     4   9  16  28  49  72  92 125 166 199 234 280
#     4   9  16  28  47  71  98 126 161 203 241 282
#     4  10  17  31  50  69  96 129 169 201 235 287
#
# _framework density 16.346948999999999
#
# number of rings (size 3 to 8) (size 9 to 14) (size 15 to 20)
#    0.000    2.000    3.750    1.500    0.000    2.250 
#    0.000    0.625    0.000    0.000    0.000    0.875 
#    0.000    5.000    0.000    0.000    0.000    0.000 
#
# Total GULP energy -396640.615752 kJ/mol
# GULP energy per Si atom -12395.019242 kJ/mol
# Density = 1.630974 g / cm^3
# Si number density = 16.346949 Si / 1000 Ang^3
#
#
#
# Elastic Constant Matrix: (Units=GPa)
#
#
# Indices 1 2 3 4 5 6 
#
# 1 50.9061 37.1736 32.1804 0.0000 0.0000 0.0000
# 2 37.1736 111.7719 31.3549 0.0000 0.0000 0.0000
# 3 32.1804 31.3549 76.6068 0.0000 0.0000 0.0000
# 4 0.0000 0.0000 0.0000 24.2168 0.0000 0.0000
# 5 0.0000 0.0000 0.0000 0.0000 10.3225 0.0000
# 6 0.0000 0.0000 0.0000 0.0000 0.0000 14.1388
#
#
#
# Elastic Compliance Matrix: (Units=1/GPa)
#
#
# Indices 1 2 3 4 5 6 
#
# 1 0.031681 -0.007686 -0.010162 0.000000 0.000000 0.000000
# 2 -0.007686 0.011972 -0.001671 0.000000 0.000000 0.000000
# 3 -0.010162 -0.001671 0.018007 0.000000 0.000000 0.000000
# 4 0.000000 0.000000 0.000000 0.041294 0.000000 0.000000
# 5 0.000000 0.000000 0.000000 0.000000 0.096876 0.000000
# 6 0.000000 0.000000 0.000000 0.000000 0.000000 0.070728
#
#
# Mechanical properties :
#
#
# Convention : Reuss Voigt Hill
#
# Bulk Modulus (GPa) = 44.20865 48.96695 46.58780
# Shear Modulus (GPa) = 15.76614 18.97400 17.37007
#
# Velocity S-wave (km/s) = 3.10896 3.41061 3.26327
# Velocity P-wave (km/s) = 6.32378 6.74756 6.53910
#
# Compressibility (1/GPa) = 0.02262001
#
# Stress axis : x y z
#
# Youngs Moduli (GPa) = 31.56512 83.52950 55.53466
#
# Poissons Ratio (x) = 0.64198 0.56437
# Poissons Ratio (y) = 0.24260 0.09283
# Poissons Ratio (z) = 0.32078 0.13962
#
# Static dielectric constant tensor:
#      x y z
#    x 2.934320 0.000000 0.000000 
#    y 0.000000 3.324890 0.000000 
#    z 0.000000 0.000000 3.063590 
# 
# 
# High freq. dielectric constant tensor:
#      x y z
#    x 1.610480 0.000000 0.000000 
#    y 0.000000 1.626800 0.000000 
#    z 0.000000 0.000000 1.603980 
# 
# From -- ./inp_files/13074.got.cif
#   From: 2010.03.12/outbox.cif.g09.slc.cpg/sg38_7_cif.got.tgz:13074.got - 2010.04.14 02:38:36.
