data_PCOD8177598
_publ_section_title
;
Structure prediction by ZEFSAII (Michael W. Deem and Ramdas Pophale) SiO2 
 PCOD8177598
Probable space group: A M M 2
;
_chemical_formula_sum "Si O2"
_cell_formula_units_Z 64
_cell_length_a 8.495762
_cell_length_b 18.231935
_cell_length_c 20.822546
_cell_angle_alpha 90.000000
_cell_angle_beta 90.000000
_cell_angle_gamma 90.000000
_cell_volume 3225.291200
_symmetry_space_group_name_H-M "A M M 2"
_symmetry_group_IT_number 38
_symmetry_cell_setting 'orthorhombic'
loop_
_space_group_symop_operation_xyz
x,y,z
-x,-y,z
-x,y,z
x,-y,z
x,1/2+y,1/2+z
-x,1/2-y,1/2+z
-x,1/2+y,1/2+z
x,1/2-y,1/2+z
loop_
_atom_site_type_symbol
_atom_site_label
_atom_site_fract_x
_atom_site_fract_y
_atom_site_fract_z
Si Si1 0.317984 0.584498 0.796130
Si Si2 0.317984 0.915502 0.794614
Si Si3 0.315404 0.820358 0.674888
Si Si4 0.684596 0.679642 0.915856
Si Si5 0.182974 0.811083 0.545372
Si Si6 0.817153 0.840144 0.914286
Si Si7 0.317142 0.348082 0.545372
Si Si8 0.182847 0.340144 0.676458
O O1 0.500000 0.601897 0.781459
O O2 0.291251 0.500000 0.813420
O O3 0.255711 0.632147 0.855817
O O4 0.216502 0.604272 0.733916
O O5 0.500000 0.898102 0.809285
O O6 0.255711 0.867853 0.734928
O O7 0.216503 0.895728 0.856828
O O8 0.291252 0.000000 0.777324
O O9 0.500000 0.829969 0.665119
O O10 0.228417 0.852902 0.611161
O O11 0.275323 0.735601 0.688046
O O12 0.500000 0.670031 0.925625
O O13 0.724677 0.764399 0.902698
O O14 0.771583 0.647098 0.979583
O O15 0.290969 0.738943 0.545372
O O16 0.000000 0.790353 0.545372
O O17 0.000000 0.821345 0.918724
O O18 0.761865 0.879719 0.980450
O O19 0.500000 0.368058 0.545372
O O20 0.238134 0.379719 0.610294
O O21 0.000000 0.321344 0.672020
#
# Coordination Sequence:
#
# PCOD8177598 Si02
#       8
#     8   8   8   8   8   8   8   8
#     4  10  22  39  56  76 105 142 183 223 262 309
#     4  10  22  39  56  76 105 142 183 223 262 309
#     4  10  19  34  57  81 106 139 179 220 262 312
#     4  10  19  34  57  81 106 139 179 220 262 312
#     4  10  18  30  51  80 111 137 169 218 269 315
#     4  11  21  34  55  83 112 139 172 217 267 318
#     4  10  18  32  55  80 107 138 175 218 261 310
#     4  11  21  34  55  83 112 139 172 217 267 318
#
# _framework density 19.843169
#
# number of rings (size 3 to 8) (size 9 to 14) (size 15 to 20)
#    0.000    1.750    0.000    9.000    0.000    5.500 
#    0.000    1.250    0.000    7.500    0.000    0.000 
#    0.000    0.000    0.000    0.000    0.000    0.000 
#
# Total GULP energy -396814.219330 kJ/mol
# GULP energy per Si atom -12400.444354 kJ/mol
# Density = 1.979801 g / cm^3
# Si number density = 19.843169 Si / 1000 Ang^3
#
#
#
# Elastic Constant Matrix: (Units=GPa)
#
#
# Indices 1 2 3 4 5 6 
#
# 1 68.1449 7.3744 36.5827 0.0000 0.0000 0.0000
# 2 7.3744 40.8924 25.1395 0.0000 0.0000 0.0000
# 3 36.5827 25.1395 152.3320 0.0000 0.0000 0.0000
# 4 0.0000 0.0000 0.0000 5.1984 0.0000 0.0000
# 5 0.0000 0.0000 0.0000 0.0000 20.3798 0.0000
# 6 0.0000 0.0000 0.0000 0.0000 0.0000 6.7554
#
#
#
# Elastic Compliance Matrix: (Units=1/GPa)
#
#
# Indices 1 2 3 4 5 6 
#
# 1 0.016860 -0.000614 -0.003948 0.000000 0.000000 0.000000
# 2 -0.000614 0.027238 -0.004348 0.000000 0.000000 0.000000
# 3 -0.003948 -0.004348 0.008230 0.000000 0.000000 0.000000
# 4 0.000000 0.000000 0.000000 0.192368 0.000000 0.000000
# 5 0.000000 0.000000 0.000000 0.000000 0.049068 0.000000
# 6 0.000000 0.000000 0.000000 0.000000 0.000000 0.148030
#
#
# Mechanical properties :
#
#
# Convention : Reuss Voigt Hill
#
# Bulk Modulus (GPa) = 28.97690 44.39584 36.68637
# Shear Modulus (GPa) = 10.61308 19.28488 14.94898
#
# Velocity S-wave (km/s) = 2.31519 3.12086 2.74771
# Velocity P-wave (km/s) = 4.66706 5.95048 5.34742
#
# Compressibility (1/GPa) = 0.03451025
#
# Stress axis : x y z
#
# Youngs Moduli (GPa) = 59.31085 36.71351 121.50396
#
# Poissons Ratio (x) = 0.02253 0.47967
# Poissons Ratio (y) = 0.03639 0.52827
# Poissons Ratio (z) = 0.23415 0.15962
#
# Static dielectric constant tensor:
#      x y z
#    x 3.557880 0.000000 0.000000 
#    y 0.000000 3.144590 0.000000 
#    z 0.000000 0.000000 4.300040 
# 
# 
# High freq. dielectric constant tensor:
#      x y z
#    x 1.778960 0.000000 0.000000 
#    y 0.000000 1.722670 0.000000 
#    z 0.000000 0.000000 1.801300 
# 
# From -- ./inp_files/20095.got.cif
#   From: 2010.03.12/outbox.cif.g09.slc.cpg/sg38_11_cif.got.tgz:20095.got - 2010.04.14 02:38:36.
