data_PCOD8177706
_publ_section_title
;
Structure prediction by ZEFSAII (Michael W. Deem and Ramdas Pophale) SiO2 
 PCOD8177706
Probable space group: A M M 2
;
_chemical_formula_sum "Si O2"
_cell_formula_units_Z 46
_cell_length_a 7.471323
_cell_length_b 11.625793
_cell_length_c 29.476181
_cell_angle_alpha 90.000000
_cell_angle_beta 90.000000
_cell_angle_gamma 90.000000
_cell_volume 2560.302692
_symmetry_space_group_name_H-M "A M M 2"
_symmetry_group_IT_number 38
_symmetry_cell_setting 'orthorhombic'
loop_
_space_group_symop_operation_xyz
x,y,z
-x,-y,z
-x,y,z
x,-y,z
x,1/2+y,1/2+z
-x,1/2-y,1/2+z
-x,1/2+y,1/2+z
x,1/2-y,1/2+z
loop_
_atom_site_type_symbol
_atom_site_label
_atom_site_fract_x
_atom_site_fract_y
_atom_site_fract_z
Si Si1 0.500000 0.255729 0.950060
Si Si2 0.790096 0.278877 0.305000
Si Si3 0.789378 0.500000 0.360063
Si Si4 0.789106 0.867042 0.386732
Si Si5 0.500000 0.136663 0.547982
Si Si6 0.500000 0.000000 0.933933
Si Si7 0.801427 0.862828 0.614345
Si Si8 0.213285 0.870704 0.713417
O O1 0.677679 0.291742 0.922393
O O2 0.500000 0.119611 0.961959
O O3 0.500000 0.320456 0.997268
O O4 0.725411 0.389777 0.332292
O O5 0.733431 0.167827 0.334918
O O6 0.711089 0.286407 0.253574
O O7 0.000000 0.281954 0.299503
O O8 0.683695 0.500000 0.406537
O O9 0.000000 0.500000 0.370731
O O10 0.000000 0.842701 0.394958
O O11 0.741076 0.000000 0.393499
O O12 0.326130 0.183825 0.574641
O O13 0.500000 0.000000 0.547482
O O14 0.726504 0.823566 0.663951
O O15 0.000000 0.813015 0.605185
O O16 0.807535 0.000000 0.614676
O O17 0.000000 0.875534 0.713778
O O18 0.286908 0.000000 0.721986
#
# Coordination Sequence:
#
# PCOD8177706 Si02
#       8
#     4   8   4   8   4   2   8   8
#     4  12  24  38  55  75  99 129 170 219 260 303
#     4   9  15  26  48  74 103 138 168 198 241 294
#     4  10  18  32  50  72 108 140 166 202 242 295
#     4  10  21  36  53  75 105 141 175 206 245 294
#     4  10  20  34  50  70  95 123 159 206 257 303
#     4  12  24  36  54  78  96 128 174 210 262 306
#     4   8  15  28  46  69  98 128 159 198 246 299
#     4   8  12  21  42  71 100 131 161 194 245 295
#
# _framework density 17.966623999999999
#
# number of rings (size 3 to 8) (size 9 to 14) (size 15 to 20)
#    0.000    2.609    2.609    1.826    0.000    0.696 
#    0.000    3.478    0.000    0.000    2.261    0.000 
#    0.000    0.000    0.000    0.000    0.000    0.000 
#
# Total GULP energy -284932.948939 kJ/mol
# GULP energy per Si atom -12388.389084 kJ/mol
# Density = 1.792573 g / cm^3
# Si number density = 17.966624 Si / 1000 Ang^3
#
#
#
# Elastic Constant Matrix: (Units=GPa)
#
#
# Indices 1 2 3 4 5 6 
#
# 1 67.0375 18.1961 35.3845 0.0000 0.0000 0.0000
# 2 18.1961 62.4108 20.1371 0.0000 0.0000 0.0000
# 3 35.3845 20.1371 121.9587 0.0000 0.0000 0.0000
# 4 0.0000 0.0000 0.0000 142.3480 0.0000 0.0000
# 5 0.0000 0.0000 0.0000 0.0000 48.9202 0.0000
# 6 0.0000 0.0000 0.0000 0.0000 0.0000 10.8458
#
#
#
# Elastic Compliance Matrix: (Units=1/GPa)
#
#
# Indices 1 2 3 4 5 6 
#
# 1 0.018454 -0.003858 -0.004717 0.000000 0.000000 0.000000
# 2 -0.003858 0.017731 -0.001808 0.000000 0.000000 0.000000
# 3 -0.004717 -0.001808 0.009867 0.000000 0.000000 0.000000
# 4 0.000000 0.000000 0.000000 0.007025 0.000000 0.000000
# 5 0.000000 0.000000 0.000000 0.000000 0.020441 0.000000
# 6 0.000000 0.000000 0.000000 0.000000 0.000000 0.092202
#
#
# Mechanical properties :
#
#
# Convention : Reuss Voigt Hill
#
# Bulk Modulus (GPa) = 39.54981 44.31585 41.93283
# Shear Modulus (GPa) = 25.65206 52.26875 38.96041
#
# Velocity S-wave (km/s) = 3.78267 5.39956 4.66175
# Velocity P-wave (km/s) = 6.41396 7.97452 7.23643
#
# Compressibility (1/GPa) = 0.02528457
#
# Stress axis : x y z
#
# Youngs Moduli (GPa) = 54.18836 56.39771 101.35140
#
# Poissons Ratio (x) = 0.21760 0.47809
# Poissons Ratio (y) = 0.20908 0.18327
# Poissons Ratio (z) = 0.25561 0.10198
#
# Static dielectric constant tensor:
#      x y z
#    x 3.176200 0.000000 0.000000 
#    y 0.000000 1.791370 0.000000 
#    z 0.000000 0.000000 3.574410 
# 
# 
# High freq. dielectric constant tensor:
#      x y z
#    x 1.695350 0.000000 0.000000 
#    y 0.000000 1.643670 0.000000 
#    z 0.000000 0.000000 1.692190 
# 
# From -- ./inp_files/23371.got.cif
#   From: 2010.03.12/outbox.cif.g09.slc.cpg/sg38_12_cif.got.tgz:23371.got - 2010.04.14 02:38:36.
