data_PCOD8177808
_publ_section_title
;
Structure prediction by ZEFSAII (Michael W. Deem and Ramdas Pophale) SiO2 
 PCOD8177808
Probable space group: A M M 2
;
_chemical_formula_sum "Si O2"
_cell_formula_units_Z 64
_cell_length_a 8.845946
_cell_length_b 15.308065
_cell_length_c 23.720177
_cell_angle_alpha 90.000000
_cell_angle_beta 90.000000
_cell_angle_gamma 90.000000
_cell_volume 3212.051552
_symmetry_space_group_name_H-M "A M M 2"
_symmetry_group_IT_number 38
_symmetry_cell_setting 'orthorhombic'
loop_
_space_group_symop_operation_xyz
x,y,z
-x,-y,z
-x,y,z
x,-y,z
x,1/2+y,1/2+z
-x,1/2-y,1/2+z
-x,1/2+y,1/2+z
x,1/2-y,1/2+z
loop_
_atom_site_type_symbol
_atom_site_label
_atom_site_fract_x
_atom_site_fract_y
_atom_site_fract_z
Si Si1 0.672981 0.331869 0.451480
Si Si2 0.173942 0.099572 0.336530
Si Si3 0.671881 0.097977 0.071391
Si Si4 0.327082 0.098502 0.573222
Si Si5 0.679370 0.403863 0.332736
Si Si6 0.176216 0.349943 0.961493
Si Si7 0.822558 0.247794 0.139883
Si Si8 0.321469 0.757667 0.260650
O O1 0.500000 0.299309 0.443335
O O2 0.686118 0.397341 0.503864
O O3 0.732458 0.380871 0.395895
O O4 0.781460 0.251108 0.463180
O O5 0.220862 0.108401 0.401740
O O6 0.280590 0.160090 0.299258
O O7 0.000000 0.128318 0.328254
O O8 0.198678 0.000000 0.317222
O O9 0.500000 0.119183 0.089870
O O10 0.782673 0.166540 0.100207
O O11 0.716972 0.000000 0.090034
O O12 0.500000 0.130450 0.572889
O O13 0.266229 0.099304 0.509682
O O14 0.235298 0.161730 0.614117
O O15 0.313126 0.000000 0.596841
O O16 0.500000 0.405287 0.330655
O O17 0.743391 0.500000 0.316554
O O18 0.741294 0.331419 0.289250
O O19 0.000000 0.360790 0.974283
O O20 0.752771 0.230645 0.200492
O O21 0.000000 0.254133 0.145963
O O22 0.500000 0.753990 0.253409
#
# Coordination Sequence:
#
# PCOD8177808 Si02
#       8
#     8   8   8   8   8   8   8   8
#     4  10  18  33  60  91 124 158 193 238 297 359
#     4  10  22  40  61  87 123 163 200 244 302 364
#     4  10  21  38  63  93 124 159 200 247 299 359
#     4  11  24  42  65  92 122 158 203 254 304 360
#     4   9  18  34  59  91 122 153 192 238 292 351
#     4  11  21  35  60  92 128 164 197 240 303 369
#     4  12  26  43  63  87 120 162 204 253 309 365
#     4  11  23  40  63  89 117 155 205 256 300 352
#
# _framework density 19.924959000000001
#
# number of rings (size 3 to 8) (size 9 to 14) (size 15 to 20)
#    0.000    1.500    2.500    3.000    0.000    5.000 
#    0.000    1.250    0.000    3.750    0.000    0.000 
#    0.000    0.000    0.000    0.000    0.000    0.000 
#
# Total GULP energy -396903.130217 kJ/mol
# GULP energy per Si atom -12403.222819 kJ/mol
# Density = 1.987961 g / cm^3
# Si number density = 19.924959 Si / 1000 Ang^3
#
#
#
# Elastic Constant Matrix: (Units=GPa)
#
#
# Indices 1 2 3 4 5 6 
#
# 1 87.3818 37.6603 45.0189 0.0000 0.0000 0.0000
# 2 37.6603 109.7322 14.7993 0.0000 0.0000 0.0000
# 3 45.0189 14.7993 58.4712 0.0000 0.0000 0.0000
# 4 0.0000 0.0000 0.0000 1.5835 0.0000 0.0000
# 5 0.0000 0.0000 0.0000 0.0000 19.9897 0.0000
# 6 0.0000 0.0000 0.0000 0.0000 0.0000 14.5033
#
#
#
# Elastic Compliance Matrix: (Units=1/GPa)
#
#
# Indices 1 2 3 4 5 6 
#
# 1 0.021640 -0.005363 -0.015304 0.000000 0.000000 0.000000
# 2 -0.005363 0.010764 0.001405 0.000000 0.000000 0.000000
# 3 -0.015304 0.001405 0.028530 0.000000 0.000000 0.000000
# 4 0.000000 0.000000 0.000000 0.631513 0.000000 0.000000
# 5 0.000000 0.000000 0.000000 0.000000 0.050026 0.000000
# 6 0.000000 0.000000 0.000000 0.000000 0.000000 0.068950
#
#
# Mechanical properties :
#
#
# Convention : Reuss Voigt Hill
#
# Bulk Modulus (GPa) = 44.62364 50.06025 47.34194
# Shear Modulus (GPa) = 5.83147 17.75573 11.79360
#
# Velocity S-wave (km/s) = 1.71262 2.98842 2.43554
# Velocity P-wave (km/s) = 5.13373 6.08987 5.63213
#
# Compressibility (1/GPa) = 0.02240964
#
# Stress axis : x y z
#
# Youngs Moduli (GPa) = 46.21091 92.90044 35.05088
#
# Poissons Ratio (x) = 0.49821 0.53642
# Poissons Ratio (y) = 0.24782 -0.04923
# Poissons Ratio (z) = 0.70721 -0.13049
#
# Static dielectric constant tensor:
#      x y z
#    x 3.533010 0.000000 0.000000 
#    y 0.000000 3.758620 0.000000 
#    z 0.000000 0.000000 3.685180 
# 
# 
# High freq. dielectric constant tensor:
#      x y z
#    x 1.763220 0.000000 0.000000 
#    y 0.000000 1.788160 0.000000 
#    z 0.000000 0.000000 1.778130 
# 
# From -- ./inp_files/22139.got.cif
#   From: 2010.03.12/outbox.cif.g09.slc.cpg/sg38_12_cif.got.tgz:22139.got - 2010.04.14 02:38:36.
