data_PCOD8177412
_publ_section_title
;
Structure prediction by ZEFSAII (Michael W. Deem and Ramdas Pophale) SiO2 
 PCOD8177412
Probable space group: A M M 2
;
_chemical_formula_sum "Si O2"
_cell_formula_units_Z 56
_cell_length_a 12.737950
_cell_length_b 9.069474
_cell_length_c 30.695449
_cell_angle_alpha 90.000000
_cell_angle_beta 90.000000
_cell_angle_gamma 90.000000
_cell_volume 3546.137983
_symmetry_space_group_name_H-M "A M M 2"
_symmetry_group_IT_number 38
_symmetry_cell_setting 'orthorhombic'
loop_
_space_group_symop_operation_xyz
x,y,z
-x,-y,z
-x,y,z
x,-y,z
x,1/2+y,1/2+z
-x,1/2-y,1/2+z
-x,1/2+y,1/2+z
x,1/2-y,1/2+z
loop_
_atom_site_type_symbol
_atom_site_label
_atom_site_fract_x
_atom_site_fract_y
_atom_site_fract_z
Si Si1 0.874885 0.335092 0.618790
Si Si2 0.288319 0.823793 0.866414
Si Si3 0.500000 0.659968 0.965694
Si Si4 0.723722 0.176939 0.457902
Si Si5 0.500000 0.835441 0.362614
Si Si6 0.116715 0.175289 0.797044
Si Si7 0.124591 0.336467 0.201520
Si Si8 0.119739 0.827347 0.533072
O O1 0.831322 0.500000 0.616124
O O2 0.828151 0.263062 0.662763
O O3 0.834482 0.249425 0.576160
O O4 0.000000 0.330717 0.620060
O O5 0.253146 0.758326 0.912764
O O6 0.397040 0.756097 0.848571
O O7 0.198568 0.770886 0.833060
O O8 0.298422 0.000000 0.869546
O O9 0.500000 0.500000 0.988230
O O10 0.611249 0.736577 0.977714
O O11 0.500000 0.645879 0.913911
O O12 0.813835 0.223477 0.491351
O O13 0.718546 0.000000 0.450199
O O14 0.500000 0.000000 0.341342
O O15 0.153017 0.231613 0.749005
O O16 0.000000 0.236276 0.808554
O O17 0.112109 0.000000 0.794884
O O18 0.172713 0.500000 0.196214
O O19 0.000000 0.345247 0.197342
O O20 0.000000 0.779826 0.523928
O O21 0.129518 0.000000 0.541064
#
# Coordination Sequence:
#
# PCOD8177412 Si02
#       8
#     8   8   4   8   4   8   8   8
#     4   9  16  25  38  58  83 107 134 173 216 250
#     4  10  18  28  45  67  88 112 146 183 215 251
#     4   7  12  25  43  57  70  95 132 171 206 237
#     4   9  17  29  43  59  82 112 142 173 210 249
#     4   9  17  31  47  61  82 111 144 183 224 257
#     4   8  15  27  42  63  91 119 144 172 210 258
#     4   8  13  24  42  59  78 109 144 171 200 245
#     4   9  17  28  41  58  82 113 146 173 202 252
#
# _framework density 15.791827
#
# number of rings (size 3 to 8) (size 9 to 14) (size 15 to 20)
#    0.000    3.286    0.000    2.786    0.000    2.857 
#    0.000    1.429    0.000    3.000    0.000    1.000 
#    0.000    4.571    0.000    0.000    0.000    0.000 
#
# Total GULP energy -346931.308290 kJ/mol
# GULP energy per Si atom -12390.403868 kJ/mol
# Density = 1.575588 g / cm^3
# Si number density = 15.791827 Si / 1000 Ang^3
#
#
#
# Elastic Constant Matrix: (Units=GPa)
#
#
# Indices 1 2 3 4 5 6 
#
# 1 86.6209 32.2852 66.8163 0.0000 0.0000 0.0000
# 2 32.2852 59.7791 46.6959 0.0000 0.0000 0.0000
# 3 66.8163 46.6959 124.0216 0.0000 0.0000 0.0000
# 4 0.0000 0.0000 0.0000 21.4521 0.0000 0.0000
# 5 0.0000 0.0000 0.0000 0.0000 1.9824 0.0000
# 6 0.0000 0.0000 0.0000 0.0000 0.0000 14.3958
#
#
#
# Elastic Compliance Matrix: (Units=1/GPa)
#
#
# Indices 1 2 3 4 5 6 
#
# 1 0.020235 -0.003418 -0.009615 0.000000 0.000000 0.000000
# 2 -0.003418 0.024275 -0.007299 0.000000 0.000000 0.000000
# 3 -0.009615 -0.007299 0.015991 0.000000 0.000000 0.000000
# 4 0.000000 0.000000 0.000000 0.046615 0.000000 0.000000
# 5 0.000000 0.000000 0.000000 0.000000 0.504443 0.000000
# 6 0.000000 0.000000 0.000000 0.000000 0.000000 0.069465
#
#
# Mechanical properties :
#
#
# Convention : Reuss Voigt Hill
#
# Bulk Modulus (GPa) = 50.40595 62.44626 56.42611
# Shear Modulus (GPa) = 6.86531 15.87435 11.36983
#
# Velocity S-wave (km/s) = 2.08730 3.17397 2.68616
# Velocity P-wave (km/s) = 6.14796 7.28432 6.74013
#
# Compressibility (1/GPa) = 0.01983893
#
# Stress axis : x y z
#
# Youngs Moduli (GPa) = 49.41980 41.19384 62.53544
#
# Poissons Ratio (x) = 0.14080 0.60125
# Poissons Ratio (y) = 0.16892 0.45642
# Poissons Ratio (z) = 0.47515 0.30066
#
# Static dielectric constant tensor:
#      x y z
#    x 3.053280 0.000000 0.000000 
#    y 0.000000 2.952740 0.000000 
#    z 0.000000 0.000000 3.056390 
# 
# 
# High freq. dielectric constant tensor:
#      x y z
#    x 1.575600 0.000000 0.000000 
#    y 0.000000 1.593200 0.000000 
#    z 0.000000 0.000000 1.597200 
# 
# From -- ./inp_files/25017.got.cif
#   From: 2010.03.12/outbox.cif.g09.slc.cpg/sg38_13_cif.got.tgz:25017.got - 2010.04.14 02:38:36.
