data_PCOD8177434
_publ_section_title
;
Structure prediction by ZEFSAII (Michael W. Deem and Ramdas Pophale) SiO2 
 PCOD8177434
Probable space group: A M M 2
;
_chemical_formula_sum "Si O2"
_cell_formula_units_Z 64
_cell_length_a 9.137150
_cell_length_b 14.513412
_cell_length_c 28.078713
_cell_angle_alpha 90.000000
_cell_angle_beta 90.000000
_cell_angle_gamma 90.000000
_cell_volume 3723.552456
_symmetry_space_group_name_H-M "A M M 2"
_symmetry_group_IT_number 38
_symmetry_cell_setting 'orthorhombic'
loop_
_space_group_symop_operation_xyz
x,y,z
-x,-y,z
-x,y,z
x,-y,z
x,1/2+y,1/2+z
-x,1/2-y,1/2+z
-x,1/2+y,1/2+z
x,1/2-y,1/2+z
loop_
_atom_site_type_symbol
_atom_site_label
_atom_site_fract_x
_atom_site_fract_y
_atom_site_fract_z
Si Si1 0.169000 0.896384 0.824830
Si Si2 0.328853 0.103592 0.196017
Si Si3 0.173361 0.600828 0.965662
Si Si4 0.330971 0.394472 0.586216
Si Si5 0.830731 0.894992 0.360683
Si Si6 0.172968 0.290142 0.505630
Si Si7 0.332286 0.108227 0.920493
Si Si8 0.170682 0.281799 0.773147
O O1 0.263827 0.864167 0.869859
O O2 0.198912 0.827621 0.780493
O O3 0.000000 0.890532 0.840610
O O4 0.210806 0.000000 0.808461
O O5 0.500000 0.110938 0.205642
O O6 0.293322 0.123703 0.141076
O O7 0.249015 0.182143 0.226032
O O8 0.274775 0.000000 0.209334
O O9 0.231502 0.500000 0.983225
O O10 0.217436 0.681809 0.001994
O O11 0.000000 0.594763 0.960134
O O12 0.239154 0.623364 0.912942
O O13 0.500000 0.372945 0.575309
O O14 0.296054 0.500000 0.572519
O O15 0.230804 0.326646 0.555750
O O16 0.759835 0.832189 0.319547
O O17 0.000000 0.868605 0.363325
O O18 0.806019 0.000000 0.345355
O O19 0.243992 0.343961 0.462274
O O20 0.000000 0.304007 0.503031
O O21 0.500000 0.140992 0.921637
O O22 0.318898 0.000000 0.928928
O O23 0.000000 0.304433 0.767323
#
# Coordination Sequence:
#
# PCOD8177434 Si02
#       8
#     8   8   8   8   8   8   8   8
#     4   9  18  32  48  68  97 130 163 200 236 269
#     4   9  19  35  52  70  94 123 153 189 237 290
#     4   8  15  28  44  64  94 128 157 186 224 271
#     4   9  19  36  53  68  92 125 155 187 236 294
#     4   8  13  22  38  62  91 120 148 178 215 263
#     4  11  20  29  48  75  97 121 158 201 240 279
#     4  10  20  32  46  67  98 134 165 192 230 282
#     4  10  18  28  47  73  97 122 155 195 238 280
#
# _framework density 17.187885999999999
#
# number of rings (size 3 to 8) (size 9 to 14) (size 15 to 20)
#    0.000    2.750    0.000    3.750    0.000    6.250 
#    0.000    1.250    0.000    2.250    0.000    7.000 
#    0.000    0.000    0.000    0.000    0.000    0.000 
#
# Total GULP energy -396652.571224 kJ/mol
# GULP energy per Si atom -12395.392851 kJ/mol
# Density = 1.714877 g / cm^3
# Si number density = 17.187886 Si / 1000 Ang^3
#
#
#
# Elastic Constant Matrix: (Units=GPa)
#
#
# Indices 1 2 3 4 5 6 
#
# 1 60.9737 42.5430 47.1994 0.0000 0.0000 0.0000
# 2 42.5430 92.4919 73.1819 0.0000 0.0000 0.0000
# 3 47.1994 73.1819 97.1614 0.0000 0.0000 0.0000
# 4 0.0000 0.0000 0.0000 30.4056 0.0000 0.0000
# 5 0.0000 0.0000 0.0000 0.0000 27.4981 0.0000
# 6 0.0000 0.0000 0.0000 0.0000 0.0000 16.9213
#
#
#
# Elastic Compliance Matrix: (Units=1/GPa)
#
#
# Indices 1 2 3 4 5 6 
#
# 1 0.027221 -0.005093 -0.009387 0.000000 0.000000 0.000000
# 2 -0.005093 0.027711 -0.018398 0.000000 0.000000 0.000000
# 3 -0.009387 -0.018398 0.028710 0.000000 0.000000 0.000000
# 4 0.000000 0.000000 0.000000 0.032889 0.000000 0.000000
# 5 0.000000 0.000000 0.000000 0.000000 0.036366 0.000000
# 6 0.000000 0.000000 0.000000 0.000000 0.000000 0.059097
#
#
# Mechanical properties :
#
#
# Convention : Reuss Voigt Hill
#
# Bulk Modulus (GPa) = 55.91278 64.05284 59.98281
# Shear Modulus (GPa) = 17.62349 20.81186 19.21767
#
# Velocity S-wave (km/s) = 3.20557 3.48349 3.34742
# Velocity P-wave (km/s) = 6.80455 7.31620 7.06501
#
# Compressibility (1/GPa) = 0.01788500
#
# Stress axis : x y z
#
# Youngs Moduli (GPa) = 36.73672 36.08613 34.83140
#
# Poissons Ratio (x) = 0.18379 0.32697
# Poissons Ratio (y) = 0.18711 0.64083
# Poissons Ratio (z) = 0.34485 0.66392
#
# Static dielectric constant tensor:
#      x y z
#    x 3.038260 0.000000 0.000000 
#    y 0.000000 3.461470 0.000000 
#    z 0.000000 0.000000 3.125040 
# 
# 
# High freq. dielectric constant tensor:
#      x y z
#    x 1.639140 0.000000 0.000000 
#    y 0.000000 1.667940 0.000000 
#    z 0.000000 0.000000 1.645250 
# 
# From -- ./inp_files/22208.got.cif
#   From: 2010.03.12/outbox.cif.g09.slc.cpg/sg38_12_cif.got.tgz:22208.got - 2010.04.14 02:38:36.
