data_PCOD8177055
_publ_section_title
;
Structure prediction by ZEFSAII (Michael W. Deem and Ramdas Pophale) SiO2 
 PCOD8177055
Probable space group: C C C 2
;
_chemical_formula_sum "Si O2"
_cell_formula_units_Z 60
_cell_length_a 15.766524
_cell_length_b 16.198198
_cell_length_c 11.308309
_cell_angle_alpha 90.000000
_cell_angle_beta 90.000000
_cell_angle_gamma 90.000000
_cell_volume 2888.020866
_symmetry_space_group_name_H-M "C C C 2"
_symmetry_group_IT_number 37
_symmetry_cell_setting 'orthorhombic'
loop_
_space_group_symop_operation_xyz
x,y,z
-x,-y,z
-x,y,1/2+z
x,-y,1/2+z
1/2+x,1/2+y,z
1/2-x,1/2-y,z
1/2-x,1/2+y,1/2+z
1/2+x,1/2-y,1/2+z
loop_
_atom_site_type_symbol
_atom_site_label
_atom_site_fract_x
_atom_site_fract_y
_atom_site_fract_z
Si Si1 0.826115 0.608141 0.175950
Si Si2 0.582730 0.280209 0.683613
Si Si3 0.750000 0.750000 0.571367
Si Si4 0.832991 0.796901 0.956648
Si Si5 0.913725 0.531020 0.800149
Si Si6 0.305765 0.629090 0.873767
Si Si7 0.094637 0.712377 0.236434
Si Si8 0.245003 0.044749 0.944081
O O1 0.877597 0.690974 0.149463
O O2 0.890440 0.532810 0.196325
O O3 0.777380 0.632672 0.294796
O O4 0.757597 0.575511 0.079793
O O5 0.606751 0.329150 0.563996
O O6 0.616420 0.329926 0.799596
O O7 0.481804 0.270889 0.693617
O O8 0.709690 0.678940 0.492617
O O9 0.824771 0.715729 0.652014
O O10 0.750000 0.750000 0.008674
O O11 0.882699 0.737065 0.869558
O O12 0.803492 0.878289 0.882540
O O13 0.934411 0.618060 0.739806
O O14 0.839114 0.533637 0.894946
O O15 0.000000 0.500000 0.863901
O O16 0.315750 0.534348 0.920306
#
# Coordination Sequence:
#
# PCOD8177055 Si02
#       8
#     8   8   4   8   8   8   8   8
#     4  11  20  40  65  98 140 181 222 277 353 424
#     4  12  23  42  71 101 138 186 234 289 342 426
#     4  12  24  46  68 104 142 188 232 292 358 426
#     4  12  22  45  71  95 132 193 239 271 346 430
#     4  11  22  38  59 105 143 172 218 282 360 426
#     4  11  24  42  72 101 138 183 238 284 350 416
#     4  12  26  43  69 103 145 182 232 296 357 418
#     4  11  23  41  70  96 134 187 232 286 340 421
#
# _framework density 20.775473000000002
#
# number of rings (size 3 to 8) (size 9 to 14) (size 15 to 20)
#    0.000    0.533    7.333    0.800    1.867    1.600 
#    7.200    0.667    0.000    0.000    0.000    0.000 
#    0.000    0.000    0.000    0.000    0.000    0.000 
#
# Total GULP energy -371813.524598 kJ/mol
# GULP energy per Si atom -12393.784153 kJ/mol
# Density = 2.072819 g / cm^3
# Si number density = 20.775473 Si / 1000 Ang^3
#
#
#
# Elastic Constant Matrix: (Units=GPa)
#
#
# Indices 1 2 3 4 5 6 
#
# 1 99.7061 33.8005 30.4906 0.0000 0.0000 0.0000
# 2 33.8005 120.0494 18.2789 0.0000 0.0000 0.0000
# 3 30.4906 18.2789 89.2973 0.0000 0.0000 0.0000
# 4 0.0000 0.0000 0.0000 23.5539 0.0000 0.0000
# 5 0.0000 0.0000 0.0000 0.0000 17.0424 0.0000
# 6 0.0000 0.0000 0.0000 0.0000 0.0000 31.7408
#
#
#
# Elastic Compliance Matrix: (Units=1/GPa)
#
#
# Indices 1 2 3 4 5 6 
#
# 1 0.012082 -0.002863 -0.003540 0.000000 0.000000 0.000000
# 2 -0.002863 0.009276 -0.000921 0.000000 0.000000 0.000000
# 3 -0.003540 -0.000921 0.012596 0.000000 0.000000 0.000000
# 4 0.000000 0.000000 0.000000 0.042456 0.000000 0.000000
# 5 0.000000 0.000000 0.000000 0.000000 0.058677 0.000000
# 6 0.000000 0.000000 0.000000 0.000000 0.000000 0.031505
#
#
# Mechanical properties :
#
#
# Convention : Reuss Voigt Hill
#
# Bulk Modulus (GPa) = 51.79486 52.68807 52.24147
# Shear Modulus (GPa) = 26.64172 29.56627 28.10399
#
# Velocity S-wave (km/s) = 3.58490 3.77654 3.68196
# Velocity P-wave (km/s) = 6.49001 6.66574 6.57846
#
# Compressibility (1/GPa) = 0.01930693
#
# Stress axis : x y z
#
# Youngs Moduli (GPa) = 82.76489 107.80217 79.39218
#
# Poissons Ratio (x) = 0.30863 0.28101
# Poissons Ratio (y) = 0.23695 0.07314
# Poissons Ratio (z) = 0.29295 0.09932
#
# Static dielectric constant tensor:
#      x y z
#    x 3.709550 0.000000 0.000000 
#    y 0.000000 4.157440 0.000000 
#    z 0.000000 0.000000 3.653260 
# 
# 
# High freq. dielectric constant tensor:
#      x y z
#    x 1.799340 0.000000 0.000000 
#    y 0.000000 1.825370 0.000000 
#    z 0.000000 0.000000 1.808490 
# 
# From -- ./inp_files/7953.got.cif
#   From: 2010.03.12/outbox.cif.g09.slc.cpg/sg37_4_cif.got.tgz:7953.got - 2010.04.14 02:25:27.
