data_PCOD8177904
_publ_section_title
;
Structure prediction by ZEFSAII (Michael W. Deem and Ramdas Pophale) SiO2 
 PCOD8177904
Probable space group: A M M 2
;
_chemical_formula_sum "Si O2"
_cell_formula_units_Z 64
_cell_length_a 8.957783
_cell_length_b 13.648980
_cell_length_c 34.412226
_cell_angle_alpha 90.000000
_cell_angle_beta 90.000000
_cell_angle_gamma 90.000000
_cell_volume 4207.397082
_symmetry_space_group_name_H-M "A M M 2"
_symmetry_group_IT_number 38
_symmetry_cell_setting 'orthorhombic'
loop_
_space_group_symop_operation_xyz
x,y,z
-x,-y,z
-x,y,z
x,-y,z
x,1/2+y,1/2+z
-x,1/2-y,1/2+z
-x,1/2+y,1/2+z
x,1/2-y,1/2+z
loop_
_atom_site_type_symbol
_atom_site_label
_atom_site_fract_x
_atom_site_fract_y
_atom_site_fract_z
Si Si1 0.167423 0.883753 0.668430
Si Si2 0.176029 0.393079 0.942516
Si Si3 0.825956 0.613030 0.321546
Si Si4 0.672670 0.112900 0.975340
Si Si5 0.324302 0.386610 0.089900
Si Si6 0.331710 0.883203 0.744288
Si Si7 0.176689 0.799192 0.902437
Si Si8 0.177093 0.218521 0.518690
O O1 0.265984 0.851166 0.631768
O O2 0.241061 0.840359 0.707596
O O3 0.000000 0.841738 0.664229
O O4 0.163616 0.000000 0.671362
O O5 0.248779 0.500000 0.933981
O O6 0.225388 0.313646 0.910227
O O7 0.000000 0.403227 0.942070
O O8 0.227085 0.356661 0.984944
O O9 0.785861 0.500000 0.329138
O O10 0.740153 0.655684 0.284250
O O11 0.772944 0.673825 0.359061
O O12 0.000000 0.626580 0.313428
O O13 0.500000 0.143905 0.974353
O O14 0.742205 0.130114 0.932823
O O15 0.692654 0.000000 0.986672
O O16 0.757690 0.174987 0.008313
O O17 0.500000 0.370101 0.088134
O O18 0.281839 0.500000 0.082448
O O19 0.244388 0.318934 0.058674
O O20 0.500000 0.844196 0.741612
O O21 0.325996 0.000000 0.743775
O O22 0.000000 0.813972 0.908292
O O23 0.000000 0.226473 0.522361
#
# Coordination Sequence:
#
# PCOD8177904 Si02
#       8
#     8   8   8   8   8   8   8   8
#     4   9  16  26  40  57  79 109 142 171 201 242
#     4   8  14  25  41  60  81 105 135 172 210 244
#     4   9  16  25  37  54  78 107 138 171 204 242
#     4  10  20  32  45  61  83 110 139 175 219 261
#     4  10  19  29  42  62  89 117 143 174 210 247
#     4   9  16  25  37  54  77 105 136 168 204 246
#     4   9  17  28  43  62  82 108 142 176 209 249
#     4  10  19  30  45  63  83 110 145 180 211 249
#
# _framework density 15.211304999999999
#
# number of rings (size 3 to 8) (size 9 to 14) (size 15 to 20)
#    0.000    2.750    0.000    3.375    0.000    6.250 
#    0.000    1.250    0.000    3.375    0.000    0.000 
#    0.000    1.000    0.000    5.000    0.000    3.375 
#
# Total GULP energy -396734.075341 kJ/mol
# GULP energy per Si atom -12397.939854 kJ/mol
# Density = 1.517668 g / cm^3
# Si number density = 15.211305 Si / 1000 Ang^3
#
#
#
# Elastic Constant Matrix: (Units=GPa)
#
#
# Indices 1 2 3 4 5 6 
#
# 1 82.0854 31.5269 54.7722 0.0000 0.0000 0.0000
# 2 31.5269 66.2532 47.3086 0.0000 0.0000 0.0000
# 3 54.7722 47.3086 136.8545 0.0000 0.0000 0.0000
# 4 0.0000 0.0000 0.0000 18.9300 0.0000 0.0000
# 5 0.0000 0.0000 0.0000 0.0000 23.7403 0.0000
# 6 0.0000 0.0000 0.0000 0.0000 0.0000 14.9603
#
#
#
# Elastic Compliance Matrix: (Units=1/GPa)
#
#
# Indices 1 2 3 4 5 6 
#
# 1 0.017548 -0.004429 -0.005492 0.000000 0.000000 0.000000
# 2 -0.004429 0.021158 -0.005542 0.000000 0.000000 0.000000
# 3 -0.005492 -0.005542 0.011421 0.000000 0.000000 0.000000
# 4 0.000000 0.000000 0.000000 0.052826 0.000000 0.000000
# 5 0.000000 0.000000 0.000000 0.000000 0.042123 0.000000
# 6 0.000000 0.000000 0.000000 0.000000 0.000000 0.066843
#
#
# Mechanical properties :
#
#
# Convention : Reuss Voigt Hill
#
# Bulk Modulus (GPa) = 52.07775 61.37873 56.72824
# Shear Modulus (GPa) = 20.06062 21.63181 20.84622
#
# Velocity S-wave (km/s) = 3.63546 3.77515 3.70596
# Velocity P-wave (km/s) = 7.20643 7.70978 7.46235
#
# Compressibility (1/GPa) = 0.01920206
#
# Stress axis : x y z
#
# Youngs Moduli (GPa) = 56.98634 47.26356 87.55953
#
# Poissons Ratio (x) = 0.20931 0.48090
# Poissons Ratio (y) = 0.25237 0.48522
# Poissons Ratio (z) = 0.31298 0.26192
#
# Static dielectric constant tensor:
#      x y z
#    x 2.964440 0.000000 0.000000 
#    y 0.000000 2.765070 0.000000 
#    z 0.000000 0.000000 3.000420 
# 
# 
# High freq. dielectric constant tensor:
#      x y z
#    x 1.587370 0.000000 0.000000 
#    y 0.000000 1.536950 0.000000 
#    z 0.000000 0.000000 1.583940 
# 
# From -- ./inp_files/24816.got.cif
#   From: 2010.03.12/outbox.cif.g09.slc.cpg/sg38_13_cif.got.tgz:24816.got - 2010.04.14 02:38:36.
