data_PCOD8177212
_publ_section_title
;
Structure prediction by ZEFSAII (Michael W. Deem and Ramdas Pophale) SiO2 
 PCOD8177212
Probable space group: A M M 2
;
_chemical_formula_sum "Si O2"
_cell_formula_units_Z 48
_cell_length_a 8.796414
_cell_length_b 16.652334
_cell_length_c 18.542001
_cell_angle_alpha 90.000000
_cell_angle_beta 90.000000
_cell_angle_gamma 90.000000
_cell_volume 2716.047584
_symmetry_space_group_name_H-M "A M M 2"
_symmetry_group_IT_number 38
_symmetry_cell_setting 'orthorhombic'
loop_
_space_group_symop_operation_xyz
x,y,z
-x,-y,z
-x,y,z
x,-y,z
x,1/2+y,1/2+z
-x,1/2-y,1/2+z
-x,1/2+y,1/2+z
x,1/2-y,1/2+z
loop_
_atom_site_type_symbol
_atom_site_label
_atom_site_fract_x
_atom_site_fract_y
_atom_site_fract_z
Si Si1 0.820968 0.329557 0.046420
Si Si2 0.176362 0.270359 0.409840
Si Si3 0.678014 0.500000 0.863139
Si Si4 0.819004 0.500000 0.018112
Si Si5 0.820016 0.822489 0.125461
Si Si6 0.677950 0.408416 0.492614
Si Si7 0.178699 0.849924 0.288671
O O1 0.752507 0.419497 0.056559
O O2 0.759802 0.267424 0.106315
O O3 0.000000 0.336256 0.052612
O O4 0.774844 0.297272 0.967551
O O5 0.265712 0.352675 0.426346
O O6 0.213973 0.233274 0.331320
O O7 0.000000 0.291793 0.417670
O O8 0.500000 0.500000 0.880272
O O9 0.720560 0.578297 0.817959
O O10 0.773931 0.500000 0.935345
O O11 0.000000 0.500000 0.020723
O O12 0.751627 0.885949 0.069422
O O13 0.768781 0.840022 0.206352
O O14 0.000000 0.827046 0.116685
O O15 0.500000 0.397037 0.501087
O O16 0.721757 0.500000 0.474001
O O17 0.000000 0.870886 0.295515
#
# Coordination Sequence:
#
# PCOD8177212 Si02
#       7
#     8   8   4   4   8   8   8
#     4   8  14  27  49  75  98 125 163 205 245 295
#     4   9  17  32  54  75  97 130 175 217 250 299
#     4  12  24  32  46  78 112 133 166 211 252 311
#     4  10  16  30  54  74 102 135 166 203 252 305
#     4   9  19  34  53  76 102 133 172 210 253 307
#     4  10  21  35  51  74 105 136 169 212 257 304
#     4  10  20  36  55  74 104 139 170 209 259 308
#
# _framework density 17.672737999999999
#
# number of rings (size 3 to 8) (size 9 to 14) (size 15 to 20)
#    0.000    2.500    1.667    2.250    1.167    2.667 
#    0.000    0.000    1.833    0.000    0.000    0.000 
#    0.000    0.000    0.000    0.000    0.000    0.000 
#
# Total GULP energy -297460.862362 kJ/mol
# GULP energy per Si atom -12394.202598 kJ/mol
# Density = 1.763251 g / cm^3
# Si number density = 17.672738 Si / 1000 Ang^3
#
#
#
# Elastic Constant Matrix: (Units=GPa)
#
#
# Indices 1 2 3 4 5 6 
#
# 1 27.2784 33.2273 11.2015 0.0000 0.0000 0.0000
# 2 33.2273 133.5561 33.4460 0.0000 0.0000 0.0000
# 3 11.2015 33.4460 59.4770 0.0000 0.0000 0.0000
# 4 0.0000 0.0000 0.0000 15.8957 0.0000 0.0000
# 5 0.0000 0.0000 0.0000 0.0000 10.4094 0.0000
# 6 0.0000 0.0000 0.0000 0.0000 0.0000 15.6632
#
#
#
# Elastic Compliance Matrix: (Units=1/GPa)
#
#
# Indices 1 2 3 4 5 6 
#
# 1 0.053052 -0.012450 -0.002990 0.000000 0.000000 0.000000
# 2 -0.012450 0.011636 -0.004199 0.000000 0.000000 0.000000
# 3 -0.002990 -0.004199 0.019738 0.000000 0.000000 0.000000
# 4 0.000000 0.000000 0.000000 0.062910 0.000000 0.000000
# 5 0.000000 0.000000 0.000000 0.000000 0.096067 0.000000
# 6 0.000000 0.000000 0.000000 0.000000 0.000000 0.063844
#
#
# Mechanical properties :
#
#
# Convention : Reuss Voigt Hill
#
# Bulk Modulus (GPa) = 22.14952 41.78456 31.96704
# Shear Modulus (GPa) = 13.82840 17.88943 15.85892
#
# Velocity S-wave (km/s) = 2.80030 3.18506 2.99886
# Velocity P-wave (km/s) = 4.79750 6.10090 5.48803
#
# Compressibility (1/GPa) = 0.04514770
#
# Stress axis : x y z
#
# Youngs Moduli (GPa) = 18.84939 85.93734 50.66479
#
# Poissons Ratio (x) = 1.06991 0.15151
# Poissons Ratio (y) = 0.23467 0.21273
# Poissons Ratio (z) = 0.05637 0.36083
#
# Static dielectric constant tensor:
#      x y z
#    x 3.033800 0.000000 0.000000 
#    y 0.000000 3.814470 0.000000 
#    z 0.000000 0.000000 3.307210 
# 
# 
# High freq. dielectric constant tensor:
#      x y z
#    x 1.659520 0.000000 0.000000 
#    y 0.000000 1.694030 0.000000 
#    z 0.000000 0.000000 1.663920 
# 
# From -- ./inp_files/16676.got.cif
#   From: 2010.03.12/outbox.cif.g09.slc.cpg/sg38_9_cif.got.tgz:16676.got - 2010.04.14 02:38:36.
