data_PCOD8177081
_publ_section_title
;
Structure prediction by ZEFSAII (Michael W. Deem and Ramdas Pophale) SiO2 
 PCOD8177081
Probable space group: C C C 2
;
_chemical_formula_sum "Si O2"
_cell_formula_units_Z 64
_cell_length_a 27.036187
_cell_length_b 11.429912
_cell_length_c 9.114294
_cell_angle_alpha 90.000000
_cell_angle_beta 90.000000
_cell_angle_gamma 90.000000
_cell_volume 2816.510417
_symmetry_space_group_name_H-M "C C C 2"
_symmetry_group_IT_number 37
_symmetry_cell_setting 'orthorhombic'
loop_
_space_group_symop_operation_xyz
x,y,z
-x,-y,z
-x,y,1/2+z
x,-y,1/2+z
1/2+x,1/2+y,z
1/2-x,1/2-y,z
1/2-x,1/2+y,1/2+z
1/2+x,1/2-y,1/2+z
loop_
_atom_site_type_symbol
_atom_site_label
_atom_site_fract_x
_atom_site_fract_y
_atom_site_fract_z
Si Si1 0.843083 0.925862 0.404610
Si Si2 0.113617 0.350040 0.807726
Si Si3 0.250274 0.120527 0.584011
Si Si4 0.946937 0.912556 0.496890
Si Si5 0.804155 0.753421 0.177332
Si Si6 0.465093 0.647385 0.327061
Si Si7 0.349156 0.020380 0.087462
Si Si8 0.189269 0.836896 0.351361
O O1 0.795390 0.944307 0.507381
O O2 0.889541 0.874411 0.494294
O O3 0.837620 0.843316 0.265123
O O4 0.851216 0.058132 0.346398
O O5 0.065618 0.268658 0.833041
O O6 0.110519 0.439744 0.671676
O O7 0.161882 0.271427 0.772881
O O8 0.121730 0.429239 0.950022
O O9 0.250000 0.250000 0.515811
O O10 0.238753 0.127789 0.759932
O O11 0.300675 0.054651 0.544477
O O12 0.966504 0.902338 0.662517
O O13 0.978666 0.829488 0.385506
O O14 0.947765 0.047600 0.442494
O O15 0.750000 0.750000 0.251032
O O16 0.830122 0.627328 0.187791
O O17 0.796113 0.800068 0.013702
#
# Coordination Sequence:
#
# PCOD8177081 Si02
#       8
#     8   8   8   8   8   8   8   8
#     4  12  25  39  67 104 139 181 240 302 375 436
#     4  11  25  47  71 101 148 201 249 307 365 445
#     4  12  25  39  64  99 143 197 248 296 354 440
#     4  11  25  43  79 110 144 181 232 313 391 458
#     4  11  25  41  62  97 140 197 249 303 351 436
#     4  11  24  48  75 114 148 181 238 311 396 450
#     4  11  27  43  67  99 149 203 254 291 366 440
#     4  11  22  41  64  93 144 188 242 304 367 422
#
# _framework density 22.723154999999998
#
# number of rings (size 3 to 8) (size 9 to 14) (size 15 to 20)
#    0.000    0.750    2.500    5.250    8.750    2.000 
#    0.000    0.000    0.000    6.000    0.000    0.000 
#    0.000    0.000    0.000    0.000    0.000    0.000 
#
# Total GULP energy -396690.782157 kJ/mol
# GULP energy per Si atom -12396.586942 kJ/mol
# Density = 2.267144 g / cm^3
# Si number density = 22.723155 Si / 1000 Ang^3
#
#
#
# Elastic Constant Matrix: (Units=GPa)
#
#
# Indices 1 2 3 4 5 6 
#
# 1 107.3252 50.1585 41.3566 0.0000 0.0000 0.0000
# 2 50.1585 147.7352 53.0631 0.0000 0.0000 0.0000
# 3 41.3566 53.0631 127.4943 0.0000 0.0000 0.0000
# 4 0.0000 0.0000 0.0000 7.4470 0.0000 0.0000
# 5 0.0000 0.0000 0.0000 0.0000 23.6234 0.0000
# 6 0.0000 0.0000 0.0000 0.0000 0.0000 43.9866
#
#
#
# Elastic Compliance Matrix: (Units=1/GPa)
#
#
# Indices 1 2 3 4 5 6 
#
# 1 0.011727 -0.003075 -0.002524 0.000000 0.000000 0.000000
# 2 -0.003075 0.008765 -0.002650 0.000000 0.000000 0.000000
# 3 -0.002524 -0.002650 0.009765 0.000000 0.000000 0.000000
# 4 0.000000 0.000000 0.000000 0.134283 0.000000 0.000000
# 5 0.000000 0.000000 0.000000 0.000000 0.042331 0.000000
# 6 0.000000 0.000000 0.000000 0.000000 0.000000 0.022734
#
#
# Mechanical properties :
#
#
# Convention : Reuss Voigt Hill
#
# Bulk Modulus (GPa) = 72.68426 74.63455 73.65941
# Shear Modulus (GPa) = 19.94488 30.87650 25.41069
#
# Velocity S-wave (km/s) = 2.96587 3.69021 3.34769
# Velocity P-wave (km/s) = 6.61701 7.14656 6.88688
#
# Compressibility (1/GPa) = 0.01375814
#
# Stress axis : x y z
#
# Youngs Moduli (GPa) = 85.27151 114.09218 102.40181
#
# Poissons Ratio (x) = 0.35082 0.25849
# Poissons Ratio (y) = 0.26220 0.27141
# Poissons Ratio (z) = 0.21525 0.30240
#
# Static dielectric constant tensor:
#      x y z
#    x 4.205840 0.000000 0.000000 
#    y 0.000000 4.538360 0.000000 
#    z 0.000000 0.000000 4.010180 
# 
# 
# High freq. dielectric constant tensor:
#      x y z
#    x 1.875680 0.000000 0.000000 
#    y 0.000000 1.900120 0.000000 
#    z 0.000000 0.000000 1.906540 
# 
# From -- ./inp_files/5016.got.cif
#   From: 2010.03.12/outbox.cif.g09.slc.cpg/sg37_3_cif.got.tgz:5016.got - 2010.04.14 02:25:27.
