data_PCOD8177567
_publ_section_title
;
Structure prediction by ZEFSAII (Michael W. Deem and Ramdas Pophale) SiO2 
 PCOD8177567
Probable space group: A M M 2
;
_chemical_formula_sum "Si O2"
_cell_formula_units_Z 48
_cell_length_a 8.999703
_cell_length_b 28.274004
_cell_length_c 10.495153
_cell_angle_alpha 90.000000
_cell_angle_beta 90.000000
_cell_angle_gamma 90.000000
_cell_volume 2670.571849
_symmetry_space_group_name_H-M "A M M 2"
_symmetry_group_IT_number 38
_symmetry_cell_setting 'orthorhombic'
loop_
_space_group_symop_operation_xyz
x,y,z
-x,-y,z
-x,y,z
x,-y,z
x,1/2+y,1/2+z
-x,1/2-y,1/2+z
-x,1/2+y,1/2+z
x,1/2-y,1/2+z
loop_
_atom_site_type_symbol
_atom_site_label
_atom_site_fract_x
_atom_site_fract_y
_atom_site_fract_z
Si Si1 0.676416 0.141866 0.890090
Si Si2 0.671192 0.947334 0.254531
Si Si3 0.677221 0.807351 0.635439
Si Si4 0.173911 0.946411 0.989686
Si Si5 0.323043 0.200487 0.133933
Si Si6 0.325322 0.646308 0.880517
O O1 0.500000 0.137360 0.890315
O O2 0.735457 0.167150 0.762573
O O3 0.744814 0.089337 0.893836
O O4 0.734397 0.172427 0.009996
O O5 0.500000 0.940734 0.211742
O O6 0.712300 0.909398 0.363750
O O7 0.699550 0.000000 0.309510
O O8 0.770888 0.937113 0.132505
O O9 0.500000 0.807242 0.634629
O O10 0.738219 0.753884 0.630610
O O11 0.743324 0.835166 0.513009
O O12 0.000000 0.936805 0.985707
O O13 0.212530 0.000000 0.947464
O O14 0.500000 0.200315 0.134446
O O15 0.259538 0.175382 0.260784
O O16 0.500000 0.655089 0.884909
#
# Coordination Sequence:
#
# PCOD8177567 Si02
#       6
#     8   8   8   8   8   8
#     4  10  18  30  49  75 100 126 161 198 236 278
#     4   9  16  28  48  71  93 119 155 198 239 280
#     4   9  17  26  41  70 105 130 153 191 235 279
#     4  10  20  33  50  71  94 123 160 201 245 289
#     4   9  15  25  43  69  99 129 159 192 231 274
#     4   9  15  25  41  66  97 125 152 188 234 276
#
# _framework density 17.973678
#
# number of rings (size 3 to 8) (size 9 to 14) (size 15 to 20)
#    0.000    2.667    1.667    1.500    0.000    5.000 
#    0.000    0.833    0.000    5.000    0.000    2.333 
#    0.000    0.000    0.000    0.000    0.000    0.000 
#
# Total GULP energy -297535.957873 kJ/mol
# GULP energy per Si atom -12397.331578 kJ/mol
# Density = 1.793277 g / cm^3
# Si number density = 17.973678 Si / 1000 Ang^3
#
#
#
# Elastic Constant Matrix: (Units=GPa)
#
#
# Indices 1 2 3 4 5 6 
#
# 1 20.7277 24.9098 16.6044 0.0000 0.0000 0.0000
# 2 24.9098 169.0329 87.2623 0.0000 0.0000 0.0000
# 3 16.6044 87.2623 148.6543 0.0000 0.0000 0.0000
# 4 0.0000 0.0000 0.0000 20.9196 0.0000 0.0000
# 5 0.0000 0.0000 0.0000 0.0000 4.3045 0.0000
# 6 0.0000 0.0000 0.0000 0.0000 0.0000 11.3255
#
#
#
# Elastic Compliance Matrix: (Units=1/GPa)
#
#
# Indices 1 2 3 4 5 6 
#
# 1 0.059097 -0.007606 -0.002136 0.000000 0.000000 0.000000
# 2 -0.007606 0.009467 -0.004708 0.000000 0.000000 0.000000
# 3 -0.002136 -0.004708 0.009729 0.000000 0.000000 0.000000
# 4 0.000000 0.000000 0.000000 0.047802 0.000000 0.000000
# 5 0.000000 0.000000 0.000000 0.000000 0.232313 0.000000
# 6 0.000000 0.000000 0.000000 0.000000 0.000000 0.088296
#
#
# Mechanical properties :
#
#
# Convention : Reuss Voigt Hill
#
# Bulk Modulus (GPa) = 20.24581 66.21866 43.23223
# Shear Modulus (GPa) = 10.16118 21.28581 15.72349
#
# Velocity S-wave (km/s) = 2.38026 3.44507 2.96092
# Velocity P-wave (km/s) = 4.34083 7.26269 5.98287
#
# Compressibility (1/GPa) = 0.04939293
#
# Stress axis : x y z
#
# Youngs Moduli (GPa) = 16.92146 105.62662 102.78342
#
# Poissons Ratio (x) = 0.80341 0.21955
# Poissons Ratio (y) = 0.12871 0.48389
# Poissons Ratio (z) = 0.03615 0.49728
#
# Static dielectric constant tensor:
#      x y z
#    x 2.768980 0.000000 0.000000 
#    y 0.000000 3.639780 0.000000 
#    z 0.000000 0.000000 3.383630 
# 
# 
# High freq. dielectric constant tensor:
#      x y z
#    x 1.634050 0.000000 0.000000 
#    y 0.000000 1.715900 0.000000 
#    z 0.000000 0.000000 1.683010 
# 
# From -- ./inp_files/3756.got.cif
#   From: 2010.03.12/outbox.cif.g09.slc.cpg/sg38_2_cif.got.tgz:3756.got - 2010.04.14 02:38:36.
