data_PCOD8177228
_publ_section_title
;
Structure prediction by ZEFSAII (Michael W. Deem and Ramdas Pophale) SiO2 
 PCOD8177228
Probable space group: A M M 2
;
_chemical_formula_sum "Si O2"
_cell_formula_units_Z 64
_cell_length_a 8.933834
_cell_length_b 25.034844
_cell_length_c 20.297007
_cell_angle_alpha 90.000000
_cell_angle_beta 90.000000
_cell_angle_gamma 90.000000
_cell_volume 4539.570547
_symmetry_space_group_name_H-M "A M M 2"
_symmetry_group_IT_number 38
_symmetry_cell_setting 'orthorhombic'
loop_
_space_group_symop_operation_xyz
x,y,z
-x,-y,z
-x,y,z
x,-y,z
x,1/2+y,1/2+z
-x,1/2-y,1/2+z
-x,1/2+y,1/2+z
x,1/2-y,1/2+z
loop_
_atom_site_type_symbol
_atom_site_label
_atom_site_fract_x
_atom_site_fract_y
_atom_site_fract_z
Si Si1 0.823307 0.665327 0.520690
Si Si2 0.174933 0.300424 0.661642
Si Si3 0.822693 0.740654 0.403959
Si Si4 0.667180 0.257223 0.777384
Si Si5 0.172262 0.940474 0.326956
Si Si6 0.668236 0.657026 0.879181
Si Si7 0.328707 0.058805 0.054940
Si Si8 0.673085 0.405791 0.699809
O O1 0.768398 0.697816 0.585785
O O2 0.766914 0.697187 0.456764
O O3 0.762748 0.605119 0.518269
O O4 0.000000 0.661088 0.522650
O O5 0.258344 0.254739 0.704790
O O6 0.215571 0.356063 0.694975
O O7 0.000000 0.289185 0.666486
O O8 0.761761 0.723034 0.331447
O O9 0.752958 0.798553 0.424199
O O10 0.000000 0.745556 0.402289
O O11 0.500000 0.233560 0.772645
O O12 0.663213 0.318904 0.804362
O O13 0.241470 0.898519 0.379186
O O14 0.269789 0.941085 0.260450
O O15 0.000000 0.925149 0.312399
O O16 0.182989 0.000000 0.357558
O O17 0.500000 0.647626 0.906040
O O18 0.500000 0.067690 0.034984
O O19 0.309900 0.059959 0.133567
O O20 0.273550 0.000000 0.031298
O O21 0.500000 0.388244 0.709945
#
# Coordination Sequence:
#
# PCOD8177228 Si02
#       8
#     8   8   8   8   8   8   8   8
#     4   9  19  30  42  61  80 102 135 169 202 240
#     4  10  17  26  40  58  80 104 132 167 202 235
#     4   9  16  29  45  58  75 100 131 166 203 241
#     4   9  17  27  40  58  76  99 132 163 199 240
#     4  11  21  28  36  53  75 101 134 168 200 232
#     4   9  18  29  41  55  73  97 131 164 198 237
#     4   9  18  29  39  52  73 103 134 164 199 234
#     4  10  17  26  37  50  71 101 135 167 197 227
#
# _framework density 14.098248999999999
#
# number of rings (size 3 to 8) (size 9 to 14) (size 15 to 20)
#    0.750    1.750    1.250    2.250    0.000    3.750 
#    0.000    0.000    0.000    0.000    0.000    0.000 
#    0.000    0.000    0.000    1.125    0.000   18.750 
#
# Total GULP energy -396490.483552 kJ/mol
# GULP energy per Si atom -12390.327611 kJ/mol
# Density = 1.406616 g / cm^3
# Si number density = 14.098249 Si / 1000 Ang^3
#
#
#
# Elastic Constant Matrix: (Units=GPa)
#
#
# Indices 1 2 3 4 5 6 
#
# 1 68.4830 30.6438 28.9254 0.0000 0.0000 0.0000
# 2 30.6438 71.9700 43.4657 0.0000 0.0000 0.0000
# 3 28.9254 43.4657 65.9798 0.0000 0.0000 0.0000
# 4 0.0000 0.0000 0.0000 20.3172 0.0000 0.0000
# 5 0.0000 0.0000 0.0000 0.0000 15.7906 0.0000
# 6 0.0000 0.0000 0.0000 0.0000 0.0000 17.9210
#
#
#
# Elastic Compliance Matrix: (Units=1/GPa)
#
#
# Indices 1 2 3 4 5 6 
#
# 1 0.018974 -0.005074 -0.004976 0.000000 0.000000 0.000000
# 2 -0.005074 0.024432 -0.013871 0.000000 0.000000 0.000000
# 3 -0.004976 -0.013871 0.026475 0.000000 0.000000 0.000000
# 4 0.000000 0.000000 0.000000 0.049219 0.000000 0.000000
# 5 0.000000 0.000000 0.000000 0.000000 0.063329 0.000000
# 6 0.000000 0.000000 0.000000 0.000000 0.000000 0.055800
#
#
# Mechanical properties :
#
#
# Convention : Reuss Voigt Hill
#
# Bulk Modulus (GPa) = 45.37065 45.83364 45.60214
# Shear Modulus (GPa) = 17.04050 17.69895 17.36972
#
# Velocity S-wave (km/s) = 3.48040 3.54701 3.51386
# Velocity P-wave (km/s) = 6.95719 7.02536 6.99136
#
# Compressibility (1/GPa) = 0.02204068
#
# Stress axis : x y z
#
# Youngs Moduli (GPa) = 52.70326 40.92933 37.77100
#
# Poissons Ratio (x) = 0.20767 0.18794
# Poissons Ratio (y) = 0.26741 0.52392
# Poissons Ratio (z) = 0.26223 0.56773
#
# Static dielectric constant tensor:
#      x y z
#    x 2.822640 0.000000 0.000000 
#    y 0.000000 2.539420 0.000000 
#    z 0.000000 0.000000 2.598070 
# 
# 
# High freq. dielectric constant tensor:
#      x y z
#    x 1.554080 0.000000 0.000000 
#    y 0.000000 1.504360 0.000000 
#    z 0.000000 0.000000 1.498860 
# 
# From -- ./inp_files/20333.got.cif
#   From: 2010.03.12/outbox.cif.g09.slc.cpg/sg38_11_cif.got.tgz:20333.got - 2010.04.14 02:38:36.
