data_PCOD8177688
_publ_section_title
;
Structure prediction by ZEFSAII (Michael W. Deem and Ramdas Pophale) SiO2 
 PCOD8177688
Probable space group: A M M 2
;
_chemical_formula_sum "Si O2"
_cell_formula_units_Z 48
_cell_length_a 19.073171
_cell_length_b 7.929523
_cell_length_c 14.995365
_cell_angle_alpha 90.000000
_cell_angle_beta 90.000000
_cell_angle_gamma 90.000000
_cell_volume 2267.916219
_symmetry_space_group_name_H-M "A M M 2"
_symmetry_group_IT_number 38
_symmetry_cell_setting 'orthorhombic'
loop_
_space_group_symop_operation_xyz
x,y,z
-x,-y,z
-x,y,z
x,-y,z
x,1/2+y,1/2+z
-x,1/2-y,1/2+z
-x,1/2+y,1/2+z
x,1/2-y,1/2+z
loop_
_atom_site_type_symbol
_atom_site_label
_atom_site_fract_x
_atom_site_fract_y
_atom_site_fract_z
Si Si1 0.079511 0.500000 0.022951
Si Si2 0.325118 0.196694 0.831067
Si Si3 0.578216 0.799396 0.672330
Si Si4 0.832210 0.313276 0.311859
Si Si5 0.920136 0.500000 0.809438
Si Si6 0.315974 0.807023 0.525938
Si Si7 0.164963 0.816645 0.023048
O O1 0.117221 0.666795 0.062810
O O2 0.000000 0.500000 0.056656
O O3 0.084036 0.500000 0.916225
O O4 0.382650 0.263439 0.761451
O O5 0.248341 0.231628 0.789046
O O6 0.333279 0.000000 0.852565
O O7 0.337128 0.295859 0.922607
O O8 0.500000 0.721988 0.670070
O O9 0.620539 0.734747 0.585726
O O10 0.574826 0.000000 0.672063
O O11 0.852231 0.500000 0.273949
O O12 0.841385 0.314410 0.417293
O O13 0.882031 0.168017 0.270715
O O14 0.000000 0.500000 0.775934
O O15 0.245915 0.705106 0.549768
O O16 0.300620 0.000000 0.550638
O O17 0.139483 0.000000 0.059223
#
# Coordination Sequence:
#
# PCOD8177688 Si02
#       7
#     4   8   8   8   4   8   8
#     4   9  16  26  42  72 109 141 180 229 281 329
#     4   9  18  33  53  76 104 143 187 227 277 335
#     4   9  19  35  54  79 111 143 184 232 281 345
#     4   8  15  26  43  67  96 133 178 220 258 317
#     4   9  16  24  40  68 103 137 168 215 275 321
#     4  10  18  31  54  79 106 144 189 233 279 333
#     4   9  16  28  46  70 103 142 184 228 272 328
#
# _framework density 21.164801000000001
#
# number of rings (size 3 to 8) (size 9 to 14) (size 15 to 20)
#    0.000    3.000    0.833    1.500    3.500    1.333 
#    0.000    5.000    0.000    3.500    0.000    1.167 
#    0.000    0.000    0.000    0.000    0.000    0.000 
#
# Total GULP energy -297513.396985 kJ/mol
# GULP energy per Si atom -12396.391541 kJ/mol
# Density = 2.111663 g / cm^3
# Si number density = 21.164801 Si / 1000 Ang^3
#
#
#
# Elastic Constant Matrix: (Units=GPa)
#
#
# Indices 1 2 3 4 5 6 
#
# 1 177.9459 78.8983 45.3823 0.0000 0.0000 0.0000
# 2 78.8983 127.5131 20.0741 0.0000 0.0000 0.0000
# 3 45.3823 20.0741 41.2834 0.0000 0.0000 0.0000
# 4 0.0000 0.0000 0.0000 11.5689 0.0000 0.0000
# 5 0.0000 0.0000 0.0000 0.0000 4.0692 0.0000
# 6 0.0000 0.0000 0.0000 0.0000 0.0000 22.6280
#
#
#
# Elastic Compliance Matrix: (Units=1/GPa)
#
#
# Indices 1 2 3 4 5 6 
#
# 1 0.009937 -0.004796 -0.008592 0.000000 0.000000 0.000000
# 2 -0.004796 0.010807 0.000017 0.000000 0.000000 0.000000
# 3 -0.008592 0.000017 0.033659 0.000000 0.000000 0.000000
# 4 0.000000 0.000000 0.000000 0.086438 0.000000 0.000000
# 5 0.000000 0.000000 0.000000 0.000000 0.245749 0.000000
# 6 0.000000 0.000000 0.000000 0.000000 0.000000 0.044193
#
#
# Mechanical properties :
#
#
# Convention : Reuss Voigt Hill
#
# Bulk Modulus (GPa) = 36.15005 70.60578 53.37791
# Shear Modulus (GPa) = 10.71244 21.14574 15.92909
#
# Velocity S-wave (km/s) = 2.25221 3.16428 2.74637
# Velocity P-wave (km/s) = 4.88678 6.83979 5.94404
#
# Compressibility (1/GPa) = 0.02766248
#
# Stress axis : x y z
#
# Youngs Moduli (GPa) = 100.62915 92.53081 29.70934
#
# Poissons Ratio (x) = 0.44379 0.25526
# Poissons Ratio (y) = 0.48263 -0.00051
# Poissons Ratio (z) = 0.86460 -0.00160
#
# Static dielectric constant tensor:
#      x y z
#    x 3.936960 0.000000 0.000000 
#    y 0.000000 3.947620 0.000000 
#    z 0.000000 0.000000 3.410180 
# 
# 
# High freq. dielectric constant tensor:
#      x y z
#    x 1.819590 0.000000 0.000000 
#    y 0.000000 1.825610 0.000000 
#    z 0.000000 0.000000 1.796540 
# 
# From -- ./inp_files/15034.got.cif
#   From: 2010.03.12/outbox.cif.g09.slc.cpg/sg38_8_cif.got.tgz:15034.got - 2010.04.14 02:38:36.
