data_PCOD8177943
_publ_section_title
;
Structure prediction by ZEFSAII (Michael W. Deem and Ramdas Pophale) SiO2 
 PCOD8177943
Probable space group: A M M 2
;
_chemical_formula_sum "Si O2"
_cell_formula_units_Z 64
_cell_length_a 8.942641
_cell_length_b 22.247514
_cell_length_c 15.338359
_cell_angle_alpha 90.000000
_cell_angle_beta 90.000000
_cell_angle_gamma 90.000000
_cell_volume 3051.590004
_symmetry_space_group_name_H-M "A M M 2"
_symmetry_group_IT_number 38
_symmetry_cell_setting 'orthorhombic'
loop_
_space_group_symop_operation_xyz
x,y,z
-x,-y,z
-x,y,z
x,-y,z
x,1/2+y,1/2+z
-x,1/2-y,1/2+z
-x,1/2+y,1/2+z
x,1/2-y,1/2+z
loop_
_atom_site_type_symbol
_atom_site_label
_atom_site_fract_x
_atom_site_fract_y
_atom_site_fract_z
Si Si1 0.835684 0.929398 0.497140
Si Si2 0.675427 0.318776 0.255746
Si Si3 0.176298 0.068219 0.692197
Si Si4 0.325048 0.732589 0.600591
Si Si5 0.664759 0.929032 0.333563
Si Si6 0.821453 0.693300 0.430069
Si Si7 0.170930 0.881422 0.171123
Si Si8 0.171873 0.435077 0.490444
O O1 0.772111 0.917459 0.593532
O O2 0.723029 0.901972 0.425612
O O3 0.000000 0.899759 0.486206
O O4 0.852715 0.000000 0.482461
O O5 0.500000 0.316634 0.272777
O O6 0.733885 0.387335 0.255093
O O7 0.718389 0.288041 0.163744
O O8 0.756106 0.285119 0.337123
O O9 0.000000 0.078838 0.702950
O O10 0.217569 0.000000 0.718222
O O11 0.500000 0.731512 0.580044
O O12 0.237127 0.736148 0.508396
O O13 0.280155 0.673774 0.653892
O O14 0.500000 0.901813 0.314689
O O15 0.783473 0.912127 0.260632
O O16 0.653385 0.000000 0.339871
O O17 0.759507 0.624831 0.446172
O O18 0.000000 0.696312 0.430436
O O19 0.188603 0.930181 0.094704
O O20 0.000000 0.858448 0.176382
O O21 0.245421 0.500000 0.462766
O O22 0.000000 0.437177 0.462471
#
# Coordination Sequence:
#
# PCOD8177943 Si02
#       8
#     8   8   8   8   8   8   8   8
#     4   8  15  30  50  72 103 144 188 235 285 336
#     4  11  24  41  63  90 120 159 199 242 299 360
#     4   9  19  37  61  88 118 152 192 241 294 350
#     4  10  22  42  62  82 115 156 198 248 303 356
#     4  10  19  29  45  74 112 153 195 240 294 355
#     4  10  21  38  63  91 119 155 199 247 293 349
#     4  10  19  32  53  79 108 148 198 247 295 346
#     4   8  15  29  51  81 114 146 182 227 283 342
#
# _framework density 20.972674000000001
#
# number of rings (size 3 to 8) (size 9 to 14) (size 15 to 20)
#    0.000    2.500    0.000    3.750    0.000    4.500 
#    2.250    2.500    0.000    7.125    0.000    0.000 
#    0.000    0.000    0.000    0.000    0.000    0.000 
#
# Total GULP energy -396631.472621 kJ/mol
# GULP energy per Si atom -12394.733519 kJ/mol
# Density = 2.092494 g / cm^3
# Si number density = 20.972674 Si / 1000 Ang^3
#
#
#
# Elastic Constant Matrix: (Units=GPa)
#
#
# Indices 1 2 3 4 5 6 
#
# 1 83.4998 30.3003 56.3629 0.0000 0.0000 0.0000
# 2 30.3003 56.5890 25.1707 0.0000 0.0000 0.0000
# 3 56.3629 25.1707 126.0093 0.0000 0.0000 0.0000
# 4 0.0000 0.0000 0.0000 22.4522 0.0000 0.0000
# 5 0.0000 0.0000 0.0000 0.0000 34.4974 0.0000
# 6 0.0000 0.0000 0.0000 0.0000 0.0000 25.6029
#
#
#
# Elastic Compliance Matrix: (Units=1/GPa)
#
#
# Indices 1 2 3 4 5 6 
#
# 1 0.019510 -0.007205 -0.007287 0.000000 0.000000 0.000000
# 2 -0.007205 0.022055 -0.001183 0.000000 0.000000 0.000000
# 3 -0.007287 -0.001183 0.011432 0.000000 0.000000 0.000000
# 4 0.000000 0.000000 0.000000 0.044539 0.000000 0.000000
# 5 0.000000 0.000000 0.000000 0.000000 0.028988 0.000000
# 6 0.000000 0.000000 0.000000 0.000000 0.000000 0.039058
#
#
# Mechanical properties :
#
#
# Convention : Reuss Voigt Hill
#
# Bulk Modulus (GPa) = 46.19705 54.41842 50.30774
# Shear Modulus (GPa) = 24.49217 26.79478 25.64347
#
# Velocity S-wave (km/s) = 3.42104 3.57824 3.50052
# Velocity P-wave (km/s) = 6.13838 6.56318 6.35433
#
# Compressibility (1/GPa) = 0.02164640
#
# Stress axis : x y z
#
# Youngs Moduli (GPa) = 51.25705 45.34064 87.47586
#
# Poissons Ratio (x) = 0.32668 0.63746
# Poissons Ratio (y) = 0.36930 0.10348
# Poissons Ratio (z) = 0.37352 0.05363
#
# Static dielectric constant tensor:
#      x y z
#    x 3.782800 0.000000 0.000000 
#    y 0.000000 3.668230 0.000000 
#    z 0.000000 0.000000 3.886600 
# 
# 
# High freq. dielectric constant tensor:
#      x y z
#    x 1.806290 0.000000 0.000000 
#    y 0.000000 1.797780 0.000000 
#    z 0.000000 0.000000 1.829760 
# 
# From -- ./inp_files/12856.got.cif
#   From: 2010.03.12/outbox.cif.g09.slc.cpg/sg38_7_cif.got.tgz:12856.got - 2010.04.14 02:38:36.
