data_PCOD8177058
_publ_section_title
;
Structure prediction by ZEFSAII (Michael W. Deem and Ramdas Pophale) SiO2 
 PCOD8177058
Probable space group: C C C 2
;
_chemical_formula_sum "Si O2"
_cell_formula_units_Z 48
_cell_length_a 5.005374
_cell_length_b 22.341261
_cell_length_c 20.121988
_cell_angle_alpha 90.000000
_cell_angle_beta 90.000000
_cell_angle_gamma 90.000000
_cell_volume 2250.168814
_symmetry_space_group_name_H-M "C C C 2"
_symmetry_group_IT_number 37
_symmetry_cell_setting 'orthorhombic'
loop_
_space_group_symop_operation_xyz
x,y,z
-x,-y,z
-x,y,1/2+z
x,-y,1/2+z
1/2+x,1/2+y,z
1/2-x,1/2-y,z
1/2-x,1/2+y,1/2+z
1/2+x,1/2-y,1/2+z
loop_
_atom_site_type_symbol
_atom_site_label
_atom_site_fract_x
_atom_site_fract_y
_atom_site_fract_z
Si Si1 0.000000 0.500000 0.567390
Si Si2 0.377694 0.615622 0.234398
Si Si3 0.379290 0.811862 0.748168
Si Si4 0.582113 0.085567 0.951840
Si Si5 0.500000 0.500000 0.152963
Si Si6 0.099494 0.061465 0.870862
Si Si7 0.013099 0.710629 0.901094
O O1 0.100215 0.442328 0.525218
O O2 0.252938 0.523810 0.609241
O O3 0.677618 0.637093 0.225048
O O4 0.361849 0.553384 0.195067
O O5 0.321575 0.606848 0.312875
O O6 0.160739 0.667192 0.214200
O O7 0.250000 0.750000 0.721080
O O8 0.405514 0.810024 0.827318
O O9 0.362572 0.045523 0.913163
O O10 0.468873 0.153619 0.949363
O O11 0.872605 0.087829 0.918712
O O12 0.000000 0.000000 0.837447
O O13 0.750000 0.750000 0.897689
O O14 0.250000 0.750000 0.932320
#
# Coordination Sequence:
#
# PCOD8177058 Si02
#       7
#     4   8   8   8   4   8   8
#     4  12  26  46  62  90 122 174 224 270 320 374
#     4  12  22  40  63  93 133 166 207 264 325 393
#     4  11  22  37  61  97 137 168 198 249 325 403
#     4  12  23  39  64  90 132 164 204 261 321 390
#     4  12  28  44  66  90 124 172 226 274 320 372
#     4  12  20  36  59  99 125 162 199 254 341 393
#     4  11  21  35  58  95 132 163 193 243 314 388
#
# _framework density 21.331734000000001
#
# number of rings (size 3 to 8) (size 9 to 14) (size 15 to 20)
#    0.000    0.333    5.833    5.500    0.000    0.000 
#    0.000    0.000    0.000   10.000    0.000    0.000 
#    0.000    0.000    0.000    0.000    0.000    0.000 
#
# Total GULP energy -297535.620364 kJ/mol
# GULP energy per Si atom -12397.317515 kJ/mol
# Density = 2.128318 g / cm^3
# Si number density = 21.331734 Si / 1000 Ang^3
#
#
#
# Elastic Constant Matrix: (Units=GPa)
#
#
# Indices 1 2 3 4 5 6 
#
# 1 143.7757 36.4553 34.8265 0.0000 0.0000 0.0000
# 2 36.4553 119.7688 29.9901 0.0000 0.0000 0.0000
# 3 34.8265 29.9901 66.7150 0.0000 0.0000 0.0000
# 4 0.0000 0.0000 0.0000 13.9769 0.0000 0.0000
# 5 0.0000 0.0000 0.0000 0.0000 30.2304 0.0000
# 6 0.0000 0.0000 0.0000 0.0000 0.0000 47.7974
#
#
#
# Elastic Compliance Matrix: (Units=1/GPa)
#
#
# Indices 1 2 3 4 5 6 
#
# 1 0.008229 -0.001610 -0.003572 0.000000 0.000000 0.000000
# 2 -0.001610 0.009724 -0.003530 0.000000 0.000000 0.000000
# 3 -0.003572 -0.003530 0.018441 0.000000 0.000000 0.000000
# 4 0.000000 0.000000 0.000000 0.071546 0.000000 0.000000
# 5 0.000000 0.000000 0.000000 0.000000 0.033079 0.000000
# 6 0.000000 0.000000 0.000000 0.000000 0.000000 0.020922
#
#
# Mechanical properties :
#
#
# Convention : Reuss Voigt Hill
#
# Bulk Modulus (GPa) = 52.71989 59.20037 55.96013
# Shear Modulus (GPa) = 26.92692 33.66679 30.29686
#
# Velocity S-wave (km/s) = 3.55673 3.97703 3.77274
# Velocity P-wave (km/s) = 6.45252 6.99296 6.72817
#
# Compressibility (1/GPa) = 0.01896817
#
# Stress axis : x y z
#
# Youngs Moduli (GPa) = 121.52520 102.84282 54.22812
#
# Poissons Ratio (x) = 0.16561 0.19369
# Poissons Ratio (y) = 0.19569 0.19145
# Poissons Ratio (z) = 0.43405 0.36307
#
# Static dielectric constant tensor:
#      x y z
#    x 4.025080 0.000000 0.000000 
#    y 0.000000 3.974340 0.000000 
#    z 0.000000 0.000000 3.404460 
# 
# 
# High freq. dielectric constant tensor:
#      x y z
#    x 1.863750 0.000000 0.000000 
#    y 0.000000 1.849780 0.000000 
#    z 0.000000 0.000000 1.777210 
# 
# From -- ./inp_files/15791.got.cif
#   From: 2010.03.12/outbox.cif.g09.slc.cpg/sg37_8_cif.got.tgz:15791.got - 2010.04.14 02:25:27.
