data_PCOD8177414
_publ_section_title
;
Structure prediction by ZEFSAII (Michael W. Deem and Ramdas Pophale) SiO2 
 PCOD8177414
Probable space group: A M M 2
;
_chemical_formula_sum "Si O2"
_cell_formula_units_Z 64
_cell_length_a 9.326894
_cell_length_b 23.172424
_cell_length_c 19.134310
_cell_angle_alpha 90.000000
_cell_angle_beta 90.000000
_cell_angle_gamma 90.000000
_cell_volume 4135.436088
_symmetry_space_group_name_H-M "A M M 2"
_symmetry_group_IT_number 38
_symmetry_cell_setting 'orthorhombic'
loop_
_space_group_symop_operation_xyz
x,y,z
-x,-y,z
-x,y,z
x,-y,z
x,1/2+y,1/2+z
-x,1/2-y,1/2+z
-x,1/2+y,1/2+z
x,1/2-y,1/2+z
loop_
_atom_site_type_symbol
_atom_site_label
_atom_site_fract_x
_atom_site_fract_y
_atom_site_fract_z
Si Si1 0.336348 0.341491 0.884090
Si Si2 0.335204 0.222593 0.809535
Si Si3 0.664327 0.759873 0.161381
Si Si4 0.664226 0.235216 0.508042
Si Si5 0.169296 0.063826 0.020087
Si Si6 0.169908 0.622203 0.660708
Si Si7 0.169323 0.331294 0.427735
Si Si8 0.168963 0.065550 0.304902
O O1 0.500000 0.360498 0.873610
O O2 0.298538 0.287326 0.834625
O O3 0.238402 0.395630 0.865235
O O4 0.304569 0.323242 0.964564
O O5 0.500000 0.207758 0.825959
O O6 0.300197 0.218286 0.727035
O O7 0.237267 0.176896 0.850972
O O8 0.500000 0.781221 0.166971
O O9 0.690303 0.723706 0.090215
O O10 0.765442 0.814602 0.163482
O O11 0.500000 0.254652 0.493341
O O12 0.767820 0.285999 0.482995
O O13 0.230776 0.089196 0.092701
O O14 0.000000 0.059678 0.027913
O O15 0.234390 0.000000 0.006748
O O16 0.209850 0.104888 0.955089
O O17 0.218899 0.586472 0.728524
O O18 0.000000 0.629008 0.657247
O O19 0.000000 0.321835 0.423339
O O20 0.000000 0.071040 0.312712
O O21 0.220565 0.000000 0.315217
#
# Coordination Sequence:
#
# PCOD8177414 Si02
#       8
#     8   8   8   8   8   8   8   8
#     4   9  17  30  45  64  87 115 149 184 222 267
#     4   9  18  31  46  64  90 120 148 182 227 271
#     4  10  18  30  48  67  90 122 151 180 224 273
#     4   9  18  31  47  65  90 118 146 184 229 272
#     4   9  17  29  44  63  90 123 155 185 220 262
#     4  10  18  29  44  64  91 122 155 188 215 253
#     4  10  18  28  45  68  89 116 153 188 221 261
#     4  10  20  31  44  64  90 122 156 187 222 260
#
# _framework density 15.475997
#
# number of rings (size 3 to 8) (size 9 to 14) (size 15 to 20)
#    0.000    2.500    2.500    1.500    0.000    4.250 
#    0.000    0.000    0.000    4.125    0.000    0.875 
#    0.000    5.000    0.000    0.000    0.000    0.000 
#
# Total GULP energy -396721.370863 kJ/mol
# GULP energy per Si atom -12397.542839 kJ/mol
# Density = 1.544077 g / cm^3
# Si number density = 15.475997 Si / 1000 Ang^3
#
#
#
# Elastic Constant Matrix: (Units=GPa)
#
#
# Indices 1 2 3 4 5 6 
#
# 1 40.7492 37.0068 39.2393 0.0000 0.0000 0.0000
# 2 37.0068 88.8453 62.3887 0.0000 0.0000 0.0000
# 3 39.2393 62.3887 136.6599 0.0000 0.0000 0.0000
# 4 0.0000 0.0000 0.0000 22.7528 0.0000 0.0000
# 5 0.0000 0.0000 0.0000 0.0000 22.4491 0.0000
# 6 0.0000 0.0000 0.0000 0.0000 0.0000 10.6154
#
#
#
# Elastic Compliance Matrix: (Units=1/GPa)
#
#
# Indices 1 2 3 4 5 6 
#
# 1 0.042656 -0.013492 -0.006088 0.000000 0.000000 0.000000
# 2 -0.013492 0.020834 -0.005637 0.000000 0.000000 0.000000
# 3 -0.006088 -0.005637 0.011639 0.000000 0.000000 0.000000
# 4 0.000000 0.000000 0.000000 0.043951 0.000000 0.000000
# 5 0.000000 0.000000 0.000000 0.000000 0.044545 0.000000
# 6 0.000000 0.000000 0.000000 0.000000 0.000000 0.094203
#
#
# Mechanical properties :
#
#
# Convention : Reuss Voigt Hill
#
# Bulk Modulus (GPa) = 40.49612 60.39155 50.44383
# Shear Modulus (GPa) = 15.79801 19.67143 17.73472
#
# Velocity S-wave (km/s) = 3.19847 3.56911 3.38886
# Velocity P-wave (km/s) = 6.31381 7.48947 6.92663
#
# Compressibility (1/GPa) = 0.02469372
#
# Stress axis : x y z
#
# Youngs Moduli (GPa) = 23.44314 47.99840 85.91711
#
# Poissons Ratio (x) = 0.64761 0.52310
# Poissons Ratio (y) = 0.31630 0.48433
# Poissons Ratio (z) = 0.14273 0.27058
#
# Static dielectric constant tensor:
#      x y z
#    x 2.866030 0.000000 0.000000 
#    y 0.000000 2.848630 0.000000 
#    z 0.000000 0.000000 3.220920 
# 
# 
# High freq. dielectric constant tensor:
#      x y z
#    x 1.585790 0.000000 0.000000 
#    y 0.000000 1.562000 0.000000 
#    z 0.000000 0.000000 1.596880 
# 
# From -- ./inp_files/17293.got.cif
#   From: 2010.03.12/outbox.cif.g09.slc.cpg/sg38_9_cif.got.tgz:17293.got - 2010.04.14 02:38:36.
