data_PCOD8177740
_publ_section_title
;
Structure prediction by ZEFSAII (Michael W. Deem and Ramdas Pophale) SiO2 
 PCOD8177740
Probable space group: A M M 2
;
_chemical_formula_sum "Si O2"
_cell_formula_units_Z 40
_cell_length_a 9.152958
_cell_length_b 11.764958
_cell_length_c 20.228625
_cell_angle_alpha 90.000000
_cell_angle_beta 90.000000
_cell_angle_gamma 90.000000
_cell_volume 2178.302621
_symmetry_space_group_name_H-M "A M M 2"
_symmetry_group_IT_number 38
_symmetry_cell_setting 'orthorhombic'
loop_
_space_group_symop_operation_xyz
x,y,z
-x,-y,z
-x,y,z
x,-y,z
x,1/2+y,1/2+z
-x,1/2-y,1/2+z
-x,1/2+y,1/2+z
x,1/2-y,1/2+z
loop_
_atom_site_type_symbol
_atom_site_label
_atom_site_fract_x
_atom_site_fract_y
_atom_site_fract_z
Si Si1 0.172679 0.372227 0.627610
Si Si2 0.174197 0.268536 0.253252
Si Si3 0.334683 0.500000 0.267236
Si Si4 0.829377 0.704050 0.486857
Si Si5 0.663231 0.000000 0.923053
Si Si6 0.171725 0.625896 0.878367
O O1 0.238911 0.500000 0.622895
O O2 0.229245 0.310541 0.693166
O O3 0.220685 0.298198 0.563427
O O4 0.000000 0.381455 0.630760
O O5 0.249442 0.389394 0.241987
O O6 0.231492 0.208266 0.320480
O O7 0.000000 0.285915 0.253694
O O8 0.500000 0.500000 0.238945
O O9 0.337620 0.500000 0.345190
O O10 0.745946 0.610200 0.446333
O O11 0.792462 0.823830 0.451291
O O12 0.000000 0.675802 0.481030
O O13 0.500000 0.000000 0.952129
O O14 0.242872 0.500000 0.873541
O O15 0.000000 0.614998 0.867819
#
# Coordination Sequence:
#
# PCOD8177740 Si02
#       6
#     8   8   4   8   4   8
#     4   9  17  30  52  82 110 132 166 218 266 307
#     4  10  19  33  55  79 103 137 176 214 260 317
#     4  11  23  37  53  75 107 140 175 226 268 304
#     4  10  18  32  55  80 106 136 170 215 268 316
#     4  11  21  33  53  79 105 134 175 224 264 306
#     4   9  17  29  49  78 107 133 167 211 259 312
#
# _framework density 18.362922000000001
#
# number of rings (size 3 to 8) (size 9 to 14) (size 15 to 20)
#    0.000    2.200    3.000    1.200    0.000    3.200 
#    1.800    1.000    0.000    3.600    0.000    0.000 
#    0.000    0.000    0.000    0.000    0.000    0.000 
#
# Total GULP energy -247919.153168 kJ/mol
# GULP energy per Si atom -12395.957658 kJ/mol
# Density = 1.832113 g / cm^3
# Si number density = 18.362922 Si / 1000 Ang^3
#
#
#
# Elastic Constant Matrix: (Units=GPa)
#
#
# Indices 1 2 3 4 5 6 
#
# 1 36.9059 29.9493 19.1176 0.0000 0.0000 0.0000
# 2 29.9493 148.8766 66.8043 0.0000 0.0000 0.0000
# 3 19.1176 66.8043 129.4381 0.0000 0.0000 0.0000
# 4 0.0000 0.0000 0.0000 42.6171 0.0000 0.0000
# 5 0.0000 0.0000 0.0000 0.0000 11.4885 0.0000
# 6 0.0000 0.0000 0.0000 0.0000 0.0000 -10.0240
#
#
#
# Elastic Compliance Matrix: (Units=1/GPa)
#
#
# Indices 1 2 3 4 5 6 
#
# 1 0.032726 -0.005745 -0.001868 0.000000 0.000000 0.000000
# 2 -0.005745 0.009750 -0.004184 0.000000 0.000000 0.000000
# 3 -0.001868 -0.004184 0.010161 0.000000 0.000000 0.000000
# 4 0.000000 0.000000 0.000000 0.023465 0.000000 0.000000
# 5 0.000000 0.000000 0.000000 0.000000 0.087044 0.000000
# 6 0.000000 0.000000 0.000000 0.000000 0.000000 -0.099761
#
#
# Mechanical properties :
#
#
# Convention : Reuss Voigt Hill
#
# Bulk Modulus (GPa) = 34.43205 60.77366 47.60285
# Shear Modulus (GPa) = 51.72826 22.10630 36.91728
#
# Velocity S-wave (km/s) = 5.31330 3.47343 4.48864
# Velocity P-wave (km/s) = 7.51219 7.01812 7.26935
#
# Compressibility (1/GPa) = 0.02904271
#
# Stress axis : x y z
#
# Youngs Moduli (GPa) = 30.55682 102.56498 98.41733
#
# Poissons Ratio (x) = 0.58924 0.18389
# Poissons Ratio (y) = 0.17555 0.41173
# Poissons Ratio (z) = 0.05709 0.42908
#
# Static dielectric constant tensor:
#      x y z
#    x 3.064200 0.000000 0.000000 
#    y 0.000000 3.416170 0.000000 
#    z 0.000000 0.000000 3.603640 
# 
# 
# High freq. dielectric constant tensor:
#      x y z
#    x 1.661990 0.000000 0.000000 
#    y 0.000000 1.716910 0.000000 
#    z 0.000000 0.000000 1.717670 
# 
# From -- ./inp_files/19487.got.cif
#   From: 2010.03.12/outbox.cif.g09.slc.cpg/sg38_10_cif.got.tgz:19487.got - 2010.04.14 02:38:36.
