data_PCOD8177179
_publ_section_title
;
Structure prediction by ZEFSAII (Michael W. Deem and Ramdas Pophale) SiO2 
 PCOD8177179
Probable space group: C C C 2
;
_chemical_formula_sum "Si O2"
_cell_formula_units_Z 28
_cell_length_a 20.868592
_cell_length_b 4.615279
_cell_length_c 11.086797
_cell_angle_alpha 90.000000
_cell_angle_beta 90.000000
_cell_angle_gamma 90.000000
_cell_volume 1067.817917
_symmetry_space_group_name_H-M "C C C 2"
_symmetry_group_IT_number 37
_symmetry_cell_setting 'orthorhombic'
loop_
_space_group_symop_operation_xyz
x,y,z
-x,-y,z
-x,y,1/2+z
x,-y,1/2+z
1/2+x,1/2+y,z
1/2-x,1/2-y,z
1/2-x,1/2+y,1/2+z
1/2+x,1/2-y,1/2+z
loop_
_atom_site_type_symbol
_atom_site_label
_atom_site_fract_x
_atom_site_fract_y
_atom_site_fract_z
Si Si1 0.845943 0.912955 0.977150
Si Si2 0.154057 0.587045 0.145601
Si Si3 0.043615 0.250000 0.811375
Si Si4 0.750000 0.250000 0.811375
O O1 0.791716 0.025266 0.888209
O O2 0.914309 0.923063 0.910554
O O3 0.839351 0.077919 0.105612
O O4 0.839351 0.577919 0.017138
O O5 0.085691 0.576937 0.212197
O O6 0.208284 0.474733 0.234542
O O7 0.000000 0.500000 0.872690
O O8 0.000000 0.000000 0.750061
#
# Coordination Sequence:
#
# PCOD8177179 Si02
#       4
#     8   8   8   4
#     4  12  27  47  76 109 146 195 242 300 370 433
#     4  12  27  47  76 109 146 195 242 300 370 433
#     4  12  27  49  74 107 151 194 248 304 356 434
#     4  12  26  50  76 112 154 186 244 308 364 444
#
# _framework density 26.221699000000001
#
# number of rings (size 3 to 8) (size 9 to 14) (size 15 to 20)
#    0.000    0.000    0.000   10.286    0.000   14.857 
#    0.000    0.000    0.000    0.000    0.000    0.000 
#    0.000    0.000    0.000    0.000    0.000    0.000 
#
# Total GULP energy -173541.739868 kJ/mol
# GULP energy per Si atom -12395.838562 kJ/mol
# Density = 2.616202 g / cm^3
# Si number density = 26.221699 Si / 1000 Ang^3
#
#
#
# Elastic Constant Matrix: (Units=GPa)
#
#
# Indices 1 2 3 4 5 6 
#
# 1 188.1995 82.0402 69.5565 0.0000 0.0000 0.0000
# 2 82.0402 128.0744 44.4343 0.0000 0.0000 0.0000
# 3 69.5565 44.4343 127.8037 0.0000 0.0000 0.0000
# 4 0.0000 0.0000 0.0000 31.1384 0.0000 0.0000
# 5 0.0000 0.0000 0.0000 0.0000 -89.9591 0.0000
# 6 0.0000 0.0000 0.0000 0.0000 0.0000 59.9000
#
#
#
# Elastic Compliance Matrix: (Units=1/GPa)
#
#
# Indices 1 2 3 4 5 6 
#
# 1 0.008290 -0.004259 -0.003031 0.000000 0.000000 0.000000
# 2 -0.004259 0.011067 -0.001530 0.000000 0.000000 0.000000
# 3 -0.003031 -0.001530 0.010006 0.000000 0.000000 0.000000
# 4 0.000000 0.000000 0.000000 0.032115 0.000000 0.000000
# 5 0.000000 0.000000 0.000000 0.000000 -0.011116 0.000000
# 6 0.000000 0.000000 0.000000 0.000000 0.000000 0.016694
#
#
# Mechanical properties :
#
#
# Convention : Reuss Voigt Hill
#
# Bulk Modulus (GPa) = 85.29940 92.90441 89.10191
# Shear Modulus (GPa) = 56.43085 16.75230 36.59157
#
# Velocity S-wave (km/s) = 4.64407 2.53033 3.73965
# Velocity P-wave (km/s) = 7.83308 6.63657 7.25952
#
# Compressibility (1/GPa) = 0.01172341
#
# Stress axis : x y z
#
# Youngs Moduli (GPa) = 120.62189 90.36043 99.93865
#
# Poissons Ratio (x) = 0.38483 0.30294
# Poissons Ratio (y) = 0.51371 0.15289
# Poissons Ratio (z) = 0.36564 0.13823
#
# Static dielectric constant tensor:
#      x y z
#    x 4.857670 0.000000 0.000000 
#    y 0.000000 5.739930 0.000000 
#    z 0.000000 0.000000 4.586720 
# 
# 
# High freq. dielectric constant tensor:
#      x y z
#    x 2.061700 0.000000 0.000000 
#    y 0.000000 2.081990 0.000000 
#    z 0.000000 0.000000 2.044680 
# 
# From -- ./inp_files/8436.got.cif
#   From: 2010.03.12/outbox.cif.g09.slc.cpg/sg37_5_cif.got.tgz:8436.got - 2010.04.14 02:25:27.
