data_PCOD8177457
_publ_section_title
;
Structure prediction by ZEFSAII (Michael W. Deem and Ramdas Pophale) SiO2 
 PCOD8177457
Probable space group: A M M 2
;
_chemical_formula_sum "Si O2"
_cell_formula_units_Z 64
_cell_length_a 9.009068
_cell_length_b 23.486044
_cell_length_c 19.217859
_cell_angle_alpha 90.000000
_cell_angle_beta 90.000000
_cell_angle_gamma 90.000000
_cell_volume 4066.256194
_symmetry_space_group_name_H-M "A M M 2"
_symmetry_group_IT_number 38
_symmetry_cell_setting 'orthorhombic'
loop_
_space_group_symop_operation_xyz
x,y,z
-x,-y,z
-x,y,z
x,-y,z
x,1/2+y,1/2+z
-x,1/2-y,1/2+z
-x,1/2+y,1/2+z
x,1/2-y,1/2+z
loop_
_atom_site_type_symbol
_atom_site_label
_atom_site_fract_x
_atom_site_fract_y
_atom_site_fract_z
Si Si1 0.327762 0.778540 0.964070
Si Si2 0.176320 0.383027 0.108216
Si Si3 0.325217 0.935561 0.476616
Si Si4 0.175582 0.563128 0.251588
Si Si5 0.673997 0.165547 0.386014
Si Si6 0.174833 0.663864 0.345696
Si Si7 0.326359 0.737109 0.762698
Si Si8 0.672052 0.262803 0.109915
O O1 0.500000 0.788284 0.948235
O O2 0.274344 0.717212 0.935550
O O3 0.239028 0.827889 0.923463
O O4 0.292824 0.780437 0.046440
O O5 0.236188 0.408560 0.180811
O O6 0.229223 0.318404 0.101665
O O7 0.000000 0.384231 0.103220
O O8 0.242694 0.422165 0.048049
O O9 0.500000 0.926348 0.488805
O O10 0.260722 0.893813 0.415689
O O11 0.289715 0.000000 0.453591
O O12 0.244242 0.500000 0.261224
O O13 0.220957 0.601407 0.318029
O O14 0.000000 0.559233 0.245795
O O15 0.500000 0.158921 0.389477
O O16 0.722936 0.180520 0.306383
O O17 0.238825 0.708853 0.291020
O O18 0.000000 0.671861 0.347896
O O19 0.500000 0.748899 0.775517
O O20 0.290542 0.729086 0.681167
O O21 0.500000 0.281709 0.107176
#
# Coordination Sequence:
#
# PCOD8177457 Si02
#       8
#     8   8   8   8   8   8   8   8
#     4   9  17  30  46  62  87 117 146 185 228 270
#     4  11  20  30  44  64  93 123 151 187 222 262
#     4  10  19  31  46  63  88 123 159 189 215 257
#     4   9  18  31  44  60  88 124 153 180 221 265
#     4   8  14  27  43  62  85 111 143 181 221 258
#     4  10  18  29  45  66  89 114 149 189 222 262
#     4   9  17  29  47  65  87 117 148 182 223 270
#     4  10  18  30  48  67  89 121 155 184 220 271
#
# _framework density 15.739293999999999
#
# number of rings (size 3 to 8) (size 9 to 14) (size 15 to 20)
#    0.000    2.500    2.500    1.875    0.000    1.250 
#    0.000    0.000    0.000    3.750    0.000    0.875 
#    0.000    3.000    0.000    0.000    0.000    0.000 
#
# Total GULP energy -396603.336481 kJ/mol
# GULP energy per Si atom -12393.854265 kJ/mol
# Density = 1.570347 g / cm^3
# Si number density = 15.739294 Si / 1000 Ang^3
#
#
#
# Elastic Constant Matrix: (Units=GPa)
#
#
# Indices 1 2 3 4 5 6 
#
# 1 40.4445 28.9276 32.1895 0.0000 0.0000 0.0000
# 2 28.9276 89.9903 62.9565 0.0000 0.0000 0.0000
# 3 32.1895 62.9565 133.2308 0.0000 0.0000 0.0000
# 4 0.0000 0.0000 0.0000 24.8570 0.0000 0.0000
# 5 0.0000 0.0000 0.0000 0.0000 18.7659 0.0000
# 6 0.0000 0.0000 0.0000 0.0000 0.0000 15.4154
#
#
#
# Elastic Compliance Matrix: (Units=1/GPa)
#
#
# Indices 1 2 3 4 5 6 
#
# 1 0.033848 -0.007707 -0.004536 0.000000 0.000000 0.000000
# 2 -0.007707 0.018355 -0.006811 0.000000 0.000000 0.000000
# 3 -0.004536 -0.006811 0.011820 0.000000 0.000000 0.000000
# 4 0.000000 0.000000 0.000000 0.040230 0.000000 0.000000
# 5 0.000000 0.000000 0.000000 0.000000 0.053288 0.000000
# 6 0.000000 0.000000 0.000000 0.000000 0.000000 0.064870
#
#
# Mechanical properties :
#
#
# Convention : Reuss Voigt Hill
#
# Bulk Modulus (GPa) = 38.58879 56.86810 47.72844
# Shear Modulus (GPa) = 18.57644 21.11380 19.84512
#
# Velocity S-wave (km/s) = 3.43922 3.66658 3.55472
# Velocity P-wave (km/s) = 6.35151 7.35764 6.87301
#
# Compressibility (1/GPa) = 0.02591426
#
# Stress axis : x y z
#
# Youngs Moduli (GPa) = 29.54396 54.48139 84.60039
#
# Poissons Ratio (x) = 0.41990 0.38375
# Poissons Ratio (y) = 0.22770 0.57624
# Poissons Ratio (z) = 0.13401 0.37109
#
# Static dielectric constant tensor:
#      x y z
#    x 2.836570 0.000000 0.000000 
#    y 0.000000 3.088640 0.000000 
#    z 0.000000 0.000000 3.289770 
# 
# 
# High freq. dielectric constant tensor:
#      x y z
#    x 1.587260 0.000000 0.000000 
#    y 0.000000 1.577730 0.000000 
#    z 0.000000 0.000000 1.605550 
# 
# From -- ./inp_files/20239.got.cif
#   From: 2010.03.12/outbox.cif.g09.slc.cpg/sg38_11_cif.got.tgz:20239.got - 2010.04.14 02:38:36.
