data_PCOD8177356
_publ_section_title
;
Structure prediction by ZEFSAII (Michael W. Deem and Ramdas Pophale) SiO2 
 PCOD8177356
Probable space group: A M M 2
;
_chemical_formula_sum "Si O2"
_cell_formula_units_Z 64
_cell_length_a 9.115612
_cell_length_b 18.412346
_cell_length_c 26.472751
_cell_angle_alpha 90.000000
_cell_angle_beta 90.000000
_cell_angle_gamma 90.000000
_cell_volume 4443.181290
_symmetry_space_group_name_H-M "A M M 2"
_symmetry_group_IT_number 38
_symmetry_cell_setting 'orthorhombic'
loop_
_space_group_symop_operation_xyz
x,y,z
-x,-y,z
-x,y,z
x,-y,z
x,1/2+y,1/2+z
-x,1/2-y,1/2+z
-x,1/2+y,1/2+z
x,1/2-y,1/2+z
loop_
_atom_site_type_symbol
_atom_site_label
_atom_site_fract_x
_atom_site_fract_y
_atom_site_fract_z
Si Si1 0.828039 0.918024 0.937490
Si Si2 0.676070 0.081030 0.121674
Si Si3 0.338606 0.302227 0.080377
Si Si4 0.675633 0.652181 0.231346
Si Si5 0.169281 0.083574 0.638169
Si Si6 0.673442 0.835536 0.023526
Si Si7 0.167620 0.915698 0.821985
Si Si8 0.339754 0.209647 0.181301
O O1 0.791348 0.898570 0.879640
O O2 0.000000 0.912796 0.947318
O O3 0.773423 0.000000 0.949544
O O4 0.746771 0.859039 0.971397
O O5 0.500000 0.083642 0.123197
O O6 0.730427 0.110236 0.067485
O O7 0.739755 0.133094 0.167092
O O8 0.737044 0.000000 0.130084
O O9 0.500000 0.333811 0.066687
O O10 0.228137 0.368586 0.091046
O O11 0.281829 0.248283 0.035841
O O12 0.354978 0.252750 0.129290
O O13 0.500000 0.649185 0.226275
O O14 0.743050 0.598068 0.189871
O O15 0.724432 0.630696 0.287136
O O16 0.736437 0.734915 0.220919
O O17 0.000000 0.103015 0.647611
O O18 0.190132 0.000000 0.622991
O O19 0.500000 0.841826 0.017762
O O20 0.000000 0.893888 0.810521
O O21 0.191580 0.000000 0.809979
O O22 0.500000 0.190774 0.203111
#
# Coordination Sequence:
#
# PCOD8177356 Si02
#       8
#     8   8   8   8   8   8   8   8
#     4   9  18  30  41  55  78 106 132 161 199 237
#     4   8  12  19  34  55  77 101 126 150 179 217
#     4   8  15  27  40  55  77 103 129 159 194 230
#     4  10  18  27  40  56  76 103 132 163 200 237
#     4  10  19  28  39  57  80 105 133 163 193 229
#     4   9  16  26  41  60  80 102 131 165 195 224
#     4   9  18  31  42  53  74 102 132 167 200 230
#     4   7  12  22  33  49  74  98 121 152 186 220
#
# _framework density 14.404094000000001
#
# number of rings (size 3 to 8) (size 9 to 14) (size 15 to 20)
#    0.000    3.250    0.000    4.500    0.000    4.500 
#    0.000    1.250    0.000    0.000    0.000    0.000 
#    0.000    1.000    0.000    9.000    0.000    4.250 
#
# Total GULP energy -396438.104863 kJ/mol
# GULP energy per Si atom -12388.690777 kJ/mol
# Density = 1.437131 g / cm^3
# Si number density = 14.404094 Si / 1000 Ang^3
#
#
#
# Elastic Constant Matrix: (Units=GPa)
#
#
# Indices 1 2 3 4 5 6 
#
# 1 49.7926 39.1490 33.9639 0.0000 0.0000 0.0000
# 2 39.1490 99.0198 53.4758 0.0000 0.0000 0.0000
# 3 33.9639 53.4758 78.0149 0.0000 0.0000 0.0000
# 4 0.0000 0.0000 0.0000 26.6388 0.0000 0.0000
# 5 0.0000 0.0000 0.0000 0.0000 21.9623 0.0000
# 6 0.0000 0.0000 0.0000 0.0000 0.0000 16.5336
#
#
#
# Elastic Compliance Matrix: (Units=1/GPa)
#
#
# Indices 1 2 3 4 5 6 
#
# 1 0.032291 -0.008216 -0.008426 0.000000 0.000000 0.000000
# 2 -0.008216 0.018125 -0.008847 0.000000 0.000000 0.000000
# 3 -0.008426 -0.008847 0.022551 0.000000 0.000000 0.000000
# 4 0.000000 0.000000 0.000000 0.037539 0.000000 0.000000
# 5 0.000000 0.000000 0.000000 0.000000 0.045533 0.000000
# 6 0.000000 0.000000 0.000000 0.000000 0.000000 0.060483
#
#
# Mechanical properties :
#
#
# Convention : Reuss Voigt Hill
#
# Bulk Modulus (GPa) = 45.47933 53.33386 49.40659
# Shear Modulus (GPa) = 18.19311 19.70951 18.95131
#
# Velocity S-wave (km/s) = 3.55780 3.70310 3.63118
# Velocity P-wave (km/s) = 6.96561 7.44253 7.20801
#
# Compressibility (1/GPa) = 0.02198801
#
# Stress axis : x y z
#
# Youngs Moduli (GPa) = 30.96876 55.17139 44.34455
#
# Poissons Ratio (x) = 0.45330 0.37364
# Poissons Ratio (y) = 0.25444 0.39233
# Poissons Ratio (z) = 0.26094 0.48811
#
# Static dielectric constant tensor:
#      x y z
#    x 2.651280 0.000000 0.000000 
#    y 0.000000 3.045560 0.000000 
#    z 0.000000 0.000000 2.682310 
# 
# 
# High freq. dielectric constant tensor:
#      x y z
#    x 1.533350 0.000000 0.000000 
#    y 0.000000 1.543320 0.000000 
#    z 0.000000 0.000000 1.519570 
# 
# From -- ./inp_files/23641.got.cif
#   From: 2010.03.12/outbox.cif.g09.slc.cpg/sg38_12_cif.got.tgz:23641.got - 2010.04.14 02:38:36.
