data_PCOD8177595
_publ_section_title
;
Structure prediction by ZEFSAII (Michael W. Deem and Ramdas Pophale) SiO2 
 PCOD8177595
Probable space group: A M M 2
;
_chemical_formula_sum "Si O2"
_cell_formula_units_Z 64
_cell_length_a 14.674405
_cell_length_b 8.830676
_cell_length_c 24.757783
_cell_angle_alpha 90.000000
_cell_angle_beta 90.000000
_cell_angle_gamma 90.000000
_cell_volume 3208.235232
_symmetry_space_group_name_H-M "A M M 2"
_symmetry_group_IT_number 38
_symmetry_cell_setting 'orthorhombic'
loop_
_space_group_symop_operation_xyz
x,y,z
-x,-y,z
-x,y,z
x,-y,z
x,1/2+y,1/2+z
-x,1/2-y,1/2+z
-x,1/2+y,1/2+z
x,1/2-y,1/2+z
loop_
_atom_site_type_symbol
_atom_site_label
_atom_site_fract_x
_atom_site_fract_y
_atom_site_fract_z
Si Si1 0.396256 0.820409 0.516540
Si Si2 0.100050 0.325115 0.646221
Si Si3 0.154133 0.675302 0.765562
Si Si4 0.900143 0.173625 0.871242
Si Si5 0.334897 0.323295 0.236091
Si Si6 0.283967 0.679044 0.118687
Si Si7 0.399479 0.829582 0.332211
Si Si8 0.713375 0.675654 0.420276
O O1 0.500000 0.755655 0.513181
O O2 0.346232 0.757442 0.570217
O O3 0.334517 0.772578 0.466444
O O4 0.400482 0.000000 0.517812
O O5 0.116545 0.500000 0.633377
O O6 0.098591 0.296359 0.710591
O O7 0.179981 0.236925 0.615053
O O8 0.000000 0.273426 0.624795
O O9 0.183834 0.500000 0.769925
O O10 0.096935 0.721471 0.818085
O O11 0.240307 0.785783 0.765436
O O12 0.820563 0.219321 0.913871
O O13 0.000000 0.192394 0.899103
O O14 0.883768 0.000000 0.853348
O O15 0.357569 0.500000 0.238849
O O16 0.331551 0.265837 0.174182
O O17 0.408904 0.228856 0.270233
O O18 0.278540 0.500000 0.117092
O O19 0.500000 0.827497 0.358273
O O20 0.334636 0.715206 0.363982
O O21 0.359739 0.000000 0.334314
O O22 0.700143 0.500000 0.433895
#
# Coordination Sequence:
#
# PCOD8177595 Si02
#       8
#     8   8   8   8   8   8   8   8
#     4  10  22  42  65  85 108 143 188 240 295 347
#     4   9  18  32  51  80 118 156 192 230 277 332
#     4  10  18  30  51  79 114 154 194 232 274 331
#     4  10  21  36  54  79 113 151 189 231 282 338
#     4  10  19  33  54  82 116 152 188 230 283 340
#     4   9  20  37  58  84 113 146 190 238 287 339
#     4  11  23  37  55  82 116 153 188 228 285 346
#     4  11  23  39  60  85 114 147 188 238 286 338
#
# _framework density 19.948661999999999
#
# number of rings (size 3 to 8) (size 9 to 14) (size 15 to 20)
#    0.000    2.000    1.250    2.250    0.000    6.250 
#    0.000    1.875    0.000    2.250    0.000    0.000 
#    0.000    0.000    0.000    0.000    0.000    0.000 
#
# Total GULP energy -396659.237514 kJ/mol
# GULP energy per Si atom -12395.601172 kJ/mol
# Density = 1.990326 g / cm^3
# Si number density = 19.948662 Si / 1000 Ang^3
#
#
#
# Elastic Constant Matrix: (Units=GPa)
#
#
# Indices 1 2 3 4 5 6 
#
# 1 140.5371 22.2806 58.4718 0.0000 0.0000 0.0000
# 2 22.2806 33.7289 16.5691 0.0000 0.0000 0.0000
# 3 58.4718 16.5691 98.7112 0.0000 0.0000 0.0000
# 4 0.0000 0.0000 0.0000 27.6033 0.0000 0.0000
# 5 0.0000 0.0000 0.0000 0.0000 25.4039 0.0000
# 6 0.0000 0.0000 0.0000 0.0000 0.0000 26.4127
#
#
#
# Elastic Compliance Matrix: (Units=1/GPa)
#
#
# Indices 1 2 3 4 5 6 
#
# 1 0.009913 -0.003993 -0.005202 0.000000 0.000000 0.000000
# 2 -0.003993 0.033921 -0.003329 0.000000 0.000000 0.000000
# 3 -0.005202 -0.003329 0.013770 0.000000 0.000000 0.000000
# 4 0.000000 0.000000 0.000000 0.036228 0.000000 0.000000
# 5 0.000000 0.000000 0.000000 0.000000 0.039364 0.000000
# 6 0.000000 0.000000 0.000000 0.000000 0.000000 0.037861
#
#
# Mechanical properties :
#
#
# Convention : Reuss Voigt Hill
#
# Bulk Modulus (GPa) = 30.71442 51.95780 41.33611
# Shear Modulus (GPa) = 24.15981 27.59437 25.87709
#
# Velocity S-wave (km/s) = 3.48386 3.72327 3.60555
# Velocity P-wave (km/s) = 5.62256 6.67727 6.17248
#
# Compressibility (1/GPa) = 0.03255800
#
# Stress axis : x y z
#
# Youngs Moduli (GPa) = 100.87998 29.48028 72.61920
#
# Poissons Ratio (x) = 0.11771 0.37774
# Poissons Ratio (y) = 0.40280 0.24172
# Poissons Ratio (z) = 0.52474 0.09813
#
# Static dielectric constant tensor:
#      x y z
#    x 3.832400 0.000000 0.000000 
#    y 0.000000 3.488410 0.000000 
#    z 0.000000 0.000000 3.599220 
# 
# 
# High freq. dielectric constant tensor:
#      x y z
#    x 1.786460 0.000000 0.000000 
#    y 0.000000 1.770100 0.000000 
#    z 0.000000 0.000000 1.756950 
# 
# From -- ./inp_files/22986.got.cif
#   From: 2010.03.12/outbox.cif.g09.slc.cpg/sg38_12_cif.got.tgz:22986.got - 2010.04.14 02:38:36.
