data_PCOD8177127
_publ_section_title
;
Structure prediction by ZEFSAII (Michael W. Deem and Ramdas Pophale) SiO2 
 PCOD8177127
Probable space group: C C C 2
;
_chemical_formula_sum "Si O2"
_cell_formula_units_Z 36
_cell_length_a 13.567637
_cell_length_b 5.350329
_cell_length_c 22.384024
_cell_angle_alpha 90.000000
_cell_angle_beta 90.000000
_cell_angle_gamma 90.000000
_cell_volume 1624.885887
_symmetry_space_group_name_H-M "C C C 2"
_symmetry_group_IT_number 37
_symmetry_cell_setting 'orthorhombic'
loop_
_space_group_symop_operation_xyz
x,y,z
-x,-y,z
-x,y,1/2+z
x,-y,1/2+z
1/2+x,1/2+y,z
1/2-x,1/2-y,z
1/2-x,1/2+y,1/2+z
1/2+x,1/2-y,1/2+z
loop_
_atom_site_type_symbol
_atom_site_label
_atom_site_fract_x
_atom_site_fract_y
_atom_site_fract_z
Si Si1 0.250000 0.250000 0.653360
Si Si2 0.064978 0.748376 0.067304
Si Si3 0.104080 0.875156 0.940709
Si Si4 0.396247 0.920061 0.821305
Si Si5 0.750000 0.750000 0.230615
Si Si6 0.250000 0.750000 0.383906
O O1 0.150605 0.246516 0.615772
O O2 0.248451 0.499980 0.692412
O O3 0.000000 0.500000 0.076824
O O4 0.120734 0.729689 0.002981
O O5 0.000000 0.000000 0.074718
O O6 0.086683 0.698548 0.885428
O O7 0.199325 0.048278 0.927722
O O8 0.000000 0.000000 0.951653
O O9 0.345550 0.736964 0.773771
O O10 0.500000 0.000000 0.792946
O O11 0.329692 0.157072 0.836277
#
# Coordination Sequence:
#
# PCOD8177127 Si02
#       6
#     4   8   8   8   4   4
#     4  12  29  51  76 103 140 199 258 302 356 422
#     4  11  27  49  76 108 147 188 242 306 370 434
#     4  11  24  41  73 109 147 186 235 291 378 444
#     4  12  25  44  70 105 151 186 236 298 369 433
#     4  12  28  48  74 107 141 198 258 296 358 432
#     4  12  23  41  68 108 151 189 228 288 358 450
#
# _framework density 22.155401000000001
#
# number of rings (size 3 to 8) (size 9 to 14) (size 15 to 20)
#    0.000    0.444    4.444    2.667    6.222    3.556 
#    0.000    2.222    0.000    0.000    0.000    0.000 
#    0.000    0.000    0.000    0.000    0.000    0.000 
#
# Total GULP energy -223132.085821 kJ/mol
# GULP energy per Si atom -12396.226990 kJ/mol
# Density = 2.210497 g / cm^3
# Si number density = 22.155401 Si / 1000 Ang^3
#
#
#
# Elastic Constant Matrix: (Units=GPa)
#
#
# Indices 1 2 3 4 5 6 
#
# 1 152.6220 43.2163 56.6189 0.0000 0.0000 0.0000
# 2 43.2163 128.3032 51.5750 0.0000 0.0000 0.0000
# 3 56.6189 51.5750 147.9639 0.0000 0.0000 0.0000
# 4 0.0000 0.0000 0.0000 44.3888 0.0000 0.0000
# 5 0.0000 0.0000 0.0000 0.0000********** 0.0000
# 6 0.0000 0.0000 0.0000 0.0000 0.0000 35.4384
#
#
#
# Elastic Compliance Matrix: (Units=1/GPa)
#
#
# Indices 1 2 3 4 5 6 
#
# 1 0.007939 -0.001690 -0.002449 0.000000 0.000000 0.000000
# 2 -0.001690 0.009424 -0.002638 0.000000 0.000000 0.000000
# 3 -0.002449 -0.002638 0.008615 0.000000 0.000000 0.000000
# 4 0.000000 0.000000 0.000000 0.022528 0.000000 0.000000
# 5 0.000000 0.000000 0.000000 0.000000 -0.000014 0.000000
# 6 0.000000 0.000000 0.000000 0.000000 0.000000 0.028218
#
#
# Mechanical properties :
#
#
# Convention : Reuss Voigt Hill
#
# Bulk Modulus (GPa) = 80.48828 81.30105 80.89467
# Shear Modulus (GPa) = 52.96339 -14008.64785 -6977.84223
#
# Velocity S-wave (km/s) = 4.89462 -79.60296 -56.18128
# Velocity P-wave (km/s) = 8.26746 91.71731 64.58992
#
# Compressibility (1/GPa) = 0.01242417
#
# Stress axis : x y z
#
# Youngs Moduli (GPa) = 125.95902 106.11582 116.07545
#
# Poissons Ratio (x) = 0.17930 0.28426
# Poissons Ratio (y) = 0.21283 0.30623
# Poissons Ratio (z) = 0.30847 0.27995
#
# Static dielectric constant tensor:
#      x y z
#    x 15.154550 0.000000 0.000000 
#    y 0.000000 4.065420 0.000000 
#    z 0.000000 0.000000 4.397300 
# 
# 
# High freq. dielectric constant tensor:
#      x y z
#    x 1.892240 0.000000 0.000000 
#    y 0.000000 1.875930 0.000000 
#    z 0.000000 0.000000 1.880890 
# 
# From -- ./inp_files/15634.got.cif
#   From: 2010.03.12/outbox.cif.g09.slc.cpg/sg37_8_cif.got.tgz:15634.got - 2010.04.14 02:25:27.
