data_PCOD8177266
_publ_section_title
;
Structure prediction by ZEFSAII (Michael W. Deem and Ramdas Pophale) SiO2 
 PCOD8177266
Probable space group: A M M 2
;
_chemical_formula_sum "Si O2"
_cell_formula_units_Z 56
_cell_length_a 14.386489
_cell_length_b 9.179731
_cell_length_c 26.003498
_cell_angle_alpha 90.000000
_cell_angle_beta 90.000000
_cell_angle_gamma 90.000000
_cell_volume 3434.128536
_symmetry_space_group_name_H-M "A M M 2"
_symmetry_group_IT_number 38
_symmetry_cell_setting 'orthorhombic'
loop_
_space_group_symop_operation_xyz
x,y,z
-x,-y,z
-x,y,z
x,-y,z
x,1/2+y,1/2+z
-x,1/2-y,1/2+z
-x,1/2+y,1/2+z
x,1/2-y,1/2+z
loop_
_atom_site_type_symbol
_atom_site_label
_atom_site_fract_x
_atom_site_fract_y
_atom_site_fract_z
Si Si1 0.608153 0.830846 0.737030
Si Si2 0.722502 0.172359 0.636857
Si Si3 0.604225 0.673205 0.042298
Si Si4 0.395929 0.327058 0.928892
Si Si5 0.895012 0.831093 0.172180
Si Si6 0.706753 0.173678 0.329225
Si Si7 0.100629 0.827128 0.288658
O O1 0.500000 0.800627 0.726747
O O2 0.664079 0.778857 0.686722
O O3 0.641069 0.737996 0.785464
O O4 0.626828 0.000000 0.748597
O O5 0.671801 0.235772 0.586119
O O6 0.825084 0.240324 0.636867
O O7 0.731714 0.000000 0.634175
O O8 0.500000 0.732038 0.052096
O O9 0.602846 0.500000 0.045274
O O10 0.638563 0.724240 0.985463
O O11 0.500000 0.267545 0.918513
O O12 0.397795 0.500000 0.927017
O O13 0.327487 0.267555 0.884616
O O14 0.884811 0.772714 0.230437
O O15 0.000000 0.805170 0.152351
O O16 0.868112 0.000000 0.168961
O O17 0.813350 0.229349 0.322956
O O18 0.700697 0.000000 0.325061
O O19 0.000000 0.769158 0.309465
O O20 0.097983 0.000000 0.288269
#
# Coordination Sequence:
#
# PCOD8177266 Si02
#       7
#     8   8   8   8   8   8   8
#     4  10  20  30  39  59  92 121 141 168 215 270
#     4  10  18  28  45  66  87 114 149 183 213 250
#     4   8  14  26  43  62  87 119 150 179 213 254
#     4   8  14  24  40  64  88 110 144 185 217 249
#     4   9  17  30  46  63  87 118 147 175 216 267
#     4  10  17  27  46  67  86 111 146 184 216 254
#     4   8  14  25  41  61  85 112 140 171 210 257
#
# _framework density 16.306902999999998
#
# number of rings (size 3 to 8) (size 9 to 14) (size 15 to 20)
#    0.000    3.000    1.429    2.571    0.000    2.857 
#    0.000    0.000    0.000    3.429    0.000    6.000 
#    0.000    0.000    0.000    0.000    0.000    0.000 
#
# Total GULP energy -347018.424389 kJ/mol
# GULP energy per Si atom -12393.515157 kJ/mol
# Density = 1.626979 g / cm^3
# Si number density = 16.306903 Si / 1000 Ang^3
#
#
#
# Elastic Constant Matrix: (Units=GPa)
#
#
# Indices 1 2 3 4 5 6 
#
# 1 125.4583 22.1213 73.3369 0.0000 0.0000 0.0000
# 2 22.1213 16.1757 21.1857 0.0000 0.0000 0.0000
# 3 73.3369 21.1857 127.7536 0.0000 0.0000 0.0000
# 4 0.0000 0.0000 0.0000 14.6376 0.0000 0.0000
# 5 0.0000 0.0000 0.0000 0.0000 24.7496 0.0000
# 6 0.0000 0.0000 0.0000 0.0000 0.0000 21.2070
#
#
#
# Elastic Compliance Matrix: (Units=1/GPa)
#
#
# Indices 1 2 3 4 5 6 
#
# 1 0.013241 -0.010414 -0.005874 0.000000 0.000000 0.000000
# 2 -0.010414 0.087166 -0.008477 0.000000 0.000000 0.000000
# 3 -0.005874 -0.008477 0.012605 0.000000 0.000000 0.000000
# 4 0.000000 0.000000 0.000000 0.068317 0.000000 0.000000
# 5 0.000000 0.000000 0.000000 0.000000 0.040405 0.000000
# 6 0.000000 0.000000 0.000000 0.000000 0.000000 0.047154
#
#
# Mechanical properties :
#
#
# Convention : Reuss Voigt Hill
#
# Bulk Modulus (GPa) = 15.75250 55.85283 35.80266
# Shear Modulus (GPa) = 14.72418 22.30174 18.51296
#
# Velocity S-wave (km/s) = 3.00816 3.70215 3.37305
# Velocity P-wave (km/s) = 4.66330 7.25258 6.09698
#
# Compressibility (1/GPa) = 0.06348200
#
# Stress axis : x y z
#
# Youngs Moduli (GPa) = 75.52546 11.47240 79.33335
#
# Poissons Ratio (x) = 0.11948 0.46598
# Poissons Ratio (y) = 0.78656 0.67247
# Poissons Ratio (z) = 0.44361 0.09725
#
# Static dielectric constant tensor:
#      x y z
#    x 3.382480 0.000000 0.000000 
#    y 0.000000 2.629820 0.000000 
#    z 0.000000 0.000000 3.242120 
# 
# 
# High freq. dielectric constant tensor:
#      x y z
#    x 1.633130 0.000000 0.000000 
#    y 0.000000 1.581250 0.000000 
#    z 0.000000 0.000000 1.615530 
# 
# From -- ./inp_files/24988.got.cif
#   From: 2010.03.12/outbox.cif.g09.slc.cpg/sg38_13_cif.got.tgz:24988.got - 2010.04.14 02:38:36.
