data_PCOD8177965
_publ_section_title
;
Structure prediction by ZEFSAII (Michael W. Deem and Ramdas Pophale) SiO2 
 PCOD8177965
Probable space group: A M M 2
;
_chemical_formula_sum "Si O2"
_cell_formula_units_Z 64
_cell_length_a 14.168708
_cell_length_b 9.723000
_cell_length_c 30.658819
_cell_angle_alpha 90.000000
_cell_angle_beta 90.000000
_cell_angle_gamma 90.000000
_cell_volume 4223.630889
_symmetry_space_group_name_H-M "A M M 2"
_symmetry_group_IT_number 38
_symmetry_cell_setting 'orthorhombic'
loop_
_space_group_symop_operation_xyz
x,y,z
-x,-y,z
-x,y,z
x,-y,z
x,1/2+y,1/2+z
-x,1/2-y,1/2+z
-x,1/2+y,1/2+z
x,1/2-y,1/2+z
loop_
_atom_site_type_symbol
_atom_site_label
_atom_site_fract_x
_atom_site_fract_y
_atom_site_fract_z
Si Si1 0.793007 0.842030 0.942010
Si Si2 0.604878 0.157151 0.567344
Si Si3 0.797511 0.159378 0.606625
Si Si4 0.891506 0.161166 0.371013
Si Si5 0.605078 0.343339 0.485343
Si Si6 0.112083 0.152022 0.273508
Si Si7 0.109881 0.659109 0.196019
Si Si8 0.110564 0.658114 0.532381
O O1 0.826344 0.746247 0.903212
O O2 0.680364 0.818686 0.946920
O O3 0.817240 0.000000 0.930680
O O4 0.843114 0.797633 0.986807
O O5 0.500000 0.193704 0.585701
O O6 0.684172 0.182368 0.604256
O O7 0.631104 0.249311 0.526151
O O8 0.607922 0.000000 0.551266
O O9 0.831811 0.208591 0.653976
O O10 0.850324 0.246986 0.570422
O O11 0.824600 0.000000 0.599235
O O12 0.856456 0.196829 0.322042
O O13 0.000000 0.205565 0.377740
O O14 0.879452 0.000000 0.380464
O O15 0.500000 0.310089 0.467429
O O16 0.612236 0.500000 0.502089
O O17 0.150271 0.258119 0.237521
O O18 0.000000 0.148077 0.272895
O O19 0.151663 0.000000 0.262551
O O20 0.126874 0.500000 0.206259
O O21 0.000000 0.690837 0.187394
O O22 0.135111 0.500000 0.543390
O O23 0.000000 0.682224 0.528018
#
# Coordination Sequence:
#
# PCOD8177965 Si02
#       8
#     8   8   8   8   8   8   8   8
#     4  10  19  30  44  64  89 116 147 181 217 257
#     4   9  17  29  45  64  85 111 145 185 224 257
#     4  10  19  30  44  63  88 117 148 181 216 257
#     4   9  18  31  46  65  89 116 147 181 216 258
#     4   9  17  30  47  64  84 112 145 183 223 258
#     4   8  15  29  46  63  84 110 141 178 217 255
#     4   9  17  28  42  62  87 113 143 178 214 255
#     4  10  20  31  41  58  88 121 151 180 208 247
#
# _framework density 15.152839
#
# number of rings (size 3 to 8) (size 9 to 14) (size 15 to 20)
#    0.000    2.750    1.250    1.500    0.000    3.500 
#    0.000    2.500    0.000    0.000    0.000    0.875 
#    0.000    5.000    0.000    0.000    0.000    0.000 
#
# Total GULP energy -396708.622755 kJ/mol
# GULP energy per Si atom -12397.144461 kJ/mol
# Density = 1.511835 g / cm^3
# Si number density = 15.152839 Si / 1000 Ang^3
#
#
#
# Elastic Constant Matrix: (Units=GPa)
#
#
# Indices 1 2 3 4 5 6 
#
# 1 78.1106 37.9819 54.2890 0.0000 0.0000 0.0000
# 2 37.9819 63.9973 65.2988 0.0000 0.0000 0.0000
# 3 54.2890 65.2988 124.2619 0.0000 0.0000 0.0000
# 4 0.0000 0.0000 0.0000 29.9070 0.0000 0.0000
# 5 0.0000 0.0000 0.0000 0.0000 9.4437 0.0000
# 6 0.0000 0.0000 0.0000 0.0000 0.0000 19.0496
#
#
#
# Elastic Compliance Matrix: (Units=1/GPa)
#
#
# Indices 1 2 3 4 5 6 
#
# 1 0.019462 -0.006198 -0.005246 0.000000 0.000000 0.000000
# 2 -0.006198 0.035663 -0.016033 0.000000 0.000000 0.000000
# 3 -0.005246 -0.016033 0.018764 0.000000 0.000000 0.000000
# 4 0.000000 0.000000 0.000000 0.033437 0.000000 0.000000
# 5 0.000000 0.000000 0.000000 0.000000 0.105891 0.000000
# 6 0.000000 0.000000 0.000000 0.000000 0.000000 0.052494
#
#
# Mechanical properties :
#
#
# Convention : Reuss Voigt Hill
#
# Bulk Modulus (GPa) = 52.80874 64.61212 58.71043
# Shear Modulus (GPa) = 15.29158 18.93341 17.11249
#
# Velocity S-wave (km/s) = 3.18017 3.53866 3.36419
# Velocity P-wave (km/s) = 6.95780 7.70902 7.34302
#
# Compressibility (1/GPa) = 0.01893626
#
# Stress axis : x y z
#
# Youngs Moduli (GPa) = 51.38149 28.04023 53.29236
#
# Poissons Ratio (x) = 0.17380 0.27956
# Poissons Ratio (y) = 0.31848 0.85442
# Poissons Ratio (z) = 0.26953 0.44956
#
# Static dielectric constant tensor:
#      x y z
#    x 2.996440 0.000000 0.000000 
#    y 0.000000 3.010020 0.000000 
#    z 0.000000 0.000000 2.870440 
# 
# 
# High freq. dielectric constant tensor:
#      x y z
#    x 1.567800 0.000000 0.000000 
#    y 0.000000 1.586210 0.000000 
#    z 0.000000 0.000000 1.561700 
# 
# From -- ./inp_files/24020.got.cif
#   From: 2010.03.12/outbox.cif.g09.slc.cpg/sg38_13_cif.got.tgz:24020.got - 2010.04.14 02:38:36.
