data_PCOD8177900
_publ_section_title
;
Structure prediction by ZEFSAII (Michael W. Deem and Ramdas Pophale) SiO2 
 PCOD8177900
Probable space group: A M M 2
;
_chemical_formula_sum "Si O2"
_cell_formula_units_Z 64
_cell_length_a 9.043226
_cell_length_b 13.669610
_cell_length_c 34.473915
_cell_angle_alpha 90.000000
_cell_angle_beta 90.000000
_cell_angle_gamma 90.000000
_cell_volume 4261.574794
_symmetry_space_group_name_H-M "A M M 2"
_symmetry_group_IT_number 38
_symmetry_cell_setting 'orthorhombic'
loop_
_space_group_symop_operation_xyz
x,y,z
-x,-y,z
-x,y,z
x,-y,z
x,1/2+y,1/2+z
-x,1/2-y,1/2+z
-x,1/2+y,1/2+z
x,1/2-y,1/2+z
loop_
_atom_site_type_symbol
_atom_site_label
_atom_site_fract_x
_atom_site_fract_y
_atom_site_fract_z
Si Si1 0.672122 0.612741 0.314240
Si Si2 0.825681 0.611569 0.546376
Si Si3 0.829442 0.384773 0.153842
Si Si4 0.172856 0.204155 0.967287
Si Si5 0.665152 0.383745 0.229650
Si Si6 0.173834 0.886652 0.889406
Si Si7 0.675520 0.789105 0.582477
Si Si8 0.171826 0.610130 0.012188
O O1 0.500000 0.627076 0.321818
O O2 0.718478 0.500000 0.314033
O O3 0.715147 0.658110 0.272014
O O4 0.758820 0.661575 0.350254
O O5 0.785720 0.500000 0.556000
O O6 0.770153 0.637280 0.502910
O O7 0.739950 0.680288 0.576575
O O8 0.000000 0.632079 0.550219
O O9 0.802994 0.500000 0.148382
O O10 0.779994 0.350158 0.196772
O O11 0.728237 0.327374 0.123854
O O12 0.000000 0.356862 0.147819
O O13 0.243743 0.170637 0.926505
O O14 0.211160 0.317679 0.976491
O O15 0.000000 0.186737 0.963259
O O16 0.500000 0.345697 0.219396
O O17 0.660134 0.500000 0.232952
O O18 0.000000 0.872701 0.886732
O O19 0.218269 0.000000 0.894249
O O20 0.500000 0.785799 0.581260
O O21 0.733317 0.863336 0.549775
O O22 0.208615 0.500000 0.998919
O O23 0.000000 0.622088 0.023855
#
# Coordination Sequence:
#
# PCOD8177900 Si02
#       8
#     8   8   8   8   8   8   8   8
#     4   8  14  24  36  51  75 106 134 159 192 236
#     4   9  17  31  49  63  79 107 140 173 208 243
#     4  10  19  29  42  60  82 108 139 173 204 239
#     4   8  14  25  41  61  81 102 133 170 206 242
#     4   8  14  25  39  54  75 104 134 162 197 241
#     4   9  15  22  35  55  78 104 133 163 194 234
#     4  11  21  30  42  61  85 110 136 168 205 247
#     4   9  17  30  46  60  77 105 141 178 212 246
#
# _framework density 15.017923
#
# number of rings (size 3 to 8) (size 9 to 14) (size 15 to 20)
#    0.000    3.000    0.000    3.750    0.000    4.750 
#    0.000    5.000    0.000    3.000    0.000    0.000 
#    0.000    1.000    0.000    9.250    0.000    3.000 
#
# Total GULP energy -396589.539802 kJ/mol
# GULP energy per Si atom -12393.423119 kJ/mol
# Density = 1.498374 g / cm^3
# Si number density = 15.017923 Si / 1000 Ang^3
#
#
#
# Elastic Constant Matrix: (Units=GPa)
#
#
# Indices 1 2 3 4 5 6 
#
# 1 56.8277 32.3493 43.1956 0.0000 0.0000 0.0000
# 2 32.3493 73.5247 42.5266 0.0000 0.0000 0.0000
# 3 43.1956 42.5266 121.6581 0.0000 0.0000 0.0000
# 4 0.0000 0.0000 0.0000 16.8017 0.0000 0.0000
# 5 0.0000 0.0000 0.0000 0.0000 19.0351 0.0000
# 6 0.0000 0.0000 0.0000 0.0000 0.0000 11.6398
#
#
#
# Elastic Compliance Matrix: (Units=1/GPa)
#
#
# Indices 1 2 3 4 5 6 
#
# 1 0.027459 -0.008075 -0.006927 0.000000 0.000000 0.000000
# 2 -0.008075 0.019422 -0.003922 0.000000 0.000000 0.000000
# 3 -0.006927 -0.003922 0.012050 0.000000 0.000000 0.000000
# 4 0.000000 0.000000 0.000000 0.059518 0.000000 0.000000
# 5 0.000000 0.000000 0.000000 0.000000 0.052535 0.000000
# 6 0.000000 0.000000 0.000000 0.000000 0.000000 0.085912
#
#
# Mechanical properties :
#
#
# Convention : Reuss Voigt Hill
#
# Bulk Modulus (GPa) = 47.43029 54.23931 50.83480
# Shear Modulus (GPa) = 16.56885 18.42459 17.49672
#
# Velocity S-wave (km/s) = 3.32516 3.50643 3.41699
# Velocity P-wave (km/s) = 6.81126 7.25177 7.03496
#
# Compressibility (1/GPa) = 0.02108358
#
# Stress axis : x y z
#
# Youngs Moduli (GPa) = 36.41807 51.48746 82.98605
#
# Poissons Ratio (x) = 0.41575 0.57483
# Poissons Ratio (y) = 0.29407 0.32548
# Poissons Ratio (z) = 0.25226 0.20194
#
# Static dielectric constant tensor:
#      x y z
#    x 2.778920 0.000000 0.000000 
#    y 0.000000 2.692870 0.000000 
#    z 0.000000 0.000000 3.201400 
# 
# 
# High freq. dielectric constant tensor:
#      x y z
#    x 1.564910 0.000000 0.000000 
#    y 0.000000 1.530190 0.000000 
#    z 0.000000 0.000000 1.578700 
# 
# From -- ./inp_files/24760.got.cif
#   From: 2010.03.12/outbox.cif.g09.slc.cpg/sg38_13_cif.got.tgz:24760.got - 2010.04.14 02:38:36.
