data_PCOD8177838
_publ_section_title
;
Structure prediction by ZEFSAII (Michael W. Deem and Ramdas Pophale) SiO2 
 PCOD8177838
Probable space group: A M M 2
;
_chemical_formula_sum "Si O2"
_cell_formula_units_Z 48
_cell_length_a 8.878160
_cell_length_b 14.536266
_cell_length_c 20.399313
_cell_angle_alpha 90.000000
_cell_angle_beta 90.000000
_cell_angle_gamma 90.000000
_cell_volume 2632.639364
_symmetry_space_group_name_H-M "A M M 2"
_symmetry_group_IT_number 38
_symmetry_cell_setting 'orthorhombic'
loop_
_space_group_symop_operation_xyz
x,y,z
-x,-y,z
-x,y,z
x,-y,z
x,1/2+y,1/2+z
-x,1/2-y,1/2+z
-x,1/2+y,1/2+z
x,1/2-y,1/2+z
loop_
_atom_site_type_symbol
_atom_site_label
_atom_site_fract_x
_atom_site_fract_y
_atom_site_fract_z
Si Si1 0.320702 0.000000 0.698271
Si Si2 0.321696 0.805318 0.740693
Si Si3 0.822301 0.500000 0.803459
Si Si4 0.178324 0.500000 0.654178
Si Si5 0.673979 0.679542 0.856242
Si Si6 0.677050 0.185655 0.118749
Si Si7 0.673243 0.176964 0.504787
Si Si8 0.176630 0.500000 0.057056
O O1 0.257899 0.090748 0.735191
O O2 0.500000 0.000000 0.696360
O O3 0.265596 0.000000 0.624419
O O4 0.500000 0.809407 0.736154
O O5 0.267188 0.761435 0.809145
O O6 0.260836 0.744114 0.680424
O O7 0.760223 0.500000 0.728977
O O8 0.766632 0.588262 0.842498
O O9 0.000000 0.500000 0.803222
O O10 0.238678 0.411151 0.616127
O O11 0.000000 0.500000 0.652217
O O12 0.500000 0.657599 0.841132
O O13 0.697695 0.712210 0.930714
O O14 0.500000 0.167375 0.124771
O O15 0.718676 0.240036 0.052616
O O16 0.500000 0.147551 0.517171
O O17 0.778915 0.089560 0.515806
O O18 0.000000 0.500000 0.070520
#
# Coordination Sequence:
#
# PCOD8177838 Si02
#       8
#     4   8   4   4   8   8   8   4
#     4  10  18  35  58  81 109 139 176 220 269 317
#     4   9  17  31  56  82 105 136 176 218 261 313
#     4  11  22  34  51  79 112 143 175 218 269 315
#     4  11  23  36  53  82 113 142 179 224 266 313
#     4  10  20  35  55  81 108 139 177 218 266 320
#     4  10  19  35  58  80 105 141 182 222 264 315
#     4  10  21  37  56  79 110 143 178 221 271 320
#     4  12  23  33  52  82 114 142 178 222 268 323
#
# _framework density 18.232652000000002
#
# number of rings (size 3 to 8) (size 9 to 14) (size 15 to 20)
#    0.000    1.833    3.333    1.750    0.000    4.000 
#    0.000    1.667    0.000    4.000    0.000    1.167 
#    0.000    0.000    0.000    0.000    0.000    0.000 
#
# Total GULP energy -297651.356569 kJ/mol
# GULP energy per Si atom -12402.139857 kJ/mol
# Density = 1.819115 g / cm^3
# Si number density = 18.232652 Si / 1000 Ang^3
#
#
#
# Elastic Constant Matrix: (Units=GPa)
#
#
# Indices 1 2 3 4 5 6 
#
# 1 35.3826 30.9153 21.9563 0.0000 0.0000 0.0000
# 2 30.9153 157.2185 71.5325 0.0000 0.0000 0.0000
# 3 21.9563 71.5325 136.5884 0.0000 0.0000 0.0000
# 4 0.0000 0.0000 0.0000 -3.1504 0.0000 0.0000
# 5 0.0000 0.0000 0.0000 0.0000 13.3582 0.0000
# 6 0.0000 0.0000 0.0000 0.0000 0.0000 1.2995
#
#
#
# Elastic Compliance Matrix: (Units=1/GPa)
#
#
# Indices 1 2 3 4 5 6 
#
# 1 0.034837 -0.005648 -0.002642 0.000000 0.000000 0.000000
# 2 -0.005648 0.009266 -0.003945 0.000000 0.000000 0.000000
# 3 -0.002642 -0.003945 0.009812 0.000000 0.000000 0.000000
# 4 0.000000 0.000000 0.000000 -0.317418 0.000000 0.000000
# 5 0.000000 0.000000 0.000000 0.000000 0.074860 0.000000
# 6 0.000000 0.000000 0.000000 0.000000 0.000000 0.769533
#
#
# Mechanical properties :
#
#
# Convention : Reuss Voigt Hill
#
# Bulk Modulus (GPa) = 33.96163 64.22196 49.09180
# Shear Modulus (GPa) = 8.12777 15.95382 12.04079
#
# Velocity S-wave (km/s) = 2.11364 2.96127 2.57261
# Velocity P-wave (km/s) = 4.96225 6.85509 5.98398
#
# Compressibility (1/GPa) = 0.02944499
#
# Stress axis : x y z
#
# Youngs Moduli (GPa) = 28.70511 107.92057 101.91748
#
# Poissons Ratio (x) = 0.60957 0.26926
# Poissons Ratio (y) = 0.16213 0.40204
# Poissons Ratio (z) = 0.07584 0.42572
#
# Static dielectric constant tensor:
#      x y z
#    x 3.087810 0.000000 0.000000 
#    y 0.000000 4.719900 0.000000 
#    z 0.000000 0.000000 3.469410 
# 
# 
# High freq. dielectric constant tensor:
#      x y z
#    x 1.680470 0.000000 0.000000 
#    y 0.000000 1.708930 0.000000 
#    z 0.000000 0.000000 1.707650 
# 
# From -- ./inp_files/16714.got.cif
#   From: 2010.03.12/outbox.cif.g09.slc.cpg/sg38_9_cif.got.tgz:16714.got - 2010.04.14 02:38:36.
