data_PCOD8177061
_publ_section_title
;
Structure prediction by ZEFSAII (Michael W. Deem and Ramdas Pophale) SiO2 
 PCOD8177061
Probable space group: C C C 2
;
_chemical_formula_sum "Si O2"
_cell_formula_units_Z 56
_cell_length_a 15.733107
_cell_length_b 10.482823
_cell_length_c 14.345790
_cell_angle_alpha 90.000000
_cell_angle_beta 90.000000
_cell_angle_gamma 90.000000
_cell_volume 2366.013500
_symmetry_space_group_name_H-M "C C C 2"
_symmetry_group_IT_number 37
_symmetry_cell_setting 'orthorhombic'
loop_
_space_group_symop_operation_xyz
x,y,z
-x,-y,z
-x,y,1/2+z
x,-y,1/2+z
1/2+x,1/2+y,z
1/2-x,1/2-y,z
1/2-x,1/2+y,1/2+z
1/2+x,1/2-y,1/2+z
loop_
_atom_site_type_symbol
_atom_site_label
_atom_site_fract_x
_atom_site_fract_y
_atom_site_fract_z
Si Si1 0.559368 0.123534 0.468380
Si Si2 0.088884 0.935133 0.970062
Si Si3 0.459547 0.253974 0.624266
Si Si4 0.231455 0.484762 0.476179
Si Si5 0.467359 0.263810 0.311040
Si Si6 0.201470 0.623276 0.173121
Si Si7 0.697181 0.129594 0.787043
O O1 0.536728 0.197673 0.563104
O O2 0.542168 0.209850 0.377464
O O3 0.500000 0.000000 0.461488
O O4 0.660379 0.095354 0.471852
O O5 0.169509 0.032592 0.966812
O O6 0.086625 0.867084 0.869180
O O7 0.100068 0.840123 0.058076
O O8 0.000000 0.000000 0.990262
O O9 0.495531 0.327046 0.716115
O O10 0.400208 0.143333 0.667904
O O11 0.231096 0.407132 0.570254
O O12 0.215045 0.381234 0.396574
O O13 0.403659 0.152744 0.276463
O O14 0.250000 0.750000 0.210895
O O15 0.222835 0.503011 0.238535
O O16 0.750000 0.250000 0.745386
#
# Coordination Sequence:
#
# PCOD8177061 Si02
#       7
#     8   8   8   8   8   8   8
#     4  11  21  37  72 108 133 184 240 306 360 436
#     4  11  26  48  72  97 142 208 243 298 386 455
#     4  11  24  43  69 105 148 186 247 308 379 437
#     4  12  22  46  74 100 151 187 249 301 376 445
#     4  11  24  43  69 105 148 186 247 308 379 437
#     4  12  25  43  75 110 148 196 249 307 381 451
#     4  12  25  43  75 110 148 196 249 307 381 451
#
# _framework density 23.668505
#
# number of rings (size 3 to 8) (size 9 to 14) (size 15 to 20)
#    0.000    0.571    5.714    3.000    0.000    2.857 
#    0.000    3.571    0.000    0.000    0.000    0.000 
#    0.000    0.000    0.000    0.000    0.000    0.000 
#
# Total GULP energy -347062.025724 kJ/mol
# GULP energy per Si atom -12395.072347 kJ/mol
# Density = 2.361463 g / cm^3
# Si number density = 23.668505 Si / 1000 Ang^3
#
#
#
# Elastic Constant Matrix: (Units=GPa)
#
#
# Indices 1 2 3 4 5 6 
#
# 1 180.3540 33.2527 22.4317 0.0000 0.0000 0.0000
# 2 33.2527 75.3425 13.4760 0.0000 0.0000 0.0000
# 3 22.4317 13.4760 122.9956 0.0000 0.0000 0.0000
# 4 0.0000 0.0000 0.0000 13.2681 0.0000 0.0000
# 5 0.0000 0.0000 0.0000 0.0000 13.1422 0.0000
# 6 0.0000 0.0000 0.0000 0.0000 0.0000 43.9316
#
#
#
# Elastic Compliance Matrix: (Units=1/GPa)
#
#
# Indices 1 2 3 4 5 6 
#
# 1 0.006119 -0.002551 -0.000836 0.000000 0.000000 0.000000
# 2 -0.002551 0.014602 -0.001135 0.000000 0.000000 0.000000
# 3 -0.000836 -0.001135 0.008407 0.000000 0.000000 0.000000
# 4 0.000000 0.000000 0.000000 0.075369 0.000000 0.000000
# 5 0.000000 0.000000 0.000000 0.000000 0.076091 0.000000
# 6 0.000000 0.000000 0.000000 0.000000 0.000000 0.022763
#
#
# Mechanical properties :
#
#
# Convention : Reuss Voigt Hill
#
# Bulk Modulus (GPa) = 49.79167 57.44586 53.61876
# Shear Modulus (GPa) = 22.82178 34.70382 28.76280
#
# Velocity S-wave (km/s) = 3.10857 3.83331 3.48980
# Velocity P-wave (km/s) = 5.82812 6.62692 6.24032
#
# Compressibility (1/GPa) = 0.02008368
#
# Stress axis : x y z
#
# Youngs Moduli (GPa) = 163.42444 68.48578 118.94519
#
# Poissons Ratio (x) = 0.17471 0.09949
# Poissons Ratio (y) = 0.41690 0.13495
# Poissons Ratio (z) = 0.13670 0.07770
#
# Static dielectric constant tensor:
#      x y z
#    x 4.712640 0.000000 0.000000 
#    y 0.000000 4.003310 0.000000 
#    z 0.000000 0.000000 4.452650 
# 
# 
# High freq. dielectric constant tensor:
#      x y z
#    x 1.949620 0.000000 0.000000 
#    y 0.000000 1.903540 0.000000 
#    z 0.000000 0.000000 1.948950 
# 
# From -- ./inp_files/12163.got.cif
#   From: 2010.03.12/outbox.cif.g09.slc.cpg/sg37_7_cif.got.tgz:12163.got - 2010.04.14 02:25:27.
