data_PCOD8177152
_publ_section_title
;
Structure prediction by ZEFSAII (Michael W. Deem and Ramdas Pophale) SiO2 
 PCOD8177152
Probable space group: C C C 2
;
_chemical_formula_sum "Si O2"
_cell_formula_units_Z 60
_cell_length_a 8.248189
_cell_length_b 25.908930
_cell_length_c 11.662013
_cell_angle_alpha 90.000000
_cell_angle_beta 90.000000
_cell_angle_gamma 90.000000
_cell_volume 2492.192603
_symmetry_space_group_name_H-M "C C C 2"
_symmetry_group_IT_number 37
_symmetry_cell_setting 'orthorhombic'
loop_
_space_group_symop_operation_xyz
x,y,z
-x,-y,z
-x,y,1/2+z
x,-y,1/2+z
1/2+x,1/2+y,z
1/2-x,1/2-y,z
1/2-x,1/2+y,1/2+z
1/2+x,1/2-y,1/2+z
loop_
_atom_site_type_symbol
_atom_site_label
_atom_site_fract_x
_atom_site_fract_y
_atom_site_fract_z
Si Si1 0.128490 0.070686 0.245130
Si Si2 0.229627 0.956625 0.192137
Si Si3 0.252063 0.148811 0.063935
Si Si4 0.511101 0.796397 0.684266
Si Si5 0.898973 0.382470 0.346793
Si Si6 0.750000 0.750000 0.338253
Si Si7 0.580877 0.298610 0.041983
Si Si8 0.735292 0.102909 0.974688
O O1 0.227486 0.111231 0.170349
O O2 0.133358 0.085869 0.379369
O O3 0.941960 0.071755 0.209425
O O4 0.214259 0.016590 0.218587
O O5 0.367484 0.934563 0.276081
O O6 0.286637 0.945150 0.061614
O O7 0.431028 0.174824 0.074566
O O8 0.107242 0.189619 0.057170
O O9 0.258405 0.119626 0.942622
O O10 0.624109 0.833524 0.760813
O O11 0.349202 0.787947 0.758500
O O12 0.612437 0.746845 0.637106
O O13 0.073435 0.384637 0.405817
O O14 0.614812 0.721479 0.414360
O O15 0.701550 0.348121 0.052801
#
# Coordination Sequence:
#
# PCOD8177152 Si02
#       8
#     8   8   8   8   8   4   8   8
#     4  11  26  50  82 110 154 203 270 322 394 473
#     4  11  28  48  80 116 148 213 260 322 398 477
#     4  12  24  49  72 108 149 204 257 327 383 473
#     4  12  25  46  71 109 155 200 261 320 394 468
#     4  12  27  47  74 115 162 199 260 325 400 472
#     4  12  24  46  70 106 150 202 256 328 380 450
#     4  12  26  44  77 103 146 207 255 315 389 463
#     4  12  26  50  76 113 159 202 259 330 397 476
#
# _framework density 24.075185000000001
#
# number of rings (size 3 to 8) (size 9 to 14) (size 15 to 20)
#    0.000    0.267    5.333    2.400    3.733    2.667 
#    0.000    0.000    0.000    0.000    0.000    0.000 
#    0.000    0.000    0.000    0.000    0.000    0.000 
#
# Total GULP energy -371971.356387 kJ/mol
# GULP energy per Si atom -12399.045213 kJ/mol
# Density = 2.402039 g / cm^3
# Si number density = 24.075185 Si / 1000 Ang^3
#
#
#
# Elastic Constant Matrix: (Units=GPa)
#
#
# Indices 1 2 3 4 5 6 
#
# 1 79.3669 32.0933 35.6259 0.0000 0.0000 0.0000
# 2 32.0933 116.3137 50.6275 0.0000 0.0000 0.0000
# 3 35.6259 50.6275 142.0543 0.0000 0.0000 0.0000
# 4 0.0000 0.0000 0.0000 23.9127 0.0000 0.0000
# 5 0.0000 0.0000 0.0000 0.0000 346.3527 0.0000
# 6 0.0000 0.0000 0.0000 0.0000 0.0000 26.8005
#
#
#
# Elastic Compliance Matrix: (Units=1/GPa)
#
#
# Indices 1 2 3 4 5 6 
#
# 1 0.015014 -0.002963 -0.002709 0.000000 0.000000 0.000000
# 2 -0.002963 0.010761 -0.003092 0.000000 0.000000 0.000000
# 3 -0.002709 -0.003092 0.008821 0.000000 0.000000 0.000000
# 4 0.000000 0.000000 0.000000 0.041819 0.000000 0.000000
# 5 0.000000 0.000000 0.000000 0.000000 0.002887 0.000000
# 6 0.000000 0.000000 0.000000 0.000000 0.000000 0.037313
#
#
# Mechanical properties :
#
#
# Convention : Reuss Voigt Hill
#
# Bulk Modulus (GPa) = 58.59344 63.82537 61.20941
# Shear Modulus (GPa) = 35.75691 94.03906 64.89799
#
# Velocity S-wave (km/s) = 3.85803 6.25663 5.19759
# Velocity P-wave (km/s) = 6.65105 8.87481 7.84215
#
# Compressibility (1/GPa) = 0.01706676
#
# Stress axis : x y z
#
# Youngs Moduli (GPa) = 66.60388 92.92867 113.36631
#
# Poissons Ratio (x) = 0.27539 0.30714
# Poissons Ratio (y) = 0.19738 0.35052
# Poissons Ratio (z) = 0.18045 0.28733
#
# Static dielectric constant tensor:
#      x y z
#    x 3.447260 0.000000 0.000000 
#    y 0.000000 4.330210 0.000000 
#    z 0.000000 0.000000 4.642270 
# 
# 
# High freq. dielectric constant tensor:
#      x y z
#    x 1.960790 0.000000 0.000000 
#    y 0.000000 1.952210 0.000000 
#    z 0.000000 0.000000 1.972140 
# 
# From -- ./inp_files/6527.got.cif
#   From: 2010.03.12/outbox.cif.g09.slc.cpg/sg37_4_cif.got.tgz:6527.got - 2010.04.14 02:25:27.
