data_PCOD8177948
_publ_section_title
;
Structure prediction by ZEFSAII (Michael W. Deem and Ramdas Pophale) SiO2 
 PCOD8177948
Probable space group: A M M 2
;
_chemical_formula_sum "Si O2"
_cell_formula_units_Z 56
_cell_length_a 13.625446
_cell_length_b 18.726915
_cell_length_c 12.668791
_cell_angle_alpha 90.000000
_cell_angle_beta 90.000000
_cell_angle_gamma 90.000000
_cell_volume 3232.601259
_symmetry_space_group_name_H-M "A M M 2"
_symmetry_group_IT_number 38
_symmetry_cell_setting 'orthorhombic'
loop_
_space_group_symop_operation_xyz
x,y,z
-x,-y,z
-x,y,z
x,-y,z
x,1/2+y,1/2+z
-x,1/2-y,1/2+z
-x,1/2+y,1/2+z
x,1/2-y,1/2+z
loop_
_atom_site_type_symbol
_atom_site_label
_atom_site_fract_x
_atom_site_fract_y
_atom_site_fract_z
Si Si1 0.893616 0.415184 0.730440
Si Si2 0.385743 0.141485 0.131816
Si Si3 0.113353 0.916886 0.988971
Si Si4 0.288785 0.670487 0.422729
Si Si5 0.612017 0.295924 0.212937
Si Si6 0.612689 0.313561 0.981987
Si Si7 0.699145 0.579852 0.824597
O O1 0.895736 0.500000 0.734766
O O2 0.871285 0.393091 0.610261
O O3 0.808325 0.386052 0.807977
O O4 0.000000 0.384584 0.766339
O O5 0.500000 0.145495 0.114338
O O6 0.342390 0.125772 0.015455
O O7 0.349880 0.215301 0.188702
O O8 0.354375 0.078608 0.210603
O O9 0.000000 0.907113 0.955797
O O10 0.144429 0.000000 0.970701
O O11 0.177771 0.860505 0.920434
O O12 0.328569 0.662026 0.303459
O O13 0.307187 0.753213 0.453372
O O14 0.500000 0.293010 0.251417
O O15 0.624258 0.338883 0.103073
O O16 0.500000 0.286152 0.963424
O O17 0.633236 0.380497 0.909237
O O18 0.708401 0.500000 0.866568
#
# Coordination Sequence:
#
# PCOD8177948 Si02
#       7
#     8   8   8   8   8   8   8
#     4   8  15  30  51  75 103 133 166 209 267 325
#     4  10  19  29  46  76 106 133 171 220 269 310
#     4   9  18  33  52  76 105 134 168 214 272 329
#     4  11  18  31  56  76 101 135 178 219 260 310
#     4   9  18  33  51  70  99 142 181 211 252 315
#     4  10  21  35  51  74 107 148 184 209 255 320
#     4  11  20  32  52  78 107 139 179 223 262 310
#
# _framework density 17.323509999999999
#
# number of rings (size 3 to 8) (size 9 to 14) (size 15 to 20)
#    0.000    2.286    2.857    3.429    0.000    1.143 
#    0.000    1.429    0.000    8.571    0.000    2.000 
#    0.000    0.000    0.000    0.000    0.000    0.000 
#
# Total GULP energy -346869.681937 kJ/mol
# GULP energy per Si atom -12388.202926 kJ/mol
# Density = 1.728408 g / cm^3
# Si number density = 17.323510 Si / 1000 Ang^3
#
#
#
# Elastic Constant Matrix: (Units=GPa)
#
#
# Indices 1 2 3 4 5 6 
#
# 1 94.0959 40.7017 45.2237 0.0000 0.0000 0.0000
# 2 40.7017 47.0959 24.7608 0.0000 0.0000 0.0000
# 3 45.2237 24.7608 105.1251 0.0000 0.0000 0.0000
# 4 0.0000 0.0000 0.0000 13.9356 0.0000 0.0000
# 5 0.0000 0.0000 0.0000 0.0000 24.3166 0.0000
# 6 0.0000 0.0000 0.0000 0.0000 0.0000 28.2980
#
#
#
# Elastic Compliance Matrix: (Units=1/GPa)
#
#
# Indices 1 2 3 4 5 6 
#
# 1 0.018955 -0.013803 -0.004903 0.000000 0.000000 0.000000
# 2 -0.013803 0.034286 -0.002138 0.000000 0.000000 0.000000
# 3 -0.004903 -0.002138 0.012125 0.000000 0.000000 0.000000
# 4 0.000000 0.000000 0.000000 0.071759 0.000000 0.000000
# 5 0.000000 0.000000 0.000000 0.000000 0.041124 0.000000
# 6 0.000000 0.000000 0.000000 0.000000 0.000000 0.035338
#
#
# Mechanical properties :
#
#
# Convention : Reuss Voigt Hill
#
# Bulk Modulus (GPa) = 42.23269 51.96550 47.09909
# Shear Modulus (GPa) = 18.99930 22.35210 20.67570
#
# Velocity S-wave (km/s) = 3.31529 3.59594 3.45846
# Velocity P-wave (km/s) = 6.25193 6.87774 6.57229
#
# Compressibility (1/GPa) = 0.02367834
#
# Stress axis : x y z
#
# Youngs Moduli (GPa) = 52.75771 29.16603 82.47340
#
# Poissons Ratio (x) = 0.40259 0.40435
# Poissons Ratio (y) = 0.72824 0.17630
# Poissons Ratio (z) = 0.25866 0.06235
#
# Static dielectric constant tensor:
#      x y z
#    x 3.451750 0.000000 0.000000 
#    y 0.000000 2.945050 0.000000 
#    z 0.000000 0.000000 3.284350 
# 
# 
# High freq. dielectric constant tensor:
#      x y z
#    x 1.668520 0.000000 0.000000 
#    y 0.000000 1.630920 0.000000 
#    z 0.000000 0.000000 1.661120 
# 
# From -- ./inp_files/9500.got.cif
#   From: 2010.03.12/outbox.cif.g09.slc.cpg/sg38_5_cif.got.tgz:9500.got - 2010.04.14 02:38:36.
