data_PCOD8177312
_publ_section_title
;
Structure prediction by ZEFSAII (Michael W. Deem and Ramdas Pophale) SiO2 
 PCOD8177312
Probable space group: A M M 2
;
_chemical_formula_sum "Si O2"
_cell_formula_units_Z 48
_cell_length_a 8.916817
_cell_length_b 20.483995
_cell_length_c 14.649576
_cell_angle_alpha 90.000000
_cell_angle_beta 90.000000
_cell_angle_gamma 90.000000
_cell_volume 2675.774866
_symmetry_space_group_name_H-M "A M M 2"
_symmetry_group_IT_number 38
_symmetry_cell_setting 'orthorhombic'
loop_
_space_group_symop_operation_xyz
x,y,z
-x,-y,z
-x,y,z
x,-y,z
x,1/2+y,1/2+z
-x,1/2-y,1/2+z
-x,1/2+y,1/2+z
x,1/2-y,1/2+z
loop_
_atom_site_type_symbol
_atom_site_label
_atom_site_fract_x
_atom_site_fract_y
_atom_site_fract_z
Si Si1 0.178307 0.427868 0.246540
Si Si2 0.822094 0.229423 0.432469
Si Si3 0.821962 0.122815 0.941231
Si Si4 0.672800 0.574879 0.622152
Si Si5 0.821699 0.683615 0.737810
Si Si6 0.821671 0.189833 0.627284
O O1 0.236275 0.500000 0.218804
O O2 0.231464 0.412343 0.348893
O O3 0.245641 0.374516 0.176273
O O4 0.000000 0.424824 0.243106
O O5 0.761582 0.303183 0.437536
O O6 0.763852 0.193433 0.341591
O O7 0.766061 0.190632 0.522299
O O8 0.000000 0.232586 0.429069
O O9 0.000000 0.120570 0.953623
O O10 0.749376 0.085133 0.024832
O O11 0.500000 0.594663 0.614152
O O12 0.693109 0.500000 0.651719
O O13 0.749635 0.617828 0.700332
O O14 0.765190 0.745130 0.678328
O O15 0.000000 0.677007 0.732522
O O16 0.000000 0.188246 0.632529
#
# Coordination Sequence:
#
# PCOD8177312 Si02
#       6
#     8   8   8   8   8   8
#     4   9  16  25  42  73 108 136 161 195 248 308
#     4   9  16  27  49  80 104 126 165 214 256 293
#     4  10  17  30  54  80 104 131 167 210 255 307
#     4  11  24  38  50  71 106 141 173 215 265 309
#     4  10  18  32  55  77 100 133 173 213 253 304
#     4   9  15  26  46  72 105 134 159 201 252 299
#
# _framework density 17.93873
#
# number of rings (size 3 to 8) (size 9 to 14) (size 15 to 20)
#    0.000    2.333    3.333    1.000    0.000    2.000 
#    0.000    1.667    0.000    3.000    0.000    0.000 
#    0.000    0.000    0.000    0.000    0.000    0.000 
#
# Total GULP energy -297546.949681 kJ/mol
# GULP energy per Si atom -12397.789570 kJ/mol
# Density = 1.789790 g / cm^3
# Si number density = 17.938730 Si / 1000 Ang^3
#
#
#
# Elastic Constant Matrix: (Units=GPa)
#
#
# Indices 1 2 3 4 5 6 
#
# 1 27.6425 25.3898 24.0101 0.0000 0.0000 0.0000
# 2 25.3898 135.3290 74.8473 0.0000 0.0000 0.0000
# 3 24.0101 74.8473 156.9999 0.0000 0.0000 0.0000
# 4 0.0000 0.0000 0.0000 34.1426 0.0000 0.0000
# 5 0.0000 0.0000 0.0000 0.0000 1.9975 0.0000
# 6 0.0000 0.0000 0.0000 0.0000 0.0000 11.8920
#
#
#
# Elastic Compliance Matrix: (Units=1/GPa)
#
#
# Indices 1 2 3 4 5 6 
#
# 1 0.045414 -0.006355 -0.003916 0.000000 0.000000 0.000000
# 2 -0.006355 0.010925 -0.004236 0.000000 0.000000 0.000000
# 3 -0.003916 -0.004236 0.008988 0.000000 0.000000 0.000000
# 4 0.000000 0.000000 0.000000 0.029289 0.000000 0.000000
# 5 0.000000 0.000000 0.000000 0.000000 0.500624 0.000000
# 6 0.000000 0.000000 0.000000 0.000000 0.000000 0.084090
#
#
# Mechanical properties :
#
#
# Convention : Reuss Voigt Hill
#
# Bulk Modulus (GPa) = 27.53822 63.16287 45.35055
# Shear Modulus (GPa) = 6.94013 22.65470 14.79741
#
# Velocity S-wave (km/s) = 1.96906 3.55758 2.87520
# Velocity P-wave (km/s) = 4.53367 7.22232 6.02976
#
# Compressibility (1/GPa) = 0.03631317
#
# Stress axis : x y z
#
# Youngs Moduli (GPa) = 22.01958 91.53610 111.26098
#
# Poissons Ratio (x) = 0.58168 0.43567
# Poissons Ratio (y) = 0.13993 0.47134
# Poissons Ratio (z) = 0.08622 0.38778
#
# Static dielectric constant tensor:
#      x y z
#    x 2.774520 0.000000 0.000000 
#    y 0.000000 3.476840 0.000000 
#    z 0.000000 0.000000 3.566330 
# 
# 
# High freq. dielectric constant tensor:
#      x y z
#    x 1.635310 0.000000 0.000000 
#    y 0.000000 1.697740 0.000000 
#    z 0.000000 0.000000 1.702910 
# 
# From -- ./inp_files/12048.got.cif
#   From: 2010.03.12/outbox.cif.g09.slc.cpg/sg38_7_cif.got.tgz:12048.got - 2010.04.14 02:38:36.
