data_PCOD8177662
_publ_section_title
;
Structure prediction by ZEFSAII (Michael W. Deem and Ramdas Pophale) SiO2 
 PCOD8177662
Probable space group: A M M 2
;
_chemical_formula_sum "Si O2"
_cell_formula_units_Z 40
_cell_length_a 8.799933
_cell_length_b 25.886368
_cell_length_c 9.718793
_cell_angle_alpha 90.000000
_cell_angle_beta 90.000000
_cell_angle_gamma 90.000000
_cell_volume 2213.924562
_symmetry_space_group_name_H-M "A M M 2"
_symmetry_group_IT_number 38
_symmetry_cell_setting 'orthorhombic'
loop_
_space_group_symop_operation_xyz
x,y,z
-x,-y,z
-x,y,z
x,-y,z
x,1/2+y,1/2+z
-x,1/2-y,1/2+z
-x,1/2+y,1/2+z
x,1/2-y,1/2+z
loop_
_atom_site_type_symbol
_atom_site_label
_atom_site_fract_x
_atom_site_fract_y
_atom_site_fract_z
Si Si1 0.320651 0.639523 0.029430
Si Si2 0.180047 0.335456 0.750023
Si Si3 0.178361 0.362691 0.454044
Si Si4 0.179481 0.216671 0.730691
Si Si5 0.179195 0.058826 0.728848
O O1 0.500000 0.640886 0.035552
O O2 0.255201 0.691944 0.095674
O O3 0.262492 0.588477 0.106557
O O4 0.264970 0.635626 0.872724
O O5 0.242708 0.361584 0.608998
O O6 0.228357 0.275614 0.745958
O O7 0.000000 0.341685 0.769542
O O8 0.239202 0.314183 0.364855
O O9 0.222072 0.415779 0.376414
O O10 0.000000 0.355728 0.466984
O O11 0.000000 0.210561 0.710611
O O12 0.000000 0.063248 0.702864
O O13 0.235565 0.000000 0.731361
#
# Coordination Sequence:
#
# PCOD8177662 Si02
#       5
#     8   8   8   8   8
#     4  11  22  33  48  75 110 140 167 204 252 309
#     4  10  18  31  52  76 105 138 170 206 247 295
#     4   8  15  28  49  76  98 121 165 218 255 286
#     4   9  17  32  53  74  99 137 180 210 237 286
#     4   9  18  36  59  76  93 125 173 223 263 303
#
# _framework density 18.067463
#
# number of rings (size 3 to 8) (size 9 to 14) (size 15 to 20)
#    0.000    2.600    0.000    4.200    0.000    4.400 
#    0.000    5.000    0.000    3.600    0.000    0.000 
#    0.000    0.000    0.000    0.000    0.000    0.000 
#
# Total GULP energy -247966.710943 kJ/mol
# GULP energy per Si atom -12398.335547 kJ/mol
# Density = 1.802634 g / cm^3
# Si number density = 18.067463 Si / 1000 Ang^3
#
#
#
# Elastic Constant Matrix: (Units=GPa)
#
#
# Indices 1 2 3 4 5 6 
#
# 1 50.9573 39.8628 40.9214 0.0000 0.0000 0.0000
# 2 39.8628 110.9018 60.3076 0.0000 0.0000 0.0000
# 3 40.9214 60.3076 164.7859 0.0000 0.0000 0.0000
# 4 0.0000 0.0000 0.0000 12.6231 0.0000 0.0000
# 5 0.0000 0.0000 0.0000 0.0000 6.7548 0.0000
# 6 0.0000 0.0000 0.0000 0.0000 0.0000 9.5669
#
#
#
# Elastic Compliance Matrix: (Units=1/GPa)
#
#
# Indices 1 2 3 4 5 6 
#
# 1 0.029566 -0.008283 -0.004311 0.000000 0.000000 0.000000
# 2 -0.008283 0.013578 -0.002912 0.000000 0.000000 0.000000
# 3 -0.004311 -0.002912 0.008205 0.000000 0.000000 0.000000
# 4 0.000000 0.000000 0.000000 0.079220 0.000000 0.000000
# 5 0.000000 0.000000 0.000000 0.000000 0.148042 0.000000
# 6 0.000000 0.000000 0.000000 0.000000 0.000000 0.104528
#
#
# Mechanical properties :
#
#
# Convention : Reuss Voigt Hill
#
# Bulk Modulus (GPa) = 49.17290 67.64763 58.41027
# Shear Modulus (GPa) = 11.87849 18.15916 15.01882
#
# Velocity S-wave (km/s) = 2.56686 3.17373 2.88629
# Velocity P-wave (km/s) = 6.00503 7.13814 6.59596
#
# Compressibility (1/GPa) = 0.02033640
#
# Stress axis : x y z
#
# Youngs Moduli (GPa) = 33.82308 73.64898 121.88034
#
# Poissons Ratio (x) = 0.61004 0.52539
# Poissons Ratio (y) = 0.28016 0.35495
# Poissons Ratio (z) = 0.14580 0.21448
#
# Static dielectric constant tensor:
#      x y z
#    x 2.985980 0.000000 0.000000 
#    y 0.000000 3.316270 0.000000 
#    z 0.000000 0.000000 3.626610 
# 
# 
# High freq. dielectric constant tensor:
#      x y z
#    x 1.667130 0.000000 0.000000 
#    y 0.000000 1.685620 0.000000 
#    z 0.000000 0.000000 1.710110 
# 
# From -- ./inp_files/3306.got.cif
#   From: 2010.03.12/outbox.cif.g09.slc.cpg/sg38_2_cif.got.tgz:3306.got - 2010.04.14 02:38:36.
