data_PCOD8177623
_publ_section_title
;
Structure prediction by ZEFSAII (Michael W. Deem and Ramdas Pophale) SiO2 
 PCOD8177623
Probable space group: A M M 2
;
_chemical_formula_sum "Si O2"
_cell_formula_units_Z 48
_cell_length_a 8.656612
_cell_length_b 18.482006
_cell_length_c 15.226642
_cell_angle_alpha 90.000000
_cell_angle_beta 90.000000
_cell_angle_gamma 90.000000
_cell_volume 2436.134130
_symmetry_space_group_name_H-M "A M M 2"
_symmetry_group_IT_number 38
_symmetry_cell_setting 'orthorhombic'
loop_
_space_group_symop_operation_xyz
x,y,z
-x,-y,z
-x,y,z
x,-y,z
x,1/2+y,1/2+z
-x,1/2-y,1/2+z
-x,1/2+y,1/2+z
x,1/2-y,1/2+z
loop_
_atom_site_type_symbol
_atom_site_label
_atom_site_fract_x
_atom_site_fract_y
_atom_site_fract_z
Si Si1 0.319565 0.500000 0.926131
Si Si2 0.816072 0.770475 0.839727
Si Si3 0.177371 0.892800 0.096087
Si Si4 0.816281 0.077755 0.908261
Si Si5 0.682508 0.343474 0.980187
Si Si6 0.816899 0.500000 0.738438
Si Si7 0.822128 0.768185 0.640587
O O1 0.500000 0.500000 0.942301
O O2 0.282880 0.500000 0.824465
O O3 0.252016 0.574690 0.966885
O O4 0.751674 0.851367 0.859643
O O5 0.759107 0.758797 0.739745
O O6 0.000000 0.764943 0.847091
O O7 0.751024 0.710569 0.906516
O O8 0.200581 0.807737 0.093306
O O9 0.000000 0.915496 0.095457
O O10 0.242090 0.929858 0.183946
O O11 0.252915 0.923181 0.007013
O O12 0.000000 0.085064 0.910816
O O13 0.768955 0.000000 0.864035
O O14 0.500000 0.340444 0.969593
O O15 0.728098 0.323904 0.080210
O O16 0.000000 0.500000 0.760778
O O17 0.000000 0.793203 0.642727
#
# Coordination Sequence:
#
# PCOD8177623 Si02
#       7
#     4   8   8   8   8   4   8
#     4  10  24  42  54  73 110 152 189 234 289 332
#     4  10  20  36  60  87 114 145 185 236 286 335
#     4   9  15  26  48  78 111 139 169 215 274 331
#     4   9  15  27  50  78 111 144 170 209 272 335
#     4  11  23  40  60  79 110 155 196 235 283 340
#     4  10  18  30  56  89 110 138 183 228 281 342
#     4  10  20  35  56  84 113 145 186 235 284 331
#
# _framework density 19.703348999999999
#
# number of rings (size 3 to 8) (size 9 to 14) (size 15 to 20)
#    0.000    2.167    2.500    1.500    0.000    3.333 
#    1.500    0.833    0.000    0.500    0.000    0.000 
#    0.000    0.000    0.000    0.000    0.000    0.000 
#
# Total GULP energy -297337.077693 kJ/mol
# GULP energy per Si atom -12389.044904 kJ/mol
# Density = 1.965850 g / cm^3
# Si number density = 19.703349 Si / 1000 Ang^3
#
#
#
# Elastic Constant Matrix: (Units=GPa)
#
#
# Indices 1 2 3 4 5 6 
#
# 1 22.8907 28.4427 20.8525 0.0000 0.0000 0.0000
# 2 28.4427 132.3696 46.3957 0.0000 0.0000 0.0000
# 3 20.8525 46.3957 101.9699 0.0000 0.0000 0.0000
# 4 0.0000 0.0000 0.0000 27.5188 0.0000 0.0000
# 5 0.0000 0.0000 0.0000 0.0000 14.0538 0.0000
# 6 0.0000 0.0000 0.0000 0.0000 0.0000 19.2256
#
#
#
# Elastic Compliance Matrix: (Units=1/GPa)
#
#
# Indices 1 2 3 4 5 6 
#
# 1 0.064947 -0.011065 -0.008247 0.000000 0.000000 0.000000
# 2 -0.011065 0.010873 -0.002684 0.000000 0.000000 0.000000
# 3 -0.008247 -0.002684 0.012715 0.000000 0.000000 0.000000
# 4 0.000000 0.000000 0.000000 0.036339 0.000000 0.000000
# 5 0.000000 0.000000 0.000000 0.000000 0.071155 0.000000
# 6 0.000000 0.000000 0.000000 0.000000 0.000000 0.052014
#
#
# Mechanical properties :
#
#
# Convention : Reuss Voigt Hill
#
# Bulk Modulus (GPa) = 22.45059 49.84579 36.14819
# Shear Modulus (GPa) = 16.29285 22.92891 19.61088
#
# Velocity S-wave (km/s) = 2.87872 3.41502 3.15827
# Velocity P-wave (km/s) = 4.74009 6.39553 5.62900
#
# Compressibility (1/GPa) = 0.04454226
#
# Stress axis : x y z
#
# Youngs Moduli (GPa) = 15.39713 91.97067 78.64891
#
# Poissons Ratio (x) = 1.01764 0.64862
# Poissons Ratio (y) = 0.17037 0.21113
# Poissons Ratio (z) = 0.12698 0.24689
#
# Static dielectric constant tensor:
#      x y z
#    x 3.110220 0.000000 0.000000 
#    y 0.000000 4.068900 0.000000 
#    z 0.000000 0.000000 3.664590 
# 
# 
# High freq. dielectric constant tensor:
#      x y z
#    x 1.712850 0.000000 0.000000 
#    y 0.000000 1.786840 0.000000 
#    z 0.000000 0.000000 1.768800 
# 
# From -- ./inp_files/12143.got.cif
#   From: 2010.03.12/outbox.cif.g09.slc.cpg/sg38_7_cif.got.tgz:12143.got - 2010.04.14 02:38:36.
