data_PCOD8177998
_publ_section_title
;
Structure prediction by ZEFSAII (Michael W. Deem and Ramdas Pophale) SiO2 
 PCOD8177998
Probable space group: A M M 2
;
_chemical_formula_sum "Si O2"
_cell_formula_units_Z 64
_cell_length_a 9.268864
_cell_length_b 23.232428
_cell_length_c 18.928169
_cell_angle_alpha 90.000000
_cell_angle_beta 90.000000
_cell_angle_gamma 90.000000
_cell_volume 4075.958136
_symmetry_space_group_name_H-M "A M M 2"
_symmetry_group_IT_number 38
_symmetry_cell_setting 'orthorhombic'
loop_
_space_group_symop_operation_xyz
x,y,z
-x,-y,z
-x,y,z
x,-y,z
x,1/2+y,1/2+z
-x,1/2-y,1/2+z
-x,1/2+y,1/2+z
x,1/2-y,1/2+z
loop_
_atom_site_type_symbol
_atom_site_label
_atom_site_fract_x
_atom_site_fract_y
_atom_site_fract_z
Si Si1 0.329807 0.434383 0.457990
Si Si2 0.164917 0.343738 0.376063
Si Si3 0.831682 0.774277 0.739707
Si Si4 0.168843 0.269778 0.963949
Si Si5 0.831715 0.065241 0.235905
Si Si6 0.330456 0.881591 0.105944
Si Si7 0.670427 0.248288 0.604112
Si Si8 0.169726 0.168210 0.328924
O O1 0.500000 0.429810 0.451068
O O2 0.276538 0.500000 0.453197
O O3 0.261982 0.398759 0.393622
O O4 0.276966 0.407580 0.531903
O O5 0.193943 0.325952 0.294978
O O6 0.203444 0.291409 0.428255
O O7 0.000000 0.361741 0.386471
O O8 0.739096 0.786277 0.669602
O O9 0.769575 0.715303 0.773911
O O10 0.000000 0.769020 0.719525
O O11 0.221647 0.319527 0.908969
O O12 0.000000 0.275210 0.982943
O O13 0.263864 0.278504 0.033236
O O14 0.746456 0.082436 0.166485
O O15 0.784669 0.104802 0.302606
O O16 0.000000 0.073833 0.219538
O O17 0.794872 0.000000 0.257068
O O18 0.500000 0.889854 0.115798
O O19 0.285098 0.815114 0.109574
O O20 0.500000 0.239466 0.603273
O O21 0.000000 0.178366 0.329752
#
# Coordination Sequence:
#
# PCOD8177998 Si02
#       8
#     8   8   8   8   8   8   8   8
#     4  10  20  33  47  63  91 131 163 189 228 271
#     4   9  18  31  48  69  89 116 156 197 235 271
#     4   9  17  31  49  66  90 122 151 186 235 281
#     4   9  17  30  48  65  87 121 152 184 233 282
#     4  10  19  30  47  69  91 120 158 194 223 257
#     4  10  20  32  43  61  94 131 159 183 218 265
#     4  11  20  29  45  71  95 120 153 190 228 267
#     4   8  15  29  46  65  89 117 151 188 225 269
#
# _framework density 15.701829999999999
#
# number of rings (size 3 to 8) (size 9 to 14) (size 15 to 20)
#    0.000    2.500    2.500    2.250    0.000    2.500 
#    0.000    2.500    0.000    0.000    0.000    0.875 
#    0.000    5.000    0.000    0.000    0.000    0.000 
#
# Total GULP energy -396761.935894 kJ/mol
# GULP energy per Si atom -12398.810497 kJ/mol
# Density = 1.566609 g / cm^3
# Si number density = 15.701830 Si / 1000 Ang^3
#
#
#
# Elastic Constant Matrix: (Units=GPa)
#
#
# Indices 1 2 3 4 5 6 
#
# 1 44.0258 29.7640 46.3652 0.0000 0.0000 0.0000
# 2 29.7640 80.5224 51.5942 0.0000 0.0000 0.0000
# 3 46.3652 51.5942 124.3585 0.0000 0.0000 0.0000
# 4 0.0000 0.0000 0.0000 23.1214 0.0000 0.0000
# 5 0.0000 0.0000 0.0000 0.0000 17.7950 0.0000
# 6 0.0000 0.0000 0.0000 0.0000 0.0000 19.8442
#
#
#
# Elastic Compliance Matrix: (Units=1/GPa)
#
#
# Indices 1 2 3 4 5 6 
#
# 1 0.040218 -0.007162 -0.012023 0.000000 0.000000 0.000000
# 2 -0.007162 0.018191 -0.004877 0.000000 0.000000 0.000000
# 3 -0.012023 -0.004877 0.014547 0.000000 0.000000 0.000000
# 4 0.000000 0.000000 0.000000 0.043250 0.000000 0.000000
# 5 0.000000 0.000000 0.000000 0.000000 0.056196 0.000000
# 6 0.000000 0.000000 0.000000 0.000000 0.000000 0.050392
#
#
# Mechanical properties :
#
#
# Convention : Reuss Voigt Hill
#
# Bulk Modulus (GPa) = 40.27082 56.03928 48.15505
# Shear Modulus (GPa) = 17.90853 20.23102 19.06977
#
# Velocity S-wave (km/s) = 3.38085 3.59339 3.48874
# Velocity P-wave (km/s) = 6.39868 7.27899 6.85299
#
# Compressibility (1/GPa) = 0.02483188
#
# Stress axis : x y z
#
# Youngs Moduli (GPa) = 24.86438 54.97179 68.74146
#
# Poissons Ratio (x) = 0.39372 0.82649
# Poissons Ratio (y) = 0.17809 0.33524
# Poissons Ratio (z) = 0.29895 0.26809
#
# Static dielectric constant tensor:
#      x y z
#    x 2.824020 0.000000 0.000000 
#    y 0.000000 2.923810 0.000000 
#    z 0.000000 0.000000 3.013860 
# 
# 
# High freq. dielectric constant tensor:
#      x y z
#    x 1.591950 0.000000 0.000000 
#    y 0.000000 1.578080 0.000000 
#    z 0.000000 0.000000 1.600370 
# 
# From -- ./inp_files/17269.got.cif
#   From: 2010.03.12/outbox.cif.g09.slc.cpg/sg38_9_cif.got.tgz:17269.got - 2010.04.14 02:38:36.
