data_PCOD8177384
_publ_section_title
;
Structure prediction by ZEFSAII (Michael W. Deem and Ramdas Pophale) SiO2 
 PCOD8177384
Probable space group: A M M 2
;
_chemical_formula_sum "Si O2"
_cell_formula_units_Z 64
_cell_length_a 9.093402
_cell_length_b 26.450151
_cell_length_c 18.235706
_cell_angle_alpha 90.000000
_cell_angle_beta 90.000000
_cell_angle_gamma 90.000000
_cell_volume 4386.085853
_symmetry_space_group_name_H-M "A M M 2"
_symmetry_group_IT_number 38
_symmetry_cell_setting 'orthorhombic'
loop_
_space_group_symop_operation_xyz
x,y,z
-x,-y,z
-x,y,z
x,-y,z
x,1/2+y,1/2+z
-x,1/2-y,1/2+z
-x,1/2+y,1/2+z
x,1/2-y,1/2+z
loop_
_atom_site_type_symbol
_atom_site_label
_atom_site_fract_x
_atom_site_fract_y
_atom_site_fract_z
Si Si1 0.175239 0.760018 0.435440
Si Si2 0.674663 0.146224 0.361134
Si Si3 0.174041 0.149858 0.693119
Si Si4 0.337714 0.198681 0.219520
Si Si5 0.830548 0.558473 0.936254
Si Si6 0.174733 0.944406 0.601702
Si Si7 0.334341 0.298760 0.316210
Si Si8 0.171322 0.752303 0.602416
O O1 0.242471 0.813559 0.412186
O O2 0.241357 0.713465 0.389102
O O3 0.224068 0.750237 0.518894
O O4 0.000000 0.762067 0.425651
O O5 0.500000 0.152676 0.372155
O O6 0.716976 0.154899 0.275282
O O7 0.728159 0.090447 0.381965
O O8 0.233368 0.097623 0.658054
O O9 0.254493 0.156501 0.771168
O O10 0.219581 0.194281 0.637166
O O11 0.000000 0.149054 0.706591
O O12 0.500000 0.186205 0.190481
O O13 0.336926 0.249527 0.266457
O O14 0.237561 0.205118 0.147850
O O15 0.812518 0.500000 0.914839
O O16 0.000000 0.575516 0.927965
O O17 0.773675 0.568048 0.019103
O O18 0.000000 0.944616 0.601176
O O19 0.233279 0.000000 0.625578
O O20 0.500000 0.315406 0.337251
O O21 0.000000 0.745261 0.608027
#
# Coordination Sequence:
#
# PCOD8177384 Si02
#       8
#     8   8   8   8   8   8   8   8
#     4  10  18  28  42  60  81 105 135 168 200 237
#     4  10  19  29  41  59  82 109 139 167 199 238
#     4   9  15  25  41  58  77 105 137 165 198 236
#     4   8  16  28  39  53  76 104 132 162 195 234
#     4   9  17  29  44  61  81 107 139 172 203 234
#     4   8  14  25  41  60  81 105 137 175 206 233
#     4   9  17  28  39  55  79 105 133 164 198 235
#     4   9  17  26  39  59  79 101 132 167 199 234
#
# _framework density 14.591597
#
# number of rings (size 3 to 8) (size 9 to 14) (size 15 to 20)
#    0.000    3.000    0.000    3.375    0.000    6.750 
#    0.000    3.125    0.000    1.125    0.000    0.000 
#    0.000    1.000    0.000    9.000    0.000    5.250 
#
# Total GULP energy -396647.163017 kJ/mol
# GULP energy per Si atom -12395.223844 kJ/mol
# Density = 1.455839 g / cm^3
# Si number density = 14.591597 Si / 1000 Ang^3
#
#
#
# Elastic Constant Matrix: (Units=GPa)
#
#
# Indices 1 2 3 4 5 6 
#
# 1 55.0838 30.0665 45.4006 0.0000 0.0000 0.0000
# 2 30.0665 75.5404 51.4304 0.0000 0.0000 0.0000
# 3 45.4006 51.4304 102.1484 0.0000 0.0000 0.0000
# 4 0.0000 0.0000 0.0000 26.5389 0.0000 0.0000
# 5 0.0000 0.0000 0.0000 0.0000 17.1743 0.0000
# 6 0.0000 0.0000 0.0000 0.0000 0.0000 15.5896
#
#
#
# Elastic Compliance Matrix: (Units=1/GPa)
#
#
# Indices 1 2 3 4 5 6 
#
# 1 0.029535 -0.004288 -0.010968 0.000000 0.000000 0.000000
# 2 -0.004288 0.020765 -0.008549 0.000000 0.000000 0.000000
# 3 -0.010968 -0.008549 0.018969 0.000000 0.000000 0.000000
# 4 0.000000 0.000000 0.000000 0.037681 0.000000 0.000000
# 5 0.000000 0.000000 0.000000 0.000000 0.058226 0.000000
# 6 0.000000 0.000000 0.000000 0.000000 0.000000 0.064145
#
#
# Mechanical properties :
#
#
# Convention : Reuss Voigt Hill
#
# Bulk Modulus (GPa) = 46.17138 54.06306 50.11722
# Shear Modulus (GPa) = 17.59630 18.91889 18.25760
#
# Velocity S-wave (km/s) = 3.47640 3.60469 3.54113
# Velocity P-wave (km/s) = 6.91556 7.37945 7.15127
#
# Compressibility (1/GPa) = 0.02165844
#
# Stress axis : x y z
#
# Youngs Moduli (GPa) = 33.85867 48.15740 52.71802
#
# Poissons Ratio (x) = 0.20650 0.57820
# Poissons Ratio (y) = 0.14519 0.45070
# Poissons Ratio (z) = 0.37136 0.41171
#
# Static dielectric constant tensor:
#      x y z
#    x 2.822520 0.000000 0.000000 
#    y 0.000000 2.791420 0.000000 
#    z 0.000000 0.000000 2.931580 
# 
# 
# High freq. dielectric constant tensor:
#      x y z
#    x 1.555240 0.000000 0.000000 
#    y 0.000000 1.526500 0.000000 
#    z 0.000000 0.000000 1.546210 
# 
# From -- ./inp_files/17344.got.cif
#   From: 2010.03.12/outbox.cif.g09.slc.cpg/sg38_9_cif.got.tgz:17344.got - 2010.04.14 02:38:36.
