data_PCOD8177739
_publ_section_title
;
Structure prediction by ZEFSAII (Michael W. Deem and Ramdas Pophale) SiO2 
 PCOD8177739
Probable space group: A M M 2
;
_chemical_formula_sum "Si O2"
_cell_formula_units_Z 64
_cell_length_a 23.785595
_cell_length_b 9.399800
_cell_length_c 15.383221
_cell_angle_alpha 90.000000
_cell_angle_beta 90.000000
_cell_angle_gamma 90.000000
_cell_volume 3439.378027
_symmetry_space_group_name_H-M "A M M 2"
_symmetry_group_IT_number 38
_symmetry_cell_setting 'orthorhombic'
loop_
_space_group_symop_operation_xyz
x,y,z
-x,-y,z
-x,y,z
x,-y,z
x,1/2+y,1/2+z
-x,1/2-y,1/2+z
-x,1/2+y,1/2+z
x,1/2-y,1/2+z
loop_
_atom_site_type_symbol
_atom_site_label
_atom_site_fract_x
_atom_site_fract_y
_atom_site_fract_z
Si Si1 0.244988 0.334320 0.234080
Si Si2 0.436810 0.668925 0.336554
Si Si3 0.064504 0.166355 0.343895
Si Si4 0.140045 0.164756 0.183167
Si Si5 0.368905 0.665880 0.169833
Si Si6 0.364531 0.330861 0.500279
Si Si7 0.125761 0.164414 0.989691
Si Si8 0.247059 0.167945 0.929455
O O1 0.229406 0.500000 0.234659
O O2 0.197495 0.251888 0.181207
O O3 0.303756 0.305011 0.188121
O O4 0.247078 0.271626 0.331636
O O5 0.500000 0.730431 0.338406
O O6 0.436934 0.500000 0.335409
O O7 0.405323 0.724072 0.250503
O O8 0.403755 0.721445 0.421469
O O9 0.099403 0.219134 0.259996
O O10 0.083913 0.246003 0.430466
O O11 0.000000 0.204057 0.325521
O O12 0.073307 0.000000 0.359705
O O13 0.155479 0.000000 0.195431
O O14 0.109225 0.188049 0.090450
O O15 0.380538 0.500000 0.153055
O O16 0.387725 0.755105 0.086215
O O17 0.367044 0.500000 0.513044
O O18 0.301174 0.274783 0.481566
O O19 0.189992 0.216509 0.976615
O O20 0.119984 0.000000 0.962365
O O21 0.253109 0.000000 0.924266
#
# Coordination Sequence:
#
# PCOD8177739 Si02
#       8
#     8   8   8   8   8   8   8   8
#     4  10  18  32  55  79 107 141 175 212 259 318
#     4   9  18  34  55  76 102 142 186 220 258 315
#     4  10  22  39  55  75 108 143 173 213 264 310
#     4  10  21  36  56  83 110 137 171 215 267 313
#     4  10  20  34  53  79 108 139 175 217 267 317
#     4  10  19  34  56  79 105 139 178 219 263 315
#     4  10  20  35  57  81 104 135 177 217 256 311
#     4   9  16  30  53  78 104 135 171 213 258 307
#
# _framework density 18.608015999999999
#
# number of rings (size 3 to 8) (size 9 to 14) (size 15 to 20)
#    0.000    2.250    2.500    0.750    0.000    3.250 
#    0.000    3.125    0.000    0.750    0.000    0.000 
#    0.000    0.000    0.000    0.000    0.000    0.000 
#
# Total GULP energy -396838.394935 kJ/mol
# GULP energy per Si atom -12401.199842 kJ/mol
# Density = 1.856566 g / cm^3
# Si number density = 18.608016 Si / 1000 Ang^3
#
#
#
# Elastic Constant Matrix: (Units=GPa)
#
#
# Indices 1 2 3 4 5 6 
#
# 1 110.3558 37.1770 51.1587 0.0000 0.0000 0.0000
# 2 37.1770 35.6624 40.5757 0.0000 0.0000 0.0000
# 3 51.1587 40.5757 143.5615 0.0000 0.0000 0.0000
# 4 0.0000 0.0000 0.0000 30.4529 0.0000 0.0000
# 5 0.0000 0.0000 0.0000 0.0000 16.1281 0.0000
# 6 0.0000 0.0000 0.0000 0.0000 0.0000 18.8758
#
#
#
# Elastic Compliance Matrix: (Units=1/GPa)
#
#
# Indices 1 2 3 4 5 6 
#
# 1 0.014126 -0.013263 -0.001285 0.000000 0.000000 0.000000
# 2 -0.013263 0.053786 -0.010475 0.000000 0.000000 0.000000
# 3 -0.001285 -0.010475 0.010384 0.000000 0.000000 0.000000
# 4 0.000000 0.000000 0.000000 0.032838 0.000000 0.000000
# 5 0.000000 0.000000 0.000000 0.000000 0.062004 0.000000
# 6 0.000000 0.000000 0.000000 0.000000 0.000000 0.052978
#
#
# Mechanical properties :
#
#
# Convention : Reuss Voigt Hill
#
# Bulk Modulus (GPa) = 35.40034 60.82250 48.11142
# Shear Modulus (GPa) = 17.50828 23.80258 20.65543
#
# Velocity S-wave (km/s) = 3.07074 3.58041 3.33532
# Velocity P-wave (km/s) = 5.62478 7.06042 6.38309
#
# Compressibility (1/GPa) = 0.02824832
#
# Stress axis : x y z
#
# Youngs Moduli (GPa) = 70.79393 18.59210 96.29924
#
# Poissons Ratio (x) = 0.24660 0.12374
# Poissons Ratio (y) = 0.93897 1.00878
# Poissons Ratio (z) = 0.09097 0.19476
#
# Static dielectric constant tensor:
#      x y z
#    x 3.482140 0.000000 0.000000 
#    y 0.000000 3.042950 0.000000 
#    z 0.000000 0.000000 3.537500 
# 
# 
# High freq. dielectric constant tensor:
#      x y z
#    x 1.721030 0.000000 0.000000 
#    y 0.000000 1.685340 0.000000 
#    z 0.000000 0.000000 1.736430 
# 
# From -- ./inp_files/15731.got.cif
#   From: 2010.03.12/outbox.cif.g09.slc.cpg/sg38_8_cif.got.tgz:15731.got - 2010.04.14 02:38:36.
