data_PCOD8177382
_publ_section_title
;
Structure prediction by ZEFSAII (Michael W. Deem and Ramdas Pophale) SiO2 
 PCOD8177382
Probable space group: A M M 2
;
_chemical_formula_sum "Si O2"
_cell_formula_units_Z 64
_cell_length_a 8.749947
_cell_length_b 18.430546
_cell_length_c 26.309305
_cell_angle_alpha 90.000000
_cell_angle_beta 90.000000
_cell_angle_gamma 90.000000
_cell_volume 4242.804291
_symmetry_space_group_name_H-M "A M M 2"
_symmetry_group_IT_number 38
_symmetry_cell_setting 'orthorhombic'
loop_
_space_group_symop_operation_xyz
x,y,z
-x,-y,z
-x,y,z
x,-y,z
x,1/2+y,1/2+z
-x,1/2-y,1/2+z
-x,1/2+y,1/2+z
x,1/2-y,1/2+z
loop_
_atom_site_type_symbol
_atom_site_label
_atom_site_fract_x
_atom_site_fract_y
_atom_site_fract_z
Si Si1 0.821766 0.916915 0.854790
Si Si2 0.679324 0.667888 0.447484
Si Si3 0.319770 0.083378 0.344486
Si Si4 0.819847 0.580093 0.651716
Si Si5 0.677864 0.161461 0.242104
Si Si6 0.180454 0.289162 0.892656
Si Si7 0.177066 0.415735 0.537027
Si Si8 0.322495 0.702750 0.300765
O O1 0.731746 0.887482 0.903502
O O2 0.773425 0.872189 0.803775
O O3 0.000000 0.906534 0.865530
O O4 0.778181 0.000000 0.845248
O O5 0.500000 0.681098 0.443372
O O6 0.766811 0.745997 0.443321
O O7 0.718448 0.633706 0.501649
O O8 0.500000 0.094685 0.350929
O O9 0.263886 0.112943 0.289548
O O10 0.232438 0.126604 0.389955
O O11 0.271468 0.000000 0.349231
O O12 0.753556 0.500000 0.665204
O O13 0.760749 0.639906 0.690576
O O14 0.771508 0.601626 0.594657
O O15 0.000000 0.576856 0.654818
O O16 0.500000 0.147443 0.234707
O O17 0.712754 0.247281 0.251506
O O18 0.276636 0.250512 0.848811
O O19 0.000000 0.281863 0.884723
O O20 0.205491 0.500000 0.524374
O O21 0.000000 0.396390 0.528047
O O22 0.500000 0.683062 0.303719
#
# Coordination Sequence:
#
# PCOD8177382 Si02
#       8
#     8   8   8   8   8   8   8   8
#     4  10  19  29  42  61  84 109 137 170 208 247
#     4  11  20  29  43  61  81 108 142 173 205 247
#     4   9  17  29  43  60  85 114 141 171 207 244
#     4   9  18  30  43  60  82 109 140 173 207 242
#     4   9  17  28  42  60  82 110 141 171 204 240
#     4  10  18  28  42  59  81 108 138 172 207 243
#     4   9  18  32  45  58  81 110 139 173 210 243
#     4   9  17  29  42  57  80 109 140 171 204 243
#
# _framework density 15.084363
#
# number of rings (size 3 to 8) (size 9 to 14) (size 15 to 20)
#    0.000    2.500    0.000    6.750    0.000    6.750 
#    0.000    1.250    0.000    0.000    0.000    0.000 
#    0.000    1.000    0.000    7.000    0.000    5.500 
#
# Total GULP energy -396611.271047 kJ/mol
# GULP energy per Si atom -12394.102220 kJ/mol
# Density = 1.505003 g / cm^3
# Si number density = 15.084363 Si / 1000 Ang^3
#
#
#
# Elastic Constant Matrix: (Units=GPa)
#
#
# Indices 1 2 3 4 5 6 
#
# 1 39.9616 34.4788 25.6252 0.0000 0.0000 0.0000
# 2 34.4788 106.8018 49.0323 0.0000 0.0000 0.0000
# 3 25.6252 49.0323 72.5600 0.0000 0.0000 0.0000
# 4 0.0000 0.0000 0.0000 16.9979 0.0000 0.0000
# 5 0.0000 0.0000 0.0000 0.0000 21.9712 0.0000
# 6 0.0000 0.0000 0.0000 0.0000 0.0000 25.1184
#
#
#
# Elastic Compliance Matrix: (Units=1/GPa)
#
#
# Indices 1 2 3 4 5 6 
#
# 1 0.037156 -0.008656 -0.007273 0.000000 0.000000 0.000000
# 2 -0.008656 0.015591 -0.007479 0.000000 0.000000 0.000000
# 3 -0.007273 -0.007479 0.021404 0.000000 0.000000 0.000000
# 4 0.000000 0.000000 0.000000 0.058831 0.000000 0.000000
# 5 0.000000 0.000000 0.000000 0.000000 0.045514 0.000000
# 6 0.000000 0.000000 0.000000 0.000000 0.000000 0.039811
#
#
# Mechanical properties :
#
#
# Convention : Reuss Voigt Hill
#
# Bulk Modulus (GPa) = 36.58170 48.62178 42.60174
# Shear Modulus (GPa) = 18.23259 20.16330 19.19795
#
# Velocity S-wave (km/s) = 3.48042 3.66006 3.57137
# Velocity P-wave (km/s) = 6.36044 7.08270 6.73126
#
# Compressibility (1/GPa) = 0.02733607
#
# Stress axis : x y z
#
# Youngs Moduli (GPa) = 26.91342 64.13943 46.72095
#
# Poissons Ratio (x) = 0.55521 0.33978
# Poissons Ratio (y) = 0.23297 0.34941
# Poissons Ratio (z) = 0.19573 0.47967
#
# Static dielectric constant tensor:
#      x y z
#    x 2.903280 0.000000 0.000000 
#    y 0.000000 3.340400 0.000000 
#    z 0.000000 0.000000 2.847020 
# 
# 
# High freq. dielectric constant tensor:
#      x y z
#    x 1.585150 0.000000 0.000000 
#    y 0.000000 1.571930 0.000000 
#    z 0.000000 0.000000 1.540130 
# 
# From -- ./inp_files/22283.got.cif
#   From: 2010.03.12/outbox.cif.g09.slc.cpg/sg38_12_cif.got.tgz:22283.got - 2010.04.14 02:38:36.
