data_PCOD8177360
_publ_section_title
;
Structure prediction by ZEFSAII (Michael W. Deem and Ramdas Pophale) SiO2 
 PCOD8177360
Probable space group: A M M 2
;
_chemical_formula_sum "Si O2"
_cell_formula_units_Z 64
_cell_length_a 9.325326
_cell_length_b 21.739853
_cell_length_c 21.581576
_cell_angle_alpha 90.000000
_cell_angle_beta 90.000000
_cell_angle_gamma 90.000000
_cell_volume 4375.259155
_symmetry_space_group_name_H-M "A M M 2"
_symmetry_group_IT_number 38
_symmetry_cell_setting 'orthorhombic'
loop_
_space_group_symop_operation_xyz
x,y,z
-x,-y,z
-x,y,z
x,-y,z
x,1/2+y,1/2+z
-x,1/2-y,1/2+z
-x,1/2+y,1/2+z
x,1/2-y,1/2+z
loop_
_atom_site_type_symbol
_atom_site_label
_atom_site_fract_x
_atom_site_fract_y
_atom_site_fract_z
Si Si1 0.339189 0.742734 0.849890
Si Si2 0.840358 0.662316 0.770023
Si Si3 0.829075 0.068672 0.170007
Si Si4 0.828580 0.833308 0.931886
Si Si5 0.342891 0.844183 0.744101
Si Si6 0.829701 0.166854 0.073981
Si Si7 0.668623 0.928577 0.849978
Si Si8 0.158137 0.734633 0.165688
O O1 0.500000 0.728818 0.874654
O O2 0.265976 0.679318 0.826502
O O3 0.240906 0.771799 0.903663
O O4 0.347530 0.789337 0.793208
O O5 0.781429 0.602107 0.733885
O O6 0.848999 0.718239 0.722239
O O7 0.000000 0.650176 0.796874
O O8 0.770566 0.106798 0.110533
O O9 0.000000 0.066548 0.167730
O O10 0.763527 0.000000 0.168065
O O11 0.764089 0.894463 0.901095
O O12 0.000000 0.831776 0.922930
O O13 0.781149 0.835850 0.003314
O O14 0.500000 0.856919 0.716778
O O15 0.287308 0.904465 0.781256
O O16 0.246015 0.826141 0.685326
O O17 0.771777 0.229617 0.106806
O O18 0.000000 0.168033 0.080836
O O19 0.500000 0.914377 0.861728
O O20 0.704380 0.000000 0.854427
O O21 0.000000 0.710704 0.148819
#
# Coordination Sequence:
#
# PCOD8177360 Si02
#       8
#     8   8   8   8   8   8   8   8
#     4   9  16  26  39  54  74 100 127 158 201 243
#     4   8  13  22  38  58  75  94 125 162 195 228
#     4   8  13  22  37  57  81 107 133 161 193 229
#     4  10  18  27  40  58  79 103 135 170 194 220
#     4   8  14  24  38  55  71  91 123 159 193 228
#     4   8  15  25  36  54  80 107 132 159 194 230
#     4   9  18  31  42  53  77 111 138 160 191 230
#     4   8  13  23  38  54  73  96 121 153 195 235
#
# _framework density 14.627705000000001
#
# number of rings (size 3 to 8) (size 9 to 14) (size 15 to 20)
#    0.000    3.500    0.000    3.000    0.000    3.750 
#    0.000    2.500    0.000    1.875    0.000    0.000 
#    0.000    1.000    0.000    4.750    0.000    3.000 
#
# Total GULP energy -396487.231792 kJ/mol
# GULP energy per Si atom -12390.225994 kJ/mol
# Density = 1.459441 g / cm^3
# Si number density = 14.627705 Si / 1000 Ang^3
#
#
#
# Elastic Constant Matrix: (Units=GPa)
#
#
# Indices 1 2 3 4 5 6 
#
# 1 62.1758 38.9915 42.0903 0.0000 0.0000 0.0000
# 2 38.9915 69.1605 72.0194 0.0000 0.0000 0.0000
# 3 42.0903 72.0194 78.9767 0.0000 0.0000 0.0000
# 4 0.0000 0.0000 0.0000 14.8641 0.0000 0.0000
# 5 0.0000 0.0000 0.0000 0.0000 10.3344 0.0000
# 6 0.0000 0.0000 0.0000 0.0000 0.0000 15.3133
#
#
#
# Elastic Compliance Matrix: (Units=1/GPa)
#
#
# Indices 1 2 3 4 5 6 
#
# 1 0.025229 -0.004409 -0.009425 0.000000 0.000000 0.000000
# 2 -0.004409 0.287661 -0.259970 0.000000 0.000000 0.000000
# 3 -0.009425 -0.259970 0.254753 0.000000 0.000000 0.000000
# 4 0.000000 0.000000 0.000000 0.067276 0.000000 0.000000
# 5 0.000000 0.000000 0.000000 0.000000 0.096764 0.000000
# 6 0.000000 0.000000 0.000000 0.000000 0.000000 0.065303
#
#
# Mechanical properties :
#
#
# Convention : Reuss Voigt Hill
#
# Bulk Modulus (GPa) = 49.91276 57.39058 53.65167
# Shear Modulus (GPa) = 3.70022 11.91649 7.80836
#
# Velocity S-wave (km/s) = 1.59220 2.85731 2.31293
# Velocity P-wave (km/s) = 6.12995 7.08555 6.62500
#
# Compressibility (1/GPa) = 0.02003496
#
# Stress axis : x y z
#
# Youngs Moduli (GPa) = 39.63755 3.47632 3.92537
#
# Poissons Ratio (x) = 0.01533 0.03700
# Poissons Ratio (y) = 0.17475 1.02048
# Poissons Ratio (z) = 0.37359 0.90374
#
# Static dielectric constant tensor:
#      x y z
#    x 2.873150 0.000000 0.000000 
#    y 0.000000 2.885700 0.000000 
#    z 0.000000 0.000000 2.793270 
# 
# 
# High freq. dielectric constant tensor:
#      x y z
#    x 1.545240 0.000000 0.000000 
#    y 0.000000 1.535030 0.000000 
#    z 0.000000 0.000000 1.532490 
# 
# From -- ./inp_files/22292.got.cif
#   From: 2010.03.12/outbox.cif.g09.slc.cpg/sg38_12_cif.got.tgz:22292.got - 2010.04.14 02:38:36.
