data_PCOD8177759
_publ_section_title
;
Structure prediction by ZEFSAII (Michael W. Deem and Ramdas Pophale) SiO2 
 PCOD8177759
Probable space group: A M M 2
;
_chemical_formula_sum "Si O2"
_cell_formula_units_Z 48
_cell_length_a 8.820238
_cell_length_b 20.295565
_cell_length_c 14.391249
_cell_angle_alpha 90.000000
_cell_angle_beta 90.000000
_cell_angle_gamma 90.000000
_cell_volume 2576.202145
_symmetry_space_group_name_H-M "A M M 2"
_symmetry_group_IT_number 38
_symmetry_cell_setting 'orthorhombic'
loop_
_space_group_symop_operation_xyz
x,y,z
-x,-y,z
-x,y,z
x,-y,z
x,1/2+y,1/2+z
-x,1/2-y,1/2+z
-x,1/2+y,1/2+z
x,1/2-y,1/2+z
loop_
_atom_site_type_symbol
_atom_site_label
_atom_site_fract_x
_atom_site_fract_y
_atom_site_fract_z
Si Si1 0.322145 0.272156 0.048520
Si Si2 0.175237 0.866521 0.042419
Si Si3 0.820333 0.186894 0.368760
Si Si4 0.322143 0.304435 0.256143
Si Si5 0.174104 0.574879 0.345764
Si Si6 0.819984 0.927056 0.235031
O O1 0.500000 0.280194 0.036466
O O2 0.276456 0.197511 0.027699
O O3 0.267889 0.293389 0.150641
O O4 0.241614 0.319366 0.973371
O O5 0.234262 0.904678 0.133228
O O6 0.000000 0.844888 0.053346
O O7 0.199286 0.914260 0.955328
O O8 0.765170 0.254414 0.322642
O O9 0.757382 0.124303 0.311187
O O10 0.000000 0.188081 0.370389
O O11 0.500000 0.291970 0.267090
O O12 0.281269 0.378642 0.284627
O O13 0.218602 0.500000 0.322265
O O14 0.000000 0.589475 0.319486
O O15 0.000000 0.928881 0.237904
O O16 0.754294 0.000000 0.256080
#
# Coordination Sequence:
#
# PCOD8177759 Si02
#       6
#     8   8   8   8   8   8
#     4  11  23  37  55  82 116 150 189 233 279 331
#     4  10  18  32  57  86 116 146 180 226 282 339
#     4  11  21  35  59  86 112 146 190 236 281 335
#     4  11  23  38  57  81 114 153 191 234 281 338
#     4  10  21  36  57  87 118 149 188 234 284 338
#     4   9  18  33  55  85 117 146 180 228 284 336
#
# _framework density 18.632078
#
# number of rings (size 3 to 8) (size 9 to 14) (size 15 to 20)
#    0.000    1.667    3.333    2.000    0.000    4.333 
#    0.000    0.833    0.000    8.500    0.000    0.000 
#    0.000    0.000    0.000    0.000    0.000    0.000 
#
# Total GULP energy -297680.893101 kJ/mol
# GULP energy per Si atom -12403.370546 kJ/mol
# Density = 1.858967 g / cm^3
# Si number density = 18.632078 Si / 1000 Ang^3
#
#
#
# Elastic Constant Matrix: (Units=GPa)
#
#
# Indices 1 2 3 4 5 6 
#
# 1 47.2980 15.4745 28.5670 0.0000 0.0000 0.0000
# 2 15.4745 103.4184 34.7909 0.0000 0.0000 0.0000
# 3 28.5670 34.7909 105.9805 0.0000 0.0000 0.0000
# 4 0.0000 0.0000 0.0000 33.5725 0.0000 0.0000
# 5 0.0000 0.0000 0.0000 0.0000 27.6870 0.0000
# 6 0.0000 0.0000 0.0000 0.0000 0.0000 8.6495
#
#
#
# Elastic Compliance Matrix: (Units=1/GPa)
#
#
# Indices 1 2 3 4 5 6 
#
# 1 0.025514 -0.001691 -0.006322 0.000000 0.000000 0.000000
# 2 -0.001691 0.010982 -0.003149 0.000000 0.000000 0.000000
# 3 -0.006322 -0.003149 0.012174 0.000000 0.000000 0.000000
# 4 0.000000 0.000000 0.000000 0.029786 0.000000 0.000000
# 5 0.000000 0.000000 0.000000 0.000000 0.036118 0.000000
# 6 0.000000 0.000000 0.000000 0.000000 0.000000 0.115614
#
#
# Mechanical properties :
#
#
# Convention : Reuss Voigt Hill
#
# Bulk Modulus (GPa) = 37.95789 46.04020 41.99904
# Shear Modulus (GPa) = 19.13548 25.83943 22.48745
#
# Velocity S-wave (km/s) = 3.20819 3.72805 3.47785
# Velocity P-wave (km/s) = 5.84293 6.57989 6.22233
#
# Compressibility (1/GPa) = 0.02634498
#
# Stress axis : x y z
#
# Youngs Moduli (GPa) = 39.19369 91.05868 82.14406
#
# Poissons Ratio (x) = 0.15396 0.51934
# Poissons Ratio (y) = 0.06627 0.25870
# Poissons Ratio (z) = 0.24780 0.28678
#
# Static dielectric constant tensor:
#      x y z
#    x 3.236020 0.000000 0.000000 
#    y 0.000000 3.499180 0.000000 
#    z 0.000000 0.000000 3.674900 
# 
# 
# High freq. dielectric constant tensor:
#      x y z
#    x 1.706910 0.000000 0.000000 
#    y 0.000000 1.718250 0.000000 
#    z 0.000000 0.000000 1.730750 
# 
# From -- ./inp_files/12012.got.cif
#   From: 2010.03.12/outbox.cif.g09.slc.cpg/sg38_7_cif.got.tgz:12012.got - 2010.04.14 02:38:36.
