data_PCOD8177423
_publ_section_title
;
Structure prediction by ZEFSAII (Michael W. Deem and Ramdas Pophale) SiO2 
 PCOD8177423
Probable space group: A M M 2
;
_chemical_formula_sum "Si O2"
_cell_formula_units_Z 56
_cell_length_a 12.613264
_cell_length_b 9.311024
_cell_length_c 30.299793
_cell_angle_alpha 90.000000
_cell_angle_beta 90.000000
_cell_angle_gamma 90.000000
_cell_volume 3558.480525
_symmetry_space_group_name_H-M "A M M 2"
_symmetry_group_IT_number 38
_symmetry_cell_setting 'orthorhombic'
loop_
_space_group_symop_operation_xyz
x,y,z
-x,-y,z
-x,y,z
x,-y,z
x,1/2+y,1/2+z
-x,1/2-y,1/2+z
-x,1/2+y,1/2+z
x,1/2-y,1/2+z
loop_
_atom_site_type_symbol
_atom_site_label
_atom_site_fract_x
_atom_site_fract_y
_atom_site_fract_z
Si Si1 0.873794 0.338897 0.620300
Si Si2 0.270473 0.661815 0.862228
Si Si3 0.500000 0.829040 0.960288
Si Si4 0.705445 0.166653 0.464753
Si Si5 0.500000 0.837588 0.372233
Si Si6 0.119046 0.829791 0.799489
Si Si7 0.126116 0.340205 0.201968
Si Si8 0.121055 0.832982 0.535166
O O1 0.828711 0.500000 0.618148
O O2 0.827195 0.264113 0.664361
O O3 0.835253 0.253636 0.577230
O O4 0.000000 0.338254 0.622348
O O5 0.229849 0.500000 0.854453
O O6 0.267429 0.701014 0.913950
O O7 0.391861 0.679714 0.844121
O O8 0.195638 0.768634 0.836415
O O9 0.606340 0.761854 0.981956
O O10 0.500000 0.783986 0.909291
O O11 0.500000 0.000000 0.965805
O O12 0.808405 0.208584 0.493086
O O13 0.675662 0.000000 0.470722
O O14 0.500000 0.000000 0.393620
O O15 0.158034 0.781883 0.750602
O O16 0.000000 0.772858 0.808363
O O17 0.121146 0.000000 0.802436
O O18 0.172463 0.500000 0.194213
O O19 0.000000 0.347584 0.199275
O O20 0.000000 0.790482 0.523804
O O21 0.129570 0.000000 0.547156
#
# Coordination Sequence:
#
# PCOD8177423 Si02
#       8
#     8   8   4   8   4   8   8   8
#     4   9  16  25  39  61  87 111 138 178 222 256
#     4   9  17  29  46  65  85 112 146 183 218 253
#     4  10  18  28  46  68  85 106 143 188 226 257
#     4   9  18  32  47  63  87 118 149 181 216 254
#     4   8  16  32  48  62  83 110 143 184 224 257
#     4   9  18  30  42  61  91 121 146 175 213 257
#     4   8  14  26  42  57  78 112 148 176 206 251
#     4   9  17  29  45  64  87 118 152 178 206 255
#
# _framework density 15.737054000000001
#
# number of rings (size 3 to 8) (size 9 to 14) (size 15 to 20)
#    0.000    3.143    0.000    2.786    0.000    6.000 
#    0.000    2.857    0.000    1.714    0.000    1.000 
#    0.000    3.429    0.000    0.000    0.000    0.000 
#
# Total GULP energy -347021.280030 kJ/mol
# GULP energy per Si atom -12393.617144 kJ/mol
# Density = 1.570124 g / cm^3
# Si number density = 15.737054 Si / 1000 Ang^3
#
#
#
# Elastic Constant Matrix: (Units=GPa)
#
#
# Indices 1 2 3 4 5 6 
#
# 1 78.3920 40.4538 52.8920 0.0000 0.0000 0.0000
# 2 40.4538 73.2441 47.4723 0.0000 0.0000 0.0000
# 3 52.8920 47.4723 94.7678 0.0000 0.0000 0.0000
# 4 0.0000 0.0000 0.0000 25.2844 0.0000 0.0000
# 5 0.0000 0.0000 0.0000 0.0000 0.9289 0.0000
# 6 0.0000 0.0000 0.0000 0.0000 0.0000 20.8450
#
#
#
# Elastic Compliance Matrix: (Units=1/GPa)
#
#
# Indices 1 2 3 4 5 6 
#
# 1 0.022255 -0.006280 -0.009275 0.000000 0.000000 0.000000
# 2 -0.006280 0.021989 -0.007510 0.000000 0.000000 0.000000
# 3 -0.009275 -0.007510 0.019491 0.000000 0.000000 0.000000
# 4 0.000000 0.000000 0.000000 0.039550 0.000000 0.000000
# 5 0.000000 0.000000 0.000000 0.000000 1.076568 0.000000
# 6 0.000000 0.000000 0.000000 0.000000 0.000000 0.047973
#
#
# Mechanical properties :
#
#
# Convention : Reuss Voigt Hill
#
# Bulk Modulus (GPa) = 56.80388 58.67112 57.73750
# Shear Modulus (GPa) = 3.90678 16.45069 10.17874
#
# Velocity S-wave (km/s) = 1.57732 3.23669 2.54599
# Velocity P-wave (km/s) = 6.28420 7.16459 6.73879
#
# Compressibility (1/GPa) = 0.01760443
#
# Stress axis : x y z
#
# Youngs Moduli (GPa) = 44.93275 45.47695 51.30639
#
# Poissons Ratio (x) = 0.28561 0.47588
# Poissons Ratio (y) = 0.28220 0.38530
# Poissons Ratio (z) = 0.41676 0.34153
#
# Static dielectric constant tensor:
#      x y z
#    x 2.898190 0.000000 0.000000 
#    y 0.000000 3.015180 0.000000 
#    z 0.000000 0.000000 2.977460 
# 
# 
# High freq. dielectric constant tensor:
#      x y z
#    x 1.572370 0.000000 0.000000 
#    y 0.000000 1.604100 0.000000 
#    z 0.000000 0.000000 1.589700 
# 
# From -- ./inp_files/25015.got.cif
#   From: 2010.03.12/outbox.cif.g09.slc.cpg/sg38_13_cif.got.tgz:25015.got - 2010.04.14 02:38:36.
