data_PCOD8177144
_publ_section_title
;
Structure prediction by ZEFSAII (Michael W. Deem and Ramdas Pophale) SiO2 
 PCOD8177144
Probable space group: C C C 2
;
_chemical_formula_sum "Si O2"
_cell_formula_units_Z 40
_cell_length_a 14.550631
_cell_length_b 10.387224
_cell_length_c 10.927477
_cell_angle_alpha 90.000000
_cell_angle_beta 90.000000
_cell_angle_gamma 90.000000
_cell_volume 1651.586125
_symmetry_space_group_name_H-M "C C C 2"
_symmetry_group_IT_number 37
_symmetry_cell_setting 'orthorhombic'
loop_
_space_group_symop_operation_xyz
x,y,z
-x,-y,z
-x,y,1/2+z
x,-y,1/2+z
1/2+x,1/2+y,z
1/2-x,1/2-y,z
1/2-x,1/2+y,1/2+z
1/2+x,1/2-y,1/2+z
loop_
_atom_site_type_symbol
_atom_site_label
_atom_site_fract_x
_atom_site_fract_y
_atom_site_fract_z
Si Si1 0.350965 0.126477 0.925550
Si Si2 0.750000 0.750000 0.306555
Si Si3 0.750000 0.750000 0.714332
Si Si4 0.000000 0.000000 0.588569
Si Si5 0.067568 0.264394 0.156790
Si Si6 0.000000 0.500000 0.793618
Si Si7 0.698520 0.551499 0.507801
O O1 0.331897 0.210099 0.804570
O O2 0.410303 0.003532 0.880790
O O3 0.415074 0.212563 0.012896
O O4 0.259510 0.079197 0.999139
O O5 0.836273 0.721042 0.223394
O O6 0.724836 0.628112 0.387621
O O7 0.721443 0.628170 0.632028
O O8 0.909702 0.979436 0.504740
O O9 0.019154 0.874706 0.673125
O O10 0.999984 0.373148 0.209230
#
# Coordination Sequence:
#
# PCOD8177144 Si02
#       7
#     8   4   4   4   8   4   8
#     4  12  25  48  76 109 155 211 260 323 398 478
#     4  11  25  50  78 110 163 205 262 332 402 471
#     4  11  25  46  72 108 153 207 260 322 398 481
#     4  12  28  46  78 116 162 192 264 334 400 466
#     4  12  27  49  77 119 156 209 266 330 401 485
#     4  12  26  48  82 110 156 216 270 324 390 492
#     4  11  26  48  74 112 157 211 261 329 397 481
#
# _framework density 24.219142000000002
#
# number of rings (size 3 to 8) (size 9 to 14) (size 15 to 20)
#    0.000    0.400    2.000    6.000    5.600    2.400 
#    0.000    0.000    0.000    0.000    0.000    0.000 
#    0.000    0.000    0.000    0.000    0.000    0.000 
#
# Total GULP energy -248019.133889 kJ/mol
# GULP energy per Si atom -12400.956694 kJ/mol
# Density = 2.416402 g / cm^3
# Si number density = 24.219142 Si / 1000 Ang^3
#
#
#
# Elastic Constant Matrix: (Units=GPa)
#
#
# Indices 1 2 3 4 5 6 
#
# 1 151.3787 51.5273 47.5157 0.0000 0.0000 0.0000
# 2 51.5273 142.3526 49.2391 0.0000 0.0000 0.0000
# 3 47.5157 49.2391 128.6349 0.0000 0.0000 0.0000
# 4 0.0000 0.0000 0.0000 8.0558 0.0000 0.0000
# 5 0.0000 0.0000 0.0000 0.0000 27.2129 0.0000
# 6 0.0000 0.0000 0.0000 0.0000 0.0000 48.3018
#
#
#
# Elastic Compliance Matrix: (Units=1/GPa)
#
#
# Indices 1 2 3 4 5 6 
#
# 1 0.008011 -0.002163 -0.002131 0.000000 0.000000 0.000000
# 2 -0.002163 0.008681 -0.002524 0.000000 0.000000 0.000000
# 3 -0.002131 -0.002524 0.009527 0.000000 0.000000 0.000000
# 4 0.000000 0.000000 0.000000 0.124134 0.000000 0.000000
# 5 0.000000 0.000000 0.000000 0.000000 0.036747 0.000000
# 6 0.000000 0.000000 0.000000 0.000000 0.000000 0.020703
#
#
# Mechanical properties :
#
#
# Convention : Reuss Voigt Hill
#
# Bulk Modulus (GPa) = 79.47060 79.88117 79.67589
# Shear Modulus (GPa) = 22.15983 34.98638 28.57311
#
# Velocity S-wave (km/s) = 3.02813 3.80488 3.43851
# Velocity P-wave (km/s) = 6.71643 7.23582 6.98096
#
# Compressibility (1/GPa) = 0.01258327
#
# Stress axis : x y z
#
# Youngs Moduli (GPa) = 124.82750 115.19926 104.96071
#
# Poissons Ratio (x) = 0.24912 0.22371
# Poissons Ratio (y) = 0.26994 0.26492
# Poissons Ratio (z) = 0.26606 0.29076
#
# Static dielectric constant tensor:
#      x y z
#    x 4.431960 0.000000 0.000000 
#    y 0.000000 4.436120 0.000000 
#    z 0.000000 0.000000 4.284480 
# 
# 
# High freq. dielectric constant tensor:
#      x y z
#    x 1.973150 0.000000 0.000000 
#    y 0.000000 1.968410 0.000000 
#    z 0.000000 0.000000 1.961780 
# 
# From -- ./inp_files/2770.got.cif
#   From: 2010.03.12/outbox.cif.g09.slc.cpg/sg37_2_cif.got.tgz:2770.got - 2010.04.14 02:25:27.
