data_PCOD8177894
_publ_section_title
;
Structure prediction by ZEFSAII (Michael W. Deem and Ramdas Pophale) SiO2 
 PCOD8177894
Probable space group: A M M 2
;
_chemical_formula_sum "Si O2"
_cell_formula_units_Z 64
_cell_length_a 8.850612
_cell_length_b 18.546985
_cell_length_c 21.974894
_cell_angle_alpha 90.000000
_cell_angle_beta 90.000000
_cell_angle_gamma 90.000000
_cell_volume 3607.226492
_symmetry_space_group_name_H-M "A M M 2"
_symmetry_group_IT_number 38
_symmetry_cell_setting 'orthorhombic'
loop_
_space_group_symop_operation_xyz
x,y,z
-x,-y,z
-x,y,z
x,-y,z
x,1/2+y,1/2+z
-x,1/2-y,1/2+z
-x,1/2+y,1/2+z
x,1/2-y,1/2+z
loop_
_atom_site_type_symbol
_atom_site_label
_atom_site_fract_x
_atom_site_fract_y
_atom_site_fract_z
Si Si1 0.333269 0.078814 0.026380
Si Si2 0.178663 0.580296 0.316457
Si Si3 0.676404 0.281352 0.009631
Si Si4 0.177162 0.137390 0.689850
Si Si5 0.824240 0.581396 0.060649
Si Si6 0.175211 0.920574 0.148812
Si Si7 0.177629 0.326046 0.429751
Si Si8 0.325271 0.723659 0.642781
O O1 0.500000 0.104472 0.051729
O O2 0.205005 0.077678 0.077210
O O3 0.350327 0.000000 0.998092
O O4 0.282715 0.127958 0.972562
O O5 0.239753 0.500000 0.335335
O O6 0.246400 0.600860 0.250393
O O7 0.222150 0.645483 0.362641
O O8 0.000000 0.575195 0.312669
O O9 0.500000 0.280221 0.994628
O O10 0.725755 0.363652 0.020990
O O11 0.713352 0.232169 0.070098
O O12 0.769581 0.254544 0.949483
O O13 0.219366 0.088544 0.631752
O O14 0.240923 0.217116 0.682203
O O15 0.000000 0.145346 0.697490
O O16 0.787444 0.500000 0.039620
O O17 0.000000 0.600080 0.051220
O O18 0.273909 0.853083 0.172118
O O19 0.000000 0.905543 0.161690
O O20 0.221633 0.000000 0.176282
O O21 0.000000 0.335690 0.441687
O O22 0.500000 0.734945 0.654205
#
# Coordination Sequence:
#
# PCOD8177894 Si02
#       8
#     8   8   8   8   8   8   8   8
#     4  10  19  29  41  60  90 127 162 196 238 285
#     4   9  18  32  50  74 101 131 170 212 249 285
#     4  10  20  32  46  67  97 131 164 200 246 299
#     4   9  17  31  52  73  97 129 166 206 247 293
#     4   9  17  30  51  77 100 124 157 200 249 299
#     4  10  19  29  44  67  93 123 161 201 241 290
#     4  11  20  30  47  68  95 130 170 209 242 284
#     4  10  19  31  47  68  97 130 164 204 250 297
#
# _framework density 17.742162
#
# number of rings (size 3 to 8) (size 9 to 14) (size 15 to 20)
#    0.000    2.250    1.250    2.625    0.000    4.750 
#    0.000    1.250    0.000    2.625    0.000    0.875 
#    0.000    7.000    0.000    0.000    0.000    0.125 
#
# Total GULP energy -396447.196933 kJ/mol
# GULP energy per Si atom -12388.974904 kJ/mol
# Density = 1.770178 g / cm^3
# Si number density = 17.742162 Si / 1000 Ang^3
#
#
#
# Elastic Constant Matrix: (Units=GPa)
#
#
# Indices 1 2 3 4 5 6 
#
# 1 27.0217 19.0263 14.1768 0.0000 0.0000 0.0000
# 2 19.0263 109.8866 33.3513 0.0000 0.0000 0.0000
# 3 14.1768 33.3513 66.2329 0.0000 0.0000 0.0000
# 4 0.0000 0.0000 0.0000 22.6038 0.0000 0.0000
# 5 0.0000 0.0000 0.0000 0.0000 10.8280 0.0000
# 6 0.0000 0.0000 0.0000 0.0000 0.0000 21.8123
#
#
#
# Elastic Compliance Matrix: (Units=1/GPa)
#
#
# Indices 1 2 3 4 5 6 
#
# 1 0.044505 -0.005683 -0.006664 0.000000 0.000000 0.000000
# 2 -0.005683 0.011468 -0.004558 0.000000 0.000000 0.000000
# 3 -0.006664 -0.004558 0.018820 0.000000 0.000000 0.000000
# 4 0.000000 0.000000 0.000000 0.044240 0.000000 0.000000
# 5 0.000000 0.000000 0.000000 0.000000 0.092353 0.000000
# 6 0.000000 0.000000 0.000000 0.000000 0.000000 0.045846
#
#
# Mechanical properties :
#
#
# Convention : Reuss Voigt Hill
#
# Bulk Modulus (GPa) = 24.40115 37.36110 30.88113
# Shear Modulus (GPa) = 16.40939 20.15462 18.28201
#
# Velocity S-wave (km/s) = 3.04449 3.37408 3.21351
# Velocity P-wave (km/s) = 5.11288 6.02351 5.58678
#
# Compressibility (1/GPa) = 0.04098167
#
# Stress axis : x y z
#
# Youngs Moduli (GPa) = 22.46927 87.20148 53.13532
#
# Poissons Ratio (x) = 0.49558 0.35411
# Poissons Ratio (y) = 0.12770 0.24219
# Poissons Ratio (z) = 0.14974 0.39747
#
# Static dielectric constant tensor:
#      x y z
#    x 3.184740 0.000000 0.000000 
#    y 0.000000 3.818260 0.000000 
#    z 0.000000 0.000000 3.224470 
# 
# 
# High freq. dielectric constant tensor:
#      x y z
#    x 1.680880 0.000000 0.000000 
#    y 0.000000 1.700060 0.000000 
#    z 0.000000 0.000000 1.631720 
# 
# From -- ./inp_files/20078.got.cif
#   From: 2010.03.12/outbox.cif.g09.slc.cpg/sg38_11_cif.got.tgz:20078.got - 2010.04.14 02:38:36.
