data_PCOD8177495
_publ_section_title
;
Structure prediction by ZEFSAII (Michael W. Deem and Ramdas Pophale) SiO2 
 PCOD8177495
Probable space group: A M M 2
;
_chemical_formula_sum "Si O2"
_cell_formula_units_Z 48
_cell_length_a 16.734281
_cell_length_b 8.584628
_cell_length_c 18.536338
_cell_angle_alpha 90.000000
_cell_angle_beta 90.000000
_cell_angle_gamma 90.000000
_cell_volume 2662.885408
_symmetry_space_group_name_H-M "A M M 2"
_symmetry_group_IT_number 38
_symmetry_cell_setting 'orthorhombic'
loop_
_space_group_symop_operation_xyz
x,y,z
-x,-y,z
-x,y,z
x,-y,z
x,1/2+y,1/2+z
-x,1/2-y,1/2+z
-x,1/2+y,1/2+z
x,1/2-y,1/2+z
loop_
_atom_site_type_symbol
_atom_site_label
_atom_site_fract_x
_atom_site_fract_y
_atom_site_fract_z
Si Si1 0.256827 0.315270 0.085760
Si Si2 0.168074 0.819501 0.211785
Si Si3 0.688598 0.180056 0.794950
Si Si4 0.586937 0.818706 0.666154
Si Si5 0.090030 0.681122 0.340109
Si Si6 0.762165 0.816606 0.422726
O O1 0.255347 0.500000 0.092530
O O2 0.182130 0.250191 0.131976
O O3 0.341745 0.249017 0.116628
O O4 0.245506 0.256611 0.004473
O O5 0.247525 0.792560 0.257948
O O6 0.097371 0.735006 0.256329
O O7 0.147410 0.000000 0.204948
O O8 0.605806 0.206012 0.751907
O O9 0.689394 0.232988 0.878587
O O10 0.715490 0.000000 0.787995
O O11 0.500000 0.740584 0.650073
O O12 0.580773 0.000000 0.648704
O O13 0.110757 0.500000 0.345451
O O14 0.150681 0.772973 0.392106
O O15 0.000000 0.715965 0.366252
O O16 0.749807 0.000000 0.418589
#
# Coordination Sequence:
#
# PCOD8177495 Si02
#       6
#     8   8   8   8   8   8
#     4   9  18  32  49  70  97 129 163 197 237 285
#     4  10  18  29  49  72  93 120 155 193 232 278
#     4   9  16  28  47  68  92 123 158 194 233 280
#     4   8  14  27  48  70  91 122 165 205 239 280
#     4  10  20  34  52  72  95 124 158 197 240 284
#     4  10  19  31  49  72  98 128 161 196 237 285
#
# _framework density 18.025561
#
# number of rings (size 3 to 8) (size 9 to 14) (size 15 to 20)
#    0.000    2.667    0.000    6.000    0.000    2.667 
#    0.000    1.667    0.000   14.500    0.000    0.000 
#    0.000    0.000    0.000    0.000    0.000    0.000 
#
# Total GULP energy -297350.059207 kJ/mol
# GULP energy per Si atom -12389.585800 kJ/mol
# Density = 1.798453 g / cm^3
# Si number density = 18.025561 Si / 1000 Ang^3
#
#
#
# Elastic Constant Matrix: (Units=GPa)
#
#
# Indices 1 2 3 4 5 6 
#
# 1 81.8006 13.0697 40.4241 0.0000 0.0000 0.0000
# 2 13.0697 41.7969 23.1522 0.0000 0.0000 0.0000
# 3 40.4241 23.1522 145.0470 0.0000 0.0000 0.0000
# 4 0.0000 0.0000 0.0000 27.9991 0.0000 0.0000
# 5 0.0000 0.0000 0.0000 0.0000 18.7180 0.0000
# 6 0.0000 0.0000 0.0000 0.0000 0.0000 13.2180
#
#
#
# Elastic Compliance Matrix: (Units=1/GPa)
#
#
# Indices 1 2 3 4 5 6 
#
# 1 0.014412 -0.002503 -0.003617 0.000000 0.000000 0.000000
# 2 -0.002503 0.026680 -0.003561 0.000000 0.000000 0.000000
# 3 -0.003617 -0.003561 0.008471 0.000000 0.000000 0.000000
# 4 0.000000 0.000000 0.000000 0.035715 0.000000 0.000000
# 5 0.000000 0.000000 0.000000 0.000000 0.053425 0.000000
# 6 0.000000 0.000000 0.000000 0.000000 0.000000 0.075655
#
#
# Mechanical properties :
#
#
# Convention : Reuss Voigt Hill
#
# Bulk Modulus (GPa) = 33.11148 46.88183 39.99665
# Shear Modulus (GPa) = 20.50963 24.78691 22.64827
#
# Velocity S-wave (km/s) = 3.37680 3.71225 3.54849
# Velocity P-wave (km/s) = 5.79765 6.66629 6.24709
#
# Compressibility (1/GPa) = 0.03020101
#
# Stress axis : x y z
#
# Youngs Moduli (GPa) = 69.38525 37.48059 118.05250
#
# Poissons Ratio (x) = 0.09382 0.42701
# Poissons Ratio (y) = 0.17368 0.42040
# Poissons Ratio (z) = 0.25097 0.13347
#
# Static dielectric constant tensor:
#      x y z
#    x 3.374890 0.000000 0.000000 
#    y 0.000000 3.158920 0.000000 
#    z 0.000000 0.000000 3.657750 
# 
# 
# High freq. dielectric constant tensor:
#      x y z
#    x 1.673600 0.000000 0.000000 
#    y 0.000000 1.688280 0.000000 
#    z 0.000000 0.000000 1.693570 
# 
# From -- ./inp_files/18585.got.cif
#   From: 2010.03.12/outbox.cif.g09.slc.cpg/sg38_10_cif.got.tgz:18585.got - 2010.04.14 02:38:36.
