data_PCOD8177915
_publ_section_title
;
Structure prediction by ZEFSAII (Michael W. Deem and Ramdas Pophale) SiO2 
 PCOD8177915
Probable space group: A M M 2
;
_chemical_formula_sum "Si O2"
_cell_formula_units_Z 48
_cell_length_a 9.422881
_cell_length_b 18.286485
_cell_length_c 16.917448
_cell_angle_alpha 90.000000
_cell_angle_beta 90.000000
_cell_angle_gamma 90.000000
_cell_volume 2915.068677
_symmetry_space_group_name_H-M "A M M 2"
_symmetry_group_IT_number 38
_symmetry_cell_setting 'orthorhombic'
loop_
_space_group_symop_operation_xyz
x,y,z
-x,-y,z
-x,y,z
x,-y,z
x,1/2+y,1/2+z
-x,1/2-y,1/2+z
-x,1/2+y,1/2+z
x,1/2-y,1/2+z
loop_
_atom_site_type_symbol
_atom_site_label
_atom_site_fract_x
_atom_site_fract_y
_atom_site_fract_z
Si Si1 0.666710 0.684175 0.701770
Si Si2 0.843601 0.190104 0.962325
Si Si3 0.167893 0.821832 0.358539
Si Si4 0.168671 0.918711 0.503660
Si Si5 0.841701 0.294390 0.112469
Si Si6 0.334810 0.083036 0.053956
O O1 0.500000 0.693689 0.715989
O O2 0.743506 0.658377 0.781027
O O3 0.731675 0.762364 0.675904
O O4 0.700893 0.622912 0.636238
O O5 0.795236 0.239094 0.887319
O O6 0.000000 0.157351 0.946670
O O7 0.849586 0.243408 0.036486
O O8 0.738793 0.122821 0.979445
O O9 0.221843 0.879830 0.423729
O O10 0.000000 0.829526 0.342144
O O11 0.214434 0.873364 0.582070
O O12 0.000000 0.920762 0.501203
O O13 0.234217 0.000000 0.508868
O O14 0.000000 0.299834 0.150375
O O15 0.500000 0.085876 0.035884
O O16 0.279329 0.000000 0.060175
#
# Coordination Sequence:
#
# PCOD8177915 Si02
#       6
#     8   8   8   8   8   8
#     4  10  19  29  43  64  90 119 149 178 210 255
#     4   8  15  28  45  64  84 110 147 185 216 250
#     4   9  17  29  45  66  92 117 142 177 217 255
#     4   8  14  26  46  70  91 112 141 177 217 260
#     4   8  14  27  46  64  84 112 146 182 216 251
#     4   9  18  31  45  63  89 118 145 177 218 259
#
# _framework density 16.466163999999999
#
# number of rings (size 3 to 8) (size 9 to 14) (size 15 to 20)
#    0.000    3.333    0.000    2.500    0.000    2.333 
#    0.000    2.500    0.000    2.500    0.000    2.333 
#    0.000    0.000    0.000    0.000    0.000    0.000 
#
# Total GULP energy -297448.377926 kJ/mol
# GULP energy per Si atom -12393.682414 kJ/mol
# Density = 1.642869 g / cm^3
# Si number density = 16.466164 Si / 1000 Ang^3
#
#
#
# Elastic Constant Matrix: (Units=GPa)
#
#
# Indices 1 2 3 4 5 6 
#
# 1 51.2402 40.5715 16.0001 0.0000 0.0000 0.0000
# 2 40.5715 125.1893 35.5176 0.0000 0.0000 0.0000
# 3 16.0001 35.5176 20.6914 0.0000 0.0000 0.0000
# 4 0.0000 0.0000 0.0000 17.3844 0.0000 0.0000
# 5 0.0000 0.0000 0.0000 0.0000 24.9812 0.0000
# 6 0.0000 0.0000 0.0000 0.0000 0.0000 17.8253
#
#
#
# Elastic Compliance Matrix: (Units=1/GPa)
#
#
# Indices 1 2 3 4 5 6 
#
# 1 0.027630 -0.005639 -0.011686 0.000000 0.000000 0.000000
# 2 -0.005639 0.016722 -0.024343 0.000000 0.000000 0.000000
# 3 -0.011686 -0.024343 0.099152 0.000000 0.000000 0.000000
# 4 0.000000 0.000000 0.000000 0.057523 0.000000 0.000000
# 5 0.000000 0.000000 0.000000 0.000000 0.040030 0.000000
# 6 0.000000 0.000000 0.000000 0.000000 0.000000 0.056100
#
#
# Mechanical properties :
#
#
# Convention : Reuss Voigt Hill
#
# Bulk Modulus (GPa) = 16.62036 42.36662 29.49349
# Shear Modulus (GPa) = 12.48286 19.04028 15.76157
#
# Velocity S-wave (km/s) = 2.75633 3.40417 3.09724
# Velocity P-wave (km/s) = 4.49949 6.42157 5.54445
#
# Compressibility (1/GPa) = 0.06016717
#
# Stress axis : x y z
#
# Youngs Moduli (GPa) = 36.19287 59.80222 10.08550
#
# Poissons Ratio (x) = 0.33721 0.11786
# Poissons Ratio (y) = 0.20408 0.24551
# Poissons Ratio (z) = 0.42296 1.45578
#
# Static dielectric constant tensor:
#      x y z
#    x 2.993910 0.000000 0.000000 
#    y 0.000000 3.413800 0.000000 
#    z 0.000000 0.000000 2.966220 
# 
# 
# High freq. dielectric constant tensor:
#      x y z
#    x 1.615780 0.000000 0.000000 
#    y 0.000000 1.625150 0.000000 
#    z 0.000000 0.000000 1.613090 
# 
# From -- ./inp_files/12041.got.cif
#   From: 2010.03.12/outbox.cif.g09.slc.cpg/sg38_7_cif.got.tgz:12041.got - 2010.04.14 02:38:36.
