data_PCOD8177682
_publ_section_title
;
Structure prediction by ZEFSAII (Michael W. Deem and Ramdas Pophale) SiO2 
 PCOD8177682
Probable space group: A M M 2
;
_chemical_formula_sum "Si O2"
_cell_formula_units_Z 48
_cell_length_a 17.092945
_cell_length_b 9.266977
_cell_length_c 15.216917
_cell_angle_alpha 90.000000
_cell_angle_beta 90.000000
_cell_angle_gamma 90.000000
_cell_volume 2410.358560
_symmetry_space_group_name_H-M "A M M 2"
_symmetry_group_IT_number 38
_symmetry_cell_setting 'orthorhombic'
loop_
_space_group_symop_operation_xyz
x,y,z
-x,-y,z
-x,y,z
x,-y,z
x,1/2+y,1/2+z
-x,1/2-y,1/2+z
-x,1/2+y,1/2+z
x,1/2-y,1/2+z
loop_
_atom_site_type_symbol
_atom_site_label
_atom_site_fract_x
_atom_site_fract_y
_atom_site_fract_z
Si Si1 0.000000 0.162488 0.595940
Si Si2 0.000000 0.336014 0.305456
Si Si3 0.850767 0.335238 0.598187
Si Si4 0.411175 0.330056 0.188854
Si Si5 0.319001 0.664971 0.544331
Si Si6 0.302316 0.334456 0.347970
Si Si7 0.849236 0.833656 0.305664
O O1 0.000000 0.168208 0.700654
O O2 0.077803 0.241013 0.560112
O O3 0.000000 0.000000 0.560230
O O4 0.924137 0.252951 0.341937
O O5 0.000000 0.500000 0.340340
O O6 0.868592 0.500000 0.572822
O O7 0.770308 0.280118 0.554865
O O8 0.841938 0.315691 0.701797
O O9 0.500000 0.278533 0.202482
O O10 0.405996 0.500000 0.176133
O O11 0.377859 0.259058 0.101099
O O12 0.362716 0.279943 0.274203
O O13 0.324176 0.500000 0.577337
O O14 0.344139 0.679054 0.442622
O O15 0.276596 0.500000 0.330260
O O16 0.226981 0.233614 0.349575
O O17 0.857282 0.000000 0.333329
#
# Coordination Sequence:
#
# PCOD8177682 Si02
#       7
#     4   4   8   8   8   8   8
#     4   9  17  27  46  77 108 144 190 232 278 328
#     4   9  17  29  48  77 112 150 196 240 284 334
#     4   9  17  31  51  76 109 146 187 233 280 325
#     4  10  22  40  61  86 116 148 182 229 289 345
#     4  10  21  38  60  87 114 150 194 234 279 337
#     4  10  21  37  59  85 116 151 190 233 282 341
#     4  10  18  31  53  80 113 150 193 240 286 333
#
# _framework density 19.914048999999999
#
# number of rings (size 3 to 8) (size 9 to 14) (size 15 to 20)
#    0.000    2.333    1.667    1.000    0.000    5.000 
#    0.000    2.500    0.000    2.000    0.000    0.000 
#    0.000    0.000    0.000    0.000    0.000    0.000 
#
# Total GULP energy -297663.707409 kJ/mol
# GULP energy per Si atom -12402.654475 kJ/mol
# Density = 1.986872 g / cm^3
# Si number density = 19.914049 Si / 1000 Ang^3
#
#
#
# Elastic Constant Matrix: (Units=GPa)
#
#
# Indices 1 2 3 4 5 6 
#
# 1 143.6159 58.8606 46.5094 0.0000 0.0000 0.0000
# 2 58.8606 90.5002 34.9613 0.0000 0.0000 0.0000
# 3 46.5094 34.9613 67.9466 0.0000 0.0000 0.0000
# 4 0.0000 0.0000 0.0000 22.9540 0.0000 0.0000
# 5 0.0000 0.0000 0.0000 0.0000 6.3343 0.0000
# 6 0.0000 0.0000 0.0000 0.0000 0.0000 34.8686
#
#
#
# Elastic Compliance Matrix: (Units=1/GPa)
#
#
# Indices 1 2 3 4 5 6 
#
# 1 0.010531 -0.005073 -0.004598 0.000000 0.000000 0.000000
# 2 -0.005073 0.016235 -0.004881 0.000000 0.000000 0.000000
# 3 -0.004598 -0.004881 0.020377 0.000000 0.000000 0.000000
# 4 0.000000 0.000000 0.000000 0.043565 0.000000 0.000000
# 5 0.000000 0.000000 0.000000 0.000000 0.157870 0.000000
# 6 0.000000 0.000000 0.000000 0.000000 0.000000 0.028679
#
#
# Mechanical properties :
#
#
# Convention : Reuss Voigt Hill
#
# Bulk Modulus (GPa) = 55.43922 64.74728 60.09325
# Shear Modulus (GPa) = 16.00639 23.61346 19.80993
#
# Velocity S-wave (km/s) = 2.83817 3.44724 3.15742
# Velocity P-wave (km/s) = 6.21610 6.95906 6.59805
#
# Compressibility (1/GPa) = 0.01803777
#
# Stress axis : x y z
#
# Youngs Moduli (GPa) = 94.95420 61.59620 49.07613
#
# Poissons Ratio (x) = 0.31248 0.22567
# Poissons Ratio (y) = 0.48171 0.23954
# Poissons Ratio (z) = 0.43664 0.30065
#
# Static dielectric constant tensor:
#      x y z
#    x 3.659030 0.000000 0.000000 
#    y 0.000000 3.603810 0.000000 
#    z 0.000000 0.000000 3.417420 
# 
# 
# High freq. dielectric constant tensor:
#      x y z
#    x 1.774550 0.000000 0.000000 
#    y 0.000000 1.772490 0.000000 
#    z 0.000000 0.000000 1.764760 
# 
# From -- ./inp_files/15051.got.cif
#   From: 2010.03.12/outbox.cif.g09.slc.cpg/sg38_8_cif.got.tgz:15051.got - 2010.04.14 02:38:36.
