data_PCOD8177290
_publ_section_title
;
Structure prediction by ZEFSAII (Michael W. Deem and Ramdas Pophale) SiO2 
 PCOD8177290
Probable space group: A M M 2
;
_chemical_formula_sum "Si O2"
_cell_formula_units_Z 64
_cell_length_a 9.940211
_cell_length_b 14.338594
_cell_length_c 23.889973
_cell_angle_alpha 90.000000
_cell_angle_beta 90.000000
_cell_angle_gamma 90.000000
_cell_volume 3405.005596
_symmetry_space_group_name_H-M "A M M 2"
_symmetry_group_IT_number 38
_symmetry_cell_setting 'orthorhombic'
loop_
_space_group_symop_operation_xyz
x,y,z
-x,-y,z
-x,y,z
x,-y,z
x,1/2+y,1/2+z
-x,1/2-y,1/2+z
-x,1/2+y,1/2+z
x,1/2-y,1/2+z
loop_
_atom_site_type_symbol
_atom_site_label
_atom_site_fract_x
_atom_site_fract_y
_atom_site_fract_z
Si Si1 0.345553 0.400163 0.002150
Si Si2 0.658298 0.236436 0.926615
Si Si3 0.843326 0.390061 0.491233
Si Si4 0.146007 0.194336 0.105253
Si Si5 0.212525 0.897027 0.614252
Si Si6 0.653996 0.397824 0.232560
Si Si7 0.843384 0.390194 0.719221
Si Si8 0.656385 0.719308 0.799522
O O1 0.500000 0.401083 0.985823
O O2 0.280630 0.500000 0.983885
O O3 0.331880 0.388662 0.068974
O O4 0.281116 0.315500 0.968007
O O5 0.500000 0.212445 0.935621
O O6 0.750032 0.146286 0.940051
O O7 0.684046 0.276631 0.865196
O O8 0.825474 0.500000 0.494806
O O9 0.783764 0.344494 0.548909
O O10 0.000000 0.362444 0.481188
O O11 0.121501 0.306463 0.103207
O O12 0.216162 0.159912 0.162951
O O13 0.000000 0.145960 0.105969
O O14 0.265318 0.885233 0.676140
O O15 0.140904 0.000000 0.608278
O O16 0.500000 0.385856 0.215968
O O17 0.681599 0.500000 0.259135
O O18 0.698582 0.321068 0.277022
O O19 0.826011 0.500000 0.712258
O O20 0.752409 0.357507 0.771429
O O21 0.000000 0.363077 0.729975
O O22 0.500000 0.695525 0.786829
#
# Coordination Sequence:
#
# PCOD8177290 Si02
#       8
#     8   8   8   8   8   8   8   8
#     4   9  17  30  49  74 104 137 172 212 265 328
#     4  10  21  36  56  82 110 143 183 228 275 322
#     4  10  21  38  59  81 109 148 190 229 275 332
#     4  10  19  34  55  79 109 144 181 226 279 338
#     4  10  17  28  51  78 102 133 173 218 273 330
#     4   9  17  30  49  74 104 137 172 212 265 328
#     4  10  21  38  59  81 109 148 190 229 275 332
#     4  10  21  36  56  82 110 143 183 228 275 322
#
# _framework density 18.795857000000002
#
# number of rings (size 3 to 8) (size 9 to 14) (size 15 to 20)
#    0.000    2.250    2.500    0.750    0.000    5.250 
#    0.000    3.125    0.000    2.250    0.000    0.000 
#    0.000    0.000    0.000    0.000    0.000    0.000 
#
# Total GULP energy -396470.485107 kJ/mol
# GULP energy per Si atom -12389.702660 kJ/mol
# Density = 1.875308 g / cm^3
# Si number density = 18.795857 Si / 1000 Ang^3
#
#
#
# Elastic Constant Matrix: (Units=GPa)
#
#
# Indices 1 2 3 4 5 6 
#
# 1 56.8985 38.5655 36.8663 0.0000 0.0000 0.0000
# 2 38.5655 110.8960 33.6425 0.0000 0.0000 0.0000
# 3 36.8663 33.6425 89.8769 0.0000 0.0000 0.0000
# 4 0.0000 0.0000 0.0000 24.3801 0.0000 0.0000
# 5 0.0000 0.0000 0.0000 0.0000 19.4985 0.0000
# 6 0.0000 0.0000 0.0000 0.0000 0.0000 26.5807
#
#
#
# Elastic Compliance Matrix: (Units=1/GPa)
#
#
# Indices 1 2 3 4 5 6 
#
# 1 0.028140 -0.007089 -0.008889 0.000000 0.000000 0.000000
# 2 -0.007089 0.011959 -0.001568 0.000000 0.000000 0.000000
# 3 -0.008889 -0.001568 0.015359 0.000000 0.000000 0.000000
# 4 0.000000 0.000000 0.000000 0.041017 0.000000 0.000000
# 5 0.000000 0.000000 0.000000 0.000000 0.051286 0.000000
# 6 0.000000 0.000000 0.000000 0.000000 0.000000 0.037621
#
#
# Mechanical properties :
#
#
# Convention : Reuss Voigt Hill
#
# Bulk Modulus (GPa) = 49.10464 52.86890 50.98677
# Shear Modulus (GPa) = 22.00090 23.99833 22.99962
#
# Velocity S-wave (km/s) = 3.42500 3.57709 3.50187
# Velocity P-wave (km/s) = 6.46705 6.72680 6.59820
#
# Compressibility (1/GPa) = 0.02036467
#
# Stress axis : x y z
#
# Youngs Moduli (GPa) = 35.53712 83.62146 65.10634
#
# Poissons Ratio (x) = 0.59282 0.57872
# Poissons Ratio (y) = 0.25193 0.10211
# Poissons Ratio (z) = 0.31588 0.13115
#
# Static dielectric constant tensor:
#      x y z
#    x 3.149130 0.000000 0.000000 
#    y 0.000000 3.717240 0.000000 
#    z 0.000000 0.000000 3.415140 
# 
# 
# High freq. dielectric constant tensor:
#      x y z
#    x 1.696260 0.000000 0.000000 
#    y 0.000000 1.744770 0.000000 
#    z 0.000000 0.000000 1.727020 
# 
# From -- ./inp_files/22585.got.cif
#   From: 2010.03.12/outbox.cif.g09.slc.cpg/sg38_12_cif.got.tgz:22585.got - 2010.04.14 02:38:36.
