data_PCOD8177365
_publ_section_title
;
Structure prediction by ZEFSAII (Michael W. Deem and Ramdas Pophale) SiO2 
 PCOD8177365
Probable space group: A M M 2
;
_chemical_formula_sum "Si O2"
_cell_formula_units_Z 64
_cell_length_a 9.100483
_cell_length_b 18.332002
_cell_length_c 25.859975
_cell_angle_alpha 90.000000
_cell_angle_beta 90.000000
_cell_angle_gamma 90.000000
_cell_volume 4314.221506
_symmetry_space_group_name_H-M "A M M 2"
_symmetry_group_IT_number 38
_symmetry_cell_setting 'orthorhombic'
loop_
_space_group_symop_operation_xyz
x,y,z
-x,-y,z
-x,y,z
x,-y,z
x,1/2+y,1/2+z
-x,1/2-y,1/2+z
-x,1/2+y,1/2+z
x,1/2-y,1/2+z
loop_
_atom_site_type_symbol
_atom_site_label
_atom_site_fract_x
_atom_site_fract_y
_atom_site_fract_z
Si Si1 0.828308 0.165752 0.532510
Si Si2 0.330183 0.082344 0.444869
Si Si3 0.825574 0.665715 0.737976
Si Si4 0.331300 0.584447 0.825726
Si Si5 0.665380 0.294892 0.190445
Si Si6 0.827564 0.916034 0.636199
Si Si7 0.662355 0.787207 0.082129
Si Si8 0.328631 0.916707 0.147169
O O1 0.760438 0.137697 0.479580
O O2 0.780506 0.113279 0.579683
O O3 0.774055 0.248450 0.542936
O O4 0.000000 0.168053 0.525230
O O5 0.500000 0.088618 0.459913
O O6 0.305193 0.103818 0.385487
O O7 0.274440 0.000000 0.454798
O O8 0.777724 0.635375 0.793568
O O9 0.756472 0.746319 0.731173
O O10 0.768998 0.609221 0.695014
O O11 0.000000 0.672014 0.734573
O O12 0.500000 0.600058 0.810012
O O13 0.294105 0.500000 0.815049
O O14 0.500000 0.307553 0.211222
O O15 0.743638 0.372874 0.181661
O O16 0.663581 0.252822 0.136796
O O17 0.000000 0.904593 0.644571
O O18 0.780777 0.000000 0.639795
O O19 0.500000 0.783882 0.057250
O O20 0.708837 0.870626 0.095028
O O21 0.500000 0.905493 0.162086
O O22 0.291226 0.000000 0.134590
#
# Coordination Sequence:
#
# PCOD8177365 Si02
#       8
#     8   8   8   8   8   8   8   8
#     4  10  18  27  41  60  83 111 139 168 204 243
#     4   9  18  31  45  60  79 106 140 175 207 239
#     4  11  20  28  41  61  84 110 139 170 207 248
#     4   9  18  32  46  59  79 108 140 173 207 241
#     4   9  17  29  43  58  78 107 142 175 204 238
#     4   9  17  28  41  60  87 114 138 168 208 249
#     4   8  15  27  41  57  78 106 138 169 200 237
#     4   9  17  29  44  61  82 109 140 172 205 242
#
# _framework density 14.834657999999999
#
# number of rings (size 3 to 8) (size 9 to 14) (size 15 to 20)
#    0.000    2.750    0.000    4.125    0.000    7.000 
#    0.000    1.250    0.000    0.000    0.000    0.000 
#    0.000    1.000    0.000    8.250    0.000    3.875 
#
# Total GULP energy -396737.635580 kJ/mol
# GULP energy per Si atom -12398.051112 kJ/mol
# Density = 1.480089 g / cm^3
# Si number density = 14.834658 Si / 1000 Ang^3
#
#
#
# Elastic Constant Matrix: (Units=GPa)
#
#
# Indices 1 2 3 4 5 6 
#
# 1 83.1155 47.7683 42.7594 0.0000 0.0000 0.0000
# 2 47.7683 102.8684 44.4827 0.0000 0.0000 0.0000
# 3 42.7594 44.4827 62.4534 0.0000 0.0000 0.0000
# 4 0.0000 0.0000 0.0000 25.4593 0.0000 0.0000
# 5 0.0000 0.0000 0.0000 0.0000 19.5598 0.0000
# 6 0.0000 0.0000 0.0000 0.0000 0.0000 21.2348
#
#
#
# Elastic Compliance Matrix: (Units=1/GPa)
#
#
# Indices 1 2 3 4 5 6 
#
# 1 0.020149 -0.004900 -0.010305 0.000000 0.000000 0.000000
# 2 -0.004900 0.015240 -0.007499 0.000000 0.000000 0.000000
# 3 -0.010305 -0.007499 0.028409 0.000000 0.000000 0.000000
# 4 0.000000 0.000000 0.000000 0.039278 0.000000 0.000000
# 5 0.000000 0.000000 0.000000 0.000000 0.051125 0.000000
# 6 0.000000 0.000000 0.000000 0.000000 0.000000 0.047093
#
#
# Mechanical properties :
#
#
# Convention : Reuss Voigt Hill
#
# Bulk Modulus (GPa) = 54.38308 57.60645 55.99477
# Shear Modulus (GPa) = 19.77588 20.81258 20.29423
#
# Velocity S-wave (km/s) = 3.65511 3.74969 3.70270
# Velocity P-wave (km/s) = 7.38594 7.59365 7.49052
#
# Compressibility (1/GPa) = 0.01838807
#
# Stress axis : x y z
#
# Youngs Moduli (GPa) = 49.62933 65.61837 35.20021
#
# Poissons Ratio (x) = 0.32156 0.36274
# Poissons Ratio (y) = 0.24321 0.26398
# Poissons Ratio (z) = 0.51144 0.49210
#
# Static dielectric constant tensor:
#      x y z
#    x 2.907830 0.000000 0.000000 
#    y 0.000000 3.004400 0.000000 
#    z 0.000000 0.000000 2.622140 
# 
# 
# High freq. dielectric constant tensor:
#      x y z
#    x 1.573030 0.000000 0.000000 
#    y 0.000000 1.559220 0.000000 
#    z 0.000000 0.000000 1.530930 
# 
# From -- ./inp_files/22253.got.cif
#   From: 2010.03.12/outbox.cif.g09.slc.cpg/sg38_12_cif.got.tgz:22253.got - 2010.04.14 02:38:36.
