data_PCOD8177885
_publ_section_title
;
Structure prediction by ZEFSAII (Michael W. Deem and Ramdas Pophale) SiO2 
 PCOD8177885
Probable space group: A M M 2
;
_chemical_formula_sum "Si O2"
_cell_formula_units_Z 44
_cell_length_a 12.332853
_cell_length_b 44.488202
_cell_length_c 5.175825
_cell_angle_alpha 90.000000
_cell_angle_beta 90.000000
_cell_angle_gamma 90.000000
_cell_volume 2839.801557
_symmetry_space_group_name_H-M "A M M 2"
_symmetry_group_IT_number 38
_symmetry_cell_setting 'orthorhombic'
loop_
_space_group_symop_operation_xyz
x,y,z
-x,-y,z
-x,y,z
x,-y,z
x,1/2+y,1/2+z
-x,1/2-y,1/2+z
-x,1/2+y,1/2+z
x,1/2-y,1/2+z
loop_
_atom_site_type_symbol
_atom_site_label
_atom_site_fract_x
_atom_site_fract_y
_atom_site_fract_z
Si Si1 0.000000 0.731591 0.935360
Si Si2 0.629274 0.466083 0.877119
Si Si3 0.767163 0.730005 0.842811
Si Si4 0.371170 0.863632 0.874950
Si Si5 0.371199 0.171868 0.374502
Si Si6 0.629368 0.931288 0.877099
O O1 0.112893 0.714427 0.871166
O O2 0.000000 0.760235 0.739141
O O3 0.500000 0.466530 0.877072
O O4 0.674697 0.500000 0.876787
O O5 0.673710 0.448669 0.627246
O O6 0.673737 0.448741 0.127321
O O7 0.752656 0.744481 0.560618
O O8 0.676243 0.705126 0.880179
O O9 0.500000 0.865045 0.877408
O O10 0.329245 0.846483 0.621930
O O11 0.324240 0.897428 0.876861
O O12 0.328371 0.845889 0.124473
O O13 0.500000 0.175100 0.374149
O O14 0.500000 0.930746 0.876846
#
# Coordination Sequence:
#
# PCOD8177885 Si02
#       6
#     4   8   8   8   8   8
#     4   8  16  30  46  62  78  98 124 152 185 230
#     4   9  15  21  30  46  65  85 116 160 200 224
#     4  10  19  31  46  62  80 101 125 157 197 236
#     4   9  17  28  39  52  72 100 132 161 190 226
#     4  10  19  29  41  58  79 101 128 163 195 228
#     4   9  15  23  34  45  62  91 122 154 191 224
#
# _framework density 15.494039000000001
#
# number of rings (size 3 to 8) (size 9 to 14) (size 15 to 20)
#    0.000    2.727    0.000    2.727    0.000    7.273 
#    0.000    0.000    0.000    0.000    0.000    0.000 
#    0.000    0.000    0.000    0.000    0.000    0.000 
#
# Total GULP energy -272698.638968 kJ/mol
# GULP energy per Si atom -12395.392680 kJ/mol
# Density = 1.545877 g / cm^3
# Si number density = 15.494039 Si / 1000 Ang^3
#
#
#
# Elastic Constant Matrix: (Units=GPa)
#
#
# Indices 1 2 3 4 5 6 
#
# 1 22.3530 24.3484 16.3018 0.0000 0.0000 0.0000
# 2 24.3484 107.5275 51.5196 0.0000 0.0000 0.0000
# 3 16.3018 51.5196 136.3230 0.0000 0.0000 0.0000
# 4 0.0000 0.0000 0.0000 31.2551 0.0000 0.0000
# 5 0.0000 0.0000 0.0000 0.0000 8.3045 0.0000
# 6 0.0000 0.0000 0.0000 0.0000 0.0000 0.5747
#
#
#
# Elastic Compliance Matrix: (Units=1/GPa)
#
#
# Indices 1 2 3 4 5 6 
#
# 1 0.060071 -0.012407 -0.002494 0.000000 0.000000 0.000000
# 2 -0.012407 0.013919 -0.003777 0.000000 0.000000 0.000000
# 3 -0.002494 -0.003777 0.009061 0.000000 0.000000 0.000000
# 4 0.000000 0.000000 0.000000 0.031995 0.000000 0.000000
# 5 0.000000 0.000000 0.000000 0.000000 0.120417 0.000000
# 6 0.000000 0.000000 0.000000 0.000000 0.000000 1.739968
#
#
# Mechanical properties :
#
#
# Convention : Reuss Voigt Hill
#
# Bulk Modulus (GPa) = 21.88459 50.06034 35.97246
# Shear Modulus (GPa) = 2.46546 19.62910 11.04728
#
# Velocity S-wave (km/s) = 1.26281 3.56319 2.67311
# Velocity P-wave (km/s) = 4.03503 7.02196 5.72667
#
# Compressibility (1/GPa) = 0.04569426
#
# Stress axis : x y z
#
# Youngs Moduli (GPa) = 16.64706 71.84473 110.36223
#
# Poissons Ratio (x) = 0.89139 0.27529
# Poissons Ratio (y) = 0.20654 0.41679
# Poissons Ratio (z) = 0.04152 0.27133
#
# Static dielectric constant tensor:
#      x y z
#    x 2.471520 0.000000 0.000000 
#    y 0.000000 2.969300 0.000000 
#    z 0.000000 0.000000 3.280150 
# 
# 
# High freq. dielectric constant tensor:
#      x y z
#    x 1.515130 0.000000 0.000000 
#    y 0.000000 1.590660 0.000000 
#    z 0.000000 0.000000 1.622610 
# 
# From -- ./inp_files/1355.got.cif
#   From: 2010.03.12/outbox.cif.g09.slc.cpg/sg38_1_cif.got.tgz:1355.got - 2010.04.14 02:38:36.
