data_PCOD8177443
_publ_section_title
;
Structure prediction by ZEFSAII (Michael W. Deem and Ramdas Pophale) SiO2 
 PCOD8177443
Probable space group: A M M 2
;
_chemical_formula_sum "Si O2"
_cell_formula_units_Z 48
_cell_length_a 9.061941
_cell_length_b 16.564721
_cell_length_c 18.941777
_cell_angle_alpha 90.000000
_cell_angle_beta 90.000000
_cell_angle_gamma 90.000000
_cell_volume 2843.322195
_symmetry_space_group_name_H-M "A M M 2"
_symmetry_group_IT_number 38
_symmetry_cell_setting 'orthorhombic'
loop_
_space_group_symop_operation_xyz
x,y,z
-x,-y,z
-x,y,z
x,-y,z
x,1/2+y,1/2+z
-x,1/2-y,1/2+z
-x,1/2+y,1/2+z
x,1/2-y,1/2+z
loop_
_atom_site_type_symbol
_atom_site_label
_atom_site_fract_x
_atom_site_fract_y
_atom_site_fract_z
Si Si1 0.170363 0.826043 0.439920
Si Si2 0.324653 0.000000 0.252130
Si Si3 0.326868 0.239731 0.815506
Si Si4 0.675426 0.199744 0.027922
Si Si5 0.673793 0.837107 0.182709
Si Si6 0.326323 0.089122 0.900144
Si Si7 0.833396 0.500000 0.897673
O O1 0.236918 0.799829 0.364996
O O2 0.256008 0.784885 0.504603
O O3 0.192371 0.922121 0.446982
O O4 0.000000 0.800444 0.442712
O O5 0.260521 0.079296 0.212981
O O6 0.500000 0.000000 0.250608
O O7 0.277938 0.000000 0.332901
O O8 0.500000 0.253810 0.830921
O O9 0.287131 0.262116 0.734721
O O10 0.283262 0.146801 0.833786
O O11 0.500000 0.208749 0.028002
O O12 0.739917 0.179209 0.105200
O O13 0.727645 0.130381 0.973088
O O14 0.500000 0.846600 0.175516
O O15 0.500000 0.078628 0.903638
O O16 0.253182 0.000000 0.891492
O O17 0.000000 0.500000 0.867092
#
# Coordination Sequence:
#
# PCOD8177443 Si02
#       7
#     8   4   8   8   8   8   4
#     4  10  19  32  48  68  93 124 161 196 235 278
#     4  10  18  28  48  76 102 125 150 187 240 293
#     4   9  16  29  48  69  93 123 156 191 232 278
#     4   9  18  31  47  67  95 124 156 193 234 283
#     4   9  17  28  46  72  99 123 150 188 233 283
#     4   8  14  24  42  66  87 113 151 190 225 264
#     4  10  20  32  48  70  96 123 158 203 238 279
#
# _framework density 16.88166
#
# number of rings (size 3 to 8) (size 9 to 14) (size 15 to 20)
#    0.000    2.833    1.667    1.500    1.167    0.667 
#    0.000    1.667    1.833    8.000    0.000    0.000 
#    0.000    0.000    0.000    0.000    0.000    0.000 
#
# Total GULP energy -297464.208914 kJ/mol
# GULP energy per Si atom -12394.342038 kJ/mol
# Density = 1.684324 g / cm^3
# Si number density = 16.881660 Si / 1000 Ang^3
#
#
#
# Elastic Constant Matrix: (Units=GPa)
#
#
# Indices 1 2 3 4 5 6 
#
# 1 27.5141 23.9936 14.1836 0.0000 0.0000 0.0000
# 2 23.9936 153.6791 72.2505 0.0000 0.0000 0.0000
# 3 14.1836 72.2505 116.2158 0.0000 0.0000 0.0000
# 4 0.0000 0.0000 0.0000 22.1308 0.0000 0.0000
# 5 0.0000 0.0000 0.0000 0.0000 6.5807 0.0000
# 6 0.0000 0.0000 0.0000 0.0000 0.0000 16.7849
#
#
#
# Elastic Compliance Matrix: (Units=1/GPa)
#
#
# Indices 1 2 3 4 5 6 
#
# 1 0.042255 -0.005896 -0.001492 0.000000 0.000000 0.000000
# 2 -0.005896 0.010017 -0.005508 0.000000 0.000000 0.000000
# 3 -0.001492 -0.005508 0.012211 0.000000 0.000000 0.000000
# 4 0.000000 0.000000 0.000000 0.045186 0.000000 0.000000
# 5 0.000000 0.000000 0.000000 0.000000 0.151960 0.000000
# 6 0.000000 0.000000 0.000000 0.000000 0.000000 0.059577
#
#
# Mechanical properties :
#
#
# Convention : Reuss Voigt Hill
#
# Bulk Modulus (GPa) = 25.84483 57.58493 41.71488
# Shear Modulus (GPa) = 13.89294 21.56470 17.72882
#
# Velocity S-wave (km/s) = 2.87184 3.57796 3.24417
# Velocity P-wave (km/s) = 5.13218 7.15919 6.22870
#
# Compressibility (1/GPa) = 0.03869245
#
# Stress axis : x y z
#
# Youngs Moduli (GPa) = 23.66556 99.82914 81.89336
#
# Poissons Ratio (x) = 0.58859 0.12215
# Poissons Ratio (y) = 0.13953 0.45107
# Poissons Ratio (z) = 0.03530 0.54986
#
# Static dielectric constant tensor:
#      x y z
#    x 2.845400 0.000000 0.000000 
#    y 0.000000 3.517070 0.000000 
#    z 0.000000 0.000000 3.211890 
# 
# 
# High freq. dielectric constant tensor:
#      x y z
#    x 1.616000 0.000000 0.000000 
#    y 0.000000 1.656950 0.000000 
#    z 0.000000 0.000000 1.635610 
# 
# From -- ./inp_files/19932.got.cif
#   From: 2010.03.12/outbox.cif.g09.slc.cpg/sg38_10_cif.got.tgz:19932.got - 2010.04.14 02:38:36.
