data_PCOD8177545
_publ_section_title
;
Structure prediction by ZEFSAII (Michael W. Deem and Ramdas Pophale) SiO2 
 PCOD8177545
Probable space group: A M M 2
;
_chemical_formula_sum "Si O2"
_cell_formula_units_Z 56
_cell_length_a 17.436530
_cell_length_b 9.579196
_cell_length_c 19.051466
_cell_angle_alpha 90.000000
_cell_angle_beta 90.000000
_cell_angle_gamma 90.000000
_cell_volume 3182.127090
_symmetry_space_group_name_H-M "A M M 2"
_symmetry_group_IT_number 38
_symmetry_cell_setting 'orthorhombic'
loop_
_space_group_symop_operation_xyz
x,y,z
-x,-y,z
-x,y,z
x,-y,z
x,1/2+y,1/2+z
-x,1/2-y,1/2+z
-x,1/2+y,1/2+z
x,1/2-y,1/2+z
loop_
_atom_site_type_symbol
_atom_site_label
_atom_site_fract_x
_atom_site_fract_y
_atom_site_fract_z
Si Si1 0.912637 0.662258 0.569520
Si Si2 0.412551 0.335939 0.787319
Si Si3 0.310750 0.844295 0.547167
Si Si4 0.814237 0.157025 0.667357
Si Si5 0.412775 0.650519 0.626615
Si Si6 0.266915 0.661387 0.308058
Si Si7 0.211449 0.841375 0.957161
O O1 0.905080 0.500000 0.588189
O O2 0.881666 0.745388 0.637459
O O3 0.867645 0.698464 0.497074
O O4 0.000000 0.706770 0.556020
O O5 0.500000 0.294916 0.811289
O O6 0.399659 0.500000 0.801527
O O7 0.401909 0.298340 0.705915
O O8 0.345498 0.246632 0.824958
O O9 0.252891 0.843226 0.611394
O O10 0.386496 0.767417 0.572611
O O11 0.278006 0.761890 0.481260
O O12 0.331564 0.000000 0.522721
O O13 0.779703 0.217556 0.740173
O O14 0.846373 0.000000 0.678571
O O15 0.500000 0.625371 0.609449
O O16 0.370089 0.500000 0.616047
O O17 0.290372 0.500000 0.296331
O O18 0.207317 0.676884 0.373101
O O19 0.233995 0.000000 0.976652
#
# Coordination Sequence:
#
# PCOD8177545 Si02
#       7
#     8   8   8   8   8   8   8
#     4   9  18  34  55  77  99 128 168 207 244 296
#     4   9  18  31  48  72 101 134 171 212 258 302
#     4  10  18  30  48  71  98 126 162 207 248 294
#     4   9  18  31  49  75 102 126 157 200 251 299
#     4   9  17  29  46  69  96 127 166 210 256 302
#     4  10  19  33  51  75 104 134 170 211 252 299
#     4   9  19  34  52  72 100 135 168 202 246 300
#
# _framework density 17.598291
#
# number of rings (size 3 to 8) (size 9 to 14) (size 15 to 20)
#    0.000    2.714    1.429    1.286    0.000    2.571 
#    0.000    2.857    0.000    3.429    0.000    0.000 
#    0.000    0.000    0.000    0.000    0.000    0.000 
#
# Total GULP energy -347008.935266 kJ/mol
# GULP energy per Si atom -12393.176259 kJ/mol
# Density = 1.755824 g / cm^3
# Si number density = 17.598291 Si / 1000 Ang^3
#
#
#
# Elastic Constant Matrix: (Units=GPa)
#
#
# Indices 1 2 3 4 5 6 
#
# 1 88.0747 40.1750 38.5259 0.0000 0.0000 0.0000
# 2 40.1750 73.6037 31.8866 0.0000 0.0000 0.0000
# 3 38.5259 31.8866 80.5677 0.0000 0.0000 0.0000
# 4 0.0000 0.0000 0.0000 21.4460 0.0000 0.0000
# 5 0.0000 0.0000 0.0000 0.0000 21.4661 0.0000
# 6 0.0000 0.0000 0.0000 0.0000 0.0000 27.2384
#
#
#
# Elastic Compliance Matrix: (Units=1/GPa)
#
#
# Indices 1 2 3 4 5 6 
#
# 1 0.016817 -0.006874 -0.005321 0.000000 0.000000 0.000000
# 2 -0.006874 0.019208 -0.004315 0.000000 0.000000 0.000000
# 3 -0.005321 -0.004315 0.016664 0.000000 0.000000 0.000000
# 4 0.000000 0.000000 0.000000 0.046629 0.000000 0.000000
# 5 0.000000 0.000000 0.000000 0.000000 0.046585 0.000000
# 6 0.000000 0.000000 0.000000 0.000000 0.000000 0.036713
#
#
# Mechanical properties :
#
#
# Convention : Reuss Voigt Hill
#
# Bulk Modulus (GPa) = 50.84173 51.49124 51.16649
# Shear Modulus (GPa) = 22.50310 22.80735 22.65523
#
# Velocity S-wave (km/s) = 3.57978 3.60390 3.59186
# Velocity P-wave (km/s) = 6.78523 6.82937 6.80733
#
# Compressibility (1/GPa) = 0.01966888
#
# Stress axis : x y z
#
# Youngs Moduli (GPa) = 59.46315 52.06272 60.00952
#
# Poissons Ratio (x) = 0.35788 0.31931
# Poissons Ratio (y) = 0.40876 0.25893
# Poissons Ratio (z) = 0.31641 0.22464
#
# Static dielectric constant tensor:
#      x y z
#    x 3.124290 0.000000 0.000000 
#    y 0.000000 3.520120 0.000000 
#    z 0.000000 0.000000 3.161360 
# 
# 
# High freq. dielectric constant tensor:
#      x y z
#    x 1.660070 0.000000 0.000000 
#    y 0.000000 1.682900 0.000000 
#    z 0.000000 0.000000 1.665870 
# 
# From -- ./inp_files/21287.got.cif
#   From: 2010.03.12/outbox.cif.g09.slc.cpg/sg38_11_cif.got.tgz:21287.got - 2010.04.14 02:38:36.
