data_PCOD8177788
_publ_section_title
;
Structure prediction by ZEFSAII (Michael W. Deem and Ramdas Pophale) SiO2 
 PCOD8177788
Probable space group: A M M 2
;
_chemical_formula_sum "Si O2"
_cell_formula_units_Z 64
_cell_length_a 24.028723
_cell_length_b 8.902799
_cell_length_c 15.542215
_cell_angle_alpha 90.000000
_cell_angle_beta 90.000000
_cell_angle_gamma 90.000000
_cell_volume 3324.835567
_symmetry_space_group_name_H-M "A M M 2"
_symmetry_group_IT_number 38
_symmetry_cell_setting 'orthorhombic'
loop_
_space_group_symop_operation_xyz
x,y,z
-x,-y,z
-x,y,z
x,-y,z
x,1/2+y,1/2+z
-x,1/2-y,1/2+z
-x,1/2+y,1/2+z
x,1/2-y,1/2+z
loop_
_atom_site_type_symbol
_atom_site_label
_atom_site_fract_x
_atom_site_fract_y
_atom_site_fract_z
Si Si1 0.063018 0.678567 0.495780
Si Si2 0.866108 0.323615 0.144911
Si Si3 0.748594 0.678160 0.398132
Si Si4 0.368152 0.321506 0.331667
Si Si5 0.134312 0.822781 0.837046
Si Si6 0.562753 0.821167 0.994157
Si Si7 0.632483 0.175888 0.155978
Si Si8 0.754339 0.824376 0.094535
O O1 0.065057 0.500000 0.498378
O O2 0.094653 0.738098 0.578994
O O3 0.091788 0.741199 0.408642
O O4 0.000000 0.738539 0.497131
O O5 0.870112 0.500000 0.127429
O O6 0.886770 0.282129 0.241449
O O7 0.802445 0.272455 0.138332
O O8 0.747055 0.500000 0.393420
O O9 0.693872 0.741668 0.350955
O O10 0.803965 0.744806 0.353162
O O11 0.748056 0.729731 0.496756
O O12 0.368695 0.500000 0.327152
O O13 0.408998 0.262562 0.406518
O O14 0.389527 0.256199 0.241623
O O15 0.138328 0.000000 0.848774
O O16 0.500000 0.758938 0.998940
O O17 0.597326 0.759791 0.075712
O O18 0.563962 0.000000 0.994950
O O19 0.697398 0.212538 0.143364
O O20 0.622270 0.000000 0.165374
O O21 0.769853 0.000000 0.099222
#
# Coordination Sequence:
#
# PCOD8177788 Si02
#       8
#     8   8   8   8   8   8   8   8
#     4  10  21  39  61  80 103 145 193 224 254 312
#     4  11  22  35  56  87 115 138 171 224 282 320
#     4   9  15  29  55  78  99 135 180 217 253 312
#     4  10  19  33  55  80 105 139 181 225 271 322
#     4   9  18  33  55  79 104 138 178 215 256 316
#     4   9  18  34  55  77 104 144 192 229 262 320
#     4  10  20  34  54  81 109 141 179 224 276 323
#     4  10  18  33  57  79 106 144 182 216 261 329
#
# _framework density 19.249072999999999
#
# number of rings (size 3 to 8) (size 9 to 14) (size 15 to 20)
#    0.000    2.250    2.500    1.125    0.000    2.750 
#    0.000    3.750    0.000    0.750    0.000    0.000 
#    0.000    0.000    0.000    0.000    0.000    0.000 
#
# Total GULP energy -396784.474642 kJ/mol
# GULP energy per Si atom -12399.514833 kJ/mol
# Density = 1.920526 g / cm^3
# Si number density = 19.249073 Si / 1000 Ang^3
#
#
#
# Elastic Constant Matrix: (Units=GPa)
#
#
# Indices 1 2 3 4 5 6 
#
# 1 140.4184 19.7866 71.2165 0.0000 0.0000 0.0000
# 2 19.7866 15.5510 20.0796 0.0000 0.0000 0.0000
# 3 71.2165 20.0796 164.3819 0.0000 0.0000 0.0000
# 4 0.0000 0.0000 0.0000 28.2344 0.0000 0.0000
# 5 0.0000 0.0000 0.0000 0.0000 15.7322 0.0000
# 6 0.0000 0.0000 0.0000 0.0000 0.0000 10.8165
#
#
#
# Elastic Compliance Matrix: (Units=1/GPa)
#
#
# Indices 1 2 3 4 5 6 
#
# 1 0.009982 -0.008450 -0.003292 0.000000 0.000000 0.000000
# 2 -0.008450 0.083499 -0.006539 0.000000 0.000000 0.000000
# 3 -0.003292 -0.006539 0.008309 0.000000 0.000000 0.000000
# 4 0.000000 0.000000 0.000000 0.035418 0.000000 0.000000
# 5 0.000000 0.000000 0.000000 0.000000 0.063564 0.000000
# 6 0.000000 0.000000 0.000000 0.000000 0.000000 0.092452
#
#
# Mechanical properties :
#
#
# Convention : Reuss Voigt Hill
#
# Bulk Modulus (GPa) = 15.33098 60.27963 37.80531
# Shear Modulus (GPa) = 14.22366 24.90786 19.56576
#
# Velocity S-wave (km/s) = 2.72127 3.60109 3.19164
# Velocity P-wave (km/s) = 4.22559 6.97668 5.76757
#
# Compressibility (1/GPa) = 0.06522739
#
# Stress axis : x y z
#
# Youngs Moduli (GPa) = 100.17953 11.97625 120.35793
#
# Poissons Ratio (x) = 0.10119 0.39628
# Poissons Ratio (y) = 0.84648 0.78700
# Poissons Ratio (z) = 0.32984 0.07831
#
# Static dielectric constant tensor:
#      x y z
#    x 3.714700 0.000000 0.000000 
#    y 0.000000 3.005760 0.000000 
#    z 0.000000 0.000000 3.693080 
# 
# 
# High freq. dielectric constant tensor:
#      x y z
#    x 1.751340 0.000000 0.000000 
#    y 0.000000 1.699030 0.000000 
#    z 0.000000 0.000000 1.765990 
# 
# From -- ./inp_files/15750.got.cif
#   From: 2010.03.12/outbox.cif.g09.slc.cpg/sg38_8_cif.got.tgz:15750.got - 2010.04.14 02:38:36.
