data_PCOD8177910
_publ_section_title
;
Structure prediction by ZEFSAII (Michael W. Deem and Ramdas Pophale) SiO2 
 PCOD8177910
Probable space group: A M M 2
;
_chemical_formula_sum "Si O2"
_cell_formula_units_Z 48
_cell_length_a 9.280225
_cell_length_b 13.650238
_cell_length_c 23.945590
_cell_angle_alpha 90.000000
_cell_angle_beta 90.000000
_cell_angle_gamma 90.000000
_cell_volume 3033.362208
_symmetry_space_group_name_H-M "A M M 2"
_symmetry_group_IT_number 38
_symmetry_cell_setting 'orthorhombic'
loop_
_space_group_symop_operation_xyz
x,y,z
-x,-y,z
-x,y,z
x,-y,z
x,1/2+y,1/2+z
-x,1/2-y,1/2+z
-x,1/2+y,1/2+z
x,1/2-y,1/2+z
loop_
_atom_site_type_symbol
_atom_site_label
_atom_site_fract_x
_atom_site_fract_y
_atom_site_fract_z
Si Si1 0.165668 0.390350 0.943000
Si Si2 0.669072 0.298273 0.041712
Si Si3 0.665727 0.109831 0.975197
Si Si4 0.832377 0.614627 0.142074
Si Si5 0.170930 0.108544 0.766162
Si Si6 0.831270 0.203621 0.877200
O O1 0.192714 0.500000 0.920563
O O2 0.206084 0.315887 0.892990
O O3 0.000000 0.375493 0.961648
O O4 0.264546 0.372347 0.996568
O O5 0.500000 0.318232 0.045344
O O6 0.739288 0.317875 0.101429
O O7 0.705322 0.186362 0.024212
O O8 0.500000 0.122919 0.957973
O O9 0.757672 0.129329 0.919998
O O10 0.697854 0.000000 0.997086
O O11 0.804089 0.500000 0.130361
O O12 0.779101 0.642739 0.204618
O O13 0.000000 0.639229 0.133325
O O14 0.225904 0.182704 0.814367
O O15 0.000000 0.103359 0.765113
O O16 0.232204 0.000000 0.779186
O O17 0.000000 0.182426 0.880854
#
# Coordination Sequence:
#
# PCOD8177910 Si02
#       6
#     8   8   8   8   8   8
#     4   9  17  28  42  62  88 115 139 165 203 248
#     4  10  19  29  43  63  84 108 140 175 207 241
#     4   9  18  31  44  60  85 113 136 164 209 256
#     4   9  17  29  44  61  84 114 141 166 204 251
#     4   8  14  25  42  63  84 107 136 169 206 246
#     4   9  16  27  45  66  85 108 140 173 201 238
#
# _framework density 15.824026
#
# number of rings (size 3 to 8) (size 9 to 14) (size 15 to 20)
#    0.000    3.000    0.000    2.500    0.000    4.333 
#    0.000    0.833    0.000    2.000    0.000    2.333 
#    0.000    0.000    0.000    0.000    0.000    0.000 
#
# Total GULP energy -297502.202760 kJ/mol
# GULP energy per Si atom -12395.925115 kJ/mol
# Density = 1.578801 g / cm^3
# Si number density = 15.824026 Si / 1000 Ang^3
#
#
#
# Elastic Constant Matrix: (Units=GPa)
#
#
# Indices 1 2 3 4 5 6 
#
# 1 46.4398 34.6110 44.4437 0.0000 0.0000 0.0000
# 2 34.6110 105.5113 69.1805 0.0000 0.0000 0.0000
# 3 44.4437 69.1805 142.5895 0.0000 0.0000 0.0000
# 4 0.0000 0.0000 0.0000 22.6576 0.0000 0.0000
# 5 0.0000 0.0000 0.0000 0.0000 6.9665 0.0000
# 6 0.0000 0.0000 0.0000 0.0000 0.0000 19.3669
#
#
#
# Elastic Compliance Matrix: (Units=1/GPa)
#
#
# Indices 1 2 3 4 5 6 
#
# 1 0.033090 -0.006001 -0.007402 0.000000 0.000000 0.000000
# 2 -0.006001 0.014988 -0.005401 0.000000 0.000000 0.000000
# 3 -0.007402 -0.005401 0.011941 0.000000 0.000000 0.000000
# 4 0.000000 0.000000 0.000000 0.044135 0.000000 0.000000
# 5 0.000000 0.000000 0.000000 0.000000 0.143543 0.000000
# 6 0.000000 0.000000 0.000000 0.000000 0.000000 0.051634
#
#
# Mechanical properties :
#
#
# Convention : Reuss Voigt Hill
#
# Bulk Modulus (GPa) = 44.62413 65.66788 55.14600
# Shear Modulus (GPa) = 14.51760 19.55192 17.03476
#
# Velocity S-wave (km/s) = 3.03221 3.51890 3.28458
# Velocity P-wave (km/s) = 6.36558 7.62228 7.02210
#
# Compressibility (1/GPa) = 0.02240940
#
# Stress axis : x y z
#
# Youngs Moduli (GPa) = 30.22081 66.72227 83.74683
#
# Poissons Ratio (x) = 0.40041 0.61991
# Poissons Ratio (y) = 0.18136 0.45232
# Poissons Ratio (z) = 0.22370 0.36037
#
# Static dielectric constant tensor:
#      x y z
#    x 2.888010 0.000000 0.000000 
#    y 0.000000 3.061860 0.000000 
#    z 0.000000 0.000000 3.137780 
# 
# 
# High freq. dielectric constant tensor:
#      x y z
#    x 1.594290 0.000000 0.000000 
#    y 0.000000 1.598870 0.000000 
#    z 0.000000 0.000000 1.598920 
# 
# From -- ./inp_files/19632.got.cif
#   From: 2010.03.12/outbox.cif.g09.slc.cpg/sg38_10_cif.got.tgz:19632.got - 2010.04.14 02:38:36.
