data_PCOD8177255
_publ_section_title
;
Structure prediction by ZEFSAII (Michael W. Deem and Ramdas Pophale) SiO2 
 PCOD8177255
Probable space group: A M M 2
;
_chemical_formula_sum "Si O2"
_cell_formula_units_Z 64
_cell_length_a 8.726071
_cell_length_b 26.536355
_cell_length_c 18.543130
_cell_angle_alpha 90.000000
_cell_angle_beta 90.000000
_cell_angle_gamma 90.000000
_cell_volume 4293.812281
_symmetry_space_group_name_H-M "A M M 2"
_symmetry_group_IT_number 38
_symmetry_cell_setting 'orthorhombic'
loop_
_space_group_symop_operation_xyz
x,y,z
-x,-y,z
-x,y,z
x,-y,z
x,1/2+y,1/2+z
-x,1/2-y,1/2+z
-x,1/2+y,1/2+z
x,1/2-y,1/2+z
loop_
_atom_site_type_symbol
_atom_site_label
_atom_site_fract_x
_atom_site_fract_y
_atom_site_fract_z
Si Si1 0.317383 0.743043 0.178680
Si Si2 0.681738 0.147415 0.424580
Si Si3 0.321699 0.259230 0.018032
Si Si4 0.179552 0.943463 0.670080
Si Si5 0.181223 0.649470 0.263808
Si Si6 0.679405 0.204553 0.881645
Si Si7 0.680959 0.056273 0.519639
Si Si8 0.819938 0.201763 0.301066
O O1 0.500000 0.741898 0.181538
O O2 0.250466 0.748187 0.097256
O O3 0.252483 0.691480 0.211654
O O4 0.256744 0.792172 0.222087
O O5 0.500000 0.151179 0.415939
O O6 0.744452 0.191193 0.478073
O O7 0.736126 0.093905 0.456759
O O8 0.755918 0.153532 0.345113
O O9 0.500000 0.268495 0.028804
O O10 0.292169 0.209367 0.967937
O O11 0.226668 0.905566 0.733999
O O12 0.256616 0.924970 0.596285
O O13 0.000000 0.942097 0.656650
O O14 0.234544 0.000000 0.690903
O O15 0.254761 0.653622 0.344749
O O16 0.000000 0.657111 0.267793
O O17 0.500000 0.211121 0.863778
O O18 0.775103 0.248754 0.844971
O O19 0.500000 0.057289 0.525293
O O20 0.741581 0.000000 0.501608
O O21 0.000000 0.196647 0.291749
#
# Coordination Sequence:
#
# PCOD8177255 Si02
#       8
#     8   8   8   8   8   8   8   8
#     4  10  17  27  42  58  78 104 131 159 197 237
#     4   9  16  28  42  56  78 107 135 161 195 234
#     4   8  15  25  39  57  75 100 132 159 185 230
#     4   9  18  30  41  55  80 111 138 166 200 235
#     4  10  18  27  39  57  79 104 136 166 193 228
#     4   9  16  28  42  56  76 102 130 160 197 235
#     4   9  17  28  43  62  81 102 134 174 205 231
#     4  10  18  27  38  56  79 102 132 164 192 226
#
# _framework density 14.90517
#
# number of rings (size 3 to 8) (size 9 to 14) (size 15 to 20)
#    0.000    2.750    0.000    5.250    0.000    2.500 
#    0.000    7.500    0.000    0.000    0.000    0.000 
#    0.000    1.000    0.000    4.750    0.000    2.750 
#
# Total GULP energy -396520.310735 kJ/mol
# GULP energy per Si atom -12391.259710 kJ/mol
# Density = 1.487125 g / cm^3
# Si number density = 14.905170 Si / 1000 Ang^3
#
#
#
# Elastic Constant Matrix: (Units=GPa)
#
#
# Indices 1 2 3 4 5 6 
#
# 1 42.3914 24.3794 31.5794 0.0000 0.0000 0.0000
# 2 24.3794 76.7993 53.1914 0.0000 0.0000 0.0000
# 3 31.5794 53.1914 110.7242 0.0000 0.0000 0.0000
# 4 0.0000 0.0000 0.0000 25.7256 0.0000 0.0000
# 5 0.0000 0.0000 0.0000 0.0000 9.6967 0.0000
# 6 0.0000 0.0000 0.0000 0.0000 0.0000 16.3881
#
#
#
# Elastic Compliance Matrix: (Units=1/GPa)
#
#
# Indices 1 2 3 4 5 6 
#
# 1 0.031516 -0.005663 -0.006268 0.000000 0.000000 0.000000
# 2 -0.005663 0.020531 -0.008248 0.000000 0.000000 0.000000
# 3 -0.006268 -0.008248 0.014781 0.000000 0.000000 0.000000
# 4 0.000000 0.000000 0.000000 0.038872 0.000000 0.000000
# 5 0.000000 0.000000 0.000000 0.000000 0.103128 0.000000
# 6 0.000000 0.000000 0.000000 0.000000 0.000000 0.061020
#
#
# Mechanical properties :
#
#
# Convention : Reuss Voigt Hill
#
# Bulk Modulus (GPa) = 37.77827 49.80171 43.78999
# Shear Modulus (GPa) = 15.67249 18.41305 17.04277
#
# Velocity S-wave (km/s) = 3.24617 3.51856 3.38511
# Velocity P-wave (km/s) = 6.28100 7.07050 6.68741
#
# Compressibility (1/GPa) = 0.02647024
#
# Stress axis : x y z
#
# Youngs Moduli (GPa) = 31.72988 48.70626 67.65269
#
# Poissons Ratio (x) = 0.27584 0.42405
# Poissons Ratio (y) = 0.17970 0.55799
# Poissons Ratio (z) = 0.19888 0.40172
#
# Static dielectric constant tensor:
#      x y z
#    x 2.826460 0.000000 0.000000 
#    y 0.000000 2.978810 0.000000 
#    z 0.000000 0.000000 3.278390 
# 
# 
# High freq. dielectric constant tensor:
#      x y z
#    x 1.570410 0.000000 0.000000 
#    y 0.000000 1.535370 0.000000 
#    z 0.000000 0.000000 1.563510 
# 
# From -- ./inp_files/20323.got.cif
#   From: 2010.03.12/outbox.cif.g09.slc.cpg/sg38_11_cif.got.tgz:20323.got - 2010.04.14 02:38:36.
