data_PCOD8177933
_publ_section_title
;
Structure prediction by ZEFSAII (Michael W. Deem and Ramdas Pophale) SiO2 
 PCOD8177933
Probable space group: A M M 2
;
_chemical_formula_sum "Si O2"
_cell_formula_units_Z 56
_cell_length_a 8.812738
_cell_length_b 13.632914
_cell_length_c 29.181272
_cell_angle_alpha 90.000000
_cell_angle_beta 90.000000
_cell_angle_gamma 90.000000
_cell_volume 3505.934295
_symmetry_space_group_name_H-M "A M M 2"
_symmetry_group_IT_number 38
_symmetry_cell_setting 'orthorhombic'
loop_
_space_group_symop_operation_xyz
x,y,z
-x,-y,z
-x,y,z
x,-y,z
x,1/2+y,1/2+z
-x,1/2-y,1/2+z
-x,1/2+y,1/2+z
x,1/2-y,1/2+z
loop_
_atom_site_type_symbol
_atom_site_label
_atom_site_fract_x
_atom_site_fract_y
_atom_site_fract_z
Si Si1 0.820714 0.107328 0.851420
Si Si2 0.179880 0.782335 0.941092
Si Si3 0.678405 0.113727 0.212895
Si Si4 0.829307 0.116371 0.119910
Si Si5 0.820013 0.701374 0.801843
Si Si6 0.675312 0.112627 0.389233
Si Si7 0.678733 0.113319 0.026540
O O1 0.766529 0.142480 0.901537
O O2 0.770211 0.186725 0.813510
O O3 0.000000 0.099318 0.851697
O O4 0.748942 0.000000 0.840816
O O5 0.247473 0.675731 0.929453
O O6 0.000000 0.773528 0.943669
O O7 0.242972 0.819528 0.988928
O O8 0.500000 0.129784 0.212509
O O9 0.745434 0.154969 0.165350
O O10 0.751788 0.176810 0.252919
O O11 0.720813 0.000000 0.220274
O O12 0.737447 0.152245 0.075491
O O13 0.000000 0.158601 0.118346
O O14 0.830913 0.000000 0.120963
O O15 0.755430 0.629015 0.840385
O O16 0.000000 0.689134 0.800937
O O17 0.500000 0.142273 0.384295
O O18 0.694690 0.000000 0.403456
O O19 0.500000 0.127141 0.024379
O O20 0.725477 0.000000 0.018739
#
# Coordination Sequence:
#
# PCOD8177933 Si02
#       7
#     8   8   8   8   8   8   8
#     4   8  15  28  44  63  88 116 147 184 222 258
#     4  10  19  30  47  69  91 119 155 191 226 267
#     4  10  19  30  44  63  90 122 151 182 224 271
#     4   9  17  29  45  65  89 117 150 187 224 265
#     4  10  19  29  45  68  90 117 153 188 223 267
#     4  10  20  33  47  64  90 122 153 188 230 273
#     4  10  19  30  45  67  96 126 153 183 222 270
#
# _framework density 15.972918
#
# number of rings (size 3 to 8) (size 9 to 14) (size 15 to 20)
#    0.000    2.429    0.000    4.286    0.000    6.857 
#    0.000    0.000    0.000    8.571    0.000    1.000 
#    0.000    5.714    0.000    0.000    0.000    0.000 
#
# Total GULP energy -347185.024251 kJ/mol
# GULP energy per Si atom -12399.465152 kJ/mol
# Density = 1.593656 g / cm^3
# Si number density = 15.972918 Si / 1000 Ang^3
#
#
#
# Elastic Constant Matrix: (Units=GPa)
#
#
# Indices 1 2 3 4 5 6 
#
# 1 96.8394 40.8210 65.3347 0.0000 0.0000 0.0000
# 2 40.8210 85.7511 59.0245 0.0000 0.0000 0.0000
# 3 65.3347 59.0245 154.3377 0.0000 0.0000 0.0000
# 4 0.0000 0.0000 0.0000 22.3917 0.0000 0.0000
# 5 0.0000 0.0000 0.0000 0.0000 31.5449 0.0000
# 6 0.0000 0.0000 0.0000 0.0000 0.0000 19.5830
#
#
#
# Elastic Compliance Matrix: (Units=1/GPa)
#
#
# Indices 1 2 3 4 5 6 
#
# 1 0.015334 -0.003843 -0.005022 0.000000 0.000000 0.000000
# 2 -0.003843 0.016792 -0.004795 0.000000 0.000000 0.000000
# 3 -0.005022 -0.004795 0.010439 0.000000 0.000000 0.000000
# 4 0.000000 0.000000 0.000000 0.044659 0.000000 0.000000
# 5 0.000000 0.000000 0.000000 0.000000 0.031701 0.000000
# 6 0.000000 0.000000 0.000000 0.000000 0.000000 0.051065
#
#
# Mechanical properties :
#
#
# Convention : Reuss Voigt Hill
#
# Bulk Modulus (GPa) = 65.59357 74.14318 69.86837
# Shear Modulus (GPa) = 24.70471 26.15379 25.42925
#
# Velocity S-wave (km/s) = 3.93703 4.05085 3.99434
# Velocity P-wave (km/s) = 7.86267 8.27031 8.06906
#
# Compressibility (1/GPa) = 0.01524540
#
# Stress axis : x y z
#
# Youngs Moduli (GPa) = 65.21297 59.55365 95.79703
#
# Poissons Ratio (x) = 0.22888 0.48105
# Poissons Ratio (y) = 0.25063 0.45932
# Poissons Ratio (z) = 0.32747 0.28555
#
# Static dielectric constant tensor:
#      x y z
#    x 3.111230 0.000000 0.000000 
#    y 0.000000 3.001250 0.000000 
#    z 0.000000 0.000000 3.043750 
# 
# 
# High freq. dielectric constant tensor:
#      x y z
#    x 1.624020 0.000000 0.000000 
#    y 0.000000 1.583300 0.000000 
#    z 0.000000 0.000000 1.611750 
# 
# From -- ./inp_files/24641.got.cif
#   From: 2010.03.12/outbox.cif.g09.slc.cpg/sg38_13_cif.got.tgz:24641.got - 2010.04.14 02:38:36.
