data_PCOD8177589
_publ_section_title
;
Structure prediction by ZEFSAII (Michael W. Deem and Ramdas Pophale) SiO2 
 PCOD8177589
Probable space group: A M M 2
;
_chemical_formula_sum "Si O2"
_cell_formula_units_Z 56
_cell_length_a 19.919681
_cell_length_b 9.279603
_cell_length_c 15.286354
_cell_angle_alpha 90.000000
_cell_angle_beta 90.000000
_cell_angle_gamma 90.000000
_cell_volume 2825.632574
_symmetry_space_group_name_H-M "A M M 2"
_symmetry_group_IT_number 38
_symmetry_cell_setting 'orthorhombic'
loop_
_space_group_symop_operation_xyz
x,y,z
-x,-y,z
-x,y,z
x,-y,z
x,1/2+y,1/2+z
-x,1/2-y,1/2+z
-x,1/2+y,1/2+z
x,1/2-y,1/2+z
loop_
_atom_site_type_symbol
_atom_site_label
_atom_site_fract_x
_atom_site_fract_y
_atom_site_fract_z
Si Si1 0.422252 0.169844 0.537850
Si Si2 0.661282 0.332001 0.875211
Si Si3 0.665537 0.169669 0.179345
Si Si4 0.200957 0.164332 0.639475
Si Si5 0.802179 0.162554 0.431431
Si Si6 0.925580 0.662174 0.640468
Si Si7 0.073178 0.161563 0.932401
O O1 0.500000 0.210049 0.539955
O O2 0.393328 0.225513 0.444730
O O3 0.385877 0.255185 0.614515
O O4 0.410196 0.000000 0.551889
O O5 0.670356 0.500000 0.893191
O O6 0.636645 0.301825 0.776876
O O7 0.734785 0.262831 0.892966
O O8 0.738863 0.238744 0.175217
O O9 0.670771 0.000000 0.158551
O O10 0.202298 0.171125 0.535379
O O11 0.131106 0.229286 0.677027
O O12 0.208472 0.000000 0.672238
O O13 0.866986 0.243669 0.392497
O O14 0.809719 0.000000 0.398369
O O15 0.910766 0.500000 0.673710
O O16 0.923117 0.664119 0.536380
O O17 0.000000 0.712144 0.672030
O O18 0.000000 0.221800 0.902549
O O19 0.082447 0.000000 0.897485
#
# Coordination Sequence:
#
# PCOD8177589 Si02
#       7
#     8   8   8   8   8   8   8
#     4  10  21  41  66  87 114 150 182 219 274 336
#     4   9  19  37  58  83 113 149 189 224 269 331
#     4  11  22  36  59  87 116 148 187 234 276 324
#     4  10  18  30  51  76 108 147 189 235 282 335
#     4   9  16  29  50  72 100 139 185 229 266 320
#     4   8  14  25  42  68 104 143 185 234 287 338
#     4   8  14  24  39  65 102 138 174 221 278 332
#
# _framework density 19.818570000000001
#
# number of rings (size 3 to 8) (size 9 to 14) (size 15 to 20)
#    0.000    2.714    1.429    1.714    0.000    2.000 
#    0.000    7.143    0.000    0.857    0.000    2.000 
#    0.000    0.000    0.000    0.000    0.000    0.000 
#
# Total GULP energy -347067.278645 kJ/mol
# GULP energy per Si atom -12395.259952 kJ/mol
# Density = 1.977346 g / cm^3
# Si number density = 19.818570 Si / 1000 Ang^3
#
#
#
# Elastic Constant Matrix: (Units=GPa)
#
#
# Indices 1 2 3 4 5 6 
#
# 1 177.8529 73.1844 60.7721 0.0000 0.0000 0.0000
# 2 73.1844 88.2769 37.2868 0.0000 0.0000 0.0000
# 3 60.7721 37.2868 73.0199 0.0000 0.0000 0.0000
# 4 0.0000 0.0000 0.0000 18.6517 0.0000 0.0000
# 5 0.0000 0.0000 0.0000 0.0000 1.8328 0.0000
# 6 0.0000 0.0000 0.0000 0.0000 0.0000 33.9549
#
#
#
# Elastic Compliance Matrix: (Units=1/GPa)
#
#
# Indices 1 2 3 4 5 6 
#
# 1 0.009841 -0.005991 -0.005131 0.000000 0.000000 0.000000
# 2 -0.005991 0.018091 -0.004251 0.000000 0.000000 0.000000
# 3 -0.005131 -0.004251 0.020136 0.000000 0.000000 0.000000
# 4 0.000000 0.000000 0.000000 0.053614 0.000000 0.000000
# 5 0.000000 0.000000 0.000000 0.000000 0.545599 0.000000
# 6 0.000000 0.000000 0.000000 0.000000 0.000000 0.029451
#
#
# Mechanical properties :
#
#
# Convention : Reuss Voigt Hill
#
# Bulk Modulus (GPa) = 57.73512 75.73737 66.73625
# Shear Modulus (GPa) = 7.01012 22.08165 14.54589
#
# Velocity S-wave (km/s) = 1.88277 3.34157 2.71209
# Velocity P-wave (km/s) = 5.82422 7.29290 6.59954
#
# Compressibility (1/GPa) = 0.01732048
#
# Stress axis : x y z
#
# Youngs Moduli (GPa) = 101.61203 55.27652 49.66153
#
# Poissons Ratio (x) = 0.33119 0.25482
# Poissons Ratio (y) = 0.60881 0.21113
# Poissons Ratio (z) = 0.52139 0.23500
#
# Static dielectric constant tensor:
#      x y z
#    x 3.886710 0.000000 0.000000 
#    y 0.000000 3.567620 0.000000 
#    z 0.000000 0.000000 3.344300 
# 
# 
# High freq. dielectric constant tensor:
#      x y z
#    x 1.781220 0.000000 0.000000 
#    y 0.000000 1.753420 0.000000 
#    z 0.000000 0.000000 1.750880 
# 
# From -- ./inp_files/15462.got.cif
#   From: 2010.03.12/outbox.cif.g09.slc.cpg/sg38_8_cif.got.tgz:15462.got - 2010.04.14 02:38:36.
