data_PCOD8177575
_publ_section_title
;
Structure prediction by ZEFSAII (Michael W. Deem and Ramdas Pophale) SiO2 
 PCOD8177575
Probable space group: A M M 2
;
_chemical_formula_sum "Si O2"
_cell_formula_units_Z 56
_cell_length_a 15.519301
_cell_length_b 9.172759
_cell_length_c 20.571968
_cell_angle_alpha 90.000000
_cell_angle_beta 90.000000
_cell_angle_gamma 90.000000
_cell_volume 2928.518553
_symmetry_space_group_name_H-M "A M M 2"
_symmetry_group_IT_number 38
_symmetry_cell_setting 'orthorhombic'
loop_
_space_group_symop_operation_xyz
x,y,z
-x,-y,z
-x,y,z
x,-y,z
x,1/2+y,1/2+z
-x,1/2-y,1/2+z
-x,1/2+y,1/2+z
x,1/2-y,1/2+z
loop_
_atom_site_type_symbol
_atom_site_label
_atom_site_fract_x
_atom_site_fract_y
_atom_site_fract_z
Si Si1 0.821027 0.662444 0.253340
Si Si2 0.224122 0.332222 0.976269
Si Si3 0.404995 0.166646 0.164109
Si Si4 0.627383 0.664298 0.291349
Si Si5 0.245085 0.171331 0.620512
Si Si6 0.096915 0.173228 0.879674
Si Si7 0.594768 0.833668 0.419822
O O1 0.855229 0.500000 0.240924
O O2 0.730063 0.665468 0.289422
O O3 0.812578 0.735472 0.181082
O O4 0.884818 0.736880 0.306370
O O5 0.206500 0.500000 0.959032
O O6 0.162605 0.236359 0.931969
O O7 0.325537 0.293515 0.967304
O O8 0.199393 0.300292 0.051578
O O9 0.500000 0.176224 0.131994
O O10 0.411189 0.236530 0.235097
O O11 0.337911 0.252076 0.118942
O O12 0.374485 0.000000 0.170843
O O13 0.592249 0.500000 0.283809
O O14 0.595988 0.726969 0.359122
O O15 0.262086 0.000000 0.632864
O O16 0.000000 0.217061 0.899431
O O17 0.110196 0.000000 0.878971
O O18 0.500000 0.814887 0.453931
O O19 0.606190 0.000000 0.395787
#
# Coordination Sequence:
#
# PCOD8177575 Si02
#       7
#     8   8   8   8   8   8   8
#     4   8  15  31  53  78 104 131 173 224 269 320
#     4  10  21  37  56  81 115 149 182 228 281 330
#     4  10  20  32  47  72 107 144 184 231 280 328
#     4  10  18  30  50  74 103 140 183 233 280 322
#     4   9  19  35  55  77 105 145 186 226 275 328
#     4  10  20  36  60  85 109 141 181 228 282 338
#     4  10  20  32  47  72 108 148 186 225 276 332
#
# _framework density 19.122297
#
# number of rings (size 3 to 8) (size 9 to 14) (size 15 to 20)
#    0.000    2.429    1.429    2.143    0.000    4.571 
#    0.000    2.143    0.000    2.571    0.000    0.000 
#    0.000    0.000    0.000    0.000    0.000    0.000 
#
# Total GULP energy -346933.994706 kJ/mol
# GULP energy per Si atom -12390.499811 kJ/mol
# Density = 1.907877 g / cm^3
# Si number density = 19.122297 Si / 1000 Ang^3
#
#
#
# Elastic Constant Matrix: (Units=GPa)
#
#
# Indices 1 2 3 4 5 6 
#
# 1 100.4827 30.8661 57.6468 0.0000 0.0000 0.0000
# 2 30.8661 63.1403 36.6721 0.0000 0.0000 0.0000
# 3 57.6468 36.6721 119.9445 0.0000 0.0000 0.0000
# 4 0.0000 0.0000 0.0000 23.9663 0.0000 0.0000
# 5 0.0000 0.0000 0.0000 0.0000 9.8468 0.0000
# 6 0.0000 0.0000 0.0000 0.0000 0.0000 20.3500
#
#
#
# Elastic Compliance Matrix: (Units=1/GPa)
#
#
# Indices 1 2 3 4 5 6 
#
# 1 0.014409 -0.003674 -0.005802 0.000000 0.000000 0.000000
# 2 -0.003674 0.020194 -0.004408 0.000000 0.000000 0.000000
# 3 -0.005802 -0.004408 0.012473 0.000000 0.000000 0.000000
# 4 0.000000 0.000000 0.000000 0.041725 0.000000 0.000000
# 5 0.000000 0.000000 0.000000 0.000000 0.101556 0.000000
# 6 0.000000 0.000000 0.000000 0.000000 0.000000 0.049140
#
#
# Mechanical properties :
#
#
# Convention : Reuss Voigt Hill
#
# Bulk Modulus (GPa) = 51.79189 59.32637 55.55913
# Shear Modulus (GPa) = 18.26798 21.39146 19.82972
#
# Velocity S-wave (km/s) = 3.09418 3.34827 3.22373
# Velocity P-wave (km/s) = 6.31733 6.78528 6.55548
#
# Compressibility (1/GPa) = 0.01930804
#
# Stress axis : x y z
#
# Youngs Moduli (GPa) = 69.40068 49.51901 80.17030
#
# Poissons Ratio (x) = 0.18194 0.46513
# Poissons Ratio (y) = 0.25499 0.35342
# Poissons Ratio (z) = 0.40265 0.21830
#
# Static dielectric constant tensor:
#      x y z
#    x 3.483820 0.000000 0.000000 
#    y 0.000000 3.361850 0.000000 
#    z 0.000000 0.000000 3.489890 
# 
# 
# High freq. dielectric constant tensor:
#      x y z
#    x 1.730200 0.000000 0.000000 
#    y 0.000000 1.724170 0.000000 
#    z 0.000000 0.000000 1.737940 
# 
# From -- ./inp_files/21049.got.cif
#   From: 2010.03.12/outbox.cif.g09.slc.cpg/sg38_11_cif.got.tgz:21049.got - 2010.04.14 02:38:36.
