data_PCOD8177883
_publ_section_title
;
Structure prediction by ZEFSAII (Michael W. Deem and Ramdas Pophale) SiO2 
 PCOD8177883
Probable space group: A M M 2
;
_chemical_formula_sum "Si O2"
_cell_formula_units_Z 64
_cell_length_a 9.148379
_cell_length_b 18.085443
_cell_length_c 26.548419
_cell_angle_alpha 90.000000
_cell_angle_beta 90.000000
_cell_angle_gamma 90.000000
_cell_volume 4392.501948
_symmetry_space_group_name_H-M "A M M 2"
_symmetry_group_IT_number 38
_symmetry_cell_setting 'orthorhombic'
loop_
_space_group_symop_operation_xyz
x,y,z
-x,-y,z
-x,y,z
x,-y,z
x,1/2+y,1/2+z
-x,1/2-y,1/2+z
-x,1/2+y,1/2+z
x,1/2-y,1/2+z
loop_
_atom_site_type_symbol
_atom_site_label
_atom_site_fract_x
_atom_site_fract_y
_atom_site_fract_z
Si Si1 0.338622 0.298159 0.835210
Si Si2 0.827193 0.918320 0.578758
Si Si3 0.828856 0.417073 0.887639
Si Si4 0.831656 0.413279 0.191930
Si Si5 0.168092 0.413868 0.375885
Si Si6 0.172308 0.324867 0.985756
Si Si7 0.664303 0.298682 0.435171
Si Si8 0.673230 0.154810 0.782855
O O1 0.500000 0.328479 0.823242
O O2 0.234653 0.368998 0.841285
O O3 0.339004 0.250990 0.885847
O O4 0.286168 0.241499 0.791585
O O5 0.787162 0.891498 0.634942
O O6 0.767954 0.860494 0.537603
O O7 0.000000 0.924709 0.573223
O O8 0.760053 0.000000 0.568751
O O9 0.763970 0.500000 0.885839
O O10 0.786823 0.381569 0.941147
O O11 0.000000 0.418843 0.879869
O O12 0.806709 0.500000 0.201008
O O13 0.725886 0.366424 0.227424
O O14 0.000000 0.392722 0.202945
O O15 0.179466 0.500000 0.387466
O O16 0.245766 0.372762 0.422607
O O17 0.246320 0.397216 0.323044
O O18 0.000000 0.387665 0.372071
O O19 0.254913 0.246949 0.979224
O O20 0.000000 0.309170 0.986920
O O21 0.500000 0.319255 0.452441
O O22 0.500000 0.142640 0.788749
#
# Coordination Sequence:
#
# PCOD8177883 Si02
#       8
#     8   8   8   8   8   8   8   8
#     4   8  16  28  38  51  73 102 132 159 190 230
#     4   8  14  25  41  60  81 106 138 174 205 232
#     4   9  16  24  37  59  81 100 127 161 193 227
#     4   9  17  28  41  58  80 106 138 173 204 235
#     4  10  19  29  42  60  80 103 134 168 199 236
#     4   9  15  25  42  59  78 107 138 165 195 231
#     4   9  17  28  40  56  80 106 132 163 197 234
#     4  10  19  29  41  57  79 107 137 167 201 241
#
# _framework density 14.570283999999999
#
# number of rings (size 3 to 8) (size 9 to 14) (size 15 to 20)
#    0.000    3.000    0.000    3.375    0.000    8.000 
#    0.000    0.625    0.000    1.875    0.000    0.000 
#    0.000    1.000    0.000    9.000    0.000    5.750 
#
# Total GULP energy -396664.229961 kJ/mol
# GULP energy per Si atom -12395.757186 kJ/mol
# Density = 1.453712 g / cm^3
# Si number density = 14.570284 Si / 1000 Ang^3
#
#
#
# Elastic Constant Matrix: (Units=GPa)
#
#
# Indices 1 2 3 4 5 6 
#
# 1 68.0919 45.9304 36.6277 0.0000 0.0000 0.0000
# 2 45.9304 84.9056 50.5428 0.0000 0.0000 0.0000
# 3 36.6277 50.5428 82.4456 0.0000 0.0000 0.0000
# 4 0.0000 0.0000 0.0000 24.5518 0.0000 0.0000
# 5 0.0000 0.0000 0.0000 0.0000 13.5045 0.0000
# 6 0.0000 0.0000 0.0000 0.0000 0.0000 17.1203
#
#
#
# Elastic Compliance Matrix: (Units=1/GPa)
#
#
# Indices 1 2 3 4 5 6 
#
# 1 0.024039 -0.010466 -0.004264 0.000000 0.000000 0.000000
# 2 -0.010466 0.023103 -0.009513 0.000000 0.000000 0.000000
# 3 -0.004264 -0.009513 0.019855 0.000000 0.000000 0.000000
# 4 0.000000 0.000000 0.000000 0.040730 0.000000 0.000000
# 5 0.000000 0.000000 0.000000 0.000000 0.074049 0.000000
# 6 0.000000 0.000000 0.000000 0.000000 0.000000 0.058410
#
#
# Mechanical properties :
#
#
# Convention : Reuss Voigt Hill
#
# Bulk Modulus (GPa) = 54.02082 55.73833 54.87957
# Shear Modulus (GPa) = 16.95817 17.85814 17.40816
#
# Velocity S-wave (km/s) = 3.41528 3.50473 3.46030
# Velocity P-wave (km/s) = 7.26008 7.39699 7.32885
#
# Compressibility (1/GPa) = 0.01851138
#
# Stress axis : x y z
#
# Youngs Moduli (GPa) = 41.59847 43.28521 50.36425
#
# Poissons Ratio (x) = 0.45303 0.21473
# Poissons Ratio (y) = 0.43538 0.47912
# Poissons Ratio (z) = 0.17736 0.41178
#
# Static dielectric constant tensor:
#      x y z
#    x 2.845690 0.000000 0.000000 
#    y 0.000000 2.905850 0.000000 
#    z 0.000000 0.000000 2.756980 
# 
# 
# High freq. dielectric constant tensor:
#      x y z
#    x 1.554720 0.000000 0.000000 
#    y 0.000000 1.544200 0.000000 
#    z 0.000000 0.000000 1.525730 
# 
# From -- ./inp_files/23628.got.cif
#   From: 2010.03.12/outbox.cif.g09.slc.cpg/sg38_12_cif.got.tgz:23628.got - 2010.04.14 02:38:36.
