data_PCOD8177085
_publ_section_title
;
Structure prediction by ZEFSAII (Michael W. Deem and Ramdas Pophale) SiO2 
 PCOD8177085
Probable space group: C C C 2
;
_chemical_formula_sum "Si O2"
_cell_formula_units_Z 48
_cell_length_a 10.354773
_cell_length_b 13.660604
_cell_length_c 13.674602
_cell_angle_alpha 90.000000
_cell_angle_beta 90.000000
_cell_angle_gamma 90.000000
_cell_volume 1934.306003
_symmetry_space_group_name_H-M "C C C 2"
_symmetry_group_IT_number 37
_symmetry_cell_setting 'orthorhombic'
loop_
_space_group_symop_operation_xyz
x,y,z
-x,-y,z
-x,y,1/2+z
x,-y,1/2+z
1/2+x,1/2+y,z
1/2-x,1/2-y,z
1/2-x,1/2+y,1/2+z
1/2+x,1/2-y,1/2+z
loop_
_atom_site_type_symbol
_atom_site_label
_atom_site_fract_x
_atom_site_fract_y
_atom_site_fract_z
Si Si1 0.540290 0.399035 0.301720
Si Si2 0.939335 0.693683 0.272207
Si Si3 0.176108 0.385811 0.455581
Si Si4 0.931209 0.694600 0.056970
Si Si5 0.954069 0.896967 0.516756
Si Si6 0.322195 0.102984 0.877496
O O1 0.500000 0.500000 0.244494
O O2 0.485403 0.304078 0.248126
O O3 0.466147 0.406855 0.402142
O O4 0.692493 0.383007 0.315871
O O5 0.832431 0.685730 0.359070
O O6 0.885457 0.659436 0.165631
O O7 0.060684 0.628324 0.305489
O O8 0.301341 0.372123 0.525354
O O9 0.165107 0.493541 0.413781
O O10 0.058233 0.365525 0.527808
O O11 0.822288 0.671815 0.974999
O O12 0.959580 0.810483 0.059398
O O13 0.000000 0.000000 0.565601
#
# Coordination Sequence:
#
# PCOD8177085 Si02
#       6
#     8   8   8   8   8   8
#     4  11  22  42  71  94 128 174 222 265 325 385
#     4  11  25  43  68 101 134 171 218 270 331 390
#     4  11  23  42  71  94 132 176 218 269 325 387
#     4  11  25  43  68 101 134 171 218 270 331 390
#     4  11  22  42  71  94 128 174 222 265 325 385
#     4  11  23  42  71  94 132 176 218 269 325 387
#
# _framework density 24.815100999999999
#
# number of rings (size 3 to 8) (size 9 to 14) (size 15 to 20)
#    0.000    1.000    6.667    3.000    0.000    6.000 
#    0.000    3.333    0.000    1.000    0.000    0.000 
#    0.000    0.000    0.000    0.000    0.000    0.000 
#
# Total GULP energy -297355.091998 kJ/mol
# GULP energy per Si atom -12389.795500 kJ/mol
# Density = 2.475862 g / cm^3
# Si number density = 24.815101 Si / 1000 Ang^3
#
#
#
# Elastic Constant Matrix: (Units=GPa)
#
#
# Indices 1 2 3 4 5 6 
#
# 1 105.6471 23.7115 13.8600 0.0000 0.0000 0.0000
# 2 23.7115 141.0704 11.1400 0.0000 0.0000 0.0000
# 3 13.8600 11.1400 120.5038 0.0000 0.0000 0.0000
# 4 0.0000 0.0000 0.0000 12.9766 0.0000 0.0000
# 5 0.0000 0.0000 0.0000 0.0000 -2.7376 0.0000
# 6 0.0000 0.0000 0.0000 0.0000 0.0000 35.0062
#
#
#
# Elastic Compliance Matrix: (Units=1/GPa)
#
#
# Indices 1 2 3 4 5 6 
#
# 1 0.009954 -0.001594 -0.000998 0.000000 0.000000 0.000000
# 2 -0.001594 0.007396 -0.000500 0.000000 0.000000 0.000000
# 3 -0.000998 -0.000500 0.008459 0.000000 0.000000 0.000000
# 4 0.000000 0.000000 0.000000 0.077062 0.000000 0.000000
# 5 0.000000 0.000000 0.000000 0.000000 -0.365285 0.000000
# 6 0.000000 0.000000 0.000000 0.000000 0.000000 0.028566
#
#
# Mechanical properties :
#
#
# Convention : Reuss Voigt Hill
#
# Bulk Modulus (GPa) = 50.95447 51.62714 51.29080
# Shear Modulus (GPa) = -22.61206 30.28303 3.83548
#
# Velocity S-wave (km/s) = -3.02192 3.49714 1.24458
# Velocity P-wave (km/s) = 2.89866 6.09561 4.77277
#
# Compressibility (1/GPa) = 0.01962536
#
# Stress axis : x y z
#
# Youngs Moduli (GPa) = 100.46029 135.20542 118.21053
#
# Poissons Ratio (x) = 0.21556 0.11792
# Poissons Ratio (y) = 0.16017 0.05915
# Poissons Ratio (z) = 0.10021 0.06765
#
# Static dielectric constant tensor:
#      x y z
#    x 4.648740 0.000000 0.000000 
#    y 0.000000 5.359250 0.000000 
#    z 0.000000 0.000000 4.255560 
# 
# 
# High freq. dielectric constant tensor:
#      x y z
#    x 1.985230 0.000000 0.000000 
#    y 0.000000 2.007200 0.000000 
#    z 0.000000 0.000000 1.967680 
# 
# From -- ./inp_files/11505.got.cif
#   From: 2010.03.12/outbox.cif.g09.slc.cpg/sg37_6_cif.got.tgz:11505.got - 2010.04.14 02:25:27.
