data_PCOD8177729
_publ_section_title
;
Structure prediction by ZEFSAII (Michael W. Deem and Ramdas Pophale) SiO2 
 PCOD8177729
Probable space group: A M M 2
;
_chemical_formula_sum "Si O2"
_cell_formula_units_Z 56
_cell_length_a 9.039214
_cell_length_b 16.957443
_cell_length_c 20.039277
_cell_angle_alpha 90.000000
_cell_angle_beta 90.000000
_cell_angle_gamma 90.000000
_cell_volume 3071.659579
_symmetry_space_group_name_H-M "A M M 2"
_symmetry_group_IT_number 38
_symmetry_cell_setting 'orthorhombic'
loop_
_space_group_symop_operation_xyz
x,y,z
-x,-y,z
-x,y,z
x,-y,z
x,1/2+y,1/2+z
-x,1/2-y,1/2+z
-x,1/2+y,1/2+z
x,1/2-y,1/2+z
loop_
_atom_site_type_symbol
_atom_site_label
_atom_site_fract_x
_atom_site_fract_y
_atom_site_fract_z
Si Si1 0.663538 0.586878 0.472910
Si Si2 0.175404 0.833064 0.768714
Si Si3 0.677733 0.500000 0.071141
Si Si4 0.176301 0.343639 0.018076
Si Si5 0.825208 0.000000 0.716941
Si Si6 0.826100 0.275373 0.408391
Si Si7 0.826136 0.741245 0.643083
Si Si8 0.664572 0.414047 0.630364
O O1 0.500000 0.612215 0.447284
O O2 0.703788 0.500000 0.444624
O O3 0.786431 0.648243 0.451065
O O4 0.662921 0.583434 0.551591
O O5 0.220193 0.925019 0.762193
O O6 0.242607 0.789359 0.834391
O O7 0.242339 0.791087 0.703778
O O8 0.000000 0.825495 0.770924
O O9 0.500000 0.500000 0.072887
O O10 0.735809 0.575712 0.030038
O O11 0.740528 0.500000 0.146236
O O12 0.227169 0.280254 0.074000
O O13 0.000000 0.359693 0.021550
O O14 0.224992 0.304953 0.946585
O O15 0.000000 0.000000 0.699528
O O16 0.000000 0.272281 0.403560
O O17 0.776380 0.652068 0.654838
O O18 0.000000 0.743074 0.646116
O O19 0.500000 0.394741 0.656995
O O20 0.715847 0.500000 0.657703
#
# Coordination Sequence:
#
# PCOD8177729 Si02
#       8
#     8   8   4   8   4   8   8   8
#     4   9  18  31  46  70 107 143 167 199 251 303
#     4   9  19  33  53  79 110 143 176 217 275 334
#     4  12  24  36  58  88 110 137 188 240 275 324
#     4  10  20  36  57  81 109 141 178 225 281 328
#     4  10  18  36  58  80 118 157 178 214 283 340
#     4  10  20  34  54  80 104 137 183 222 259 320
#     4  10  18  32  54  79 104 134 173 220 269 320
#     4   9  18  32  50  73 102 136 172 209 258 313
#
# _framework density 18.231185
#
# number of rings (size 3 to 8) (size 9 to 14) (size 15 to 20)
#    0.000    2.286    2.857    1.500    1.000    1.714 
#    0.000    2.857    1.571    0.000    0.000    0.000 
#    0.000    0.000    0.000    0.000    0.000    0.000 
#
# Total GULP energy -346961.138241 kJ/mol
# GULP energy per Si atom -12391.469223 kJ/mol
# Density = 1.818969 g / cm^3
# Si number density = 18.231185 Si / 1000 Ang^3
#
#
#
# Elastic Constant Matrix: (Units=GPa)
#
#
# Indices 1 2 3 4 5 6 
#
# 1 24.0034 33.3374 29.2560 0.0000 0.0000 0.0000
# 2 33.3374 139.4886 62.1536 0.0000 0.0000 0.0000
# 3 29.2560 62.1536 101.7912 0.0000 0.0000 0.0000
# 4 0.0000 0.0000 0.0000 26.9584 0.0000 0.0000
# 5 0.0000 0.0000 0.0000 0.0000 11.7745 0.0000
# 6 0.0000 0.0000 0.0000 0.0000 0.0000 18.0752
#
#
#
# Elastic Compliance Matrix: (Units=1/GPa)
#
#
# Indices 1 2 3 4 5 6 
#
# 1 0.075547 -0.011513 -0.014683 0.000000 0.000000 0.000000
# 2 -0.011513 0.011603 -0.003776 0.000000 0.000000 0.000000
# 3 -0.014683 -0.003776 0.016350 0.000000 0.000000 0.000000
# 4 0.000000 0.000000 0.000000 0.037094 0.000000 0.000000
# 5 0.000000 0.000000 0.000000 0.000000 0.084929 0.000000
# 6 0.000000 0.000000 0.000000 0.000000 0.000000 0.055324
#
#
# Mechanical properties :
#
#
# Convention : Reuss Voigt Hill
#
# Bulk Modulus (GPa) = 22.95917 57.19747 40.07832
# Shear Modulus (GPa) = 14.07219 20.73069 17.40144
#
# Velocity S-wave (km/s) = 2.78128 3.37575 3.09283
# Velocity P-wave (km/s) = 4.78902 6.82904 5.89790
#
# Compressibility (1/GPa) = 0.04355559
#
# Stress axis : x y z
#
# Youngs Moduli (GPa) = 13.23679 86.18412 61.16304
#
# Poissons Ratio (x) = 0.99223 0.89808
# Poissons Ratio (y) = 0.15239 0.23094
# Poissons Ratio (z) = 0.19436 0.32542
#
# Static dielectric constant tensor:
#      x y z
#    x 3.195160 0.000000 0.000000 
#    y 0.000000 3.842540 0.000000 
#    z 0.000000 0.000000 3.565090 
# 
# 
# High freq. dielectric constant tensor:
#      x y z
#    x 1.679260 0.000000 0.000000 
#    y 0.000000 1.713860 0.000000 
#    z 0.000000 0.000000 1.689110 
# 
# From -- ./inp_files/19897.got.cif
#   From: 2010.03.12/outbox.cif.g09.slc.cpg/sg38_10_cif.got.tgz:19897.got - 2010.04.14 02:38:36.
