data_PCOD8177393
_publ_section_title
;
Structure prediction by ZEFSAII (Michael W. Deem and Ramdas Pophale) SiO2 
 PCOD8177393
Probable space group: A M M 2
;
_chemical_formula_sum "Si O2"
_cell_formula_units_Z 64
_cell_length_a 8.992406
_cell_length_b 25.960163
_cell_length_c 18.241475
_cell_angle_alpha 90.000000
_cell_angle_beta 90.000000
_cell_angle_gamma 90.000000
_cell_volume 4258.368828
_symmetry_space_group_name_H-M "A M M 2"
_symmetry_group_IT_number 38
_symmetry_cell_setting 'orthorhombic'
loop_
_space_group_symop_operation_xyz
x,y,z
-x,-y,z
-x,y,z
x,-y,z
x,1/2+y,1/2+z
-x,1/2-y,1/2+z
-x,1/2+y,1/2+z
x,1/2-y,1/2+z
loop_
_atom_site_type_symbol
_atom_site_label
_atom_site_fract_x
_atom_site_fract_y
_atom_site_fract_z
Si Si1 0.674622 0.253088 0.553370
Si Si2 0.174366 0.559062 0.553209
Si Si3 0.326333 0.151903 0.806890
Si Si4 0.832821 0.301710 0.177607
Si Si5 0.824018 0.739925 0.398456
Si Si6 0.329258 0.058103 0.905229
Si Si7 0.164030 0.803997 0.265202
Si Si8 0.327979 0.855829 0.142885
O O1 0.500000 0.245178 0.540782
O O2 0.736263 0.207332 0.604650
O O3 0.762660 0.248379 0.478262
O O4 0.709188 0.308496 0.589076
O O5 0.220221 0.500000 0.568216
O O6 0.233914 0.577251 0.474330
O O7 0.242399 0.593613 0.617150
O O8 0.000000 0.566982 0.553446
O O9 0.500000 0.164815 0.797723
O O10 0.246892 0.155382 0.727924
O O11 0.258549 0.190229 0.866810
O O12 0.298455 0.094091 0.835532
O O13 0.838483 0.249979 0.223844
O O14 0.000000 0.319752 0.157152
O O15 0.789167 0.790588 0.348661
O O16 0.000000 0.728822 0.400403
O O17 0.500000 0.061944 0.930141
O O18 0.285708 0.000000 0.882329
O O19 0.278278 0.842651 0.226038
O O20 0.000000 0.829216 0.262616
O O21 0.500000 0.868815 0.144196
#
# Coordination Sequence:
#
# PCOD8177393 Si02
#       8
#     8   8   8   8   8   8   8   8
#     4  10  19  29  42  62  86 111 141 174 207 245
#     4  10  20  31  43  60  82 109 141 176 210 243
#     4  10  18  28  43  61  82 110 143 176 210 247
#     4   9  17  29  43  59  81 109 139 171 208 248
#     4  10  19  29  42  61  85 113 142 171 207 248
#     4   9  18  31  44  59  82 111 142 176 211 245
#     4   8  16  29  42  57  79 107 137 169 203 242
#     4  10  19  29  43  61  81 109 141 172 208 246
#
# _framework density 15.029229000000001
#
# number of rings (size 3 to 8) (size 9 to 14) (size 15 to 20)
#    0.000    2.500    0.000    3.750    0.000    9.750 
#    0.000    0.000    0.000    0.000    0.000    0.000 
#    0.000    1.000    0.000    6.500    0.000    3.625 
#
# Total GULP energy -396771.869897 kJ/mol
# GULP energy per Si atom -12399.120934 kJ/mol
# Density = 1.499502 g / cm^3
# Si number density = 15.029229 Si / 1000 Ang^3
#
#
#
# Elastic Constant Matrix: (Units=GPa)
#
#
# Indices 1 2 3 4 5 6 
#
# 1 81.5943 36.8405 35.6953 0.0000 0.0000 0.0000
# 2 36.8405 58.6384 36.5172 0.0000 0.0000 0.0000
# 3 35.6953 36.5172 78.2257 0.0000 0.0000 0.0000
# 4 0.0000 0.0000 0.0000 22.3148 0.0000 0.0000
# 5 0.0000 0.0000 0.0000 0.0000 29.4872 0.0000
# 6 0.0000 0.0000 0.0000 0.0000 0.0000 19.7773
#
#
#
# Elastic Compliance Matrix: (Units=1/GPa)
#
#
# Indices 1 2 3 4 5 6 
#
# 1 0.018012 -0.008738 -0.004140 0.000000 0.000000 0.000000
# 2 -0.008738 0.028283 -0.009215 0.000000 0.000000 0.000000
# 3 -0.004140 -0.009215 0.018975 0.000000 0.000000 0.000000
# 4 0.000000 0.000000 0.000000 0.044813 0.000000 0.000000
# 5 0.000000 0.000000 0.000000 0.000000 0.033913 0.000000
# 6 0.000000 0.000000 0.000000 0.000000 0.000000 0.050563
#
#
# Mechanical properties :
#
#
# Convention : Reuss Voigt Hill
#
# Bulk Modulus (GPa) = 47.43394 48.50716 47.97055
# Shear Modulus (GPa) = 20.34391 21.60954 20.97673
#
# Velocity S-wave (km/s) = 3.68315 3.79599 3.74000
# Velocity P-wave (km/s) = 7.05104 7.18039 7.11601
#
# Compressibility (1/GPa) = 0.02108195
#
# Stress axis : x y z
#
# Youngs Moduli (GPa) = 55.51746 35.35747 52.70204
#
# Poissons Ratio (x) = 0.30896 0.21819
# Poissons Ratio (y) = 0.48513 0.48567
# Poissons Ratio (z) = 0.22985 0.32583
#
# Static dielectric constant tensor:
#      x y z
#    x 3.077810 0.000000 0.000000 
#    y 0.000000 2.725120 0.000000 
#    z 0.000000 0.000000 2.949500 
# 
# 
# High freq. dielectric constant tensor:
#      x y z
#    x 1.594080 0.000000 0.000000 
#    y 0.000000 1.538210 0.000000 
#    z 0.000000 0.000000 1.564690 
# 
# From -- ./inp_files/17268.got.cif
#   From: 2010.03.12/outbox.cif.g09.slc.cpg/sg38_9_cif.got.tgz:17268.got - 2010.04.14 02:38:36.
