data_PCOD8177581
_publ_section_title
;
Structure prediction by ZEFSAII (Michael W. Deem and Ramdas Pophale) SiO2 
 PCOD8177581
Probable space group: A M M 2
;
_chemical_formula_sum "Si O2"
_cell_formula_units_Z 56
_cell_length_a 10.607445
_cell_length_b 13.366121
_cell_length_c 22.607177
_cell_angle_alpha 90.000000
_cell_angle_beta 90.000000
_cell_angle_gamma 90.000000
_cell_volume 3205.254448
_symmetry_space_group_name_H-M "A M M 2"
_symmetry_group_IT_number 38
_symmetry_cell_setting 'orthorhombic'
loop_
_space_group_symop_operation_xyz
x,y,z
-x,-y,z
-x,y,z
x,-y,z
x,1/2+y,1/2+z
-x,1/2-y,1/2+z
-x,1/2+y,1/2+z
x,1/2-y,1/2+z
loop_
_atom_site_type_symbol
_atom_site_label
_atom_site_fract_x
_atom_site_fract_y
_atom_site_fract_z
Si Si1 0.500000 0.116282 0.683571
Si Si2 0.278935 0.616087 0.269051
Si Si3 0.500000 0.117897 0.552862
Si Si4 0.142681 0.613126 0.158541
Si Si5 0.142646 0.617763 0.934199
Si Si6 0.647358 0.758308 0.881064
Si Si7 0.356688 0.886960 0.995979
Si Si8 0.754763 0.706795 0.045500
O O1 0.380042 0.148564 0.720405
O O2 0.500000 0.165423 0.618905
O O3 0.500000 0.000000 0.671566
O O4 0.291739 0.500000 0.289852
O O5 0.153709 0.636090 0.229249
O O6 0.293360 0.689952 0.323326
O O7 0.623529 0.159847 0.520395
O O8 0.500000 0.000000 0.549036
O O9 0.191789 0.500000 0.147545
O O10 0.221820 0.682732 0.114147
O O11 0.000000 0.626379 0.139557
O O12 0.169846 0.500000 0.934860
O O13 0.254935 0.668683 0.895812
O O14 0.000000 0.638770 0.909313
O O15 0.141222 0.660887 0.001435
O O16 0.500000 0.723084 0.871411
O O17 0.651645 0.843254 0.930307
O O18 0.500000 0.881190 0.019849
O O19 0.307471 0.000000 0.994272
O O20 0.261332 0.826515 0.038945
#
# Coordination Sequence:
#
# PCOD8177581 Si02
#       8
#     4   8   4   8   8   8   8   8
#     4   9  16  26  43  71 107 137 155 187 246 308
#     4  10  18  30  50  77 107 136 165 202 253 312
#     4  11  18  26  44  79 113 133 160 209 263 312
#     4  10  20  32  48  74 107 140 171 207 256 317
#     4  10  22  38  54  73 102 140 175 210 259 316
#     4  10  20  33  54  81 103 133 174 214 259 302
#     4   9  18  32  48  72 105 135 170 212 255 305
#     4  11  19  31  51  77 103 136 172 209 261 311
#
# _framework density 17.471312000000001
#
# number of rings (size 3 to 8) (size 9 to 14) (size 15 to 20)
#    0.000    2.000    2.857    2.143    1.000    2.571 
#    0.000    0.000    0.000   15.000    0.000    0.000 
#    0.000    0.000    0.000    0.000    0.000    0.000 
#
# Total GULP energy -346920.486058 kJ/mol
# GULP energy per Si atom -12390.017359 kJ/mol
# Density = 1.743155 g / cm^3
# Si number density = 17.471312 Si / 1000 Ang^3
#
#
#
# Elastic Constant Matrix: (Units=GPa)
#
#
# Indices 1 2 3 4 5 6 
#
# 1 82.9309 48.4721 28.8652 0.0000 0.0000 0.0000
# 2 48.4721 115.0172 42.8958 0.0000 0.0000 0.0000
# 3 28.8652 42.8958 75.2280 0.0000 0.0000 0.0000
# 4 0.0000 0.0000 0.0000 26.0934 0.0000 0.0000
# 5 0.0000 0.0000 0.0000 0.0000 26.3673 0.0000
# 6 0.0000 0.0000 0.0000 0.0000 0.0000 23.6085
#
#
#
# Elastic Compliance Matrix: (Units=1/GPa)
#
#
# Indices 1 2 3 4 5 6 
#
# 1 0.016518 -0.005839 -0.003008 0.000000 0.000000 0.000000
# 2 -0.005839 0.013107 -0.005233 0.000000 0.000000 0.000000
# 3 -0.003008 -0.005233 0.017431 0.000000 0.000000 0.000000
# 4 0.000000 0.000000 0.000000 0.038324 0.000000 0.000000
# 5 0.000000 0.000000 0.000000 0.000000 0.037926 0.000000
# 6 0.000000 0.000000 0.000000 0.000000 0.000000 0.042358
#
#
# Mechanical properties :
#
#
# Convention : Reuss Voigt Hill
#
# Bulk Modulus (GPa) = 52.92508 57.07137 54.99822
# Shear Modulus (GPa) = 24.98448 25.41004 25.19726
#
# Velocity S-wave (km/s) = 3.78567 3.81778 3.80176
# Velocity P-wave (km/s) = 7.03326 7.22292 7.12872
#
# Compressibility (1/GPa) = 0.01889463
#
# Stress axis : x y z
#
# Youngs Moduli (GPa) = 60.53840 76.29523 57.36812
#
# Poissons Ratio (x) = 0.44552 0.17259
# Poissons Ratio (y) = 0.35351 0.30022
# Poissons Ratio (z) = 0.18213 0.39926
#
# Static dielectric constant tensor:
#      x y z
#    x 3.435110 0.000000 0.000000 
#    y 0.000000 3.082740 0.000000 
#    z 0.000000 0.000000 3.277260 
# 
# 
# High freq. dielectric constant tensor:
#      x y z
#    x 1.682090 0.000000 0.000000 
#    y 0.000000 1.646470 0.000000 
#    z 0.000000 0.000000 1.664500 
# 
# From -- ./inp_files/22569.got.cif
#   From: 2010.03.12/outbox.cif.g09.slc.cpg/sg38_12_cif.got.tgz:22569.got - 2010.04.14 02:38:36.
