data_PCOD8177316
_publ_section_title
;
Structure prediction by ZEFSAII (Michael W. Deem and Ramdas Pophale) SiO2 
 PCOD8177316
Probable space group: A M M 2
;
_chemical_formula_sum "Si O2"
_cell_formula_units_Z 64
_cell_length_a 8.839721
_cell_length_b 19.870270
_cell_length_c 20.806662
_cell_angle_alpha 90.000000
_cell_angle_beta 90.000000
_cell_angle_gamma 90.000000
_cell_volume 3654.641139
_symmetry_space_group_name_H-M "A M M 2"
_symmetry_group_IT_number 38
_symmetry_cell_setting 'orthorhombic'
loop_
_space_group_symop_operation_xyz
x,y,z
-x,-y,z
-x,y,z
x,-y,z
x,1/2+y,1/2+z
-x,1/2-y,1/2+z
-x,1/2+y,1/2+z
x,1/2-y,1/2+z
loop_
_atom_site_type_symbol
_atom_site_label
_atom_site_fract_x
_atom_site_fract_y
_atom_site_fract_z
Si Si1 0.679328 0.213822 0.658310
Si Si2 0.679609 0.788520 0.286867
Si Si3 0.320648 0.926403 0.849124
Si Si4 0.679740 0.427185 0.738590
Si Si5 0.323884 0.423806 0.592166
Si Si6 0.679421 0.926620 0.705104
Si Si7 0.680034 0.708929 0.410425
Si Si8 0.178168 0.205126 0.042396
O O1 0.500000 0.222241 0.649914
O O2 0.735674 0.247286 0.724775
O O3 0.730907 0.135165 0.659756
O O4 0.759830 0.248898 0.599209
O O5 0.500000 0.786754 0.287421
O O6 0.740414 0.865715 0.282156
O O7 0.740291 0.756297 0.352648
O O8 0.500000 0.921935 0.845459
O O9 0.255783 0.916062 0.777116
O O10 0.262960 0.867173 0.895524
O O11 0.270174 0.000000 0.875736
O O12 0.500000 0.428910 0.739454
O O13 0.741792 0.500000 0.763345
O O14 0.731502 0.415377 0.665390
O O15 0.500000 0.405322 0.585411
O O16 0.294278 0.500000 0.568172
O O17 0.229690 0.372314 0.549031
O O18 0.500000 0.925608 0.709608
O O19 0.733823 0.000000 0.678183
O O20 0.500000 0.713200 0.417755
O O21 0.757346 0.734079 0.475598
O O22 0.000000 0.209467 0.041840
#
# Coordination Sequence:
#
# PCOD8177316 Si02
#       8
#     8   8   8   8   8   8   8   8
#     4  10  17  31  55  78 100 129 167 214 257 305
#     4   9  15  26  50  78  98 121 162 212 258 296
#     4   8  13  23  43  73 102 123 150 192 244 302
#     4   8  13  23  45  77 104 121 148 199 257 305
#     4   9  17  32  55  78 100 131 170 209 252 304
#     4   8  13  23  46  81 109 123 147 201 265 307
#     4  10  19  32  50  72  97 131 170 209 251 302
#     4  12  25  36  46  68 105 146 178 211 250 297
#
# _framework density 17.511979
#
# number of rings (size 3 to 8) (size 9 to 14) (size 15 to 20)
#    0.000    2.750    2.500    2.625    0.000    0.750 
#    0.000    1.875    0.000    1.125    0.000    5.250 
#    0.000    0.000    0.000    0.000    0.000    0.000 
#
# Total GULP energy -396532.779488 kJ/mol
# GULP energy per Si atom -12391.649359 kJ/mol
# Density = 1.747212 g / cm^3
# Si number density = 17.511979 Si / 1000 Ang^3
#
#
#
# Elastic Constant Matrix: (Units=GPa)
#
#
# Indices 1 2 3 4 5 6 
#
# 1 39.4577 29.0557 33.6337 0.0000 0.0000 0.0000
# 2 29.0557 138.5602 71.2031 0.0000 0.0000 0.0000
# 3 33.6337 71.2031 120.9957 0.0000 0.0000 0.0000
# 4 0.0000 0.0000 0.0000 23.1782 0.0000 0.0000
# 5 0.0000 0.0000 0.0000 0.0000 -1.3640 0.0000
# 6 0.0000 0.0000 0.0000 0.0000 0.0000 7.1843
#
#
#
# Elastic Compliance Matrix: (Units=1/GPa)
#
#
# Indices 1 2 3 4 5 6 
#
# 1 0.034222 -0.003280 -0.007583 0.000000 0.000000 0.000000
# 2 -0.003280 0.010660 -0.005361 0.000000 0.000000 0.000000
# 3 -0.007583 -0.005361 0.013528 0.000000 0.000000 0.000000
# 4 0.000000 0.000000 0.000000 0.043144 0.000000 0.000000
# 5 0.000000 0.000000 0.000000 0.000000 -0.733137 0.000000
# 6 0.000000 0.000000 0.000000 0.000000 0.000000 0.139192
#
#
# Mechanical properties :
#
#
# Convention : Reuss Voigt Hill
#
# Bulk Modulus (GPa) = 38.51799 62.97763 50.74781
# Shear Modulus (GPa) = -11.07937 16.80779 2.86421
#
# Velocity S-wave (km/s) = -2.51803 3.10141 1.28028
# Velocity P-wave (km/s) = 3.68633 6.99040 5.58814
#
# Compressibility (1/GPa) = 0.02596190
#
# Stress axis : x y z
#
# Youngs Moduli (GPa) = 29.22072 93.80909 73.92222
#
# Poissons Ratio (x) = 0.30766 0.56055
# Poissons Ratio (y) = 0.09583 0.39633
# Poissons Ratio (z) = 0.22158 0.50296
#
# Static dielectric constant tensor:
#      x y z
#    x 2.669070 0.000000 0.000000 
#    y 0.000000 3.835940 0.000000 
#    z 0.000000 0.000000 3.156010 
# 
# 
# High freq. dielectric constant tensor:
#      x y z
#    x 1.615010 0.000000 0.000000 
#    y 0.000000 1.691060 0.000000 
#    z 0.000000 0.000000 1.654430 
# 
# From -- ./inp_files/20224.got.cif
#   From: 2010.03.12/outbox.cif.g09.slc.cpg/sg38_11_cif.got.tgz:20224.got - 2010.04.14 02:38:36.
