data_PCOD8177392
_publ_section_title
;
Structure prediction by ZEFSAII (Michael W. Deem and Ramdas Pophale) SiO2 
 PCOD8177392
Probable space group: A M M 2
;
_chemical_formula_sum "Si O2"
_cell_formula_units_Z 64
_cell_length_a 8.678765
_cell_length_b 18.467611
_cell_length_c 26.386951
_cell_angle_alpha 90.000000
_cell_angle_beta 90.000000
_cell_angle_gamma 90.000000
_cell_volume 4229.196436
_symmetry_space_group_name_H-M "A M M 2"
_symmetry_group_IT_number 38
_symmetry_cell_setting 'orthorhombic'
loop_
_space_group_symop_operation_xyz
x,y,z
-x,-y,z
-x,y,z
x,-y,z
x,1/2+y,1/2+z
-x,1/2-y,1/2+z
-x,1/2+y,1/2+z
x,1/2-y,1/2+z
loop_
_atom_site_type_symbol
_atom_site_label
_atom_site_fract_x
_atom_site_fract_y
_atom_site_fract_z
Si Si1 0.684391 0.152675 0.593470
Si Si2 0.819107 0.336703 0.797491
Si Si3 0.331247 0.209877 0.145170
Si Si4 0.680011 0.583405 0.889176
Si Si5 0.670643 0.795281 0.749404
Si Si6 0.178216 0.416750 0.995590
Si Si7 0.315627 0.581241 0.704402
Si Si8 0.821956 0.083189 0.690465
O O1 0.500000 0.151718 0.589038
O O2 0.748977 0.234488 0.605986
O O3 0.762491 0.131685 0.541346
O O4 0.730982 0.098666 0.638507
O O5 0.776334 0.363899 0.853255
O O6 0.757242 0.254804 0.790473
O O7 0.746792 0.393740 0.758409
O O8 0.000000 0.335733 0.789721
O O9 0.500000 0.192619 0.123301
O O10 0.344017 0.250935 0.198111
O O11 0.249339 0.132935 0.158608
O O12 0.500000 0.596542 0.880445
O O13 0.725176 0.500000 0.878244
O O14 0.723464 0.604030 0.946447
O O15 0.500000 0.814418 0.769994
O O16 0.762366 0.869356 0.737965
O O17 0.204627 0.500000 0.010718
O O18 0.000000 0.400480 0.984716
O O19 0.500000 0.587208 0.706598
O O20 0.259810 0.500000 0.693196
O O21 0.000000 0.101134 0.680542
O O22 0.796052 0.000000 0.705489
#
# Coordination Sequence:
#
# PCOD8177392 Si02
#       8
#     8   8   8   8   8   8   8   8
#     4  10  18  28  43  60  82 115 150 178 208 253
#     4  11  20  29  43  62  86 114 142 174 214 255
#     4   7  13  25  39  57  79 104 137 175 208 240
#     4  10  20  33  47  62  82 110 144 178 211 252
#     4   9  17  30  45  60  81 110 145 179 209 248
#     4  10  20  32  44  60  83 108 138 180 222 254
#     4   9  16  27  43  61  83 113 147 179 210 247
#     4  10  19  29  42  63  90 116 143 177 216 255
#
# _framework density 15.132899
#
# number of rings (size 3 to 8) (size 9 to 14) (size 15 to 20)
#    0.000    2.500    0.000    5.250    0.000    5.750 
#    0.000    0.625    0.000    0.000    0.000    0.000 
#    0.000    1.000    0.000    5.000    0.000    3.375 
#
# Total GULP energy -396587.887756 kJ/mol
# GULP energy per Si atom -12393.371492 kJ/mol
# Density = 1.509846 g / cm^3
# Si number density = 15.132899 Si / 1000 Ang^3
#
#
#
# Elastic Constant Matrix: (Units=GPa)
#
#
# Indices 1 2 3 4 5 6 
#
# 1 47.2700 23.1598 12.1595 0.0000 0.0000 0.0000
# 2 23.1598 99.4783 43.4215 0.0000 0.0000 0.0000
# 3 12.1595 43.4215 64.4100 0.0000 0.0000 0.0000
# 4 0.0000 0.0000 0.0000 26.8035 0.0000 0.0000
# 5 0.0000 0.0000 0.0000 0.0000 21.7058 0.0000
# 6 0.0000 0.0000 0.0000 0.0000 0.0000 20.0152
#
#
#
# Elastic Compliance Matrix: (Units=1/GPa)
#
#
# Indices 1 2 3 4 5 6 
#
# 1 0.023932 -0.005100 -0.001079 0.000000 0.000000 0.000000
# 2 -0.005100 0.015331 -0.009372 0.000000 0.000000 0.000000
# 3 -0.001079 -0.009372 0.022048 0.000000 0.000000 0.000000
# 4 0.000000 0.000000 0.000000 0.037309 0.000000 0.000000
# 5 0.000000 0.000000 0.000000 0.000000 0.046071 0.000000
# 6 0.000000 0.000000 0.000000 0.000000 0.000000 0.049962
#
#
# Mechanical properties :
#
#
# Convention : Reuss Voigt Hill
#
# Bulk Modulus (GPa) = 33.10630 40.96000 37.03315
# Shear Modulus (GPa) = 21.20222 22.53273 21.86747
#
# Velocity S-wave (km/s) = 3.74715 3.86293 3.80548
# Velocity P-wave (km/s) = 6.37542 6.85725 6.62072
#
# Compressibility (1/GPa) = 0.03020573
#
# Stress axis : x y z
#
# Youngs Moduli (GPa) = 41.78555 65.22813 45.35649
#
# Poissons Ratio (x) = 0.33269 0.04896
# Poissons Ratio (y) = 0.21312 0.42509
# Poissons Ratio (z) = 0.04511 0.61134
#
# Static dielectric constant tensor:
#      x y z
#    x 2.965600 0.000000 0.000000 
#    y 0.000000 3.183150 0.000000 
#    z 0.000000 0.000000 2.714950 
# 
# 
# High freq. dielectric constant tensor:
#      x y z
#    x 1.584900 0.000000 0.000000 
#    y 0.000000 1.572590 0.000000 
#    z 0.000000 0.000000 1.544980 
# 
# From -- ./inp_files/22254.got.cif
#   From: 2010.03.12/outbox.cif.g09.slc.cpg/sg38_12_cif.got.tgz:22254.got - 2010.04.14 02:38:36.
