data_PCOD8177540
_publ_section_title
;
Structure prediction by ZEFSAII (Michael W. Deem and Ramdas Pophale) SiO2 
 PCOD8177540
Probable space group: A M M 2
;
_chemical_formula_sum "Si O2"
_cell_formula_units_Z 64
_cell_length_a 8.791544
_cell_length_b 30.182688
_cell_length_c 14.397711
_cell_angle_alpha 90.000000
_cell_angle_beta 90.000000
_cell_angle_gamma 90.000000
_cell_volume 3820.467594
_symmetry_space_group_name_H-M "A M M 2"
_symmetry_group_IT_number 38
_symmetry_cell_setting 'orthorhombic'
loop_
_space_group_symop_operation_xyz
x,y,z
-x,-y,z
-x,y,z
x,-y,z
x,1/2+y,1/2+z
-x,1/2-y,1/2+z
-x,1/2+y,1/2+z
x,1/2-y,1/2+z
loop_
_atom_site_type_symbol
_atom_site_label
_atom_site_fract_x
_atom_site_fract_y
_atom_site_fract_z
Si Si1 0.323069 0.273695 0.426320
Si Si2 0.319863 0.215062 0.714889
Si Si3 0.819567 0.297815 0.605982
Si Si4 0.827380 0.815477 0.434326
Si Si5 0.827386 0.133142 0.619726
Si Si6 0.822223 0.450605 0.849896
Si Si7 0.677987 0.449742 0.048708
Si Si8 0.179595 0.634711 0.754096
O O1 0.500000 0.283186 0.434355
O O2 0.264348 0.281076 0.321709
O O3 0.238463 0.305082 0.500844
O O4 0.284752 0.224220 0.460030
O O5 0.500000 0.220569 0.706586
O O6 0.242268 0.253052 0.653483
O O7 0.270592 0.166329 0.682434
O O8 0.759080 0.341528 0.661086
O O9 0.000000 0.293933 0.606906
O O10 0.820536 0.852156 0.513224
O O11 0.762145 0.836772 0.340855
O O12 0.000000 0.797458 0.422643
O O13 0.758709 0.083512 0.621544
O O14 0.000000 0.132338 0.657143
O O15 0.790190 0.500000 0.811947
O O16 0.766654 0.416243 0.769446
O O17 0.000000 0.443450 0.872739
O O18 0.732361 0.441394 0.943969
O O19 0.500000 0.440521 0.052255
O O20 0.717645 0.500000 0.079240
O O21 0.000000 0.635892 0.751999
#
# Coordination Sequence:
#
# PCOD8177540 Si02
#       8
#     8   8   8   8   8   8   8   8
#     4  11  23  36  49  69 100 133 169 210 251 295
#     4  11  23  36  50  71  99 130 167 209 253 301
#     4  11  21  33  51  71  97 132 170 209 247 298
#     4  10  18  30  48  70 100 132 167 203 243 294
#     4  11  21  33  52  75  98 133 171 206 250 296
#     4   9  16  29  49  71  98 131 167 207 249 296
#     4  10  20  32  47  71 104 137 166 201 246 295
#     4   9  17  30  47  71  98 128 166 203 241 291
#
# _framework density 16.751875999999999
#
# number of rings (size 3 to 8) (size 9 to 14) (size 15 to 20)
#    0.000    1.750    3.750    1.875    0.000    2.750 
#    0.000    1.250    0.000    0.000    0.000    0.875 
#    0.000    3.000    0.000    0.000    0.000    0.000 
#
# Total GULP energy -396691.893091 kJ/mol
# GULP energy per Si atom -12396.621659 kJ/mol
# Density = 1.671375 g / cm^3
# Si number density = 16.751876 Si / 1000 Ang^3
#
#
#
# Elastic Constant Matrix: (Units=GPa)
#
#
# Indices 1 2 3 4 5 6 
#
# 1 56.7719 24.3662 26.7576 0.0000 0.0000 0.0000
# 2 24.3662 101.0080 29.3832 0.0000 0.0000 0.0000
# 3 26.7576 29.3832 77.7427 0.0000 0.0000 0.0000
# 4 0.0000 0.0000 0.0000 25.0310 0.0000 0.0000
# 5 0.0000 0.0000 0.0000 0.0000 22.9442 0.0000
# 6 0.0000 0.0000 0.0000 0.0000 0.0000 16.0669
#
#
#
# Elastic Compliance Matrix: (Units=1/GPa)
#
#
# Indices 1 2 3 4 5 6 
#
# 1 0.022074 -0.003500 -0.006275 0.000000 0.000000 0.000000
# 2 -0.003500 0.011678 -0.003209 0.000000 0.000000 0.000000
# 3 -0.006275 -0.003209 0.016236 0.000000 0.000000 0.000000
# 4 0.000000 0.000000 0.000000 0.039950 0.000000 0.000000
# 5 0.000000 0.000000 0.000000 0.000000 0.043584 0.000000
# 6 0.000000 0.000000 0.000000 0.000000 0.000000 0.062240
#
#
# Mechanical properties :
#
#
# Convention : Reuss Voigt Hill
#
# Bulk Modulus (GPa) = 41.63161 44.05963 42.84562
# Shear Modulus (GPa) = 21.76420 23.14280 22.45350
#
# Velocity S-wave (km/s) = 3.60837 3.72089 3.66506
# Velocity P-wave (km/s) = 6.50125 6.69466 6.59866
#
# Compressibility (1/GPa) = 0.02402021
#
# Stress axis : x y z
#
# Youngs Moduli (GPa) = 45.30274 85.63128 61.59333
#
# Poissons Ratio (x) = 0.29967 0.38648
# Poissons Ratio (y) = 0.15854 0.19767
# Poissons Ratio (z) = 0.28426 0.27481
#
# Static dielectric constant tensor:
#      x y z
#    x 3.114520 0.000000 0.000000 
#    y 0.000000 3.321660 0.000000 
#    z 0.000000 0.000000 3.247660 
# 
# 
# High freq. dielectric constant tensor:
#      x y z
#    x 1.644070 0.000000 0.000000 
#    y 0.000000 1.639180 0.000000 
#    z 0.000000 0.000000 1.620470 
# 
# From -- ./inp_files/13055.got.cif
#   From: 2010.03.12/outbox.cif.g09.slc.cpg/sg38_7_cif.got.tgz:13055.got - 2010.04.14 02:38:36.
