data_PCOD8177736
_publ_section_title
;
Structure prediction by ZEFSAII (Michael W. Deem and Ramdas Pophale) SiO2 
 PCOD8177736
Probable space group: A M M 2
;
_chemical_formula_sum "Si O2"
_cell_formula_units_Z 48
_cell_length_a 19.076059
_cell_length_b 9.166217
_cell_length_c 15.119690
_cell_angle_alpha 90.000000
_cell_angle_beta 90.000000
_cell_angle_gamma 90.000000
_cell_volume 2643.757875
_symmetry_space_group_name_H-M "A M M 2"
_symmetry_group_IT_number 38
_symmetry_cell_setting 'orthorhombic'
loop_
_space_group_symop_operation_xyz
x,y,z
-x,-y,z
-x,y,z
x,-y,z
x,1/2+y,1/2+z
-x,1/2-y,1/2+z
-x,1/2+y,1/2+z
x,1/2-y,1/2+z
loop_
_atom_site_type_symbol
_atom_site_label
_atom_site_fract_x
_atom_site_fract_y
_atom_site_fract_z
Si Si1 0.419102 0.171200 0.109650
Si Si2 0.824119 0.827612 0.524106
Si Si3 0.668754 0.327609 0.965519
Si Si4 0.170634 0.173053 0.203602
Si Si5 0.321413 0.672891 0.767069
Si Si6 0.078419 0.673191 0.866111
O O1 0.500000 0.210885 0.121815
O O2 0.379524 0.228120 0.197558
O O3 0.406728 0.000000 0.096760
O O4 0.390692 0.251213 0.023160
O O5 0.744915 0.782050 0.501200
O O6 0.849533 0.748803 0.612322
O O7 0.874702 0.768672 0.446877
O O8 0.830695 0.000000 0.536123
O O9 0.657772 0.500000 0.970929
O O10 0.660356 0.269221 0.865056
O O11 0.245869 0.231871 0.236648
O O12 0.112633 0.223687 0.274104
O O13 0.171720 0.000000 0.190372
O O14 0.318330 0.500000 0.771256
O O15 0.076957 0.500000 0.869556
O O16 0.000000 0.738107 0.872987
#
# Coordination Sequence:
#
# PCOD8177736 Si02
#       6
#     8   8   8   8   8   8
#     4  10  21  36  53  76 106 136 167 210 265 312
#     4  10  19  32  52  79 106 134 171 214 260 308
#     4  10  19  33  55  79 101 132 176 216 251 302
#     4  10  18  32  55  78 100 133 176 214 251 304
#     4   9  17  32  54  76  98 131 173 210 246 300
#     4   9  18  33  53  77 106 139 174 214 259 306
#
# _framework density 18.155974000000001
#
# number of rings (size 3 to 8) (size 9 to 14) (size 15 to 20)
#    0.000    2.333    3.333    0.000    0.000    1.667 
#    0.000    4.167    0.000    1.000    0.000    0.000 
#    0.000    0.000    0.000    0.000    0.000    0.000 
#
# Total GULP energy -297619.569595 kJ/mol
# GULP energy per Si atom -12400.815400 kJ/mol
# Density = 1.811465 g / cm^3
# Si number density = 18.155974 Si / 1000 Ang^3
#
#
#
# Elastic Constant Matrix: (Units=GPa)
#
#
# Indices 1 2 3 4 5 6 
#
# 1 123.6110 23.9736 59.0510 0.0000 0.0000 0.0000
# 2 23.9736 19.4310 29.7499 0.0000 0.0000 0.0000
# 3 59.0510 29.7499 163.1164 0.0000 0.0000 0.0000
# 4 0.0000 0.0000 0.0000 31.6941 0.0000 0.0000
# 5 0.0000 0.0000 0.0000 0.0000 35.1953 0.0000
# 6 0.0000 0.0000 0.0000 0.0000 0.0000 16.0443
#
#
#
# Elastic Compliance Matrix: (Units=1/GPa)
#
#
# Indices 1 2 3 4 5 6 
#
# 1 0.011138 -0.010500 -0.002117 0.000000 0.000000 0.000000
# 2 -0.010500 0.081302 -0.011027 0.000000 0.000000 0.000000
# 3 -0.002117 -0.011027 0.008908 0.000000 0.000000 0.000000
# 4 0.000000 0.000000 0.000000 0.031552 0.000000 0.000000
# 5 0.000000 0.000000 0.000000 0.000000 0.028413 0.000000
# 6 0.000000 0.000000 0.000000 0.000000 0.000000 0.062328
#
#
# Mechanical properties :
#
#
# Convention : Reuss Voigt Hill
#
# Bulk Modulus (GPa) = 18.49810 59.07859 38.78835
# Shear Modulus (GPa) = 17.30413 29.47898 23.39156
#
# Velocity S-wave (km/s) = 3.09055 4.03383 3.59328
# Velocity P-wave (km/s) = 4.79019 7.36925 6.21497
#
# Compressibility (1/GPa) = 0.05405961
#
# Stress axis : x y z
#
# Youngs Moduli (GPa) = 89.78548 12.29978 112.25730
#
# Poissons Ratio (x) = 0.12915 0.23764
# Poissons Ratio (y) = 0.94277 1.23786
# Poissons Ratio (z) = 0.19007 0.13563
#
# Static dielectric constant tensor:
#      x y z
#    x 3.478660 0.000000 0.000000 
#    y 0.000000 2.902300 0.000000 
#    z 0.000000 0.000000 3.546440 
# 
# 
# High freq. dielectric constant tensor:
#      x y z
#    x 1.706420 0.000000 0.000000 
#    y 0.000000 1.658670 0.000000 
#    z 0.000000 0.000000 1.720540 
# 
# From -- ./inp_files/10474.got.cif
#   From: 2010.03.12/outbox.cif.g09.slc.cpg/sg38_6_cif.got.tgz:10474.got - 2010.04.14 02:38:36.
