data_PCOD8177338
_publ_section_title
;
Structure prediction by ZEFSAII (Michael W. Deem and Ramdas Pophale) SiO2 
 PCOD8177338
Probable space group: A M M 2
;
_chemical_formula_sum "Si O2"
_cell_formula_units_Z 64
_cell_length_a 9.415026
_cell_length_b 33.886416
_cell_length_c 13.599295
_cell_angle_alpha 90.000000
_cell_angle_beta 90.000000
_cell_angle_gamma 90.000000
_cell_volume 4338.739308
_symmetry_space_group_name_H-M "A M M 2"
_symmetry_group_IT_number 38
_symmetry_cell_setting 'orthorhombic'
loop_
_space_group_symop_operation_xyz
x,y,z
-x,-y,z
-x,y,z
x,-y,z
x,1/2+y,1/2+z
-x,1/2-y,1/2+z
-x,1/2+y,1/2+z
x,1/2-y,1/2+z
loop_
_atom_site_type_symbol
_atom_site_label
_atom_site_fract_x
_atom_site_fract_y
_atom_site_fract_z
Si Si1 0.840299 0.043179 0.655140
Si Si2 0.667555 0.802374 0.559858
Si Si3 0.162875 0.264255 0.663838
Si Si4 0.335775 0.883729 0.661668
Si Si5 0.159726 0.543543 0.388732
Si Si6 0.160840 0.187374 0.976033
Si Si7 0.667085 0.382418 0.388249
Si Si8 0.163482 0.229281 0.385566
O O1 0.743623 0.078590 0.614471
O O2 0.834664 0.043254 0.771950
O O3 0.000000 0.050515 0.617851
O O4 0.786970 0.000000 0.617466
O O5 0.500000 0.794692 0.554314
O O6 0.734839 0.771661 0.636188
O O7 0.703953 0.845916 0.597489
O O8 0.735732 0.797953 0.452028
O O9 0.184609 0.300632 0.589608
O O10 0.200696 0.279545 0.772485
O O11 0.000000 0.248979 0.658906
O O12 0.500000 0.894084 0.656452
O O13 0.290965 0.875742 0.774450
O O14 0.204936 0.500000 0.427892
O O15 0.267183 0.576646 0.429173
O O16 0.000000 0.553473 0.424342
O O17 0.270460 0.153219 0.951247
O O18 0.193656 0.224834 0.907139
O O19 0.000000 0.172449 0.958481
O O20 0.500000 0.383808 0.404841
O O21 0.000000 0.219269 0.410837
#
# Coordination Sequence:
#
# PCOD8177338 Si02
#       8
#     8   8   8   8   8   8   8   8
#     4   8  14  24  38  56  76 101 135 169 198 231
#     4  10  19  29  42  62  86 109 137 171 205 246
#     4   9  18  32  47  61  79 106 140 175 209 245
#     4   9  18  28  37  55  83 112 138 164 197 237
#     4   8  14  25  39  54  75 104 135 165 198 235
#     4   9  17  28  42  60  80 103 133 168 204 242
#     4  10  18  26  38  57  82 110 138 167 197 233
#     4   9  18  32  47  61  79 106 140 175 210 245
#
# _framework density 14.750829
#
# number of rings (size 3 to 8) (size 9 to 14) (size 15 to 20)
#    0.000    3.000    0.000    3.000    0.000    4.500 
#    0.000    2.500    0.000    0.000    0.000    0.000 
#    0.000    1.000    0.000    9.000    0.000    6.250 
#
# Total GULP energy -396696.949575 kJ/mol
# GULP energy per Si atom -12396.779674 kJ/mol
# Density = 1.471726 g / cm^3
# Si number density = 14.750829 Si / 1000 Ang^3
#
#
#
# Elastic Constant Matrix: (Units=GPa)
#
#
# Indices 1 2 3 4 5 6 
#
# 1 85.6464 71.5265 37.7840 0.0000 0.0000 0.0000
# 2 71.5265 118.3397 42.9099 0.0000 0.0000 0.0000
# 3 37.7840 42.9099 72.0317 0.0000 0.0000 0.0000
# 4 0.0000 0.0000 0.0000 15.3316 0.0000 0.0000
# 5 0.0000 0.0000 0.0000 0.0000 18.4767 0.0000
# 6 0.0000 0.0000 0.0000 0.0000 0.0000 28.7408
#
#
#
# Elastic Compliance Matrix: (Units=1/GPa)
#
#
# Indices 1 2 3 4 5 6 
#
# 1 0.025045 -0.013232 -0.005255 0.000000 0.000000 0.000000
# 2 -0.013232 0.017769 -0.003645 0.000000 0.000000 0.000000
# 3 -0.005255 -0.003645 0.018810 0.000000 0.000000 0.000000
# 4 0.000000 0.000000 0.000000 0.065225 0.000000 0.000000
# 5 0.000000 0.000000 0.000000 0.000000 0.054122 0.000000
# 6 0.000000 0.000000 0.000000 0.000000 0.000000 0.034794
#
#
# Mechanical properties :
#
#
# Convention : Reuss Voigt Hill
#
# Bulk Modulus (GPa) = 57.59793 64.49540 61.04666
# Shear Modulus (GPa) = 18.81007 20.76297 19.78652
#
# Velocity S-wave (km/s) = 3.57485 3.75584 3.66646
# Velocity P-wave (km/s) = 7.49476 7.91370 7.70708
#
# Compressibility (1/GPa) = 0.01736174
#
# Stress axis : x y z
#
# Youngs Moduli (GPa) = 39.92864 56.27623 53.16268
#
# Poissons Ratio (x) = 0.74465 0.27935
# Poissons Ratio (y) = 0.52834 0.19376
# Poissons Ratio (z) = 0.20981 0.20510
#
# Static dielectric constant tensor:
#      x y z
#    x 2.915610 0.000000 0.000000 
#    y 0.000000 2.984600 0.000000 
#    z 0.000000 0.000000 2.632790 
# 
# 
# High freq. dielectric constant tensor:
#      x y z
#    x 1.570640 0.000000 0.000000 
#    y 0.000000 1.560520 0.000000 
#    z 0.000000 0.000000 1.522090 
# 
# From -- ./inp_files/13047.got.cif
#   From: 2010.03.12/outbox.cif.g09.slc.cpg/sg38_7_cif.got.tgz:13047.got - 2010.04.14 02:38:36.
