data_PCOD8177026
_publ_section_title
;
Structure prediction by ZEFSAII (Michael W. Deem and Ramdas Pophale) SiO2 
 PCOD8177026
Probable space group: C C C 2
;
_chemical_formula_sum "Si O2"
_cell_formula_units_Z 36
_cell_length_a 14.500098
_cell_length_b 10.165789
_cell_length_c 9.187272
_cell_angle_alpha 90.000000
_cell_angle_beta 90.000000
_cell_angle_gamma 90.000000
_cell_volume 1354.249248
_symmetry_space_group_name_H-M "C C C 2"
_symmetry_group_IT_number 37
_symmetry_cell_setting 'orthorhombic'
loop_
_space_group_symop_operation_xyz
x,y,z
-x,-y,z
-x,y,1/2+z
x,-y,1/2+z
1/2+x,1/2+y,z
1/2-x,1/2-y,z
1/2-x,1/2+y,1/2+z
1/2+x,1/2-y,1/2+z
loop_
_atom_site_type_symbol
_atom_site_label
_atom_site_fract_x
_atom_site_fract_y
_atom_site_fract_z
Si Si1 0.665830 0.054372 0.466300
Si Si2 0.897666 0.765430 0.752652
Si Si3 0.096275 0.350086 0.268142
Si Si4 0.000000 0.000000 0.382192
Si Si5 0.836499 0.137477 0.969056
O O1 0.661272 0.192985 0.379243
O O2 0.647077 0.080023 0.634455
O O3 0.589715 0.956697 0.397934
O O4 0.764920 0.981576 0.452379
O O5 0.828570 0.770105 0.612828
O O6 0.993632 0.689587 0.720830
O O7 0.925511 0.915059 0.791913
O O8 0.161702 0.229663 0.324394
O O9 0.058863 0.089536 0.489406
#
# Coordination Sequence:
#
# PCOD8177026 Si02
#       5
#     8   8   8   4   8
#     4  12  27  48  81 116 155 201 271 330 398 474
#     4  11  25  50  82 112 158 211 257 325 402 485
#     4  11  25  50  79 113 157 210 256 328 406 475
#     4  10  24  48  80 112 152 210 260 324 396 492
#     4  11  26  51  77 116 157 204 267 328 396 477
#
# _framework density 26.582992999999998
#
# number of rings (size 3 to 8) (size 9 to 14) (size 15 to 20)
#    0.000    0.889    0.000    6.000    3.111    4.444 
#    8.000    2.222    0.000    0.000    0.000    0.000 
#    0.000    0.000    0.000    0.000    0.000    0.000 
#
# Total GULP energy -223054.135355 kJ/mol
# GULP energy per Si atom -12391.896409 kJ/mol
# Density = 2.652249 g / cm^3
# Si number density = 26.582993 Si / 1000 Ang^3
#
#
#
# Elastic Constant Matrix: (Units=GPa)
#
#
# Indices 1 2 3 4 5 6 
#
# 1 120.3683 60.5414 62.3256 0.0000 0.0000 0.0000
# 2 60.5414 149.0993 70.4603 0.0000 0.0000 0.0000
# 3 62.3256 70.4603 153.7869 0.0000 0.0000 0.0000
# 4 0.0000 0.0000 0.0000 33.6717 0.0000 0.0000
# 5 0.0000 0.0000 0.0000 0.0000 -57.1585 0.0000
# 6 0.0000 0.0000 0.0000 0.0000 0.0000 71.7416
#
#
#
# Elastic Compliance Matrix: (Units=1/GPa)
#
#
# Indices 1 2 3 4 5 6 
#
# 1 0.011581 -0.003171 -0.003240 0.000000 0.000000 0.000000
# 2 -0.003171 0.009429 -0.003035 0.000000 0.000000 0.000000
# 3 -0.003240 -0.003035 0.009206 0.000000 0.000000 0.000000
# 4 0.000000 0.000000 0.000000 0.029699 0.000000 0.000000
# 5 0.000000 0.000000 0.000000 0.000000 -0.017495 0.000000
# 6 0.000000 0.000000 0.000000 0.000000 0.000000 0.013939
#
#
# Mechanical properties :
#
#
# Convention : Reuss Voigt Hill
#
# Bulk Modulus (GPa) = 88.31541 89.98989 89.15265
# Shear Modulus (GPa) = 63.27151 24.97944 44.12548
#
# Velocity S-wave (km/s) = 4.88397 3.06874 4.07862
# Velocity P-wave (km/s) = 8.06839 6.81778 7.46930
#
# Compressibility (1/GPa) = 0.01132305
#
# Stress axis : x y z
#
# Youngs Moduli (GPa) = 86.35137 106.05966 108.62188
#
# Poissons Ratio (x) = 0.33630 0.35199
# Poissons Ratio (y) = 0.27381 0.32965
# Poissons Ratio (z) = 0.27982 0.32187
#
# Static dielectric constant tensor:
#      x y z
#    x 5.017540 0.000000 0.000000 
#    y 0.000000 5.345590 0.000000 
#    z 0.000000 0.000000 4.654030 
# 
# 
# High freq. dielectric constant tensor:
#      x y z
#    x 2.082050 0.000000 0.000000 
#    y 0.000000 2.085950 0.000000 
#    z 0.000000 0.000000 2.058660 
# 
# From -- ./inp_files/3248.got.cif
#   From: 2010.03.12/outbox.cif.g09.slc.cpg/sg37_2_cif.got.tgz:3248.got - 2010.04.14 02:25:27.
