data_PCOD8177988
_publ_section_title
;
Structure prediction by ZEFSAII (Michael W. Deem and Ramdas Pophale) SiO2 
 PCOD8177988
Probable space group: A M M 2
;
_chemical_formula_sum "Si O2"
_cell_formula_units_Z 64
_cell_length_a 13.904692
_cell_length_b 27.210683
_cell_length_c 10.316063
_cell_angle_alpha 90.000000
_cell_angle_beta 90.000000
_cell_angle_gamma 90.000000
_cell_volume 3903.146047
_symmetry_space_group_name_H-M "A M M 2"
_symmetry_group_IT_number 38
_symmetry_cell_setting 'orthorhombic'
loop_
_space_group_symop_operation_xyz
x,y,z
-x,-y,z
-x,y,z
x,-y,z
x,1/2+y,1/2+z
-x,1/2-y,1/2+z
-x,1/2+y,1/2+z
x,1/2-y,1/2+z
loop_
_atom_site_type_symbol
_atom_site_label
_atom_site_fract_x
_atom_site_fract_y
_atom_site_fract_z
Si Si1 0.204167 0.898196 0.427980
Si Si2 0.797229 0.058405 0.927459
Si Si3 0.887048 0.206328 0.455630
Si Si4 0.390616 0.057409 0.342624
Si Si5 0.893398 0.057517 0.669922
Si Si6 0.604008 0.058249 0.045821
Si Si7 0.887821 0.891101 0.163134
Si Si8 0.110957 0.718231 0.665797
O O1 0.178391 0.842135 0.460878
O O2 0.318874 0.908683 0.427361
O O3 0.158632 0.932784 0.535850
O O4 0.162579 0.914784 0.288748
O O5 0.832485 0.079943 0.790008
O O6 0.796991 0.000000 0.928431
O O7 0.689839 0.079142 0.956208
O O8 0.870208 0.075710 0.038428
O O9 0.844133 0.241526 0.568124
O O10 0.873206 0.233032 0.316292
O O11 0.000000 0.192342 0.474967
O O12 0.500000 0.067096 0.389145
O O13 0.378128 0.073945 0.193752
O O14 0.364466 0.000000 0.360435
O O15 0.000000 0.081411 0.670305
O O16 0.902424 0.000000 0.691197
O O17 0.500000 0.078877 0.998058
O O18 0.601623 0.000000 0.038680
O O19 0.845793 0.836057 0.140320
O O20 0.000000 0.888085 0.195217
O O21 0.000000 0.716775 0.628231
#
# Coordination Sequence:
#
# PCOD8177988 Si02
#       8
#     8   8   8   8   8   8   8   8
#     4  11  19  31  49  71  94 124 161 200 242 286
#     4  10  19  31  45  65  93 129 166 201 239 282
#     4   9  17  30  48  69  93 120 157 199 239 289
#     4   9  17  30  49  73  98 124 160 207 251 285
#     4  10  21  33  42  60  98 137 161 186 230 290
#     4   8  14  27  47  68  89 117 157 205 247 276
#     4  10  19  30  46  68  93 122 163 205 236 283
#     4   8  16  29  43  63  90 118 150 195 240 280
#
# _framework density 16.397029
#
# number of rings (size 3 to 8) (size 9 to 14) (size 15 to 20)
#    0.000    2.625    1.250    3.375    0.000    2.250 
#    0.000    3.125    0.000    2.250    0.000    4.375 
#    0.000    0.000    0.000    0.000    0.000    0.000 
#
# Total GULP energy -396622.434083 kJ/mol
# GULP energy per Si atom -12394.451065 kJ/mol
# Density = 1.635971 g / cm^3
# Si number density = 16.397029 Si / 1000 Ang^3
#
#
#
# Elastic Constant Matrix: (Units=GPa)
#
#
# Indices 1 2 3 4 5 6 
#
# 1 113.2296 32.4158 47.6634 0.0000 0.0000 0.0000
# 2 32.4158 32.1447 29.6852 0.0000 0.0000 0.0000
# 3 47.6634 29.6852 93.6682 0.0000 0.0000 0.0000
# 4 0.0000 0.0000 0.0000 23.5576 0.0000 0.0000
# 5 0.0000 0.0000 0.0000 0.0000 22.0308 0.0000
# 6 0.0000 0.0000 0.0000 0.0000 0.0000 16.4990
#
#
#
# Elastic Compliance Matrix: (Units=1/GPa)
#
#
# Indices 1 2 3 4 5 6 
#
# 1 0.013193 -0.010044 -0.003530 0.000000 0.000000 0.000000
# 2 -0.010044 0.051629 -0.011251 0.000000 0.000000 0.000000
# 3 -0.003530 -0.011251 0.016038 0.000000 0.000000 0.000000
# 4 0.000000 0.000000 0.000000 0.042449 0.000000 0.000000
# 5 0.000000 0.000000 0.000000 0.000000 0.045391 0.000000
# 6 0.000000 0.000000 0.000000 0.000000 0.000000 0.060610
#
#
# Mechanical properties :
#
#
# Convention : Reuss Voigt Hill
#
# Bulk Modulus (GPa) = 32.04231 50.95238 41.49734
# Shear Modulus (GPa) = 17.27930 21.03601 19.15765
#
# Velocity S-wave (km/s) = 3.24976 3.58567 3.42184
# Velocity P-wave (km/s) = 5.80217 6.94869 6.40115
#
# Compressibility (1/GPa) = 0.03120874
#
# Stress axis : x y z
#
# Youngs Moduli (GPa) = 75.79688 19.36909 62.35223
#
# Poissons Ratio (x) = 0.19455 0.22011
# Poissons Ratio (y) = 0.76134 0.70152
# Poissons Ratio (z) = 0.26757 0.21792
#
# Static dielectric constant tensor:
#      x y z
#    x 3.240050 0.000000 0.000000 
#    y 0.000000 2.872690 0.000000 
#    z 0.000000 0.000000 3.163150 
# 
# 
# High freq. dielectric constant tensor:
#      x y z
#    x 1.615340 0.000000 0.000000 
#    y 0.000000 1.597940 0.000000 
#    z 0.000000 0.000000 1.631460 
# 
# From -- ./inp_files/5991.got.cif
#   From: 2010.03.12/outbox.cif.g09.slc.cpg/sg38_3_cif.got.tgz:5991.got - 2010.04.14 02:38:36.
