data_PCOD8177727
_publ_section_title
;
Structure prediction by ZEFSAII (Michael W. Deem and Ramdas Pophale) SiO2 
 PCOD8177727
Probable space group: A M M 2
;
_chemical_formula_sum "Si O2"
_cell_formula_units_Z 64
_cell_length_a 9.006793
_cell_length_b 20.798952
_cell_length_c 19.558312
_cell_angle_alpha 90.000000
_cell_angle_beta 90.000000
_cell_angle_gamma 90.000000
_cell_volume 3663.894873
_symmetry_space_group_name_H-M "A M M 2"
_symmetry_group_IT_number 38
_symmetry_cell_setting 'orthorhombic'
loop_
_space_group_symop_operation_xyz
x,y,z
-x,-y,z
-x,y,z
x,-y,z
x,1/2+y,1/2+z
-x,1/2-y,1/2+z
-x,1/2+y,1/2+z
x,1/2-y,1/2+z
loop_
_atom_site_type_symbol
_atom_site_label
_atom_site_fract_x
_atom_site_fract_y
_atom_site_fract_z
Si Si1 0.831274 0.373510 0.948490
Si Si2 0.324655 0.810377 0.238504
Si Si3 0.171612 0.867080 0.601757
Si Si4 0.324984 0.186713 0.820994
Si Si5 0.825631 0.224631 0.954632
Si Si6 0.329724 0.572451 0.222597
Si Si7 0.675081 0.732731 0.592637
Si Si8 0.675617 0.571032 0.823673
O O1 0.785363 0.298991 0.942483
O O2 0.726988 0.415856 0.900818
O O3 0.000000 0.383147 0.924420
O O4 0.809116 0.397150 0.026269
O O5 0.500000 0.809180 0.246724
O O6 0.262623 0.747400 0.277696
O O7 0.281677 0.810187 0.158615
O O8 0.257353 0.875176 0.272397
O O9 0.226566 0.919100 0.656285
O O10 0.271378 0.804163 0.609684
O O11 0.000000 0.848414 0.614051
O O12 0.500000 0.191975 0.833423
O O13 0.244314 0.183004 0.893954
O O14 0.281119 0.121505 0.781845
O O15 0.000000 0.212713 0.958471
O O16 0.755434 0.202407 0.026753
O O17 0.500000 0.585635 0.201374
O O18 0.308388 0.500000 0.250186
O O19 0.500000 0.734023 0.579593
O O20 0.500000 0.574307 0.823046
O O21 0.730166 0.500000 0.800865
#
# Coordination Sequence:
#
# PCOD8177727 Si02
#       8
#     8   8   8   8   8   8   8   8
#     4   9  19  33  47  68 101 137 169 201 241 293
#     4   9  17  31  52  77 100 126 168 211 250 296
#     4  10  20  33  49  73 106 139 173 211 254 307
#     4  10  18  33  55  77 100 133 172 213 257 303
#     4  10  20  33  50  79 108 132 167 213 259 306
#     4  10  21  36  53  75 103 135 175 218 259 311
#     4  10  18  32  54  77 102 135 171 213 260 304
#     4  10  20  33  50  73 100 130 165 207 250 293
#
# _framework density 17.467751
#
# number of rings (size 3 to 8) (size 9 to 14) (size 15 to 20)
#    0.000    2.250    2.500    1.875    0.000    4.000 
#    0.000    3.750    0.000    0.750    0.000    3.500 
#    0.000    0.000    0.000    0.000    0.000    0.000 
#
# Total GULP energy -396797.543995 kJ/mol
# GULP energy per Si atom -12399.923250 kJ/mol
# Density = 1.742799 g / cm^3
# Si number density = 17.467751 Si / 1000 Ang^3
#
#
#
# Elastic Constant Matrix: (Units=GPa)
#
#
# Indices 1 2 3 4 5 6 
#
# 1 53.1523 31.0322 45.1150 0.0000 0.0000 0.0000
# 2 31.0322 107.8891 70.3183 0.0000 0.0000 0.0000
# 3 45.1150 70.3183 137.4119 0.0000 0.0000 0.0000
# 4 0.0000 0.0000 0.0000 22.8963 0.0000 0.0000
# 5 0.0000 0.0000 0.0000 0.0000 17.1733 0.0000
# 6 0.0000 0.0000 0.0000 0.0000 0.0000 13.8364
#
#
#
# Elastic Compliance Matrix: (Units=1/GPa)
#
#
# Indices 1 2 3 4 5 6 
#
# 1 0.026694 -0.002950 -0.007255 0.000000 0.000000 0.000000
# 2 -0.002950 0.014233 -0.006315 0.000000 0.000000 0.000000
# 3 -0.007255 -0.006315 0.012891 0.000000 0.000000 0.000000
# 4 0.000000 0.000000 0.000000 0.043675 0.000000 0.000000
# 5 0.000000 0.000000 0.000000 0.000000 0.058230 0.000000
# 6 0.000000 0.000000 0.000000 0.000000 0.000000 0.072273
#
#
# Mechanical properties :
#
#
# Convention : Reuss Voigt Hill
#
# Bulk Modulus (GPa) = 48.12580 65.70938 56.91759
# Shear Modulus (GPa) = 18.65943 20.91372 19.78657
#
# Velocity S-wave (km/s) = 3.27191 3.46392 3.36928
# Velocity P-wave (km/s) = 6.47186 7.32786 6.91312
#
# Compressibility (1/GPa) = 0.02077888
#
# Stress axis : x y z
#
# Youngs Moduli (GPa) = 37.46223 70.25831 77.57397
#
# Poissons Ratio (x) = 0.20723 0.56277
# Poissons Ratio (y) = 0.11050 0.48990
# Poissons Ratio (z) = 0.27177 0.44370
#
# Static dielectric constant tensor:
#      x y z
#    x 3.114000 0.000000 0.000000 
#    y 0.000000 3.211940 0.000000 
#    z 0.000000 0.000000 3.356200 
# 
# 
# High freq. dielectric constant tensor:
#      x y z
#    x 1.666580 0.000000 0.000000 
#    y 0.000000 1.648130 0.000000 
#    z 0.000000 0.000000 1.678430 
# 
# From -- ./inp_files/17181.got.cif
#   From: 2010.03.12/outbox.cif.g09.slc.cpg/sg38_9_cif.got.tgz:17181.got - 2010.04.14 02:38:36.
