data_PCOD8177226
_publ_section_title
;
Structure prediction by ZEFSAII (Michael W. Deem and Ramdas Pophale) SiO2 
 PCOD8177226
Probable space group: A M M 2
;
_chemical_formula_sum "Si O2"
_cell_formula_units_Z 64
_cell_length_a 9.161040
_cell_length_b 14.704260
_cell_length_c 28.299728
_cell_angle_alpha 90.000000
_cell_angle_beta 90.000000
_cell_angle_gamma 90.000000
_cell_volume 3812.152047
_symmetry_space_group_name_H-M "A M M 2"
_symmetry_group_IT_number 38
_symmetry_cell_setting 'orthorhombic'
loop_
_space_group_symop_operation_xyz
x,y,z
-x,-y,z
-x,y,z
x,-y,z
x,1/2+y,1/2+z
-x,1/2-y,1/2+z
-x,1/2+y,1/2+z
x,1/2-y,1/2+z
loop_
_atom_site_type_symbol
_atom_site_label
_atom_site_fract_x
_atom_site_fract_y
_atom_site_fract_z
Si Si1 0.326610 0.900625 0.402060
Si Si2 0.167101 0.894756 0.944845
Si Si3 0.673102 0.600875 0.007487
Si Si4 0.326591 0.785856 0.865325
Si Si5 0.326549 0.101907 0.777909
Si Si6 0.829126 0.396784 0.553099
Si Si7 0.673557 0.397943 0.172986
Si Si8 0.673907 0.729338 0.089519
O O1 0.500000 0.904238 0.404306
O O2 0.267313 0.878861 0.454806
O O3 0.275255 0.819947 0.367154
O O4 0.268042 0.000000 0.384908
O O5 0.270498 0.836816 0.911459
O O6 0.000000 0.865058 0.937155
O O7 0.187249 0.000000 0.931909
O O8 0.215091 0.877494 0.998854
O O9 0.500000 0.605978 0.008236
O O10 0.723376 0.500000 0.023359
O O11 0.735154 0.674363 0.044165
O O12 0.500000 0.793641 0.866284
O O13 0.261676 0.829608 0.817303
O O14 0.500000 0.104852 0.779174
O O15 0.271993 0.130293 0.725573
O O16 0.272233 0.000000 0.789854
O O17 0.786990 0.500000 0.566741
O O18 0.741363 0.330019 0.587954
O O19 0.000000 0.380926 0.560210
O O20 0.500000 0.399580 0.171406
O O21 0.730217 0.500000 0.160652
O O22 0.732575 0.323840 0.135842
O O23 0.500000 0.737048 0.089951
#
# Coordination Sequence:
#
# PCOD8177226 Si02
#       8
#     8   8   8   8   8   8   8   8
#     4   8  14  23  34  53  83 111 133 166 211 249
#     4   9  18  31  44  60  86 117 143 169 210 264
#     4   8  13  21  34  56  85 109 129 161 209 258
#     4  10  17  25  43  67  86 110 149 188 213 240
#     4   8  14  24  38  60  90 117 139 169 213 261
#     4   9  19  34  46  57  82 120 149 168 206 265
#     4   8  14  25  41  63  92 120 140 164 210 268
#     4  10  17  25  44  69  84 101 140 187 216 239
#
# _framework density 16.788418
#
# number of rings (size 3 to 8) (size 9 to 14) (size 15 to 20)
#    0.000    3.250    0.000    3.750    0.000    4.000 
#    0.000    1.250    0.000    3.375    0.000   10.500 
#    0.000    0.000    0.000    0.000    0.000    0.000 
#
# Total GULP energy -396541.224683 kJ/mol
# GULP energy per Si atom -12391.913271 kJ/mol
# Density = 1.675021 g / cm^3
# Si number density = 16.788418 Si / 1000 Ang^3
#
#
#
# Elastic Constant Matrix: (Units=GPa)
#
#
# Indices 1 2 3 4 5 6 
#
# 1 14.1367 22.8933 18.0085 0.0000 0.0000 0.0000
# 2 22.8933 141.3913 88.9950 0.0000 0.0000 0.0000
# 3 18.0085 88.9950 106.4728 0.0000 0.0000 0.0000
# 4 0.0000 0.0000 0.0000 31.7560 0.0000 0.0000
# 5 0.0000 0.0000 0.0000 0.0000 9.9820 0.0000
# 6 0.0000 0.0000 0.0000 0.0000 0.0000 11.1811
#
#
#
# Elastic Compliance Matrix: (Units=1/GPa)
#
#
# Indices 1 2 3 4 5 6 
#
# 1 0.098297 -0.011503 -0.007011 0.000000 0.000000 0.000000
# 2 -0.011503 0.016270 -0.011654 0.000000 0.000000 0.000000
# 3 -0.007011 -0.011654 0.020319 0.000000 0.000000 0.000000
# 4 0.000000 0.000000 0.000000 0.031490 0.000000 0.000000
# 5 0.000000 0.000000 0.000000 0.000000 0.100180 0.000000
# 6 0.000000 0.000000 0.000000 0.000000 0.000000 0.089437
#
#
# Mechanical properties :
#
#
# Convention : Reuss Voigt Hill
#
# Bulk Modulus (GPa) = 13.41376 57.97718 35.69547
# Shear Modulus (GPa) = 11.33327 19.39075 15.36201
#
# Velocity S-wave (km/s) = 2.60102 3.40223 3.02824
# Velocity P-wave (km/s) = 4.12646 7.07407 5.79095
#
# Compressibility (1/GPa) = 0.07455029
#
# Stress axis : x y z
#
# Youngs Moduli (GPa) = 10.17327 61.46174 49.21541
#
# Poissons Ratio (x) = 0.70698 0.34506
# Poissons Ratio (y) = 0.11702 0.57355
# Poissons Ratio (z) = 0.07133 0.71627
#
# Static dielectric constant tensor:
#      x y z
#    x 2.579100 0.000000 0.000000 
#    y 0.000000 3.433400 0.000000 
#    z 0.000000 0.000000 3.313640 
# 
# 
# High freq. dielectric constant tensor:
#      x y z
#    x 1.590120 0.000000 0.000000 
#    y 0.000000 1.653020 0.000000 
#    z 0.000000 0.000000 1.632890 
# 
# From -- ./inp_files/24729.got.cif
#   From: 2010.03.12/outbox.cif.g09.slc.cpg/sg38_13_cif.got.tgz:24729.got - 2010.04.14 02:38:36.
