data_PCOD8177702
_publ_section_title
;
Structure prediction by ZEFSAII (Michael W. Deem and Ramdas Pophale) SiO2 
 PCOD8177702
Probable space group: A M M 2
;
_chemical_formula_sum "Si O2"
_cell_formula_units_Z 64
_cell_length_a 8.821260
_cell_length_b 33.119140
_cell_length_c 11.585345
_cell_angle_alpha 90.000000
_cell_angle_beta 90.000000
_cell_angle_gamma 90.000000
_cell_volume 3384.688025
_symmetry_space_group_name_H-M "A M M 2"
_symmetry_group_IT_number 38
_symmetry_cell_setting 'orthorhombic'
loop_
_space_group_symop_operation_xyz
x,y,z
-x,-y,z
-x,y,z
x,-y,z
x,1/2+y,1/2+z
-x,1/2-y,1/2+z
-x,1/2+y,1/2+z
x,1/2-y,1/2+z
loop_
_atom_site_type_symbol
_atom_site_label
_atom_site_fract_x
_atom_site_fract_y
_atom_site_fract_z
Si Si1 0.324722 0.688713 0.273790
Si Si2 0.678277 0.611925 0.647178
Si Si3 0.170534 0.228771 0.229123
Si Si4 0.321149 0.046704 0.719320
Si Si5 0.830230 0.819074 0.008874
Si Si6 0.178196 0.876999 0.611005
Si Si7 0.678924 0.456227 0.476168
Si Si8 0.178237 0.646412 0.853743
O O1 0.500000 0.681008 0.250098
O O2 0.283077 0.734131 0.241361
O O3 0.291329 0.684201 0.408518
O O4 0.233692 0.655173 0.204115
O O5 0.500000 0.621077 0.632772
O O6 0.784918 0.644172 0.588144
O O7 0.726894 0.570797 0.584304
O O8 0.727241 0.612691 0.781383
O O9 0.224530 0.191405 0.310071
O O10 0.000000 0.241330 0.266807
O O11 0.173879 0.219532 0.092737
O O12 0.500000 0.051224 0.705387
O O13 0.244654 0.078136 0.631248
O O14 0.267930 0.059269 0.849496
O O15 0.273240 0.000000 0.693132
O O16 0.000000 0.824986 0.958874
O O17 0.226648 0.860079 0.485847
O O18 0.000000 0.880657 0.620960
O O19 0.500000 0.459858 0.469160
O O20 0.751494 0.500000 0.499751
O O21 0.000000 0.639508 0.834146
#
# Coordination Sequence:
#
# PCOD8177702 Si02
#       8
#     8   8   8   8   8   8   8   8
#     4  12  25  37  55  85 116 142 181 239 291 336
#     4  10  18  31  56  84 109 139 180 231 280 329
#     4   9  20  39  59  78 104 145 189 229 280 343
#     4   9  18  35  59  86 118 153 188 236 298 350
#     4  10  21  38  58  78 106 145 183 220 270 337
#     4  11  23  39  59  83 112 154 201 239 285 348
#     4   8  15  29  51  80 112 143 175 218 277 340
#     4   9  21  40  58  76 107 153 194 230 279 344
#
# _framework density 18.908684999999998
#
# number of rings (size 3 to 8) (size 9 to 14) (size 15 to 20)
#    0.000    2.250    0.000    4.500    1.750    4.750 
#    0.000    1.250    0.000    5.250    0.000    0.000 
#    0.000    0.000    0.000    0.000    0.000    0.000 
#
# Total GULP energy -396657.296887 kJ/mol
# GULP energy per Si atom -12395.540528 kJ/mol
# Density = 1.886565 g / cm^3
# Si number density = 18.908685 Si / 1000 Ang^3
#
#
#
# Elastic Constant Matrix: (Units=GPa)
#
#
# Indices 1 2 3 4 5 6 
#
# 1 50.0765 31.3673 30.1870 0.0000 0.0000 0.0000
# 2 31.3673 98.8598 54.5047 0.0000 0.0000 0.0000
# 3 30.1870 54.5047 102.5845 0.0000 0.0000 0.0000
# 4 0.0000 0.0000 0.0000 9.3357 0.0000 0.0000
# 5 0.0000 0.0000 0.0000 0.0000 31.2644 0.0000
# 6 0.0000 0.0000 0.0000 0.0000 0.0000 20.7336
#
#
#
# Elastic Compliance Matrix: (Units=1/GPa)
#
#
# Indices 1 2 3 4 5 6 
#
# 1 0.026433 -0.005796 -0.004698 0.000000 0.000000 0.000000
# 2 -0.005796 0.015577 -0.006571 0.000000 0.000000 0.000000
# 3 -0.004698 -0.006571 0.014622 0.000000 0.000000 0.000000
# 4 0.000000 0.000000 0.000000 0.107116 0.000000 0.000000
# 5 0.000000 0.000000 0.000000 0.000000 0.031985 0.000000
# 6 0.000000 0.000000 0.000000 0.000000 0.000000 0.048231
#
#
# Mechanical properties :
#
#
# Convention : Reuss Voigt Hill
#
# Bulk Modulus (GPa) = 44.44375 53.73763 49.09069
# Shear Modulus (GPa) = 17.50736 21.29753 19.40245
#
# Velocity S-wave (km/s) = 3.04614 3.35973 3.20677
# Velocity P-wave (km/s) = 5.99395 6.59785 6.30314
#
# Compressibility (1/GPa) = 0.02250035
#
# Stress axis : x y z
#
# Youngs Moduli (GPa) = 37.83217 64.19673 68.39132
#
# Poissons Ratio (x) = 0.37211 0.32133
# Poissons Ratio (y) = 0.21929 0.44938
# Poissons Ratio (z) = 0.17775 0.42182
#
# Static dielectric constant tensor:
#      x y z
#    x 3.336060 0.000000 0.000000 
#    y 0.000000 3.863730 0.000000 
#    z 0.000000 0.000000 3.946550 
# 
# 
# High freq. dielectric constant tensor:
#      x y z
#    x 1.724410 0.000000 0.000000 
#    y 0.000000 1.732430 0.000000 
#    z 0.000000 0.000000 1.736480 
# 
# From -- ./inp_files/8541.got.cif
#   From: 2010.03.12/outbox.cif.g09.slc.cpg/sg38_5_cif.got.tgz:8541.got - 2010.04.14 02:38:36.
