data_PCOD8177804
_publ_section_title
;
Structure prediction by ZEFSAII (Michael W. Deem and Ramdas Pophale) SiO2 
 PCOD8177804
Probable space group: A M M 2
;
_chemical_formula_sum "Si O2"
_cell_formula_units_Z 64
_cell_length_a 9.376207
_cell_length_b 30.495623
_cell_length_c 11.861402
_cell_angle_alpha 90.000000
_cell_angle_beta 90.000000
_cell_angle_gamma 90.000000
_cell_volume 3391.569506
_symmetry_space_group_name_H-M "A M M 2"
_symmetry_group_IT_number 38
_symmetry_cell_setting 'orthorhombic'
loop_
_space_group_symop_operation_xyz
x,y,z
-x,-y,z
-x,y,z
x,-y,z
x,1/2+y,1/2+z
-x,1/2-y,1/2+z
-x,1/2+y,1/2+z
x,1/2-y,1/2+z
loop_
_atom_site_type_symbol
_atom_site_label
_atom_site_fract_x
_atom_site_fract_y
_atom_site_fract_z
Si Si1 0.161866 0.048330 0.297740
Si Si2 0.336716 0.705411 0.248452
Si Si3 0.332370 0.373490 0.413064
Si Si4 0.167433 0.872443 0.145130
Si Si5 0.668842 0.450640 0.253519
Si Si6 0.664736 0.572277 0.006323
Si Si7 0.167490 0.709499 0.802060
Si Si8 0.660927 0.326356 0.000473
O O1 0.221568 0.084032 0.209914
O O2 0.250861 0.045708 0.412344
O O3 0.000000 0.061153 0.329323
O O4 0.169949 0.000000 0.241349
O O5 0.500000 0.721277 0.259987
O O6 0.298478 0.670706 0.345058
O O7 0.232922 0.746535 0.251975
O O8 0.309268 0.681641 0.130885
O O9 0.500000 0.378452 0.436076
O O10 0.251576 0.369573 0.529744
O O11 0.272371 0.415771 0.344596
O O12 0.207298 0.830352 0.219754
O O13 0.000000 0.874525 0.118865
O O14 0.500000 0.445315 0.248316
O O15 0.714307 0.500000 0.288929
O O16 0.728857 0.439622 0.129077
O O17 0.500000 0.558286 0.000525
O O18 0.686852 0.622886 0.977741
O O19 0.000000 0.715538 0.814983
O O20 0.231216 0.701737 0.925813
O O21 0.500000 0.312594 0.968092
#
# Coordination Sequence:
#
# PCOD8177804 Si02
#       8
#     8   8   8   8   8   8   8   8
#     4  10  21  38  58  80 112 153 190 227 278 334
#     4  10  22  40  60  85 116 148 187 232 282 337
#     4  10  21  38  59  83 111 148 189 230 276 332
#     4  10  23  41  56  78 113 150 187 233 281 328
#     4   9  17  32  56  86 117 145 177 225 282 331
#     4  10  18  33  59  89 117 144 180 227 280 334
#     4  11  24  40  59  84 115 149 190 234 282 335
#     4  10  20  37  62  88 116 148 184 230 283 338
#
# _framework density 18.870318000000001
#
# number of rings (size 3 to 8) (size 9 to 14) (size 15 to 20)
#    0.000    2.000    2.500    0.750    1.750    3.750 
#    0.000    0.625    0.000    0.750    0.000    0.000 
#    0.000    0.000    0.000    0.000    0.000    0.000 
#
# Total GULP energy -396860.572759 kJ/mol
# GULP energy per Si atom -12401.892899 kJ/mol
# Density = 1.882737 g / cm^3
# Si number density = 18.870318 Si / 1000 Ang^3
#
#
#
# Elastic Constant Matrix: (Units=GPa)
#
#
# Indices 1 2 3 4 5 6 
#
# 1 61.2360 46.4398 49.6621 0.0000 0.0000 0.0000
# 2 46.4398 114.9712 50.1873 0.0000 0.0000 0.0000
# 3 49.6621 50.1873 117.6509 0.0000 0.0000 0.0000
# 4 0.0000 0.0000 0.0000 22.3843 0.0000 0.0000
# 5 0.0000 0.0000 0.0000 0.0000 -3.1626 0.0000
# 6 0.0000 0.0000 0.0000 0.0000 0.0000 21.2215
#
#
#
# Elastic Compliance Matrix: (Units=1/GPa)
#
#
# Indices 1 2 3 4 5 6 
#
# 1 0.029890 -0.008068 -0.009175 0.000000 0.000000 0.000000
# 2 -0.008068 0.012866 -0.002083 0.000000 0.000000 0.000000
# 3 -0.009175 -0.002083 0.013261 0.000000 0.000000 0.000000
# 4 0.000000 0.000000 0.000000 0.044674 0.000000 0.000000
# 5 0.000000 0.000000 0.000000 0.000000 -0.316195 0.000000
# 6 0.000000 0.000000 0.000000 0.000000 0.000000 0.047122
#
#
# Mechanical properties :
#
#
# Convention : Reuss Voigt Hill
#
# Bulk Modulus (GPa) = 57.58737 65.15962 61.37350
# Shear Modulus (GPa) = -40.34163 17.92657 -11.20753
#
# Velocity S-wave (km/s) = -4.62869 3.08553 -2.43970
# Velocity P-wave (km/s) = 1.42033 6.87744 4.96571
#
# Compressibility (1/GPa) = 0.01736492
#
# Stress axis : x y z
#
# Youngs Moduli (GPa) = 33.45593 77.72513 75.40818
#
# Poissons Ratio (x) = 0.62710 0.69190
# Poissons Ratio (y) = 0.26993 0.15705
# Poissons Ratio (z) = 0.30697 0.16187
#
# Static dielectric constant tensor:
#      x y z
#    x 3.268500 0.000000 0.000000 
#    y 0.000000 3.629410 0.000000 
#    z 0.000000 0.000000 3.396120 
# 
# 
# High freq. dielectric constant tensor:
#      x y z
#    x 1.711050 0.000000 0.000000 
#    y 0.000000 1.749300 0.000000 
#    z 0.000000 0.000000 1.734320 
# 
# From -- ./inp_files/8629.got.cif
#   From: 2010.03.12/outbox.cif.g09.slc.cpg/sg38_5_cif.got.tgz:8629.got - 2010.04.14 02:38:36.
