data_PCOD8177651
_publ_section_title
;
Structure prediction by ZEFSAII (Michael W. Deem and Ramdas Pophale) SiO2 
 PCOD8177651
Probable space group: A M M 2
;
_chemical_formula_sum "Si O2"
_cell_formula_units_Z 64
_cell_length_a 9.099800
_cell_length_b 23.045330
_cell_length_c 18.791511
_cell_angle_alpha 90.000000
_cell_angle_beta 90.000000
_cell_angle_gamma 90.000000
_cell_volume 3940.728196
_symmetry_space_group_name_H-M "A M M 2"
_symmetry_group_IT_number 38
_symmetry_cell_setting 'orthorhombic'
loop_
_space_group_symop_operation_xyz
x,y,z
-x,-y,z
-x,y,z
x,-y,z
x,1/2+y,1/2+z
-x,1/2-y,1/2+z
-x,1/2+y,1/2+z
x,1/2-y,1/2+z
loop_
_atom_site_type_symbol
_atom_site_label
_atom_site_fract_x
_atom_site_fract_y
_atom_site_fract_z
Si Si1 0.667829 0.273937 0.791740
Si Si2 0.669600 0.433147 0.992191
Si Si3 0.672423 0.112824 0.645204
Si Si4 0.169234 0.567645 0.282679
Si Si5 0.828684 0.162897 0.408533
Si Si6 0.329998 0.753899 0.633332
Si Si7 0.672362 0.658541 0.374875
Si Si8 0.172639 0.223171 0.995349
O O1 0.500000 0.288243 0.810459
O O2 0.767225 0.321586 0.830652
O O3 0.697800 0.278246 0.707899
O O4 0.705842 0.209101 0.817876
O O5 0.500000 0.416989 0.982023
O O6 0.701826 0.500000 0.976445
O O7 0.717520 0.418643 0.072366
O O8 0.760777 0.396844 0.935311
O O9 0.500000 0.106862 0.662698
O O10 0.762371 0.081382 0.706336
O O11 0.719947 0.179619 0.640041
O O12 0.185074 0.500000 0.298779
O O13 0.255587 0.600202 0.345285
O O14 0.000000 0.587522 0.282658
O O15 0.787126 0.213971 0.463320
O O16 0.000000 0.154008 0.401202
O O17 0.500000 0.750735 0.610180
O O18 0.231470 0.720845 0.575644
O O19 0.500000 0.648748 0.386200
O O20 0.745935 0.673588 0.450350
O O21 0.000000 0.210936 0.993807
#
# Coordination Sequence:
#
# PCOD8177651 Si02
#       8
#     8   8   8   8   8   8   8   8
#     4   9  18  32  50  71  96 126 163 206 249 289
#     4  10  20  33  50  70  95 132 173 209 243 281
#     4  10  19  33  50  70  98 134 176 210 237 284
#     4  11  23  35  48  70 102 137 170 208 253 297
#     4  10  20  32  47  70  97 129 164 202 249 294
#     4  10  18  31  51  75  99 130 167 203 244 292
#     4  10  19  34  53  72  94 129 171 211 248 288
#     4  10  20  32  48  73 102 131 161 201 253 301
#
# _framework density 16.240652999999998
#
# number of rings (size 3 to 8) (size 9 to 14) (size 15 to 20)
#    0.000    2.000    2.500    1.875    0.000    4.750 
#    0.000    0.000    0.000    0.000    0.000    0.875 
#    0.000    1.000    0.000    0.000    0.000    0.000 
#
# Total GULP energy -396942.405779 kJ/mol
# GULP energy per Si atom -12404.450181 kJ/mol
# Density = 1.620369 g / cm^3
# Si number density = 16.240653 Si / 1000 Ang^3
#
#
#
# Elastic Constant Matrix: (Units=GPa)
#
#
# Indices 1 2 3 4 5 6 
#
# 1 87.9295 51.6688 55.3745 0.0000 0.0000 0.0000
# 2 51.6688 75.4994 50.0373 0.0000 0.0000 0.0000
# 3 55.3745 50.0373 97.9304 0.0000 0.0000 0.0000
# 4 0.0000 0.0000 0.0000 24.5645 0.0000 0.0000
# 5 0.0000 0.0000 0.0000 0.0000 16.5400 0.0000
# 6 0.0000 0.0000 0.0000 0.0000 0.0000 24.0979
#
#
#
# Elastic Compliance Matrix: (Units=1/GPa)
#
#
# Indices 1 2 3 4 5 6 
#
# 1 0.021894 -0.010249 -0.007143 0.000000 0.000000 0.000000
# 2 -0.010249 0.024825 -0.006889 0.000000 0.000000 0.000000
# 3 -0.007143 -0.006889 0.017770 0.000000 0.000000 0.000000
# 4 0.000000 0.000000 0.000000 0.040709 0.000000 0.000000
# 5 0.000000 0.000000 0.000000 0.000000 0.060460 0.000000
# 6 0.000000 0.000000 0.000000 0.000000 0.000000 0.041497
#
#
# Mechanical properties :
#
#
# Convention : Reuss Voigt Hill
#
# Bulk Modulus (GPa) = 62.78736 63.94670 63.36703
# Shear Modulus (GPa) = 19.15523 19.99240 19.57382
#
# Velocity S-wave (km/s) = 3.43805 3.51238 3.47542
# Velocity P-wave (km/s) = 7.38274 7.47723 7.43014
#
# Compressibility (1/GPa) = 0.01592677
#
# Stress axis : x y z
#
# Youngs Moduli (GPa) = 45.67533 40.28223 56.27430
#
# Poissons Ratio (x) = 0.41286 0.40196
# Poissons Ratio (y) = 0.46813 0.38766
# Poissons Ratio (z) = 0.32626 0.27750
#
# Static dielectric constant tensor:
#      x y z
#    x 3.094550 0.000000 0.000000 
#    y 0.000000 2.876550 0.000000 
#    z 0.000000 0.000000 3.027150 
# 
# 
# High freq. dielectric constant tensor:
#      x y z
#    x 1.632750 0.000000 0.000000 
#    y 0.000000 1.598540 0.000000 
#    z 0.000000 0.000000 1.619450 
# 
# From -- ./inp_files/17153.got.cif
#   From: 2010.03.12/outbox.cif.g09.slc.cpg/sg38_9_cif.got.tgz:17153.got - 2010.04.14 02:38:36.
