data_PCOD8177506
_publ_section_title
;
Structure prediction by ZEFSAII (Michael W. Deem and Ramdas Pophale) SiO2 
 PCOD8177506
Probable space group: A M M 2
;
_chemical_formula_sum "Si O2"
_cell_formula_units_Z 56
_cell_length_a 19.592647
_cell_length_b 9.607477
_cell_length_c 15.024553
_cell_angle_alpha 90.000000
_cell_angle_beta 90.000000
_cell_angle_gamma 90.000000
_cell_volume 2828.160338
_symmetry_space_group_name_H-M "A M M 2"
_symmetry_group_IT_number 38
_symmetry_cell_setting 'orthorhombic'
loop_
_space_group_symop_operation_xyz
x,y,z
-x,-y,z
-x,y,z
x,-y,z
x,1/2+y,1/2+z
-x,1/2-y,1/2+z
-x,1/2+y,1/2+z
x,1/2-y,1/2+z
loop_
_atom_site_type_symbol
_atom_site_label
_atom_site_fract_x
_atom_site_fract_y
_atom_site_fract_z
Si Si1 0.421628 0.338640 0.506400
Si Si2 0.654344 0.340758 0.867090
Si Si3 0.673680 0.159006 0.168586
Si Si4 0.198008 0.159076 0.631839
Si Si5 0.802682 0.157204 0.420427
Si Si6 0.924215 0.655957 0.630261
Si Si7 0.075265 0.156251 0.918468
O O1 0.500000 0.305630 0.527557
O O2 0.410201 0.500000 0.484074
O O3 0.398991 0.251377 0.420974
O O4 0.378673 0.292794 0.592606
O O5 0.649227 0.500000 0.900982
O O6 0.635325 0.329271 0.763147
O O7 0.731422 0.285038 0.882112
O O8 0.737756 0.260558 0.171249
O O9 0.698427 0.000000 0.152358
O O10 0.200530 0.168499 0.526066
O O11 0.129651 0.233242 0.669214
O O12 0.198827 0.000000 0.664960
O O13 0.865187 0.245849 0.379451
O O14 0.814898 0.000000 0.388550
O O15 0.905394 0.500000 0.662639
O O16 0.922407 0.659956 0.524319
O O17 0.000000 0.697328 0.663909
O O18 0.000000 0.207783 0.886713
O O19 0.088563 0.000000 0.884165
#
# Coordination Sequence:
#
# PCOD8177506 Si02
#       7
#     8   8   8   8   8   8   8
#     4  10  22  40  61  87 116 144 179 224 273 327
#     4  10  21  38  59  85 114 148 189 228 272 328
#     4  10  21  37  59  83 112 150 188 226 270 328
#     4  10  18  29  49  76 109 144 183 234 284 329
#     4   9  17  29  47  73 105 139 179 226 274 324
#     4   8  14  25  42  67 101 141 186 232 279 334
#     4   8  14  24  40  66  99 136 180 225 271 326
#
# _framework density 19.800858000000002
#
# number of rings (size 3 to 8) (size 9 to 14) (size 15 to 20)
#    0.000    2.714    1.429    1.286    0.000    3.143 
#    0.000    4.286    0.000    0.857    0.000    2.000 
#    0.000    0.000    0.000    0.000    0.000    0.000 
#
# Total GULP energy -347169.989343 kJ/mol
# GULP energy per Si atom -12398.928191 kJ/mol
# Density = 1.975579 g / cm^3
# Si number density = 19.800858 Si / 1000 Ang^3
#
#
#
# Elastic Constant Matrix: (Units=GPa)
#
#
# Indices 1 2 3 4 5 6 
#
# 1 123.0159 67.5270 31.4848 0.0000 0.0000 0.0000
# 2 67.5270 100.3585 31.6781 0.0000 0.0000 0.0000
# 3 31.4848 31.6781 50.4565 0.0000 0.0000 0.0000
# 4 0.0000 0.0000 0.0000 19.6208 0.0000 0.0000
# 5 0.0000 0.0000 0.0000 0.0000 4.2968 0.0000
# 6 0.0000 0.0000 0.0000 0.0000 0.0000 35.7428
#
#
#
# Elastic Compliance Matrix: (Units=1/GPa)
#
#
# Indices 1 2 3 4 5 6 
#
# 1 0.013329 -0.007911 -0.003351 0.000000 0.000000 0.000000
# 2 -0.007911 0.017122 -0.005813 0.000000 0.000000 0.000000
# 3 -0.003351 -0.005813 0.025560 0.000000 0.000000 0.000000
# 4 0.000000 0.000000 0.000000 0.050966 0.000000 0.000000
# 5 0.000000 0.000000 0.000000 0.000000 0.232731 0.000000
# 6 0.000000 0.000000 0.000000 0.000000 0.000000 0.027978
#
#
# Mechanical properties :
#
#
# Convention : Reuss Voigt Hill
#
# Bulk Modulus (GPa) = 45.74351 59.46784 52.60568
# Shear Modulus (GPa) = 12.22127 21.47481 16.84804
#
# Velocity S-wave (km/s) = 2.48706 3.29681 2.92014
# Velocity P-wave (km/s) = 5.60350 6.67758 6.16398
#
# Compressibility (1/GPa) = 0.02186102
#
# Stress axis : x y z
#
# Youngs Moduli (GPa) = 75.02334 58.40348 39.12417
#
# Poissons Ratio (x) = 0.46203 0.13109
# Poissons Ratio (y) = 0.59351 0.22744
# Poissons Ratio (z) = 0.25138 0.33952
#
# Static dielectric constant tensor:
#      x y z
#    x 3.693240 0.000000 0.000000 
#    y 0.000000 3.689590 0.000000 
#    z 0.000000 0.000000 3.284180 
# 
# 
# High freq. dielectric constant tensor:
#      x y z
#    x 1.770570 0.000000 0.000000 
#    y 0.000000 1.766920 0.000000 
#    z 0.000000 0.000000 1.750130 
# 
# From -- ./inp_files/15451.got.cif
#   From: 2010.03.12/outbox.cif.g09.slc.cpg/sg38_8_cif.got.tgz:15451.got - 2010.04.14 02:38:36.
