data_PCOD8177009
_publ_section_title
;
Structure prediction by ZEFSAII (Michael W. Deem and Ramdas Pophale) SiO2 
 PCOD8177009
Probable space group: C C C 2
;
_chemical_formula_sum "Si O2"
_cell_formula_units_Z 36
_cell_length_a 13.980549
_cell_length_b 5.442441
_cell_length_c 18.878012
_cell_angle_alpha 90.000000
_cell_angle_beta 90.000000
_cell_angle_gamma 90.000000
_cell_volume 1436.396087
_symmetry_space_group_name_H-M "C C C 2"
_symmetry_group_IT_number 37
_symmetry_cell_setting 'orthorhombic'
loop_
_space_group_symop_operation_xyz
x,y,z
-x,-y,z
-x,y,1/2+z
x,-y,1/2+z
1/2+x,1/2+y,z
1/2-x,1/2-y,z
1/2-x,1/2+y,1/2+z
1/2+x,1/2-y,1/2+z
loop_
_atom_site_type_symbol
_atom_site_label
_atom_site_fract_x
_atom_site_fract_y
_atom_site_fract_z
Si Si1 0.101658 0.601126 0.583570
Si Si2 0.101658 0.101126 0.223863
Si Si3 0.250000 0.750000 0.153716
Si Si4 0.641490 0.764842 0.372654
Si Si5 0.358510 0.264842 0.934779
O O1 0.081421 0.749999 0.653717
O O2 0.183607 0.403370 0.600264
O O3 0.137121 0.775492 0.520148
O O4 0.000000 0.500000 0.558130
O O5 0.137121 0.275492 0.287285
O O6 0.183607 0.903370 0.207169
O O7 0.000000 0.000000 0.249303
O O8 0.750000 0.750000 0.399863
O O9 0.592388 0.512524 0.402886
O O10 0.592388 0.012524 0.404547
O O11 0.250000 0.250000 0.907570
#
# Coordination Sequence:
#
# PCOD8177009 Si02
#       5
#     8   8   4   8   8
#     4  12  27  47  76 110 149 198 259 312 382 456
#     4  12  27  47  76 110 149 198 259 312 382 456
#     4  12  26  48  76 104 152 200 244 332 370 450
#     4  10  24  44  74 107 151 200 249 311 383 450
#     4  10  24  44  74 107 151 200 249 311 383 450
#
# _framework density 25.062725
#
# number of rings (size 3 to 8) (size 9 to 14) (size 15 to 20)
#    0.000    0.889    2.222    3.333   15.556    1.778 
#    0.000    0.000    0.000    0.000    0.000    0.000 
#    0.000    0.000    0.000    0.000    0.000    0.000 
#
# Total GULP energy -223164.068025 kJ/mol
# GULP energy per Si atom -12398.003779 kJ/mol
# Density = 2.500568 g / cm^3
# Si number density = 25.062725 Si / 1000 Ang^3
#
#
#
# Elastic Constant Matrix: (Units=GPa)
#
#
# Indices 1 2 3 4 5 6 
#
# 1 111.3078 3.3530 -10.8789 0.0000 0.0000 0.0000
# 2 3.3530 156.0748 49.2315 0.0000 0.0000 0.0000
# 3 -10.8789 49.2315 150.3373 0.0000 0.0000 0.0000
# 4 0.0000 0.0000 0.0000 55.3384 0.0000 0.0000
# 5 0.0000 0.0000 0.0000 0.0000 -73.5084 0.0000
# 6 0.0000 0.0000 0.0000 0.0000 0.0000 9.3143
#
#
#
# Elastic Compliance Matrix: (Units=1/GPa)
#
#
# Indices 1 2 3 4 5 6 
#
# 1 0.009076 -0.000448 0.000804 0.000000 0.000000 0.000000
# 2 -0.000448 0.007167 -0.002380 0.000000 0.000000 0.000000
# 3 0.000804 -0.002380 0.007489 0.000000 0.000000 0.000000
# 4 0.000000 0.000000 0.000000 0.018071 0.000000 0.000000
# 5 0.000000 0.000000 0.000000 0.000000 -0.013604 0.000000
# 6 0.000000 0.000000 0.000000 0.000000 0.000000 0.107362
#
#
# Mechanical properties :
#
#
# Convention : Reuss Voigt Hill
#
# Bulk Modulus (GPa) = 50.80312 55.68124 53.24218
# Shear Modulus (GPa) = 34.20632 23.29647 28.75139
#
# Velocity S-wave (km/s) = 3.69837 3.05212 3.39068
# Velocity P-wave (km/s) = 6.20899 5.88945 6.05133
#
# Compressibility (1/GPa) = 0.01968383
#
# Stress axis : x y z
#
# Youngs Moduli (GPa) = 110.17881 139.52006 133.52706
#
# Poissons Ratio (x) = 0.06257 -0.10731
# Poissons Ratio (y) = 0.04941 0.31774
# Poissons Ratio (z) = -0.08854 0.33200
#
# Static dielectric constant tensor:
#      x y z
#    x 4.430830 0.000000 0.000000 
#    y 0.000000 5.057490 0.000000 
#    z 0.000000 0.000000 4.268730 
# 
# 
# High freq. dielectric constant tensor:
#      x y z
#    x 2.007540 0.000000 0.000000 
#    y 0.000000 1.997140 0.000000 
#    z 0.000000 0.000000 2.005160 
# 
# From -- ./inp_files/15586.got.cif
#   From: 2010.03.12/outbox.cif.g09.slc.cpg/sg37_8_cif.got.tgz:15586.got - 2010.04.14 02:25:27.
