data_PCOD8177277
_publ_section_title
;
Structure prediction by ZEFSAII (Michael W. Deem and Ramdas Pophale) SiO2 
 PCOD8177277
Probable space group: A M M 2
;
_chemical_formula_sum "Si O2"
_cell_formula_units_Z 64
_cell_length_a 9.175379
_cell_length_b 23.784040
_cell_length_c 18.772541
_cell_angle_alpha 90.000000
_cell_angle_beta 90.000000
_cell_angle_gamma 90.000000
_cell_volume 4096.686214
_symmetry_space_group_name_H-M "A M M 2"
_symmetry_group_IT_number 38
_symmetry_cell_setting 'orthorhombic'
loop_
_space_group_symop_operation_xyz
x,y,z
-x,-y,z
-x,y,z
x,-y,z
x,1/2+y,1/2+z
-x,1/2-y,1/2+z
-x,1/2+y,1/2+z
x,1/2-y,1/2+z
loop_
_atom_site_type_symbol
_atom_site_label
_atom_site_fract_x
_atom_site_fract_y
_atom_site_fract_z
Si Si1 0.669090 0.335582 0.423110
Si Si2 0.669878 0.332365 0.958428
Si Si3 0.673233 0.562610 0.330381
Si Si4 0.327880 0.938171 0.541811
Si Si5 0.673428 0.880854 0.685857
Si Si6 0.832041 0.262868 0.189517
Si Si7 0.832143 0.233025 0.032482
Si Si8 0.333664 0.730999 0.821587
O O1 0.500000 0.337496 0.444041
O O2 0.725291 0.395510 0.393186
O O3 0.758044 0.320421 0.494217
O O4 0.696512 0.289508 0.361945
O O5 0.500000 0.321257 0.975440
O O6 0.701569 0.320493 0.875332
O O7 0.715939 0.396199 0.977440
O O8 0.759337 0.291065 0.008746
O O9 0.500000 0.561659 0.328455
O O10 0.735571 0.500000 0.344781
O O11 0.729709 0.584607 0.254215
O O12 0.500000 0.943543 0.546929
O O13 0.269595 0.914066 0.616619
O O14 0.259469 0.000000 0.527488
O O15 0.500000 0.873738 0.686267
O O16 0.740634 0.819471 0.685919
O O17 0.812959 0.226960 0.117317
O O18 0.771942 0.224827 0.254143
O O19 0.000000 0.277844 0.203107
O O20 0.000000 0.234834 0.009853
O O21 0.500000 0.728509 0.795063
#
# Coordination Sequence:
#
# PCOD8177277 Si02
#       8
#     8   8   8   8   8   8   8   8
#     4   9  17  30  47  68  89 115 150 186 224 265
#     4   9  17  30  47  67  90 116 148 187 225 264
#     4   9  16  27  45  69  94 119 151 187 219 259
#     4   9  16  26  45  71  93 118 153 186 218 260
#     4  10  17  28  45  65  92 125 156 183 211 254
#     4  11  21  30  43  65  91 121 153 186 226 266
#     4  10  20  31  44  63  89 119 151 187 228 269
#     4   9  17  29  45  65  88 116 150 185 225 270
#
# _framework density 15.622382999999999
#
# number of rings (size 3 to 8) (size 9 to 14) (size 15 to 20)
#    0.000    2.500    2.500    1.875    0.000    5.000 
#    0.000    0.000    0.000    3.750    0.000    0.875 
#    0.000    5.000    0.000    0.000    0.000    0.000 
#
# Total GULP energy -396711.137524 kJ/mol
# GULP energy per Si atom -12397.223048 kJ/mol
# Density = 1.558683 g / cm^3
# Si number density = 15.622383 Si / 1000 Ang^3
#
#
#
# Elastic Constant Matrix: (Units=GPa)
#
#
# Indices 1 2 3 4 5 6 
#
# 1 50.4444 25.8663 42.2374 0.0000 0.0000 0.0000
# 2 25.8663 112.4008 67.8727 0.0000 0.0000 0.0000
# 3 42.2374 67.8727 105.1905 0.0000 0.0000 0.0000
# 4 0.0000 0.0000 0.0000 24.3393 0.0000 0.0000
# 5 0.0000 0.0000 0.0000 0.0000 21.0955 0.0000
# 6 0.0000 0.0000 0.0000 0.0000 0.0000 4.7043
#
#
#
# Elastic Compliance Matrix: (Units=1/GPa)
#
#
# Indices 1 2 3 4 5 6 
#
# 1 0.029889 0.000604 -0.012391 0.000000 0.000000 0.000000
# 2 0.000604 0.014588 -0.009655 0.000000 0.000000 0.000000
# 3 -0.012391 -0.009655 0.020712 0.000000 0.000000 0.000000
# 4 0.000000 0.000000 0.000000 0.041086 0.000000 0.000000
# 5 0.000000 0.000000 0.000000 0.000000 0.047403 0.000000
# 6 0.000000 0.000000 0.000000 0.000000 0.000000 0.212570
#
#
# Mechanical properties :
#
#
# Convention : Reuss Voigt Hill
#
# Bulk Modulus (GPa) = 44.83421 59.99874 52.41647
# Shear Modulus (GPa) = 12.00283 18.83178 15.41730
#
# Velocity S-wave (km/s) = 2.77485 3.47571 3.14486
# Velocity P-wave (km/s) = 6.24719 7.38894 6.84192
#
# Compressibility (1/GPa) = 0.02230440
#
# Stress axis : x y z
#
# Youngs Moduli (GPa) = 33.45668 68.54944 48.28103
#
# Poissons Ratio (x) = -0.04142 0.59827
# Poissons Ratio (y) = -0.02021 0.46617
# Poissons Ratio (z) = 0.41458 0.66187
#
# Static dielectric constant tensor:
#      x y z
#    x 2.790720 0.000000 0.000000 
#    y 0.000000 3.090810 0.000000 
#    z 0.000000 0.000000 3.108910 
# 
# 
# High freq. dielectric constant tensor:
#      x y z
#    x 1.577890 0.000000 0.000000 
#    y 0.000000 1.579030 0.000000 
#    z 0.000000 0.000000 1.594510 
# 
# From -- ./inp_files/17285.got.cif
#   From: 2010.03.12/outbox.cif.g09.slc.cpg/sg38_9_cif.got.tgz:17285.got - 2010.04.14 02:38:36.
