data_PCOD8177043
_publ_section_title
;
Structure prediction by ZEFSAII (Michael W. Deem and Ramdas Pophale) SiO2 
 PCOD8177043
Probable space group: C C C 2
;
_chemical_formula_sum "Si O2"
_cell_formula_units_Z 40
_cell_length_a 8.594207
_cell_length_b 19.663805
_cell_length_c 11.218519
_cell_angle_alpha 90.000000
_cell_angle_beta 90.000000
_cell_angle_gamma 90.000000
_cell_volume 1895.871493
_symmetry_space_group_name_H-M "C C C 2"
_symmetry_group_IT_number 37
_symmetry_cell_setting 'orthorhombic'
loop_
_space_group_symop_operation_xyz
x,y,z
-x,-y,z
-x,y,1/2+z
x,-y,1/2+z
1/2+x,1/2+y,z
1/2-x,1/2-y,z
1/2-x,1/2+y,1/2+z
1/2+x,1/2-y,1/2+z
loop_
_atom_site_type_symbol
_atom_site_label
_atom_site_fract_x
_atom_site_fract_y
_atom_site_fract_z
Si Si1 0.693586 0.384493 0.974490
Si Si2 0.500000 0.500000 0.590639
Si Si3 0.773791 0.893476 0.198147
Si Si4 0.039224 0.658463 0.130463
Si Si5 0.250000 0.750000 0.304563
Si Si6 0.066046 0.209069 0.021430
O O1 0.708053 0.377507 0.835230
O O2 0.586633 0.448426 0.004097
O O3 0.857073 0.387296 0.042290
O O4 0.610683 0.316035 0.019577
O O5 0.633813 0.463299 0.669272
O O6 0.586093 0.895978 0.180934
O O7 0.841948 0.832230 0.121187
O O8 0.143162 0.698151 0.228604
O O9 0.937294 0.712124 0.055798
O O10 0.143128 0.797411 0.390116
#
# Coordination Sequence:
#
# PCOD8177043 Si02
#       6
#     8   4   8   8   4   8
#     4  11  24  44  67  92 131 171 222 268 325 391
#     4  10  26  48  66  92 118 182 228 270 336 374
#     4  11  24  44  68  95 133 171 224 272 322 395
#     4  12  23  40  66 106 130 174 212 268 335 391
#     4  12  22  38  64 104 146 166 214 262 332 414
#     4  11  22  40  66 100 136 173 208 258 339 399
#
# _framework density 21.098476000000002
#
# number of rings (size 3 to 8) (size 9 to 14) (size 15 to 20)
#    0.000    0.800    4.000    3.000    2.800    2.400 
#    0.000    2.000    0.000    0.000    0.000    0.000 
#    0.000    0.000    0.000    0.000    0.000    0.000 
#
# Total GULP energy -247910.636863 kJ/mol
# GULP energy per Si atom -12395.531843 kJ/mol
# Density = 2.105046 g / cm^3
# Si number density = 21.098476 Si / 1000 Ang^3
#
#
#
# Elastic Constant Matrix: (Units=GPa)
#
#
# Indices 1 2 3 4 5 6 
#
# 1 148.3476 50.2376 67.0158 0.0000 0.0000 0.0000
# 2 50.2376 76.8631 32.1491 0.0000 0.0000 0.0000
# 3 67.0158 32.1491 142.8262 0.0000 0.0000 0.0000
# 4 0.0000 0.0000 0.0000 17.6589 0.0000 0.0000
# 5 0.0000 0.0000 0.0000 0.0000 45.7042 0.0000
# 6 0.0000 0.0000 0.0000 0.0000 0.0000 38.8140
#
#
#
# Elastic Compliance Matrix: (Units=1/GPa)
#
#
# Indices 1 2 3 4 5 6 
#
# 1 0.010085 -0.005092 -0.003586 0.000000 0.000000 0.000000
# 2 -0.005092 0.016933 -0.001422 0.000000 0.000000 0.000000
# 3 -0.003586 -0.001422 0.009004 0.000000 0.000000 0.000000
# 4 0.000000 0.000000 0.000000 0.056629 0.000000 0.000000
# 5 0.000000 0.000000 0.000000 0.000000 0.021880 0.000000
# 6 0.000000 0.000000 0.000000 0.000000 0.000000 0.025764
#
#
# Mechanical properties :
#
#
# Convention : Reuss Voigt Hill
#
# Bulk Modulus (GPa) = 63.20212 74.09353 68.64782
# Shear Modulus (GPa) = 30.16238 35.01105 32.58671
#
# Velocity S-wave (km/s) = 3.78511 4.07801 3.93428
# Velocity P-wave (km/s) = 7.00882 7.57415 7.29696
#
# Compressibility (1/GPa) = 0.01582225
#
# Stress axis : x y z
#
# Youngs Moduli (GPa) = 99.15518 59.05606 111.05851
#
# Poissons Ratio (x) = 0.30070 0.39825
# Poissons Ratio (y) = 0.50488 0.15797
# Poissons Ratio (z) = 0.35557 0.08400
#
# Static dielectric constant tensor:
#      x y z
#    x 4.273040 0.000000 0.000000 
#    y 0.000000 3.702160 0.000000 
#    z 0.000000 0.000000 3.777440 
# 
# 
# High freq. dielectric constant tensor:
#      x y z
#    x 1.853990 0.000000 0.000000 
#    y 0.000000 1.804210 0.000000 
#    z 0.000000 0.000000 1.836730 
# 
# From -- ./inp_files/2229.got.cif
#   From: 2010.03.12/outbox.cif.g09.slc.cpg/sg37_2_cif.got.tgz:2229.got - 2010.04.14 02:25:27.
