data_PCOD8177295
_publ_section_title
;
Structure prediction by ZEFSAII (Michael W. Deem and Ramdas Pophale) SiO2 
 PCOD8177295
Probable space group: A M M 2
;
_chemical_formula_sum "Si O2"
_cell_formula_units_Z 64
_cell_length_a 8.766660
_cell_length_b 30.354404
_cell_length_c 14.620592
_cell_angle_alpha 90.000000
_cell_angle_beta 90.000000
_cell_angle_gamma 90.000000
_cell_volume 3890.638065
_symmetry_space_group_name_H-M "A M M 2"
_symmetry_group_IT_number 38
_symmetry_cell_setting 'orthorhombic'
loop_
_space_group_symop_operation_xyz
x,y,z
-x,-y,z
-x,y,z
x,-y,z
x,1/2+y,1/2+z
-x,1/2-y,1/2+z
-x,1/2+y,1/2+z
x,1/2-y,1/2+z
loop_
_atom_site_type_symbol
_atom_site_label
_atom_site_fract_x
_atom_site_fract_y
_atom_site_fract_z
Si Si1 0.818624 0.137462 0.585890
Si Si2 0.819278 0.548174 0.161887
Si Si3 0.819309 0.548384 0.367397
Si Si4 0.181431 0.862836 0.953301
Si Si5 0.680374 0.204238 0.085022
Si Si6 0.830432 0.323440 0.269416
Si Si7 0.680126 0.211110 0.468985
Si Si8 0.171446 0.779049 0.273820
O O1 0.771568 0.085582 0.587801
O O2 0.749849 0.156137 0.680964
O O3 0.737200 0.163982 0.505611
O O4 0.000000 0.144618 0.576702
O O5 0.756427 0.500000 0.130832
O O6 0.759109 0.559378 0.264634
O O7 0.000000 0.546642 0.166530
O O8 0.757810 0.500000 0.398342
O O9 0.768700 0.585986 0.439853
O O10 0.000000 0.547453 0.364347
O O11 0.247184 0.836796 0.864656
O O12 0.000000 0.857051 0.966940
O O13 0.267405 0.841271 0.038319
O O14 0.500000 0.206610 0.090749
O O15 0.745902 0.199951 0.186839
O O16 0.743231 0.247329 0.029102
O O17 0.833746 0.272133 0.254929
O O18 0.000000 0.344075 0.273602
O O19 0.500000 0.212348 0.469738
O O20 0.736180 0.212508 0.365597
O O21 0.000000 0.798167 0.283201
#
# Coordination Sequence:
#
# PCOD8177295 Si02
#       8
#     8   8   8   8   8   8   8   8
#     4  10  17  29  48  71  97 130 169 201 233 280
#     4   8  13  22  41  71 102 127 155 198 245 281
#     4   8  13  22  41  71 102 127 155 198 245 281
#     4  10  17  29  48  71  97 130 169 201 233 280
#     4  11  23  35  47  68  99 131 162 198 243 289
#     4   9  16  25  44  71  96 122 160 203 231 264
#     4  11  23  35  47  68  99 131 162 198 243 289
#     4  11  21  35  53  70  92 124 166 210 242 275
#
# _framework density 16.449743999999999
#
# number of rings (size 3 to 8) (size 9 to 14) (size 15 to 20)
#    0.000    2.250    3.750    1.875    0.000    1.000 
#    0.000    0.625    0.000    0.750    0.000    2.625 
#    0.000    7.000    0.000    0.000    0.000    0.000 
#
# Total GULP energy -396501.874170 kJ/mol
# GULP energy per Si atom -12390.683568 kJ/mol
# Density = 1.641230 g / cm^3
# Si number density = 16.449744 Si / 1000 Ang^3
#
#
#
# Elastic Constant Matrix: (Units=GPa)
#
#
# Indices 1 2 3 4 5 6 
#
# 1 39.5331 21.6302 20.5584 0.0000 0.0000 0.0000
# 2 21.6302 103.1907 35.4847 0.0000 0.0000 0.0000
# 3 20.5584 35.4847 81.1139 0.0000 0.0000 0.0000
# 4 0.0000 0.0000 0.0000 24.1503 0.0000 0.0000
# 5 0.0000 0.0000 0.0000 0.0000 13.1294 0.0000
# 6 0.0000 0.0000 0.0000 0.0000 0.0000 11.6688
#
#
#
# Elastic Compliance Matrix: (Units=1/GPa)
#
#
# Indices 1 2 3 4 5 6 
#
# 1 0.030768 -0.004435 -0.005858 0.000000 0.000000 0.000000
# 2 -0.004435 0.012046 -0.004146 0.000000 0.000000 0.000000
# 3 -0.005858 -0.004146 0.015627 0.000000 0.000000 0.000000
# 4 0.000000 0.000000 0.000000 0.041407 0.000000 0.000000
# 5 0.000000 0.000000 0.000000 0.000000 0.076165 0.000000
# 6 0.000000 0.000000 0.000000 0.000000 0.000000 0.085699
#
#
# Mechanical properties :
#
#
# Convention : Reuss Voigt Hill
#
# Bulk Modulus (GPa) = 33.82558 42.13159 37.97859
# Shear Modulus (GPa) = 16.64204 19.53398 18.08801
#
# Velocity S-wave (km/s) = 3.18416 3.44974 3.31961
# Velocity P-wave (km/s) = 5.84176 6.44481 6.15068
#
# Compressibility (1/GPa) = 0.02956342
#
# Stress axis : x y z
#
# Youngs Moduli (GPa) = 32.50105 83.01482 63.99313
#
# Poissons Ratio (x) = 0.36817 0.37488
# Poissons Ratio (y) = 0.14414 0.26530
# Poissons Ratio (z) = 0.19039 0.34415
#
# Static dielectric constant tensor:
#      x y z
#    x 2.808720 0.000000 0.000000 
#    y 0.000000 3.400380 0.000000 
#    z 0.000000 0.000000 2.982700 
# 
# 
# High freq. dielectric constant tensor:
#      x y z
#    x 1.600320 0.000000 0.000000 
#    y 0.000000 1.631500 0.000000 
#    z 0.000000 0.000000 1.611010 
# 
# From -- ./inp_files/13115.got.cif
#   From: 2010.03.12/outbox.cif.g09.slc.cpg/sg38_7_cif.got.tgz:13115.got - 2010.04.14 02:38:36.
