data_PCOD8177856
_publ_section_title
;
Structure prediction by ZEFSAII (Michael W. Deem and Ramdas Pophale) SiO2 
 PCOD8177856
Probable space group: A M M 2
;
_chemical_formula_sum "Si O2"
_cell_formula_units_Z 64
_cell_length_a 9.135755
_cell_length_b 17.972969
_cell_length_c 26.576555
_cell_angle_alpha 90.000000
_cell_angle_beta 90.000000
_cell_angle_gamma 90.000000
_cell_volume 4363.781071
_symmetry_space_group_name_H-M "A M M 2"
_symmetry_group_IT_number 38
_symmetry_cell_setting 'orthorhombic'
loop_
_space_group_symop_operation_xyz
x,y,z
-x,-y,z
-x,y,z
x,-y,z
x,1/2+y,1/2+z
-x,1/2-y,1/2+z
-x,1/2+y,1/2+z
x,1/2-y,1/2+z
loop_
_atom_site_type_symbol
_atom_site_label
_atom_site_fract_x
_atom_site_fract_y
_atom_site_fract_z
Si Si1 0.168872 0.914103 0.484240
Si Si2 0.338744 0.801415 0.943118
Si Si3 0.673624 0.155969 0.094609
Si Si4 0.668223 0.413935 0.788706
Si Si5 0.327672 0.842165 0.391941
Si Si6 0.170554 0.913353 0.187733
Si Si7 0.660896 0.200517 0.541305
Si Si8 0.167951 0.586074 0.501368
O O1 0.248194 0.893862 0.432462
O O2 0.228598 0.867542 0.532225
O O3 0.000000 0.894524 0.477393
O O4 0.195331 0.000000 0.496731
O O5 0.500000 0.834763 0.931461
O O6 0.286961 0.745579 0.898530
O O7 0.226030 0.868557 0.952617
O O8 0.347300 0.750532 0.991996
O O9 0.500000 0.142747 0.094595
O O10 0.741427 0.134768 0.147713
O O11 0.711943 0.243375 0.085646
O O12 0.741073 0.104158 0.051281
O O13 0.500000 0.396945 0.774565
O O14 0.689011 0.500000 0.802774
O O15 0.721189 0.365988 0.836331
O O16 0.770473 0.390747 0.742446
O O17 0.500000 0.854675 0.400121
O O18 0.000000 0.894084 0.184433
O O19 0.200178 0.000000 0.176939
O O20 0.500000 0.167600 0.553308
O O21 0.185607 0.500000 0.488107
O O22 0.000000 0.607812 0.511318
#
# Coordination Sequence:
#
# PCOD8177856 Si02
#       8
#     8   8   8   8   8   8   8   8
#     4  10  19  27  38  60  86 110 137 167 199 237
#     4   8  15  27  41  58  79 103 134 169 201 236
#     4  10  19  30  44  60  78 104 139 172 202 239
#     4   9  17  29  44  60  79 106 138 169 200 233
#     4   9  17  29  44  60  79 107 141 171 201 238
#     4  10  20  31  42  59  83 108 135 168 203 238
#     4   8  16  29  42  57  77 103 135 168 200 236
#     4  10  19  28  39  58  83 109 137 167 200 240
#
# _framework density 14.666181
#
# number of rings (size 3 to 8) (size 9 to 14) (size 15 to 20)
#    0.000    2.750    0.000    3.750    0.000   10.250 
#    0.000    1.250    0.000    0.000    0.000    0.000 
#    0.000    1.000    0.000    9.500    0.000    5.500 
#
# Total GULP energy -396688.621635 kJ/mol
# GULP energy per Si atom -12396.519426 kJ/mol
# Density = 1.463280 g / cm^3
# Si number density = 14.666181 Si / 1000 Ang^3
#
#
#
# Elastic Constant Matrix: (Units=GPa)
#
#
# Indices 1 2 3 4 5 6 
#
# 1 90.4815 55.6243 47.7151 0.0000 0.0000 0.0000
# 2 55.6243 81.3443 53.4674 0.0000 0.0000 0.0000
# 3 47.7151 53.4674 87.1490 0.0000 0.0000 0.0000
# 4 0.0000 0.0000 0.0000 27.0379 0.0000 0.0000
# 5 0.0000 0.0000 0.0000 0.0000 16.0780 0.0000
# 6 0.0000 0.0000 0.0000 0.0000 0.0000 23.7495
#
#
#
# Elastic Compliance Matrix: (Units=1/GPa)
#
#
# Indices 1 2 3 4 5 6 
#
# 1 0.019979 -0.010845 -0.004285 0.000000 0.000000 0.000000
# 2 -0.010845 0.026488 -0.010313 0.000000 0.000000 0.000000
# 3 -0.004285 -0.010313 0.020148 0.000000 0.000000 0.000000
# 4 0.000000 0.000000 0.000000 0.036985 0.000000 0.000000
# 5 0.000000 0.000000 0.000000 0.000000 0.062197 0.000000
# 6 0.000000 0.000000 0.000000 0.000000 0.000000 0.042106
#
#
# Mechanical properties :
#
#
# Convention : Reuss Voigt Hill
#
# Bulk Modulus (GPa) = 63.57897 63.62094 63.59995
# Shear Modulus (GPa) = 18.93703 20.18428 19.56065
#
# Velocity S-wave (km/s) = 3.59723 3.71380 3.65598
# Velocity P-wave (km/s) = 7.79091 7.86532 7.82820
#
# Compressibility (1/GPa) = 0.01572847
#
# Stress axis : x y z
#
# Youngs Moduli (GPa) = 50.05284 37.75226 49.63302
#
# Poissons Ratio (x) = 0.40944 0.21267
# Poissons Ratio (y) = 0.54284 0.51187
# Poissons Ratio (z) = 0.21447 0.38934
#
# Static dielectric constant tensor:
#      x y z
#    x 2.963520 0.000000 0.000000 
#    y 0.000000 2.976360 0.000000 
#    z 0.000000 0.000000 2.806560 
# 
# 
# High freq. dielectric constant tensor:
#      x y z
#    x 1.571840 0.000000 0.000000 
#    y 0.000000 1.546020 0.000000 
#    z 0.000000 0.000000 1.530300 
# 
# From -- ./inp_files/23629.got.cif
#   From: 2010.03.12/outbox.cif.g09.slc.cpg/sg38_12_cif.got.tgz:23629.got - 2010.04.14 02:38:36.
