data_PCOD8177167
_publ_section_title
;
Structure prediction by ZEFSAII (Michael W. Deem and Ramdas Pophale) SiO2 
 PCOD8177167
Probable space group: C C C 2
;
_chemical_formula_sum "Si O2"
_cell_formula_units_Z 40
_cell_length_a 10.063055
_cell_length_b 9.823115
_cell_length_c 19.706283
_cell_angle_alpha 90.000000
_cell_angle_beta 90.000000
_cell_angle_gamma 90.000000
_cell_volume 1947.976844
_symmetry_space_group_name_H-M "C C C 2"
_symmetry_group_IT_number 37
_symmetry_cell_setting 'orthorhombic'
loop_
_space_group_symop_operation_xyz
x,y,z
-x,-y,z
-x,y,1/2+z
x,-y,1/2+z
1/2+x,1/2+y,z
1/2-x,1/2-y,z
1/2-x,1/2+y,1/2+z
1/2+x,1/2-y,1/2+z
loop_
_atom_site_type_symbol
_atom_site_label
_atom_site_fract_x
_atom_site_fract_y
_atom_site_fract_z
Si Si1 0.343959 0.008451 0.640240
Si Si2 0.000000 0.000000 0.425111
Si Si3 0.000000 0.500000 0.894649
Si Si4 0.494376 0.270735 0.816361
Si Si5 0.261551 0.913351 0.991668
Si Si6 0.750000 0.250000 0.231092
Si Si7 0.250000 0.750000 0.722241
O O1 0.285671 0.032582 0.566475
O O2 0.316993 0.136513 0.686361
O O3 0.500000 0.000000 0.633613
O O4 0.278070 0.876009 0.673062
O O5 0.991296 0.865517 0.380781
O O6 0.871283 0.993945 0.472186
O O7 0.964195 0.620383 0.843337
O O8 0.123894 0.539760 0.940848
O O9 0.365684 0.320099 0.775132
O O10 0.625106 0.280347 0.770299
O O11 0.250000 0.750000 0.989437
#
# Coordination Sequence:
#
# PCOD8177167 Si02
#       7
#     8   4   4   8   8   4   4
#     4  12  26  48  73 102 144 191 236 295 357 413
#     4  12  26  44  72 110 140 186 236 292 354 416
#     4  12  24  46  76  98 150 194 224 294 366 416
#     4  12  24  44  72 108 146 182 238 289 355 431
#     4  12  26  48  73 104 146 186 243 298 344 421
#     4  12  24  44  74 100 140 192 234 284 356 418
#     4  12  26  46  74 108 146 186 236 298 352 424
#
# _framework density 20.534123999999998
#
# number of rings (size 3 to 8) (size 9 to 14) (size 15 to 20)
#    0.000    0.000    6.000    4.800    0.000    4.800 
#    0.000    0.000    0.000    0.000    0.000    0.000 
#    0.000    0.000    0.000    0.000    0.000    0.000 
#
# Total GULP energy -248096.726679 kJ/mol
# GULP energy per Si atom -12404.836334 kJ/mol
# Density = 2.048739 g / cm^3
# Si number density = 20.534124 Si / 1000 Ang^3
#
#
#
# Elastic Constant Matrix: (Units=GPa)
#
#
# Indices 1 2 3 4 5 6 
#
# 1 168.7960 17.1333 62.7806 0.0000 0.0000 0.0000
# 2 17.1333 83.1952 19.8857 0.0000 0.0000 0.0000
# 3 62.7806 19.8857 116.3752 0.0000 0.0000 0.0000
# 4 0.0000 0.0000 0.0000 116.2768 0.0000 0.0000
# 5 0.0000 0.0000 0.0000 0.0000 60.5146 0.0000
# 6 0.0000 0.0000 0.0000 0.0000 0.0000 33.9474
#
#
#
# Elastic Compliance Matrix: (Units=1/GPa)
#
#
# Indices 1 2 3 4 5 6 
#
# 1 0.007440 -0.000597 -0.003911 0.000000 0.000000 0.000000
# 2 -0.000597 0.012580 -0.001827 0.000000 0.000000 0.000000
# 3 -0.003911 -0.001827 0.011015 0.000000 0.000000 0.000000
# 4 0.000000 0.000000 0.000000 0.008600 0.000000 0.000000
# 5 0.000000 0.000000 0.000000 0.000000 0.016525 0.000000
# 6 0.000000 0.000000 0.000000 0.000000 0.000000 0.029457
#
#
# Mechanical properties :
#
#
# Convention : Reuss Voigt Hill
#
# Bulk Modulus (GPa) = 54.45851 63.10726 58.78289
# Shear Modulus (GPa) = 47.88812 60.05221 53.97017
#
# Velocity S-wave (km/s) = 4.83445 5.41374 5.13227
# Velocity P-wave (km/s) = 7.59875 8.35929 7.98808
#
# Compressibility (1/GPa) = 0.01836260
#
# Stress axis : x y z
#
# Youngs Moduli (GPa) = 134.41378 79.49310 90.78329
#
# Poissons Ratio (x) = 0.04747 0.35509
# Poissons Ratio (y) = 0.08027 0.16590
# Poissons Ratio (z) = 0.52575 0.14526
#
# Static dielectric constant tensor:
#      x y z
#    x 4.069880 0.000000 0.000000 
#    y 0.000000 3.753840 0.000000 
#    z 0.000000 0.000000 4.019670 
# 
# 
# High freq. dielectric constant tensor:
#      x y z
#    x 1.824020 0.000000 0.000000 
#    y 0.000000 1.815320 0.000000 
#    z 0.000000 0.000000 1.826020 
# 
# From -- ./inp_files/14296.got.cif
#   From: 2010.03.12/outbox.cif.g09.slc.cpg/sg37_8_cif.got.tgz:14296.got - 2010.04.14 02:25:27.
