data_PCOD8177630
_publ_section_title
;
Structure prediction by ZEFSAII (Michael W. Deem and Ramdas Pophale) SiO2 
 PCOD8177630
Probable space group: A M M 2
;
_chemical_formula_sum "Si O2"
_cell_formula_units_Z 48
_cell_length_a 8.643154
_cell_length_b 16.712676
_cell_length_c 18.747699
_cell_angle_alpha 90.000000
_cell_angle_beta 90.000000
_cell_angle_gamma 90.000000
_cell_volume 2708.109478
_symmetry_space_group_name_H-M "A M M 2"
_symmetry_group_IT_number 38
_symmetry_cell_setting 'orthorhombic'
loop_
_space_group_symop_operation_xyz
x,y,z
-x,-y,z
-x,y,z
x,-y,z
x,1/2+y,1/2+z
-x,1/2-y,1/2+z
-x,1/2+y,1/2+z
x,1/2-y,1/2+z
loop_
_atom_site_type_symbol
_atom_site_label
_atom_site_fract_x
_atom_site_fract_y
_atom_site_fract_z
Si Si1 0.183949 0.591035 0.214440
Si Si2 0.182504 0.000000 0.191660
Si Si3 0.184553 0.164392 0.418746
Si Si4 0.818627 0.172030 0.168811
Si Si5 0.317989 0.266523 0.297186
Si Si6 0.181000 0.682978 0.076959
Si Si7 0.816064 0.500000 0.850736
O O1 0.239898 0.500000 0.225541
O O2 0.251359 0.645954 0.277522
O O3 0.246372 0.622304 0.137332
O O4 0.000000 0.598145 0.216937
O O5 0.234728 0.919018 0.150950
O O6 0.252626 0.000000 0.271126
O O7 0.000000 0.000000 0.198488
O O8 0.250980 0.237919 0.372952
O O9 0.253578 0.169805 0.499081
O O10 0.000000 0.170534 0.417332
O O11 0.245256 0.079416 0.389728
O O12 0.728127 0.201671 0.238021
O O13 0.780262 0.226115 0.100471
O O14 0.000000 0.177008 0.188347
O O15 0.500000 0.273375 0.302870
O O16 0.000000 0.667927 0.071003
O O17 0.000000 0.500000 0.850967
#
# Coordination Sequence:
#
# PCOD8177630 Si02
#       7
#     8   4   8   8   8   8   4
#     4   9  18  34  56  80 101 124 161 210 256 298
#     4   9  14  24  48  74  94 119 156 201 245 286
#     4  10  18  31  49  71 102 133 162 199 246 299
#     4   9  16  31  50  72  96 126 164 205 251 294
#     4  11  21  32  48  71  99 136 171 202 241 290
#     4   8  16  28  49  76 100 125 155 198 250 300
#     4   9  16  24  44  74  96 123 156 193 243 292
#
# _framework density 17.724540999999999
#
# number of rings (size 3 to 8) (size 9 to 14) (size 15 to 20)
#    0.000    2.667    1.667    2.500    1.167    0.333 
#    0.000    5.000    1.833    0.000    0.000    0.000 
#    0.000    0.000    0.000    0.000    0.000    0.000 
#
# Total GULP energy -297463.919638 kJ/mol
# GULP energy per Si atom -12394.329985 kJ/mol
# Density = 1.768420 g / cm^3
# Si number density = 17.724541 Si / 1000 Ang^3
#
#
#
# Elastic Constant Matrix: (Units=GPa)
#
#
# Indices 1 2 3 4 5 6 
#
# 1 35.5638 25.5890 18.2315 0.0000 0.0000 0.0000
# 2 25.5890 174.0281 62.7163 0.0000 0.0000 0.0000
# 3 18.2315 62.7163 98.7789 0.0000 0.0000 0.0000
# 4 0.0000 0.0000 0.0000 23.3445 0.0000 0.0000
# 5 0.0000 0.0000 0.0000 0.0000 4.6815 0.0000
# 6 0.0000 0.0000 0.0000 0.0000 0.0000 8.6754
#
#
#
# Elastic Compliance Matrix: (Units=1/GPa)
#
#
# Indices 1 2 3 4 5 6 
#
# 1 0.032536 -0.003397 -0.003848 0.000000 0.000000 0.000000
# 2 -0.003397 0.007806 -0.004329 0.000000 0.000000 0.000000
# 3 -0.003848 -0.004329 0.013582 0.000000 0.000000 0.000000
# 4 0.000000 0.000000 0.000000 0.042837 0.000000 0.000000
# 5 0.000000 0.000000 0.000000 0.000000 0.213606 0.000000
# 6 0.000000 0.000000 0.000000 0.000000 0.000000 0.115269
#
#
# Mechanical properties :
#
#
# Convention : Reuss Voigt Hill
#
# Bulk Modulus (GPa) = 32.49382 57.93829 45.21606
# Shear Modulus (GPa) = 10.89223 20.79587 15.84405
#
# Velocity S-wave (km/s) = 2.48166 3.42904 2.99307
# Velocity P-wave (km/s) = 5.15596 6.95966 6.12457
#
# Compressibility (1/GPa) = 0.03077508
#
# Stress axis : x y z
#
# Youngs Moduli (GPa) = 30.73563 128.10955 73.62460
#
# Poissons Ratio (x) = 0.43522 0.28331
# Poissons Ratio (y) = 0.10442 0.31872
# Poissons Ratio (z) = 0.11827 0.55459
#
# Static dielectric constant tensor:
#      x y z
#    x 2.844540 0.000000 0.000000 
#    y 0.000000 3.625150 0.000000 
#    z 0.000000 0.000000 3.357000 
# 
# 
# High freq. dielectric constant tensor:
#      x y z
#    x 1.642730 0.000000 0.000000 
#    y 0.000000 1.695120 0.000000 
#    z 0.000000 0.000000 1.668990 
# 
# From -- ./inp_files/19924.got.cif
#   From: 2010.03.12/outbox.cif.g09.slc.cpg/sg38_10_cif.got.tgz:19924.got - 2010.04.14 02:38:36.
