data_PCOD8177015
_publ_section_title
;
Structure prediction by ZEFSAII (Michael W. Deem and Ramdas Pophale) SiO2 
 PCOD8177015
Probable space group: C C C 2
;
_chemical_formula_sum "Si O2"
_cell_formula_units_Z 48
_cell_length_a 17.295726
_cell_length_b 13.782175
_cell_length_c 8.717988
_cell_angle_alpha 90.000000
_cell_angle_beta 90.000000
_cell_angle_gamma 90.000000
_cell_volume 2078.130534
_symmetry_space_group_name_H-M "C C C 2"
_symmetry_group_IT_number 37
_symmetry_cell_setting 'orthorhombic'
loop_
_space_group_symop_operation_xyz
x,y,z
-x,-y,z
-x,y,1/2+z
x,-y,1/2+z
1/2+x,1/2+y,z
1/2-x,1/2-y,z
1/2-x,1/2+y,1/2+z
1/2+x,1/2-y,1/2+z
loop_
_atom_site_type_symbol
_atom_site_label
_atom_site_fract_x
_atom_site_fract_y
_atom_site_fract_z
Si Si1 0.243073 0.067074 0.268430
Si Si2 0.347788 0.031101 0.528617
Si Si3 0.000000 0.000000 0.204709
Si Si4 0.592832 0.403237 0.947835
Si Si5 0.943517 0.288311 0.113655
Si Si6 0.404525 0.179382 0.951191
Si Si7 0.750000 0.250000 0.575190
O O1 0.313715 0.086031 0.382215
O O2 0.168280 0.043965 0.373991
O O3 0.221507 0.163399 0.180296
O O4 0.276375 0.986606 0.148722
O O5 0.411366 0.103851 0.590612
O O6 0.392550 0.935709 0.469724
O O7 0.027261 0.088682 0.314910
O O8 0.929125 0.034469 0.098436
O O9 0.601344 0.292327 0.009189
O O10 0.936050 0.275198 0.294514
O O11 0.034854 0.285380 0.079037
O O12 0.321013 0.226099 0.967501
#
# Coordination Sequence:
#
# PCOD8177015 Si02
#       7
#     8   8   4   8   8   8   4
#     4  11  23  44  68 102 141 199 235 306 358 444
#     4  11  24  45  71 106 149 196 239 297 379 431
#     4  10  24  46  66 106 142 194 244 314 374 420
#     4  11  24  44  72 103 147 191 254 301 370 438
#     4  12  26  45  76 111 145 193 249 305 364 446
#     4  11  27  46  73 108 154 190 246 303 369 438
#     4  10  26  46  70  98 148 190 252 296 366 430
#
# _framework density 23.097683
#
# number of rings (size 3 to 8) (size 9 to 14) (size 15 to 20)
#    0.000    1.000    1.667    3.500    9.333    2.667 
#    9.000    0.000    0.000    0.000    0.000    0.000 
#    0.000    0.000    0.000    0.000    0.000    0.000 
#
# Total GULP energy -297401.749726 kJ/mol
# GULP energy per Si atom -12391.739572 kJ/mol
# Density = 2.304511 g / cm^3
# Si number density = 23.097683 Si / 1000 Ang^3
#
#
#
# Elastic Constant Matrix: (Units=GPa)
#
#
# Indices 1 2 3 4 5 6 
#
# 1 94.6056 40.8234 50.9523 0.0000 0.0000 0.0000
# 2 40.8234 106.2342 46.9299 0.0000 0.0000 0.0000
# 3 50.9523 46.9299 144.7891 0.0000 0.0000 0.0000
# 4 0.0000 0.0000 0.0000 -47.7391 0.0000 0.0000
# 5 0.0000 0.0000 0.0000 0.0000 51.0192 0.0000
# 6 0.0000 0.0000 0.0000 0.0000 0.0000 24.6436
#
#
#
# Elastic Compliance Matrix: (Units=1/GPa)
#
#
# Indices 1 2 3 4 5 6 
#
# 1 0.014248 -0.003805 -0.003781 0.000000 0.000000 0.000000
# 2 -0.003805 0.012002 -0.002551 0.000000 0.000000 0.000000
# 3 -0.003781 -0.002551 0.009064 0.000000 0.000000 0.000000
# 4 0.000000 0.000000 0.000000 -0.020947 0.000000 0.000000
# 5 0.000000 0.000000 0.000000 0.000000 0.019600 0.000000
# 6 0.000000 0.000000 0.000000 0.000000 0.000000 0.040578
#
#
# Mechanical properties :
#
#
# Convention : Reuss Voigt Hill
#
# Bulk Modulus (GPa) = 66.48710 69.22670 67.85690
# Shear Modulus (GPa) = 50.08295 19.37962 34.73128
#
# Velocity S-wave (km/s) = 4.66156 2.89974 3.88192
# Velocity P-wave (km/s) = 7.60403 6.42244 7.03807
#
# Compressibility (1/GPa) = 0.01504051
#
# Stress axis : x y z
#
# Youngs Moduli (GPa) = 70.18329 83.31643 110.32657
#
# Poissons Ratio (x) = 0.31703 0.41712
# Poissons Ratio (y) = 0.26706 0.28147
# Poissons Ratio (z) = 0.26535 0.21256
#
# Static dielectric constant tensor:
#      x y z
#    x 4.088420 0.000000 0.000000 
#    y 0.000000 4.016520 0.000000 
#    z 0.000000 0.000000 4.433390 
# 
# 
# High freq. dielectric constant tensor:
#      x y z
#    x 1.913420 0.000000 0.000000 
#    y 0.000000 1.902760 0.000000 
#    z 0.000000 0.000000 1.934870 
# 
# From -- ./inp_files/3521.got.cif
#   From: 2010.03.12/outbox.cif.g09.slc.cpg/sg37_2_cif.got.tgz:3521.got - 2010.04.14 02:25:27.
