data_PCOD8177886
_publ_section_title
;
Structure prediction by ZEFSAII (Michael W. Deem and Ramdas Pophale) SiO2 
 PCOD8177886
Probable space group: A M M 2
;
_chemical_formula_sum "Si O2"
_cell_formula_units_Z 64
_cell_length_a 8.719712
_cell_length_b 18.583202
_cell_length_c 26.324608
_cell_angle_alpha 90.000000
_cell_angle_beta 90.000000
_cell_angle_gamma 90.000000
_cell_volume 4265.643942
_symmetry_space_group_name_H-M "A M M 2"
_symmetry_group_IT_number 38
_symmetry_cell_setting 'orthorhombic'
loop_
_space_group_symop_operation_xyz
x,y,z
-x,-y,z
-x,y,z
x,-y,z
x,1/2+y,1/2+z
-x,1/2-y,1/2+z
-x,1/2+y,1/2+z
x,1/2-y,1/2+z
loop_
_atom_site_type_symbol
_atom_site_label
_atom_site_fract_x
_atom_site_fract_y
_atom_site_fract_z
Si Si1 0.319338 0.158387 0.228040
Si Si2 0.178735 0.579183 0.822999
Si Si3 0.680087 0.663292 0.429117
Si Si4 0.177879 0.916566 0.021119
Si Si5 0.179003 0.781302 0.374312
Si Si6 0.179360 0.918014 0.834362
Si Si7 0.677954 0.702842 0.281006
Si Si8 0.677940 0.082991 0.126666
O O1 0.500000 0.148873 0.232974
O O2 0.248876 0.108544 0.271242
O O3 0.273904 0.243141 0.235054
O O4 0.262160 0.131938 0.173165
O O5 0.246206 0.500000 0.836013
O O6 0.210265 0.632721 0.871071
O O7 0.000000 0.573930 0.812702
O O8 0.500000 0.674445 0.425244
O O9 0.721076 0.629953 0.483105
O O10 0.764268 0.742063 0.425796
O O11 0.735154 0.610185 0.384445
O O12 0.222766 0.894319 0.078113
O O13 0.000000 0.900377 0.011863
O O14 0.216773 0.000000 0.011833
O O15 0.286260 0.745700 0.332132
O O16 0.000000 0.764400 0.364327
O O17 0.227190 0.871969 0.784029
O O18 0.000000 0.910370 0.844378
O O19 0.227486 0.000000 0.824222
O O20 0.500000 0.682966 0.278020
O O21 0.500000 0.097312 0.114588
O O22 0.705681 0.000000 0.141342
#
# Coordination Sequence:
#
# PCOD8177886 Si02
#       8
#     8   8   8   8   8   8   8   8
#     4   9  17  28  42  60  82 110 140 168 201 238
#     4   9  17  27  40  60  84 110 140 170 199 234
#     4  11  20  29  43  60  79 105 137 169 202 242
#     4  10  20  32  44  59  80 105 135 170 204 238
#     4   9  16  27  41  56  79 108 135 166 201 236
#     4  10  19  29  41  58  81 108 137 168 202 240
#     4   9  16  26  40  58  80 105 135 168 199 236
#     4   9  17  29  43  59  81 108 137 168 200 233
#
# _framework density 15.003596
#
# number of rings (size 3 to 8) (size 9 to 14) (size 15 to 20)
#    0.000    2.500    0.000    4.875    0.000    5.500 
#    0.000    1.250    0.000    0.000    0.000    0.000 
#    0.000    1.000    0.000    7.250    0.000    3.750 
#
# Total GULP energy -396551.538394 kJ/mol
# GULP energy per Si atom -12392.235575 kJ/mol
# Density = 1.496945 g / cm^3
# Si number density = 15.003596 Si / 1000 Ang^3
#
#
#
# Elastic Constant Matrix: (Units=GPa)
#
#
# Indices 1 2 3 4 5 6 
#
# 1 47.2673 36.2571 23.6888 0.0000 0.0000 0.0000
# 2 36.2571 124.0109 53.9770 0.0000 0.0000 0.0000
# 3 23.6888 53.9770 69.6648 0.0000 0.0000 0.0000
# 4 0.0000 0.0000 0.0000 26.3879 0.0000 0.0000
# 5 0.0000 0.0000 0.0000 0.0000 18.9154 0.0000
# 6 0.0000 0.0000 0.0000 0.0000 0.0000 18.6477
#
#
#
# Elastic Compliance Matrix: (Units=1/GPa)
#
#
# Indices 1 2 3 4 5 6 
#
# 1 0.028319 -0.006168 -0.004850 0.000000 0.000000 0.000000
# 2 -0.006168 0.013511 -0.008371 0.000000 0.000000 0.000000
# 3 -0.004850 -0.008371 0.022489 0.000000 0.000000 0.000000
# 4 0.000000 0.000000 0.000000 0.037896 0.000000 0.000000
# 5 0.000000 0.000000 0.000000 0.000000 0.052867 0.000000
# 6 0.000000 0.000000 0.000000 0.000000 0.000000 0.053626
#
#
# Mechanical properties :
#
#
# Convention : Reuss Voigt Hill
#
# Bulk Modulus (GPa) = 39.15395 52.08763 45.62079
# Shear Modulus (GPa) = 19.53127 21.25820 20.39473
#
# Velocity S-wave (km/s) = 3.61192 3.76822 3.69090
# Velocity P-wave (km/s) = 6.59907 7.32972 6.97397
#
# Compressibility (1/GPa) = 0.02554021
#
# Stress axis : x y z
#
# Youngs Moduli (GPa) = 35.31247 74.01527 44.46539
#
# Poissons Ratio (x) = 0.45656 0.21566
# Poissons Ratio (y) = 0.21782 0.37221
# Poissons Ratio (z) = 0.17127 0.61956
#
# Static dielectric constant tensor:
#      x y z
#    x 2.956000 0.000000 0.000000 
#    y 0.000000 3.388640 0.000000 
#    z 0.000000 0.000000 2.799470 
# 
# 
# High freq. dielectric constant tensor:
#      x y z
#    x 1.585800 0.000000 0.000000 
#    y 0.000000 1.570330 0.000000 
#    z 0.000000 0.000000 1.535900 
# 
# From -- ./inp_files/23642.got.cif
#   From: 2010.03.12/outbox.cif.g09.slc.cpg/sg38_12_cif.got.tgz:23642.got - 2010.04.14 02:38:36.
