data_PCOD8177743
_publ_section_title
;
Structure prediction by ZEFSAII (Michael W. Deem and Ramdas Pophale) SiO2 
 PCOD8177743
Probable space group: A M M 2
;
_chemical_formula_sum "Si O2"
_cell_formula_units_Z 40
_cell_length_a 8.423845
_cell_length_b 26.257969
_cell_length_c 9.209977
_cell_angle_alpha 90.000000
_cell_angle_beta 90.000000
_cell_angle_gamma 90.000000
_cell_volume 2037.183003
_symmetry_space_group_name_H-M "A M M 2"
_symmetry_group_IT_number 38
_symmetry_cell_setting 'orthorhombic'
loop_
_space_group_symop_operation_xyz
x,y,z
-x,-y,z
-x,y,z
x,-y,z
x,1/2+y,1/2+z
-x,1/2-y,1/2+z
-x,1/2+y,1/2+z
x,1/2-y,1/2+z
loop_
_atom_site_type_symbol
_atom_site_label
_atom_site_fract_x
_atom_site_fract_y
_atom_site_fract_z
Si Si1 0.311655 0.000000 0.450351
Si Si2 0.314622 0.890285 0.111062
Si Si3 0.812968 0.395466 0.932911
Si Si4 0.313477 0.000000 0.124312
Si Si5 0.188810 0.201151 0.617030
Si Si6 0.814238 0.703086 0.441038
O O1 0.238697 0.947784 0.515600
O O2 0.244892 0.000000 0.286339
O O3 0.500000 0.000000 0.470240
O O4 0.500000 0.880009 0.086358
O O5 0.278726 0.887822 0.281843
O O6 0.263279 0.946693 0.048153
O O7 0.214741 0.849500 0.023479
O O8 0.000000 0.394037 0.903545
O O9 0.756767 0.350184 0.037737
O O10 0.500000 0.000000 0.144169
O O11 0.259696 0.249791 0.530900
O O12 0.260798 0.201554 0.779813
O O13 0.000000 0.204281 0.623312
O O14 0.000000 0.711820 0.427042
#
# Coordination Sequence:
#
# PCOD8177743 Si02
#       6
#     4   8   8   4   8   8
#     4   9  17  31  50  77 110 142 172 212 258 305
#     4  10  19  33  52  77 106 138 172 214 261 309
#     4  10  18  32  55  81 105 138 178 216 257 310
#     4   7  14  29  48  67  96 132 166 200 242 291
#     4   9  19  34  55  78 102 132 173 221 268 313
#     4  10  19  35  55  76 101 134 173 218 268 318
#
# _framework density 19.634957
#
# number of rings (size 3 to 8) (size 9 to 14) (size 15 to 20)
#    0.000    2.600    0.000    3.900    0.000    3.200 
#    0.000    9.500    0.000    3.600    0.000    0.000 
#    0.000    0.000    0.000    0.000    0.000    0.000 
#
# Total GULP energy -247860.257639 kJ/mol
# GULP energy per Si atom -12393.012882 kJ/mol
# Density = 1.959027 g / cm^3
# Si number density = 19.634957 Si / 1000 Ang^3
#
#
#
# Elastic Constant Matrix: (Units=GPa)
#
#
# Indices 1 2 3 4 5 6 
#
# 1 21.8920 7.4385 -1.0313 0.0000 0.0000 0.0000
# 2 7.4385 197.1953 71.3758 0.0000 0.0000 0.0000
# 3 -1.0313 71.3758 100.9614 0.0000 0.0000 0.0000
# 4 0.0000 0.0000 0.0000 30.2911 0.0000 0.0000
# 5 0.0000 0.0000 0.0000 0.0000 9.9204 0.0000
# 6 0.0000 0.0000 0.0000 0.0000 0.0000 20.0946
#
#
#
# Elastic Compliance Matrix: (Units=1/GPa)
#
#
# Indices 1 2 3 4 5 6 
#
# 1 0.046670 -0.002598 0.002313 0.000000 0.000000 0.000000
# 2 -0.002598 0.006960 -0.004947 0.000000 0.000000 0.000000
# 3 0.002313 -0.004947 0.013426 0.000000 0.000000 0.000000
# 4 0.000000 0.000000 0.000000 0.033013 0.000000 0.000000
# 5 0.000000 0.000000 0.000000 0.000000 0.100802 0.000000
# 6 0.000000 0.000000 0.000000 0.000000 0.000000 0.049765
#
#
# Mechanical properties :
#
#
# Convention : Reuss Voigt Hill
#
# Bulk Modulus (GPa) = 17.66997 52.84606 35.25802
# Shear Modulus (GPa) = 17.85957 28.21229 23.03593
#
# Velocity S-wave (km/s) = 3.01920 3.79468 3.42893
# Velocity P-wave (km/s) = 4.60140 6.79501 5.80280
#
# Compressibility (1/GPa) = 0.05659318
#
# Stress axis : x y z
#
# Youngs Moduli (GPa) = 21.42683 143.68673 74.48499
#
# Poissons Ratio (x) = 0.37327 -0.17230
# Poissons Ratio (y) = 0.05566 0.36845
# Poissons Ratio (z) = -0.04957 0.71077
#
# Static dielectric constant tensor:
#      x y z
#    x 3.205360 0.000000 0.000000 
#    y 0.000000 4.106140 0.000000 
#    z 0.000000 0.000000 3.443360 
# 
# 
# High freq. dielectric constant tensor:
#      x y z
#    x 1.736540 0.000000 0.000000 
#    y 0.000000 1.793430 0.000000 
#    z 0.000000 0.000000 1.733240 
# 
# From -- ./inp_files/3489.got.cif
#   From: 2010.03.12/outbox.cif.g09.slc.cpg/sg38_2_cif.got.tgz:3489.got - 2010.04.14 02:38:36.
