data_PCOD8177219
_publ_section_title
;
Structure prediction by ZEFSAII (Michael W. Deem and Ramdas Pophale) SiO2 
 PCOD8177219
Probable space group: A M M 2
;
_chemical_formula_sum "Si O2"
_cell_formula_units_Z 56
_cell_length_a 18.078779
_cell_length_b 18.964090
_cell_length_c 8.982212
_cell_angle_alpha 90.000000
_cell_angle_beta 90.000000
_cell_angle_gamma 90.000000
_cell_volume 3079.529755
_symmetry_space_group_name_H-M "A M M 2"
_symmetry_group_IT_number 38
_symmetry_cell_setting 'orthorhombic'
loop_
_space_group_symop_operation_xyz
x,y,z
-x,-y,z
-x,y,z
x,-y,z
x,1/2+y,1/2+z
-x,1/2-y,1/2+z
-x,1/2+y,1/2+z
x,1/2-y,1/2+z
loop_
_atom_site_type_symbol
_atom_site_label
_atom_site_fract_x
_atom_site_fract_y
_atom_site_fract_z
Si Si1 0.263962 0.579513 0.287000
Si Si2 0.580022 0.848575 0.792335
Si Si3 0.804451 0.079577 0.463282
Si Si4 0.277417 0.187514 0.299243
Si Si5 0.628749 0.756514 0.049510
Si Si6 0.914379 0.806115 0.550219
Si Si7 0.161216 0.701719 0.344603
O O1 0.252789 0.500000 0.346896
O O2 0.350607 0.598850 0.301814
O O3 0.211187 0.632265 0.382357
O O4 0.241300 0.585221 0.115473
O O5 0.500000 0.888355 0.785255
O O6 0.583808 0.799992 0.645833
O O7 0.576429 0.799834 0.939262
O O8 0.752978 0.108887 0.329382
O O9 0.878492 0.126314 0.469278
O O10 0.827273 0.000000 0.425760
O O11 0.333632 0.186860 0.161801
O O12 0.310454 0.215237 0.454653
O O13 0.212878 0.242377 0.259085
O O14 0.875724 0.733801 0.492606
O O15 0.903851 0.815142 0.727099
O O16 0.000000 0.804604 0.509003
#
# Coordination Sequence:
#
# PCOD8177219 Si02
#       7
#     8   8   8   8   8   8   8
#     4  10  19  33  53  76 102 137 182 217 254 311
#     4  11  21  33  51  79 109 138 168 218 272 313
#     4   9  18  32  52  78 103 134 173 215 255 306
#     4  10  16  31  55  75  98 132 174 218 255 297
#     4  10  18  31  52  76 104 131 172 218 259 306
#     4  10  20  32  52  80 105 135 167 209 266 316
#     4  10  18  32  55  75 101 132 172 220 252 305
#
# _framework density 18.184594000000001
#
# number of rings (size 3 to 8) (size 9 to 14) (size 15 to 20)
#    0.000    2.000    4.286    2.571    0.000    0.571 
#    0.000    0.714    0.000    1.286    0.000    0.000 
#    0.000    0.000    0.000    0.000    0.000    0.000 
#
# Total GULP energy -347028.832286 kJ/mol
# GULP energy per Si atom -12393.886867 kJ/mol
# Density = 1.814321 g / cm^3
# Si number density = 18.184594 Si / 1000 Ang^3
#
#
#
# Elastic Constant Matrix: (Units=GPa)
#
#
# Indices 1 2 3 4 5 6 
#
# 1 124.3557 50.3306 24.7751 0.0000 0.0000 0.0000
# 2 50.3306 121.7985 22.7948 0.0000 0.0000 0.0000
# 3 24.7751 22.7948 64.7404 0.0000 0.0000 0.0000
# 4 0.0000 0.0000 0.0000 21.8292 0.0000 0.0000
# 5 0.0000 0.0000 0.0000 0.0000 5.6646 0.0000
# 6 0.0000 0.0000 0.0000 0.0000 0.0000 14.1829
#
#
#
# Elastic Compliance Matrix: (Units=1/GPa)
#
#
# Indices 1 2 3 4 5 6 
#
# 1 0.010034 -0.003670 -0.002548 0.000000 0.000000 0.000000
# 2 -0.003670 0.010131 -0.002163 0.000000 0.000000 0.000000
# 3 -0.002548 -0.002163 0.017183 0.000000 0.000000 0.000000
# 4 0.000000 0.000000 0.000000 0.045810 0.000000 0.000000
# 5 0.000000 0.000000 0.000000 0.000000 0.176536 0.000000
# 6 0.000000 0.000000 0.000000 0.000000 0.000000 0.070507
#
#
# Mechanical properties :
#
#
# Convention : Reuss Voigt Hill
#
# Bulk Modulus (GPa) = 48.57259 56.29953 52.43606
# Shear Modulus (GPa) = 14.13126 22.53495 18.33311
#
# Velocity S-wave (km/s) = 2.79068 3.52409 3.17861
# Velocity P-wave (km/s) = 6.09530 6.89828 6.50918
#
# Compressibility (1/GPa) = 0.02058774
#
# Stress axis : x y z
#
# Youngs Moduli (GPa) = 99.65856 98.70242 58.19733
#
# Poissons Ratio (x) = 0.36220 0.14828
# Poissons Ratio (y) = 0.36571 0.12588
# Poissons Ratio (z) = 0.25392 0.21349
#
# Static dielectric constant tensor:
#      x y z
#    x 3.277510 0.000000 0.000000 
#    y 0.000000 3.329520 0.000000 
#    z 0.000000 0.000000 3.227030 
# 
# 
# High freq. dielectric constant tensor:
#      x y z
#    x 1.699990 0.000000 0.000000 
#    y 0.000000 1.680370 0.000000 
#    z 0.000000 0.000000 1.698030 
# 
# From -- ./inp_files/6438.got.cif
#   From: 2010.03.12/outbox.cif.g09.slc.cpg/sg38_4_cif.got.tgz:6438.got - 2010.04.14 02:38:36.
