data_PCOD8177917
_publ_section_title
;
Structure prediction by ZEFSAII (Michael W. Deem and Ramdas Pophale) SiO2 
 PCOD8177917
Probable space group: A M M 2
;
_chemical_formula_sum "Si O2"
_cell_formula_units_Z 64
_cell_length_a 8.983315
_cell_length_b 19.921426
_cell_length_c 21.082209
_cell_angle_alpha 90.000000
_cell_angle_beta 90.000000
_cell_angle_gamma 90.000000
_cell_volume 3772.881504
_symmetry_space_group_name_H-M "A M M 2"
_symmetry_group_IT_number 38
_symmetry_cell_setting 'orthorhombic'
loop_
_space_group_symop_operation_xyz
x,y,z
-x,-y,z
-x,y,z
x,-y,z
x,1/2+y,1/2+z
-x,1/2-y,1/2+z
-x,1/2+y,1/2+z
x,1/2-y,1/2+z
loop_
_atom_site_type_symbol
_atom_site_label
_atom_site_fract_x
_atom_site_fract_y
_atom_site_fract_z
Si Si1 0.677020 0.791727 0.935090
Si Si2 0.323568 0.299500 0.295088
Si Si3 0.826359 0.075954 0.741124
Si Si4 0.323112 0.927043 0.136161
Si Si5 0.674919 0.789653 0.552860
Si Si6 0.328270 0.925503 0.609006
Si Si7 0.322557 0.213825 0.177568
Si Si8 0.323143 0.072906 0.992793
O O1 0.500000 0.791865 0.939380
O O2 0.726748 0.771202 0.864027
O O3 0.739518 0.866579 0.949897
O O4 0.743414 0.739885 0.987420
O O5 0.500000 0.305729 0.290570
O O6 0.257839 0.373942 0.288009
O O7 0.259952 0.249938 0.240761
O O8 0.771802 0.087833 0.669804
O O9 0.000000 0.091354 0.743251
O O10 0.790273 0.000000 0.762857
O O11 0.500000 0.926837 0.136263
O O12 0.265547 0.863758 0.177709
O O13 0.266518 0.000000 0.162447
O O14 0.265493 0.916824 0.064534
O O15 0.500000 0.776958 0.551670
O O16 0.712636 0.869180 0.556660
O O17 0.739471 0.751628 0.614922
O O18 0.500000 0.917362 0.630206
O O19 0.299139 0.000000 0.580433
O O20 0.500000 0.216908 0.178120
O O21 0.500000 0.074560 0.992949
O O22 0.267599 0.000000 0.967092
#
# Coordination Sequence:
#
# PCOD8177917 Si02
#       8
#     8   8   8   8   8   8   8   8
#     4   9  16  24  36  58  86 113 140 174 216 256
#     4  10  19  29  43  65  89 116 151 187 221 260
#     4  10  20  32  45  63  90 122 151 181 224 274
#     4   8  12  18  31  51  76 106 137 167 205 256
#     4   9  14  23  40  60  84 114 143 177 221 263
#     4   9  16  27  46  69  89 113 149 188 224 265
#     4   9  14  22  37  57  81 111 144 177 215 258
#     4   8  12  18  28  45  71 101 130 160 198 243
#
# _framework density 16.963160999999999
#
# number of rings (size 3 to 8) (size 9 to 14) (size 15 to 20)
#    0.000    3.000    2.500    1.125    0.000    1.250 
#    0.000    1.250    0.000    1.500    0.000    5.250 
#    0.000    0.500    0.000    0.000    0.000    0.000 
#
# Total GULP energy -396455.745222 kJ/mol
# GULP energy per Si atom -12389.242038 kJ/mol
# Density = 1.692455 g / cm^3
# Si number density = 16.963161 Si / 1000 Ang^3
#
#
#
# Elastic Constant Matrix: (Units=GPa)
#
#
# Indices 1 2 3 4 5 6 
#
# 1 11.3641 11.0454 12.1962 0.0000 0.0000 0.0000
# 2 11.0454 143.1750 80.7047 0.0000 0.0000 0.0000
# 3 12.1962 80.7047 126.9134 0.0000 0.0000 0.0000
# 4 0.0000 0.0000 0.0000 26.2184 0.0000 0.0000
# 5 0.0000 0.0000 0.0000 0.0000 2.2834 0.0000
# 6 0.0000 0.0000 0.0000 0.0000 0.0000 7.2365
#
#
#
# Elastic Compliance Matrix: (Units=1/GPa)
#
#
# Indices 1 2 3 4 5 6 
#
# 1 0.099263 -0.003555 -0.007278 0.000000 0.000000 0.000000
# 2 -0.003555 0.011014 -0.006662 0.000000 0.000000 0.000000
# 3 -0.007278 -0.006662 0.012815 0.000000 0.000000 0.000000
# 4 0.000000 0.000000 0.000000 0.038141 0.000000 0.000000
# 5 0.000000 0.000000 0.000000 0.000000 0.437952 0.000000
# 6 0.000000 0.000000 0.000000 0.000000 0.000000 0.138189
#
#
# Mechanical properties :
#
#
# Convention : Reuss Voigt Hill
#
# Bulk Modulus (GPa) = 11.35056 54.37167 32.86112
# Shear Modulus (GPa) = 6.23648 18.98140 12.60894
#
# Velocity S-wave (km/s) = 1.91950 3.34874 2.72933
# Velocity P-wave (km/s) = 3.40858 6.86108 5.41724
#
# Compressibility (1/GPa) = 0.08810138
#
# Stress axis : x y z
#
# Youngs Moduli (GPa) = 10.07421 90.79272 78.03122
#
# Poissons Ratio (x) = 0.32278 0.56794
# Poissons Ratio (y) = 0.03582 0.51986
# Poissons Ratio (z) = 0.07332 0.60488
#
# Static dielectric constant tensor:
#      x y z
#    x 2.560590 0.000000 0.000000 
#    y 0.000000 3.641870 0.000000 
#    z 0.000000 0.000000 3.219190 
# 
# 
# High freq. dielectric constant tensor:
#      x y z
#    x 1.584840 0.000000 0.000000 
#    y 0.000000 1.667970 0.000000 
#    z 0.000000 0.000000 1.629730 
# 
# From -- ./inp_files/20225.got.cif
#   From: 2010.03.12/outbox.cif.g09.slc.cpg/sg38_11_cif.got.tgz:20225.got - 2010.04.14 02:38:36.
