data_PCOD8177006
_publ_section_title
;
Structure prediction by ZEFSAII (Michael W. Deem and Ramdas Pophale) SiO2 
 PCOD8177006
Probable space group: C C C 2
;
_chemical_formula_sum "Si O2"
_cell_formula_units_Z 56
_cell_length_a 11.278613
_cell_length_b 15.425034
_cell_length_c 14.823416
_cell_angle_alpha 90.000000
_cell_angle_beta 90.000000
_cell_angle_gamma 90.000000
_cell_volume 2578.873989
_symmetry_space_group_name_H-M "C C C 2"
_symmetry_group_IT_number 37
_symmetry_cell_setting 'orthorhombic'
loop_
_space_group_symop_operation_xyz
x,y,z
-x,-y,z
-x,y,1/2+z
x,-y,1/2+z
1/2+x,1/2+y,z
1/2-x,1/2-y,z
1/2-x,1/2+y,1/2+z
1/2+x,1/2-y,1/2+z
loop_
_atom_site_type_symbol
_atom_site_label
_atom_site_fract_x
_atom_site_fract_y
_atom_site_fract_z
Si Si1 0.533934 0.899752 0.414050
Si Si2 0.983927 0.306277 0.094849
Si Si3 0.221505 0.067287 0.751673
Si Si4 0.500000 0.500000 0.652968
Si Si5 0.342434 0.650495 0.595468
Si Si6 0.250000 0.250000 0.670562
Si Si7 0.781077 0.345570 0.414308
Si Si8 0.152898 0.605803 0.729800
O O1 0.567615 0.865420 0.513567
O O2 0.417734 0.847844 0.387796
O O3 0.632810 0.877424 0.337278
O O4 0.500000 0.000000 0.417708
O O5 0.873484 0.243569 0.116598
O O6 0.092190 0.240459 0.071387
O O7 0.034021 0.368369 0.174890
O O8 0.268445 0.161210 0.723552
O O9 0.213135 0.077323 0.860226
O O10 0.090918 0.049396 0.716901
O O11 0.317566 0.996468 0.718414
O O12 0.434045 0.570788 0.591596
O O13 0.243092 0.634665 0.519299
O O14 0.270870 0.655554 0.691267
O O15 0.750000 0.250000 0.381745
#
# Coordination Sequence:
#
# PCOD8177006 Si02
#       8
#     8   8   8   4   8   4   8   8
#     4  12  26  43  68 112 144 183 241 299 360 432
#     4  12  26  47  72 107 145 191 239 295 368 429
#     4  11  24  44  69 105 141 186 239 296 362 419
#     4  10  24  44  70 102 140 188 238 298 350 430
#     4  11  23  48  74 101 139 196 240 294 363 435
#     4  12  26  42  72 104 142 186 238 306 356 422
#     4  12  22  42  71 104 139 189 241 292 357 437
#     4  11  25  45  74  99 145 187 242 292 359 433
#
# _framework density 21.714903
#
# number of rings (size 3 to 8) (size 9 to 14) (size 15 to 20)
#    0.000    0.571    6.429    1.286    2.000    0.571 
#    2.571    1.429    0.000    0.000    0.000    0.000 
#    0.000    0.000    0.000    0.000    0.000    0.000 
#
# Total GULP energy -346939.426446 kJ/mol
# GULP energy per Si atom -12390.693802 kJ/mol
# Density = 2.166548 g / cm^3
# Si number density = 21.714903 Si / 1000 Ang^3
#
#
#
# Elastic Constant Matrix: (Units=GPa)
#
#
# Indices 1 2 3 4 5 6 
#
# 1 101.1934 40.4210 32.5515 0.0000 0.0000 0.0000
# 2 40.4210 100.9198 31.4209 0.0000 0.0000 0.0000
# 3 32.5515 31.4209 99.5060 0.0000 0.0000 0.0000
# 4 0.0000 0.0000 0.0000 -19.4680 0.0000 0.0000
# 5 0.0000 0.0000 0.0000 0.0000 -22.1280 0.0000
# 6 0.0000 0.0000 0.0000 0.0000 0.0000 43.7791
#
#
#
# Elastic Compliance Matrix: (Units=1/GPa)
#
#
# Indices 1 2 3 4 5 6 
#
# 1 0.012413 -0.004112 -0.002762 0.000000 0.000000 0.000000
# 2 -0.004112 0.012351 -0.002555 0.000000 0.000000 0.000000
# 3 -0.002762 -0.002555 0.011760 0.000000 0.000000 0.000000
# 4 0.000000 0.000000 0.000000 -0.051366 0.000000 0.000000
# 5 0.000000 0.000000 0.000000 0.000000 -0.045192 0.000000
# 6 0.000000 0.000000 0.000000 0.000000 0.000000 0.022842
#
#
# Mechanical properties :
#
#
# Convention : Reuss Voigt Hill
#
# Bulk Modulus (GPa) = 56.60548 56.71178 56.65863
# Shear Modulus (GPa) = -401.78203 13.58498 -194.09852
#
# Velocity S-wave (km/s) = -13.61718 2.50393 -9.46462
# Velocity P-wave (km/s) = 14.86986 5.87646 9.65867
#
# Compressibility (1/GPa) = 0.01766613
#
# Stress axis : x y z
#
# Youngs Moduli (GPa) = 80.56049 80.96374 85.03322
#
# Poissons Ratio (x) = 0.33290 0.23489
# Poissons Ratio (y) = 0.33124 0.21727
# Poissons Ratio (z) = 0.22254 0.20687
#
# Static dielectric constant tensor:
#      x y z
#    x 4.649420 0.000000 0.000000 
#    y 0.000000 4.387340 0.000000 
#    z 0.000000 0.000000 4.043840 
# 
# 
# High freq. dielectric constant tensor:
#      x y z
#    x 1.854790 0.000000 0.000000 
#    y 0.000000 1.863910 0.000000 
#    z 0.000000 0.000000 1.845740 
# 
# From -- ./inp_files/11655.got.cif
#   From: 2010.03.12/outbox.cif.g09.slc.cpg/sg37_6_cif.got.tgz:11655.got - 2010.04.14 02:25:27.
