data_PCOD8177048
_publ_section_title
;
Structure prediction by ZEFSAII (Michael W. Deem and Ramdas Pophale) SiO2 
 PCOD8177048
Probable space group: C C C 2
;
_chemical_formula_sum "Si O2"
_cell_formula_units_Z 60
_cell_length_a 25.853059
_cell_length_b 11.457257
_cell_length_c 8.558108
_cell_angle_alpha 90.000000
_cell_angle_beta 90.000000
_cell_angle_gamma 90.000000
_cell_volume 2534.955589
_symmetry_space_group_name_H-M "C C C 2"
_symmetry_group_IT_number 37
_symmetry_cell_setting 'orthorhombic'
loop_
_space_group_symop_operation_xyz
x,y,z
-x,-y,z
-x,y,1/2+z
x,-y,1/2+z
1/2+x,1/2+y,z
1/2-x,1/2-y,z
1/2-x,1/2+y,1/2+z
1/2+x,1/2-y,1/2+z
loop_
_atom_site_type_symbol
_atom_site_label
_atom_site_fract_x
_atom_site_fract_y
_atom_site_fract_z
Si Si1 0.151274 0.935562 0.422930
Si Si2 0.853319 0.466662 0.779045
Si Si3 0.561550 0.621154 0.687412
Si Si4 0.500000 0.500000 0.932137
Si Si5 0.689949 0.337682 0.000531
Si Si6 0.692758 0.745985 0.151346
Si Si7 0.254473 0.881041 0.275402
Si Si8 0.611226 0.158427 0.080528
O O1 0.113162 0.912205 0.280682
O O2 0.152702 0.832902 0.551916
O O3 0.207956 0.955218 0.348618
O O4 0.144221 0.062875 0.504172
O O5 0.831200 0.375423 0.652750
O O6 0.806339 0.552518 0.829506
O O7 0.894846 0.551613 0.698982
O O8 0.885879 0.396590 0.908045
O O9 0.548842 0.534666 0.541542
O O10 0.563966 0.752489 0.615889
O O11 0.516353 0.608203 0.819274
O O12 0.700936 0.301279 0.825106
O O13 0.743368 0.376310 0.086120
O O14 0.665262 0.230559 0.102458
O O15 0.750000 0.750000 0.074685
O O16 0.250000 0.750000 0.343836
#
# Coordination Sequence:
#
# PCOD8177048 Si02
#       8
#     8   8   8   4   8   8   8   8
#     4  12  24  38  67 102 143 188 249 312 367 443
#     4  11  26  42  63  99 152 209 263 295 358 407
#     4  11  24  50  76 120 141 176 235 298 417 459
#     4  10  26  50  90 112 148 170 214 336 398 508
#     4  11  22  39  58  95 136 201 252 322 345 404
#     4  11  25  38  58  97 143 210 262 310 348 405
#     4  12  23  37  61  93 147 209 261 306 347 403
#     4  11  25  45  68  99 148 196 246 307 356 455
#
# _framework density 23.669053000000002
#
# number of rings (size 3 to 8) (size 9 to 14) (size 15 to 20)
#    0.000    0.800    2.667    4.000   11.200    0.000 
#    2.400    0.000    0.000    2.400    0.000    0.000 
#    0.000    0.000    0.000    0.000    0.000    0.000 
#
# Total GULP energy -371748.261662 kJ/mol
# GULP energy per Si atom -12391.608722 kJ/mol
# Density = 2.361518 g / cm^3
# Si number density = 23.669053 Si / 1000 Ang^3
#
#
#
# Elastic Constant Matrix: (Units=GPa)
#
#
# Indices 1 2 3 4 5 6 
#
# 1 58.5502 33.7511 38.9845 0.0000 0.0000 0.0000
# 2 33.7511 170.2883 54.6265 0.0000 0.0000 0.0000
# 3 38.9845 54.6265 144.0316 0.0000 0.0000 0.0000
# 4 0.0000 0.0000 0.0000 39.0096 0.0000 0.0000
# 5 0.0000 0.0000 0.0000 0.0000 30.0957 0.0000
# 6 0.0000 0.0000 0.0000 0.0000 0.0000 37.1129
#
#
#
# Elastic Compliance Matrix: (Units=1/GPa)
#
#
# Indices 1 2 3 4 5 6 
#
# 1 0.021933 -0.002781 -0.004882 0.000000 0.000000 0.000000
# 2 -0.002781 0.007038 -0.001917 0.000000 0.000000 0.000000
# 3 -0.004882 -0.001917 0.008991 0.000000 0.000000 0.000000
# 4 0.000000 0.000000 0.000000 0.025635 0.000000 0.000000
# 5 0.000000 0.000000 0.000000 0.000000 0.033227 0.000000
# 6 0.000000 0.000000 0.000000 0.000000 0.000000 0.026945
#
#
# Mechanical properties :
#
#
# Convention : Reuss Voigt Hill
#
# Bulk Modulus (GPa) = 53.18159 69.73268 61.45713
# Shear Modulus (GPa) = 33.51291 37.61085 35.56188
#
# Velocity S-wave (km/s) = 3.76692 3.99059 3.88037
# Velocity P-wave (km/s) = 6.43717 7.12450 6.78954
#
# Compressibility (1/GPa) = 0.01880350
#
# Stress axis : x y z
#
# Youngs Moduli (GPa) = 45.59364 142.07645 111.22010
#
# Poissons Ratio (x) = 0.39513 0.54294
# Poissons Ratio (y) = 0.12680 0.21318
# Poissons Ratio (z) = 0.22257 0.27232
#
# Static dielectric constant tensor:
#      x y z
#    x 3.972790 0.000000 0.000000 
#    y 0.000000 4.712220 0.000000 
#    z 0.000000 0.000000 4.413960 
# 
# 
# High freq. dielectric constant tensor:
#      x y z
#    x 1.881610 0.000000 0.000000 
#    y 0.000000 1.948120 0.000000 
#    z 0.000000 0.000000 1.967580 
# 
# From -- ./inp_files/4799.got.cif
#   From: 2010.03.12/outbox.cif.g09.slc.cpg/sg37_3_cif.got.tgz:4799.got - 2010.04.14 02:25:27.
