data_PCOD8177872
_publ_section_title
;
Structure prediction by ZEFSAII (Michael W. Deem and Ramdas Pophale) SiO2 
 PCOD8177872
Probable space group: A M M 2
;
_chemical_formula_sum "Si O2"
_cell_formula_units_Z 64
_cell_length_a 8.918062
_cell_length_b 26.074663
_cell_length_c 18.270731
_cell_angle_alpha 90.000000
_cell_angle_beta 90.000000
_cell_angle_gamma 90.000000
_cell_volume 4248.592861
_symmetry_space_group_name_H-M "A M M 2"
_symmetry_group_IT_number 38
_symmetry_cell_setting 'orthorhombic'
loop_
_space_group_symop_operation_xyz
x,y,z
-x,-y,z
-x,y,z
x,-y,z
x,1/2+y,1/2+z
-x,1/2-y,1/2+z
-x,1/2+y,1/2+z
x,1/2-y,1/2+z
loop_
_atom_site_type_symbol
_atom_site_label
_atom_site_fract_x
_atom_site_fract_y
_atom_site_fract_z
Si Si1 0.831482 0.696557 0.467620
Si Si2 0.823315 0.942743 0.590369
Si Si3 0.826914 0.940435 0.756459
Si Si4 0.673641 0.353046 0.005802
Si Si5 0.677413 0.351482 0.335906
Si Si6 0.177831 0.739624 0.248236
Si Si7 0.323293 0.249279 0.593008
Si Si8 0.165254 0.802494 0.382161
O O1 0.745603 0.655660 0.416930
O O2 0.738911 0.704824 0.542334
O O3 0.839191 0.749290 0.424576
O O4 0.000000 0.676956 0.485172
O O5 0.777086 0.928656 0.673175
O O6 0.753075 0.903878 0.533252
O O7 0.000000 0.940002 0.582765
O O8 0.766349 0.000000 0.571403
O O9 0.720484 0.908346 0.809907
O O10 0.000000 0.924679 0.768278
O O11 0.803525 0.000000 0.774776
O O12 0.500000 0.364039 0.005779
O O13 0.716681 0.305634 0.057824
O O14 0.722768 0.341627 0.922153
O O15 0.500000 0.344586 0.339675
O O16 0.743241 0.311557 0.277315
O O17 0.238689 0.753630 0.169183
O O18 0.217420 0.788619 0.299797
O O19 0.000000 0.729635 0.246647
O O20 0.500000 0.256191 0.603574
O O21 0.000000 0.827603 0.381983
#
# Coordination Sequence:
#
# PCOD8177872 Si02
#       8
#     8   8   8   8   8   8   8   8
#     4   9  17  30  45  60  81 112 146 176 208 251
#     4   9  18  31  45  60  80 109 144 179 211 244
#     4   9  18  32  47  62  82 111 147 182 214 253
#     4  10  19  28  41  61  84 111 140 171 211 254
#     4  11  20  29  43  63  87 114 144 180 220 256
#     4  10  19  30  44  62  84 114 149 178 209 253
#     4  10  19  29  42  64  90 113 140 176 217 255
#     4   8  16  29  43  58  78 107 142 176 206 242
#
# _framework density 15.063810999999999
#
# number of rings (size 3 to 8) (size 9 to 14) (size 15 to 20)
#    0.000    2.500    0.000    4.875    0.000    8.000 
#    0.000    1.250    0.000    0.000    0.000    0.000 
#    0.000    1.000    0.000    8.750    0.000    4.875 
#
# Total GULP energy -396752.548924 kJ/mol
# GULP energy per Si atom -12398.517154 kJ/mol
# Density = 1.502953 g / cm^3
# Si number density = 15.063811 Si / 1000 Ang^3
#
#
#
# Elastic Constant Matrix: (Units=GPa)
#
#
# Indices 1 2 3 4 5 6 
#
# 1 72.9315 33.2312 35.4688 0.0000 0.0000 0.0000
# 2 33.2312 63.5538 40.4263 0.0000 0.0000 0.0000
# 3 35.4688 40.4263 84.3924 0.0000 0.0000 0.0000
# 4 0.0000 0.0000 0.0000 18.7564 0.0000 0.0000
# 5 0.0000 0.0000 0.0000 0.0000 23.5987 0.0000
# 6 0.0000 0.0000 0.0000 0.0000 0.0000 19.4652
#
#
#
# Elastic Compliance Matrix: (Units=1/GPa)
#
#
# Indices 1 2 3 4 5 6 
#
# 1 0.019210 -0.007060 -0.004692 0.000000 0.000000 0.000000
# 2 -0.007060 0.025225 -0.009116 0.000000 0.000000 0.000000
# 3 -0.004692 -0.009116 0.018188 0.000000 0.000000 0.000000
# 4 0.000000 0.000000 0.000000 0.053315 0.000000 0.000000
# 5 0.000000 0.000000 0.000000 0.000000 0.042375 0.000000
# 6 0.000000 0.000000 0.000000 0.000000 0.000000 0.051374
#
#
# Mechanical properties :
#
#
# Convention : Reuss Voigt Hill
#
# Bulk Modulus (GPa) = 47.87633 48.79225 48.33429
# Shear Modulus (GPa) = 19.35085 19.81415 19.58250
#
# Velocity S-wave (km/s) = 3.58801 3.63071 3.60942
# Velocity P-wave (km/s) = 7.00117 7.07367 7.03751
#
# Compressibility (1/GPa) = 0.02088715
#
# Stress axis : x y z
#
# Youngs Moduli (GPa) = 52.05551 39.64280 54.98079
#
# Poissons Ratio (x) = 0.27989 0.25795
# Poissons Ratio (y) = 0.36753 0.50122
# Poissons Ratio (z) = 0.24423 0.36139
#
# Static dielectric constant tensor:
#      x y z
#    x 2.977140 0.000000 0.000000 
#    y 0.000000 2.744630 0.000000 
#    z 0.000000 0.000000 3.027790 
# 
# 
# High freq. dielectric constant tensor:
#      x y z
#    x 1.588660 0.000000 0.000000 
#    y 0.000000 1.541200 0.000000 
#    z 0.000000 0.000000 1.567620 
# 
# From -- ./inp_files/17277.got.cif
#   From: 2010.03.12/outbox.cif.g09.slc.cpg/sg38_9_cif.got.tgz:17277.got - 2010.04.14 02:38:36.
