data_PCOD8177972
_publ_section_title
;
Structure prediction by ZEFSAII (Michael W. Deem and Ramdas Pophale) SiO2 
 PCOD8177972
Probable space group: A M M 2
;
_chemical_formula_sum "Si O2"
_cell_formula_units_Z 56
_cell_length_a 9.062286
_cell_length_b 13.680385
_cell_length_c 28.850040
_cell_angle_alpha 90.000000
_cell_angle_beta 90.000000
_cell_angle_gamma 90.000000
_cell_volume 3576.699907
_symmetry_space_group_name_H-M "A M M 2"
_symmetry_group_IT_number 38
_symmetry_cell_setting 'orthorhombic'
loop_
_space_group_symop_operation_xyz
x,y,z
-x,-y,z
-x,y,z
x,-y,z
x,1/2+y,1/2+z
-x,1/2-y,1/2+z
-x,1/2+y,1/2+z
x,1/2-y,1/2+z
loop_
_atom_site_type_symbol
_atom_site_label
_atom_site_fract_x
_atom_site_fract_y
_atom_site_fract_z
Si Si1 0.669518 0.889899 0.707370
Si Si2 0.836504 0.884186 0.449374
Si Si3 0.330871 0.706593 0.764796
Si Si4 0.328985 0.385164 0.039816
Si Si5 0.174989 0.711852 0.124916
Si Si6 0.825424 0.609456 0.847551
Si Si7 0.672572 0.888376 0.169121
O O1 0.500000 0.877523 0.690879
O O2 0.700819 0.818978 0.750707
O O3 0.771594 0.863298 0.664113
O O4 0.703691 0.000000 0.723499
O O5 0.721993 0.850584 0.488725
O O6 0.779276 0.850368 0.398552
O O7 0.000000 0.841030 0.459960
O O8 0.848620 0.000000 0.447771
O O9 0.500000 0.689604 0.778178
O O10 0.234793 0.683447 0.809441
O O11 0.285163 0.636880 0.722058
O O12 0.500000 0.359549 0.045984
O O13 0.299196 0.500000 0.047262
O O14 0.233186 0.324357 0.075794
O O15 0.235840 0.820673 0.134204
O O16 0.000000 0.714443 0.124239
O O17 0.761810 0.500000 0.839012
O O18 0.000000 0.606711 0.844065
O O19 0.500000 0.867811 0.161173
O O20 0.715020 0.000000 0.158825
#
# Coordination Sequence:
#
# PCOD8177972 Si02
#       7
#     8   8   8   8   8   8   8
#     4   9  18  33  48  61  84 118 153 188 222 257
#     4   8  15  28  43  60  85 115 145 177 215 259
#     4   9  17  28  44  66  87 111 146 182 217 255
#     4  10  19  30  45  65  89 117 148 181 218 262
#     4  11  21  30  44  67  92 117 146 180 220 265
#     4   9  17  28  42  62  90 121 146 171 211 262
#     4   9  18  33  49  64  87 119 152 185 218 253
#
# _framework density 15.656890000000001
#
# number of rings (size 3 to 8) (size 9 to 14) (size 15 to 20)
#    0.000    2.714    0.000    4.286    0.000    6.857 
#    0.000    1.429    0.000    0.000    0.000    1.000 
#    0.000    3.429    0.000    0.000    0.000    0.000 
#
# Total GULP energy -347148.419435 kJ/mol
# GULP energy per Si atom -12398.157837 kJ/mol
# Density = 1.562125 g / cm^3
# Si number density = 15.656890 Si / 1000 Ang^3
#
#
#
# Elastic Constant Matrix: (Units=GPa)
#
#
# Indices 1 2 3 4 5 6 
#
# 1 81.0938 43.2179 57.5287 0.0000 0.0000 0.0000
# 2 43.2179 95.1880 52.3464 0.0000 0.0000 0.0000
# 3 57.5287 52.3464 118.9020 0.0000 0.0000 0.0000
# 4 0.0000 0.0000 0.0000 20.3819 0.0000 0.0000
# 5 0.0000 0.0000 0.0000 0.0000 29.9133 0.0000
# 6 0.0000 0.0000 0.0000 0.0000 0.0000 17.6506
#
#
#
# Elastic Compliance Matrix: (Units=1/GPa)
#
#
# Indices 1 2 3 4 5 6 
#
# 1 0.020482 -0.005080 -0.007674 0.000000 0.000000 0.000000
# 2 -0.005080 0.015121 -0.004199 0.000000 0.000000 0.000000
# 3 -0.007674 -0.004199 0.013972 0.000000 0.000000 0.000000
# 4 0.000000 0.000000 0.000000 0.049063 0.000000 0.000000
# 5 0.000000 0.000000 0.000000 0.000000 0.033430 0.000000
# 6 0.000000 0.000000 0.000000 0.000000 0.000000 0.056655
#
#
# Mechanical properties :
#
#
# Convention : Reuss Voigt Hill
#
# Bulk Modulus (GPa) = 63.81646 66.81887 65.31766
# Shear Modulus (GPa) = 21.94401 23.06187 22.50294
#
# Velocity S-wave (km/s) = 3.74780 3.84207 3.79523
# Velocity P-wave (km/s) = 7.71854 7.90263 7.81113
#
# Compressibility (1/GPa) = 0.01566994
#
# Stress axis : x y z
#
# Youngs Moduli (GPa) = 48.82263 66.13266 71.57235
#
# Poissons Ratio (x) = 0.33592 0.54923
# Poissons Ratio (y) = 0.24800 0.30056
# Poissons Ratio (z) = 0.37465 0.27772
#
# Static dielectric constant tensor:
#      x y z
#    x 2.995910 0.000000 0.000000 
#    y 0.000000 2.913890 0.000000 
#    z 0.000000 0.000000 3.049050 
# 
# 
# High freq. dielectric constant tensor:
#      x y z
#    x 1.601640 0.000000 0.000000 
#    y 0.000000 1.573590 0.000000 
#    z 0.000000 0.000000 1.595280 
# 
# From -- ./inp_files/24632.got.cif
#   From: 2010.03.12/outbox.cif.g09.slc.cpg/sg38_13_cif.got.tgz:24632.got - 2010.04.14 02:38:36.
