data_PCOD8177541
_publ_section_title
;
Structure prediction by ZEFSAII (Michael W. Deem and Ramdas Pophale) SiO2 
 PCOD8177541
Probable space group: A M M 2
;
_chemical_formula_sum "Si O2"
_cell_formula_units_Z 64
_cell_length_a 8.939438
_cell_length_b 30.465202
_cell_length_c 14.464999
_cell_angle_alpha 90.000000
_cell_angle_beta 90.000000
_cell_angle_gamma 90.000000
_cell_volume 3939.423640
_symmetry_space_group_name_H-M "A M M 2"
_symmetry_group_IT_number 38
_symmetry_cell_setting 'orthorhombic'
loop_
_space_group_symop_operation_xyz
x,y,z
-x,-y,z
-x,y,z
x,-y,z
x,1/2+y,1/2+z
-x,1/2-y,1/2+z
-x,1/2+y,1/2+z
x,1/2-y,1/2+z
loop_
_atom_site_type_symbol
_atom_site_label
_atom_site_fract_x
_atom_site_fract_y
_atom_site_fract_z
Si Si1 0.174341 0.217744 0.477510
Si Si2 0.825238 0.950332 0.867930
Si Si3 0.827243 0.861447 0.604907
Si Si4 0.676852 0.797100 0.088926
Si Si5 0.824283 0.727106 0.768859
Si Si6 0.673635 0.817347 0.765765
Si Si7 0.175041 0.452842 0.160790
Si Si8 0.673915 0.130543 0.947021
O O1 0.205316 0.168789 0.516332
O O2 0.259892 0.254365 0.536284
O O3 0.232226 0.215663 0.372034
O O4 0.000000 0.230099 0.481182
O O5 0.761836 0.941997 0.763869
O O6 0.753642 0.916430 0.940805
O O7 0.000000 0.941692 0.871329
O O8 0.786088 0.000000 0.899117
O O9 0.710034 0.850876 0.684853
O O10 0.793179 0.913467 0.587471
O O11 0.000000 0.855345 0.637127
O O12 0.500000 0.790835 0.092205
O O13 0.741760 0.802533 0.192214
O O14 0.722080 0.842288 0.037869
O O15 0.781573 0.776743 0.746601
O O16 0.000000 0.720009 0.758132
O O17 0.500000 0.803155 0.763685
O O18 0.719904 0.838529 0.862170
O O19 0.241431 0.500000 0.125476
O O20 0.000000 0.458951 0.174259
O O21 0.500000 0.120526 0.946182
#
# Coordination Sequence:
#
# PCOD8177541 Si02
#       8
#     8   8   8   8   8   8   8   8
#     4  10  21  33  48  71  96 125 164 203 242 290
#     4   9  17  29  47  72  98 126 161 197 238 290
#     4  10  18  30  48  70  94 127 164 197 234 284
#     4  11  22  35  50  70  96 127 166 206 241 288
#     4  11  22  35  48  67  96 129 166 205 244 286
#     4  11  20  30  45  68  97 128 162 198 238 284
#     4   8  14  25  43  68  96 123 153 191 234 282
#     4  10  21  33  46  69  99 130 165 199 241 288
#
# _framework density 16.246030999999999
#
# number of rings (size 3 to 8) (size 9 to 14) (size 15 to 20)
#    0.000    2.000    3.750    1.875    0.000    2.250 
#    0.000    0.000    0.000    0.375    0.000    0.875 
#    0.000    3.000    0.000    0.000    0.000    0.000 
#
# Total GULP energy -396596.958254 kJ/mol
# GULP energy per Si atom -12393.654945 kJ/mol
# Density = 1.620905 g / cm^3
# Si number density = 16.246031 Si / 1000 Ang^3
#
#
#
# Elastic Constant Matrix: (Units=GPa)
#
#
# Indices 1 2 3 4 5 6 
#
# 1 38.1478 27.0965 29.6957 0.0000 0.0000 0.0000
# 2 27.0965 110.1368 34.3791 0.0000 0.0000 0.0000
# 3 29.6957 34.3791 80.1146 0.0000 0.0000 0.0000
# 4 0.0000 0.0000 0.0000 21.6582 0.0000 0.0000
# 5 0.0000 0.0000 0.0000 0.0000 20.4728 0.0000
# 6 0.0000 0.0000 0.0000 0.0000 0.0000 18.6895
#
#
#
# Elastic Compliance Matrix: (Units=1/GPa)
#
#
# Indices 1 2 3 4 5 6 
#
# 1 0.040031 -0.006024 -0.012253 0.000000 0.000000 0.000000
# 2 -0.006024 0.011390 -0.002655 0.000000 0.000000 0.000000
# 3 -0.012253 -0.002655 0.018163 0.000000 0.000000 0.000000
# 4 0.000000 0.000000 0.000000 0.046172 0.000000 0.000000
# 5 0.000000 0.000000 0.000000 0.000000 0.048845 0.000000
# 6 0.000000 0.000000 0.000000 0.000000 0.000000 0.053506
#
#
# Mechanical properties :
#
#
# Convention : Reuss Voigt Hill
#
# Bulk Modulus (GPa) = 36.07428 45.63798 40.85613
# Shear Modulus (GPa) = 18.57272 21.31262 19.94267
#
# Velocity S-wave (km/s) = 3.38482 3.62590 3.50743
# Velocity P-wave (km/s) = 6.12610 6.75887 6.45025
#
# Compressibility (1/GPa) = 0.02772058
#
# Stress axis : x y z
#
# Youngs Moduli (GPa) = 24.98073 87.79311 55.05625
#
# Poissons Ratio (x) = 0.52885 0.67461
# Poissons Ratio (y) = 0.15048 0.14618
# Poissons Ratio (z) = 0.30609 0.23310
#
# Static dielectric constant tensor:
#      x y z
#    x 2.954950 0.000000 0.000000 
#    y 0.000000 3.199290 0.000000 
#    z 0.000000 0.000000 3.109670 
# 
# 
# High freq. dielectric constant tensor:
#      x y z
#    x 1.617320 0.000000 0.000000 
#    y 0.000000 1.621450 0.000000 
#    z 0.000000 0.000000 1.597520 
# 
# From -- ./inp_files/13050.got.cif
#   From: 2010.03.12/outbox.cif.g09.slc.cpg/sg38_7_cif.got.tgz:13050.got - 2010.04.14 02:38:36.
