data_PCOD8177309
_publ_section_title
;
Structure prediction by ZEFSAII (Michael W. Deem and Ramdas Pophale) SiO2 
 PCOD8177309
Probable space group: A M M 2
;
_chemical_formula_sum "Si O2"
_cell_formula_units_Z 48
_cell_length_a 8.289679
_cell_length_b 14.687229
_cell_length_c 20.676257
_cell_angle_alpha 90.000000
_cell_angle_beta 90.000000
_cell_angle_gamma 90.000000
_cell_volume 2517.384198
_symmetry_space_group_name_H-M "A M M 2"
_symmetry_group_IT_number 38
_symmetry_cell_setting 'orthorhombic'
loop_
_space_group_symop_operation_xyz
x,y,z
-x,-y,z
-x,y,z
x,-y,z
x,1/2+y,1/2+z
-x,1/2-y,1/2+z
-x,1/2+y,1/2+z
x,1/2-y,1/2+z
loop_
_atom_site_type_symbol
_atom_site_label
_atom_site_fract_x
_atom_site_fract_y
_atom_site_fract_z
Si Si1 0.691767 0.810064 0.135390
Si Si2 0.186254 0.500000 0.296546
Si Si3 0.692257 0.000000 0.333951
Si Si4 0.308081 0.806031 0.374057
Si Si5 0.691840 0.687238 0.252482
Si Si6 0.307696 0.500000 0.688114
Si Si7 0.692519 0.311274 0.491580
Si Si8 0.688010 0.000000 0.938721
O O1 0.500000 0.813070 0.138092
O O2 0.754069 0.735860 0.186889
O O3 0.759462 0.910220 0.152566
O O4 0.752775 0.784486 0.063361
O O5 0.229243 0.412005 0.254018
O O6 0.288655 0.500000 0.362014
O O7 0.000000 0.500000 0.315225
O O8 0.758043 0.909351 0.369451
O O9 0.757689 0.000000 0.261047
O O10 0.500000 0.000000 0.333558
O O11 0.500000 0.806334 0.372834
O O12 0.246710 0.746409 0.313470
O O13 0.241530 0.763240 0.440737
O O14 0.500000 0.677549 0.253411
O O15 0.500000 0.500000 0.687772
O O16 0.500000 0.314339 0.488683
O O17 0.763983 0.409842 0.471233
O O18 0.500000 0.000000 0.953297
#
# Coordination Sequence:
#
# PCOD8177309 Si02
#       8
#     8   4   4   8   8   4   8   4
#     4   9  16  25  42  72 106 132 159 197 246 302
#     4  12  24  35  50  74 100 127 174 226 255 289
#     4   9  14  21  35  61  91 119 151 190 229 275
#     4   9  15  24  41  65  97 130 159 192 237 293
#     4  10  18  32  52  72  98 133 168 203 250 306
#     4   9  13  20  36  63  97 122 147 190 238 282
#     4   9  16  25  41  70 103 131 158 196 246 296
#     4  10  17  30  53  76 106 136 162 202 258 312
#
# _framework density 19.067411
#
# number of rings (size 3 to 8) (size 9 to 14) (size 15 to 20)
#    0.000    2.500    3.333    1.250    0.000    2.000 
#    0.000    0.833    0.000    5.000    0.000    2.333 
#    0.000    0.000    0.000    0.000    0.000    0.000 
#
# Total GULP energy -297511.693773 kJ/mol
# GULP energy per Si atom -12396.320574 kJ/mol
# Density = 1.902401 g / cm^3
# Si number density = 19.067411 Si / 1000 Ang^3
#
#
#
# Elastic Constant Matrix: (Units=GPa)
#
#
# Indices 1 2 3 4 5 6 
#
# 1 8.7752 7.1426 1.2850 0.0000 0.0000 0.0000
# 2 7.1426 181.0077 99.3767 0.0000 0.0000 0.0000
# 3 1.2850 99.3767 183.8425 0.0000 0.0000 0.0000
# 4 0.0000 0.0000 0.0000 36.2224 0.0000 0.0000
# 5 0.0000 0.0000 0.0000 0.0000 0.6337 0.0000
# 6 0.0000 0.0000 0.0000 0.0000 0.0000 -0.7773
#
#
#
# Elastic Compliance Matrix: (Units=1/GPa)
#
#
# Indices 1 2 3 4 5 6 
#
# 1 0.118490 -0.006002 0.002416 0.000000 0.000000 0.000000
# 2 -0.006002 0.008160 -0.004369 0.000000 0.000000 0.000000
# 3 0.002416 -0.004369 0.007784 0.000000 0.000000 0.000000
# 4 0.000000 0.000000 0.000000 0.027607 0.000000 0.000000
# 5 0.000000 0.000000 0.000000 0.000000 1.578153 0.000000
# 6 0.000000 0.000000 0.000000 0.000000 0.000000 -1.286562
#
#
# Mechanical properties :
#
#
# Convention : Reuss Voigt Hill
#
# Bulk Modulus (GPa) = 8.43710 65.47046 36.95378
# Shear Modulus (GPa) = 9.82220 24.93715 17.37967
#
# Velocity S-wave (km/s) = 2.27211 3.62033 3.02236
# Velocity P-wave (km/s) = 3.36419 7.20323 5.62158
#
# Compressibility (1/GPa) = 0.11852413
#
# Stress axis : x y z
#
# Youngs Moduli (GPa) = 8.43955 122.54632 128.46430
#
# Poissons Ratio (x) = 0.73556 -0.31042
# Poissons Ratio (y) = 0.05066 0.56127
# Poissons Ratio (z) = -0.02039 0.53541
#
# Static dielectric constant tensor:
#      x y z
#    x 2.706340 0.000000 0.000000 
#    y 0.000000 3.782090 0.000000 
#    z 0.000000 0.000000 3.687080 
# 
# 
# High freq. dielectric constant tensor:
#      x y z
#    x 1.668540 0.000000 0.000000 
#    y 0.000000 1.748570 0.000000 
#    z 0.000000 0.000000 1.741500 
# 
# From -- ./inp_files/16773.got.cif
#   From: 2010.03.12/outbox.cif.g09.slc.cpg/sg38_9_cif.got.tgz:16773.got - 2010.04.14 02:38:36.
