data_PCOD8177099
_publ_section_title
;
Structure prediction by ZEFSAII (Michael W. Deem and Ramdas Pophale) SiO2 
 PCOD8177099
Probable space group: C C C 2
;
_chemical_formula_sum "Si O2"
_cell_formula_units_Z 60
_cell_length_a 8.999325
_cell_length_b 23.201881
_cell_length_c 13.283407
_cell_angle_alpha 90.000000
_cell_angle_beta 90.000000
_cell_angle_gamma 90.000000
_cell_volume 2773.592221
_symmetry_space_group_name_H-M "C C C 2"
_symmetry_group_IT_number 37
_symmetry_cell_setting 'orthorhombic'
loop_
_space_group_symop_operation_xyz
x,y,z
-x,-y,z
-x,y,1/2+z
x,-y,1/2+z
1/2+x,1/2+y,z
1/2-x,1/2-y,z
1/2-x,1/2+y,1/2+z
1/2+x,1/2-y,1/2+z
loop_
_atom_site_type_symbol
_atom_site_label
_atom_site_fract_x
_atom_site_fract_y
_atom_site_fract_z
Si Si1 0.469441 0.151957 0.921470
Si Si2 0.750000 0.750000 0.902354
Si Si3 0.585957 0.444842 0.243370
Si Si4 0.251608 0.684778 0.792088
Si Si5 0.587451 0.945706 0.779618
Si Si6 0.542466 0.656208 0.891696
Si Si7 0.057674 0.563419 0.577718
Si Si8 0.363075 0.612747 0.602309
O O1 0.364462 0.205204 0.959673
O O2 0.597231 0.170989 0.845969
O O3 0.374680 0.103880 0.859755
O O4 0.525629 0.115427 0.017640
O O5 0.642910 0.707215 0.839882
O O6 0.500000 0.500000 0.282378
O O7 0.757377 0.462955 0.225056
O O8 0.575537 0.402492 0.336713
O O9 0.509624 0.420499 0.141839
O O10 0.250000 0.750000 0.755306
O O11 0.372028 0.673966 0.879532
O O12 0.289388 0.648891 0.692522
O O13 0.477086 0.923560 0.693533
O O14 0.500000 0.000000 0.830933
O O15 0.582926 0.653204 0.010374
O O16 0.236753 0.568475 0.562533
O O17 0.000000 0.500000 0.544805
#
# Coordination Sequence:
#
# PCOD8177099 Si02
#       8
#     8   4   8   8   8   8   8   8
#     4  12  24  43  71  96 136 179 226 287 343 408
#     4  12  22  44  70  96 134 174 230 276 336 404
#     4  11  24  43  66 100 139 181 227 287 347 416
#     4  11  25  44  68  99 135 182 230 287 344 415
#     4  11  23  42  66  99 134 174 228 280 347 415
#     4  11  25  44  69  97 136 180 233 280 346 409
#     4  11  23  41  66 101 133 177 228 278 345 415
#     4  11  24  45  66 100 136 184 225 282 357 408
#
# _framework density 21.632594999999998
#
# number of rings (size 3 to 8) (size 9 to 14) (size 15 to 20)
#    0.000    0.800    5.333    2.000    4.667    0.533 
#    0.000    0.000    7.333    0.000    0.000    0.000 
#    0.000    0.000    0.000    0.000    0.000    0.000 
#
# Total GULP energy -371655.838477 kJ/mol
# GULP energy per Si atom -12388.527949 kJ/mol
# Density = 2.158336 g / cm^3
# Si number density = 21.632595 Si / 1000 Ang^3
#
#
#
# Elastic Constant Matrix: (Units=GPa)
#
#
# Indices 1 2 3 4 5 6 
#
# 1 135.7853 48.1259 24.3084 0.0000 0.0000 0.0000
# 2 48.1259 153.8468 38.7006 0.0000 0.0000 0.0000
# 3 24.3084 38.7006 88.2261 0.0000 0.0000 0.0000
# 4 0.0000 0.0000 0.0000 16.0054 0.0000 0.0000
# 5 0.0000 0.0000 0.0000 0.0000 27.4484 0.0000
# 6 0.0000 0.0000 0.0000 0.0000 0.0000 40.8840
#
#
#
# Elastic Compliance Matrix: (Units=1/GPa)
#
#
# Indices 1 2 3 4 5 6 
#
# 1 0.008415 -0.002303 -0.001308 0.000000 0.000000 0.000000
# 2 -0.002303 0.007937 -0.002847 0.000000 0.000000 0.000000
# 3 -0.001308 -0.002847 0.012944 0.000000 0.000000 0.000000
# 4 0.000000 0.000000 0.000000 0.062479 0.000000 0.000000
# 5 0.000000 0.000000 0.000000 0.000000 0.036432 0.000000
# 6 0.000000 0.000000 0.000000 0.000000 0.000000 0.024459
#
#
# Mechanical properties :
#
#
# Convention : Reuss Voigt Hill
#
# Bulk Modulus (GPa) = 61.05452 66.68087 63.86770
# Shear Modulus (GPa) = 29.23258 34.64912 31.94085
#
# Velocity S-wave (km/s) = 3.68002 4.00648 3.84671
# Velocity P-wave (km/s) = 6.80745 7.23144 7.02264
#
# Compressibility (1/GPa) = 0.01637880
#
# Stress axis : x y z
#
# Youngs Moduli (GPa) = 118.83377 125.99848 77.25760
#
# Poissons Ratio (x) = 0.29021 0.10107
# Poissons Ratio (y) = 0.27371 0.21994
# Poissons Ratio (z) = 0.15546 0.35869
#
# Static dielectric constant tensor:
#      x y z
#    x 4.178090 0.000000 0.000000 
#    y 0.000000 4.167610 0.000000 
#    z 0.000000 0.000000 3.634890 
# 
# 
# High freq. dielectric constant tensor:
#      x y z
#    x 1.864850 0.000000 0.000000 
#    y 0.000000 1.861800 0.000000 
#    z 0.000000 0.000000 1.825610 
# 
# From -- ./inp_files/10937.got.cif
#   From: 2010.03.12/outbox.cif.g09.slc.cpg/sg37_6_cif.got.tgz:10937.got - 2010.04.14 02:25:27.
