data_PCOD8177552
_publ_section_title
;
Structure prediction by ZEFSAII (Michael W. Deem and Ramdas Pophale) SiO2 
 PCOD8177552
Probable space group: A M M 2
;
_chemical_formula_sum "Si O2"
_cell_formula_units_Z 64
_cell_length_a 19.223947
_cell_length_b 9.096136
_cell_length_c 20.010029
_cell_angle_alpha 90.000000
_cell_angle_beta 90.000000
_cell_angle_gamma 90.000000
_cell_volume 3499.026435
_symmetry_space_group_name_H-M "A M M 2"
_symmetry_group_IT_number 38
_symmetry_cell_setting 'orthorhombic'
loop_
_space_group_symop_operation_xyz
x,y,z
-x,-y,z
-x,y,z
x,-y,z
x,1/2+y,1/2+z
-x,1/2-y,1/2+z
-x,1/2+y,1/2+z
x,1/2-y,1/2+z
loop_
_atom_site_type_symbol
_atom_site_label
_atom_site_fract_x
_atom_site_fract_y
_atom_site_fract_z
Si Si1 0.641853 0.329424 0.391360
Si Si2 0.418420 0.166571 0.269909
Si Si3 0.788580 0.173341 0.695576
Si Si4 0.791996 0.330901 0.347685
Si Si5 0.076603 0.834175 0.197169
Si Si6 0.659373 0.671441 0.635205
Si Si7 0.075417 0.665636 0.855933
Si Si8 0.580894 0.172403 0.516700
O O1 0.623805 0.500000 0.403976
O O2 0.616603 0.284796 0.317974
O O3 0.724956 0.302939 0.394114
O O4 0.602653 0.227206 0.443662
O O5 0.500000 0.189717 0.272135
O O6 0.393482 0.200857 0.195400
O O7 0.397921 0.000000 0.290911
O O8 0.777545 0.227202 0.772271
O O9 0.864909 0.222972 0.669656
O O10 0.732836 0.253142 0.649218
O O11 0.780099 0.000000 0.687468
O O12 0.811172 0.500000 0.341728
O O13 0.858442 0.255683 0.383268
O O14 0.075856 0.827191 0.276599
O O15 0.000000 0.787366 0.170191
O O16 0.094046 0.000000 0.173742
O O17 0.671792 0.500000 0.622088
O O18 0.626570 0.741149 0.569607
O O19 0.084159 0.500000 0.881582
O O20 0.000000 0.727442 0.881226
O O21 0.500000 0.207554 0.528167
O O22 0.595956 0.000000 0.522084
#
# Coordination Sequence:
#
# PCOD8177552 Si02
#       8
#     8   8   8   8   8   8   8   8
#     4  11  22  37  56  80 109 141 179 220 266 320
#     4  10  21  36  55  80 107 135 172 217 266 322
#     4  10  18  30  48  74 109 142 178 222 268 318
#     4   9  18  30  46  72 106 140 175 216 261 311
#     4   8  14  25  41  65 100 140 180 219 262 313
#     4  11  22  37  58  81 107 141 180 222 271 325
#     4   8  14  24  40  65  98 136 176 215 257 306
#     4  11  25  43  60  79 106 139 178 225 275 327
#
# _framework density 18.290803
#
# number of rings (size 3 to 8) (size 9 to 14) (size 15 to 20)
#    0.000    2.250    1.250    3.000    0.000    5.750 
#    0.000    2.500    0.000    0.000    0.000    0.875 
#    0.000    3.000    0.000    0.000    0.000    0.000 
#
# Total GULP energy -396744.275714 kJ/mol
# GULP energy per Si atom -12398.258616 kJ/mol
# Density = 1.824917 g / cm^3
# Si number density = 18.290803 Si / 1000 Ang^3
#
#
#
# Elastic Constant Matrix: (Units=GPa)
#
#
# Indices 1 2 3 4 5 6 
#
# 1 102.4582 50.7775 9.4816 0.0000 0.0000 0.0000
# 2 50.7775 82.4942 21.3345 0.0000 0.0000 0.0000
# 3 9.4816 21.3345 30.7434 0.0000 0.0000 0.0000
# 4 0.0000 0.0000 0.0000 24.4660 0.0000 0.0000
# 5 0.0000 0.0000 0.0000 0.0000 18.7172 0.0000
# 6 0.0000 0.0000 0.0000 0.0000 0.0000 36.1028
#
#
#
# Elastic Compliance Matrix: (Units=1/GPa)
#
#
# Indices 1 2 3 4 5 6 
#
# 1 0.014149 -0.009239 0.002048 0.000000 0.000000 0.000000
# 2 -0.009239 0.020806 -0.011589 0.000000 0.000000 0.000000
# 3 0.002048 -0.011589 0.039938 0.000000 0.000000 0.000000
# 4 0.000000 0.000000 0.000000 0.040873 0.000000 0.000000
# 5 0.000000 0.000000 0.000000 0.000000 0.053427 0.000000
# 6 0.000000 0.000000 0.000000 0.000000 0.000000 0.027699
#
#
# Mechanical properties :
#
#
# Convention : Reuss Voigt Hill
#
# Bulk Modulus (GPa) = 26.78620 42.09811 34.44216
# Shear Modulus (GPa) = 20.25139 24.79733 22.52436
#
# Velocity S-wave (km/s) = 3.33106 3.68601 3.51302
# Velocity P-wave (km/s) = 5.42872 6.41729 5.94359
#
# Compressibility (1/GPa) = 0.03733265
#
# Stress axis : x y z
#
# Youngs Moduli (GPa) = 70.67492 48.06322 25.03880
#
# Poissons Ratio (x) = 0.44405 -0.05127
# Poissons Ratio (y) = 0.65295 0.29017
# Poissons Ratio (z) = -0.14471 0.55700
#
# Static dielectric constant tensor:
#      x y z
#    x 3.802410 0.000000 0.000000 
#    y 0.000000 3.422750 0.000000 
#    z 0.000000 0.000000 2.932150 
# 
# 
# High freq. dielectric constant tensor:
#      x y z
#    x 1.728350 0.000000 0.000000 
#    y 0.000000 1.713240 0.000000 
#    z 0.000000 0.000000 1.658480 
# 
# From -- ./inp_files/21431.got.cif
#   From: 2010.03.12/outbox.cif.g09.slc.cpg/sg38_11_cif.got.tgz:21431.got - 2010.04.14 02:38:36.
