data_PCOD8177750
_publ_section_title
;
Structure prediction by ZEFSAII (Michael W. Deem and Ramdas Pophale) SiO2 
 PCOD8177750
Probable space group: A M M 2
;
_chemical_formula_sum "Si O2"
_cell_formula_units_Z 64
_cell_length_a 19.866805
_cell_length_b 8.926852
_cell_length_c 20.057870
_cell_angle_alpha 90.000000
_cell_angle_beta 90.000000
_cell_angle_gamma 90.000000
_cell_volume 3557.223689
_symmetry_space_group_name_H-M "A M M 2"
_symmetry_group_IT_number 38
_symmetry_cell_setting 'orthorhombic'
loop_
_space_group_symop_operation_xyz
x,y,z
-x,-y,z
-x,y,z
x,-y,z
x,1/2+y,1/2+z
-x,1/2-y,1/2+z
-x,1/2+y,1/2+z
x,1/2-y,1/2+z
loop_
_atom_site_type_symbol
_atom_site_label
_atom_site_fract_x
_atom_site_fract_y
_atom_site_fract_z
Si Si1 0.180073 0.823778 0.942990
Si Si2 0.206272 0.825936 0.797432
Si Si3 0.325202 0.177022 0.989501
Si Si4 0.838307 0.327960 0.155254
Si Si5 0.314566 0.823937 0.625511
Si Si6 0.924574 0.677661 0.549053
Si Si7 0.342678 0.676720 0.759927
Si Si8 0.422456 0.672875 0.370870
O O1 0.167154 0.782746 0.865400
O O2 0.180018 0.000000 0.953120
O O3 0.252436 0.761609 0.965955
O O4 0.120677 0.754764 0.988659
O O5 0.157435 0.795892 0.734681
O O6 0.273189 0.728210 0.793474
O O7 0.229177 0.000000 0.798162
O O8 0.345480 0.257582 0.058035
O O9 0.324612 0.000000 0.001291
O O10 0.379648 0.225104 0.934702
O O11 0.854118 0.500000 0.139194
O O12 0.764440 0.283057 0.129307
O O13 0.893978 0.227131 0.119708
O O14 0.353069 0.749842 0.687492
O O15 0.326480 0.000000 0.628758
O O16 0.925655 0.500000 0.547117
O O17 0.000000 0.741906 0.541577
O O18 0.343060 0.500000 0.751923
O O19 0.403707 0.728352 0.806842
O O20 0.500000 0.699401 0.388497
O O21 0.406901 0.500000 0.354202
#
# Coordination Sequence:
#
# PCOD8177750 Si02
#       8
#     8   8   8   8   8   8   8   8
#     4   9  16  30  53  77 103 134 174 218 260 313
#     4   9  17  33  54  77 104 135 173 220 270 315
#     4  10  18  32  56  82 107 139 177 220 270 322
#     4   9  18  31  50  75 102 132 171 217 265 314
#     4  10  20  34  54  80 109 138 177 226 271 316
#     4  10  20  33  50  73 103 140 177 215 265 323
#     4  11  21  33  53  81 110 140 178 222 266 318
#     4  10  21  38  58  79 108 146 181 216 269 330
#
# _framework density 17.99156
#
# number of rings (size 3 to 8) (size 9 to 14) (size 15 to 20)
#    0.000    2.250    2.500    2.250    0.000    3.000 
#    0.000    1.875    0.000    4.500    0.000    0.000 
#    0.000    0.000    0.000    0.000    0.000    0.000 
#
# Total GULP energy -396818.613722 kJ/mol
# GULP energy per Si atom -12400.581679 kJ/mol
# Density = 1.795061 g / cm^3
# Si number density = 17.991560 Si / 1000 Ang^3
#
#
#
# Elastic Constant Matrix: (Units=GPa)
#
#
# Indices 1 2 3 4 5 6 
#
# 1 103.7072 31.8219 67.1567 0.0000 0.0000 0.0000
# 2 31.8219 59.9580 44.7470 0.0000 0.0000 0.0000
# 3 67.1567 44.7470 162.3353 0.0000 0.0000 0.0000
# 4 0.0000 0.0000 0.0000 30.8062 0.0000 0.0000
# 5 0.0000 0.0000 0.0000 0.0000 26.2666 0.0000
# 6 0.0000 0.0000 0.0000 0.0000 0.0000 18.6461
#
#
#
# Elastic Compliance Matrix: (Units=1/GPa)
#
#
# Indices 1 2 3 4 5 6 
#
# 1 0.013849 -0.003871 -0.004662 0.000000 0.000000 0.000000
# 2 -0.003871 0.022080 -0.004485 0.000000 0.000000 0.000000
# 3 -0.004662 -0.004485 0.009325 0.000000 0.000000 0.000000
# 4 0.000000 0.000000 0.000000 0.032461 0.000000 0.000000
# 5 0.000000 0.000000 0.000000 0.000000 0.038071 0.000000
# 6 0.000000 0.000000 0.000000 0.000000 0.000000 0.053630
#
#
# Mechanical properties :
#
#
# Convention : Reuss Voigt Hill
#
# Bulk Modulus (GPa) = 52.03409 68.16128 60.09769
# Shear Modulus (GPa) = 24.76973 27.29545 26.03259
#
# Velocity S-wave (km/s) = 3.71447 3.89926 3.80798
# Velocity P-wave (km/s) = 6.88336 7.63149 7.26706
#
# Compressibility (1/GPa) = 0.01921817
#
# Stress axis : x y z
#
# Youngs Moduli (GPa) = 72.20484 45.29023 107.23707
#
# Poissons Ratio (x) = 0.17531 0.49999
# Poissons Ratio (y) = 0.27949 0.48094
# Poissons Ratio (z) = 0.33665 0.20312
#
# Static dielectric constant tensor:
#      x y z
#    x 3.203800 0.000000 0.000000 
#    y 0.000000 3.099850 0.000000 
#    z 0.000000 0.000000 3.541360 
# 
# 
# High freq. dielectric constant tensor:
#      x y z
#    x 1.667350 0.000000 0.000000 
#    y 0.000000 1.678070 0.000000 
#    z 0.000000 0.000000 1.712450 
# 
# From -- ./inp_files/21346.got.cif
#   From: 2010.03.12/outbox.cif.g09.slc.cpg/sg38_11_cif.got.tgz:21346.got - 2010.04.14 02:38:36.
