data_PCOD8177418
_publ_section_title
;
Structure prediction by ZEFSAII (Michael W. Deem and Ramdas Pophale) SiO2 
 PCOD8177418
Probable space group: A M M 2
;
_chemical_formula_sum "Si O2"
_cell_formula_units_Z 64
_cell_length_a 14.241271
_cell_length_b 9.127048
_cell_length_c 31.091954
_cell_angle_alpha 90.000000
_cell_angle_beta 90.000000
_cell_angle_gamma 90.000000
_cell_volume 4041.355935
_symmetry_space_group_name_H-M "A M M 2"
_symmetry_group_IT_number 38
_symmetry_cell_setting 'orthorhombic'
loop_
_space_group_symop_operation_xyz
x,y,z
-x,-y,z
-x,y,z
x,-y,z
x,1/2+y,1/2+z
-x,1/2-y,1/2+z
-x,1/2+y,1/2+z
x,1/2-y,1/2+z
loop_
_atom_site_type_symbol
_atom_site_label
_atom_site_fract_x
_atom_site_fract_y
_atom_site_fract_z
Si Si1 0.389695 0.330178 0.723370
Si Si2 0.106254 0.669192 0.012436
Si Si3 0.388489 0.837187 0.806824
Si Si4 0.604541 0.825665 0.900876
Si Si5 0.702579 0.674215 0.144102
Si Si6 0.609416 0.330840 0.565181
Si Si7 0.278083 0.826886 0.980717
Si Si8 0.101987 0.826300 0.609327
O O1 0.500000 0.301405 0.716694
O O2 0.364843 0.500000 0.718886
O O3 0.355283 0.275030 0.770077
O O4 0.333188 0.239531 0.688395
O O5 0.135577 0.500000 0.010711
O O6 0.117203 0.731732 0.060864
O O7 0.000000 0.691457 0.996091
O O8 0.174254 0.759768 0.981434
O O9 0.500000 0.845672 0.808654
O O10 0.354072 0.781114 0.853833
O O11 0.348507 0.000000 0.796669
O O12 0.500000 0.760326 0.907538
O O13 0.670870 0.762961 0.938369
O O14 0.598997 0.000000 0.903591
O O15 0.693580 0.500000 0.145368
O O16 0.640013 0.732451 0.105124
O O17 0.811246 0.726161 0.138669
O O18 0.500000 0.307055 0.556264
O O19 0.631232 0.500000 0.576146
O O20 0.664006 0.278102 0.522779
O O21 0.270005 0.000000 0.978119
O O22 0.000000 0.769298 0.626898
O O23 0.099017 0.000000 0.607150
#
# Coordination Sequence:
#
# PCOD8177418 Si02
#       8
#     8   8   8   8   8   8   8   8
#     4  10  20  32  45  63  92 124 149 179 224 272
#     4   9  17  31  48  63  85 118 152 188 231 272
#     4   8  14  27  47  67  86 112 151 192 222 256
#     4   8  14  26  45  68  93 121 151 183 221 264
#     4  11  20  30  47  67  86 114 154 191 220 258
#     4  10  20  31  41  58  91 129 155 176 211 260
#     4  10  18  28  45  68  92 119 152 187 221 261
#     4   8  15  29  47  64  83 110 145 186 229 266
#
# _framework density 15.836269
#
# number of rings (size 3 to 8) (size 9 to 14) (size 15 to 20)
#    0.000    2.750    1.250    3.000    0.000    4.250 
#    0.000    0.625    0.000    3.375    0.000    0.875 
#    0.000    3.000    0.000    0.000    0.000    0.000 
#
# Total GULP energy -396661.932270 kJ/mol
# GULP energy per Si atom -12395.685383 kJ/mol
# Density = 1.580022 g / cm^3
# Si number density = 15.836269 Si / 1000 Ang^3
#
#
#
# Elastic Constant Matrix: (Units=GPa)
#
#
# Indices 1 2 3 4 5 6 
#
# 1 86.6920 30.3723 50.7040 0.0000 0.0000 0.0000
# 2 30.3723 41.6542 35.4180 0.0000 0.0000 0.0000
# 3 50.7040 35.4180 116.4395 0.0000 0.0000 0.0000
# 4 0.0000 0.0000 0.0000 20.6064 0.0000 0.0000
# 5 0.0000 0.0000 0.0000 0.0000 11.4297 0.0000
# 6 0.0000 0.0000 0.0000 0.0000 0.0000 21.0431
#
#
#
# Elastic Compliance Matrix: (Units=1/GPa)
#
#
# Indices 1 2 3 4 5 6 
#
# 1 0.017429 -0.008437 -0.005023 0.000000 0.000000 0.000000
# 2 -0.008437 0.036467 -0.007418 0.000000 0.000000 0.000000
# 3 -0.005023 -0.007418 0.013032 0.000000 0.000000 0.000000
# 4 0.000000 0.000000 0.000000 0.048529 0.000000 0.000000
# 5 0.000000 0.000000 0.000000 0.000000 0.087491 0.000000
# 6 0.000000 0.000000 0.000000 0.000000 0.000000 0.047521
#
#
# Mechanical properties :
#
#
# Convention : Reuss Voigt Hill
#
# Bulk Modulus (GPa) = 39.72909 53.08605 46.40757
# Shear Modulus (GPa) = 16.63246 19.16859 17.90053
#
# Velocity S-wave (km/s) = 3.24431 3.48289 3.36572
# Velocity P-wave (km/s) = 6.25907 7.05469 6.66875
#
# Compressibility (1/GPa) = 0.02517048
#
# Stress axis : x y z
#
# Youngs Moduli (GPa) = 57.37582 27.42208 76.73461
#
# Poissons Ratio (x) = 0.23137 0.38544
# Poissons Ratio (y) = 0.48410 0.56924
# Poissons Ratio (z) = 0.28820 0.20343
#
# Static dielectric constant tensor:
#      x y z
#    x 3.092510 0.000000 0.000000 
#    y 0.000000 2.824070 0.000000 
#    z 0.000000 0.000000 3.157940 
# 
# 
# High freq. dielectric constant tensor:
#      x y z
#    x 1.591290 0.000000 0.000000 
#    y 0.000000 1.589450 0.000000 
#    z 0.000000 0.000000 1.600010 
# 
# From -- ./inp_files/25057.got.cif
#   From: 2010.03.12/outbox.cif.g09.slc.cpg/sg38_13_cif.got.tgz:25057.got - 2010.04.14 02:38:36.
