data_PCOD8177745
_publ_section_title
;
Structure prediction by ZEFSAII (Michael W. Deem and Ramdas Pophale) SiO2 
 PCOD8177745
Probable space group: A M M 2
;
_chemical_formula_sum "Si O2"
_cell_formula_units_Z 40
_cell_length_a 8.060480
_cell_length_b 9.541865
_cell_length_c 28.330866
_cell_angle_alpha 90.000000
_cell_angle_beta 90.000000
_cell_angle_gamma 90.000000
_cell_volume 2178.983906
_symmetry_space_group_name_H-M "A M M 2"
_symmetry_group_IT_number 38
_symmetry_cell_setting 'orthorhombic'
loop_
_space_group_symop_operation_xyz
x,y,z
-x,-y,z
-x,y,z
x,-y,z
x,1/2+y,1/2+z
-x,1/2-y,1/2+z
-x,1/2+y,1/2+z
x,1/2-y,1/2+z
loop_
_atom_site_type_symbol
_atom_site_label
_atom_site_fract_x
_atom_site_fract_y
_atom_site_fract_z
Si Si1 0.310263 0.342448 0.550860
Si Si2 0.000000 0.332657 0.810611
Si Si3 0.189776 0.157169 0.467741
Si Si4 0.000000 0.659526 0.217282
Si Si5 0.815702 0.654351 0.127539
Si Si6 0.316032 0.833675 0.369078
O O1 0.500000 0.343112 0.535256
O O2 0.239532 0.500000 0.553835
O O3 0.208263 0.256802 0.512430
O O4 0.295134 0.271778 0.602469
O O5 0.832827 0.275215 0.836261
O O6 0.000000 0.500000 0.807635
O O7 0.000000 0.271988 0.758283
O O8 0.292140 0.216907 0.423100
O O9 0.000000 0.153618 0.451404
O O10 0.249788 0.000000 0.481402
O O11 0.163371 0.683091 0.183956
O O12 0.000000 0.500000 0.236976
O O13 0.736056 0.500000 0.119680
O O14 0.000000 0.656399 0.104231
O O15 0.500000 0.783501 0.351777
O O16 0.304435 0.000000 0.368378
#
# Coordination Sequence:
#
# PCOD8177745 Si02
#       6
#     8   4   8   4   8   8
#     4  11  23  34  46  73 112 144 173 214 264 318
#     4  10  18  32  55  82 105 137 180 215 265 324
#     4  10  19  33  54  78 103 137 184 224 258 311
#     4   8  18  36  57  78 101 129 166 217 269 318
#     4   8  17  35  56  75  94 127 175 217 255 310
#     4   9  17  31  52  79 110 140 176 223 262 302
#
# _framework density 18.357178999999999
#
# number of rings (size 3 to 8) (size 9 to 14) (size 15 to 20)
#    0.600    2.000    1.000    1.800    0.000    6.400 
#    0.000    2.000    0.000    5.400    0.000    0.000 
#    0.000    0.000    0.000    0.000    0.000    0.000 
#
# Total GULP energy -247830.771987 kJ/mol
# GULP energy per Si atom -12391.538599 kJ/mol
# Density = 1.831540 g / cm^3
# Si number density = 18.357179 Si / 1000 Ang^3
#
#
#
# Elastic Constant Matrix: (Units=GPa)
#
#
# Indices 1 2 3 4 5 6 
#
# 1 86.8877 24.5228 38.2996 0.0000 0.0000 0.0000
# 2 24.5228 88.3345 51.4540 0.0000 0.0000 0.0000
# 3 38.2996 51.4540 104.3858 0.0000 0.0000 0.0000
# 4 0.0000 0.0000 0.0000 29.9054 0.0000 0.0000
# 5 0.0000 0.0000 0.0000 0.0000 17.8886 0.0000
# 6 0.0000 0.0000 0.0000 0.0000 0.0000 17.8078
#
#
#
# Elastic Compliance Matrix: (Units=1/GPa)
#
#
# Indices 1 2 3 4 5 6 
#
# 1 0.013826 -0.001239 -0.004462 0.000000 0.000000 0.000000
# 2 -0.001239 0.015991 -0.007428 0.000000 0.000000 0.000000
# 3 -0.004462 -0.007428 0.014878 0.000000 0.000000 0.000000
# 4 0.000000 0.000000 0.000000 0.033439 0.000000 0.000000
# 5 0.000000 0.000000 0.000000 0.000000 0.055902 0.000000
# 6 0.000000 0.000000 0.000000 0.000000 0.000000 0.056155
#
#
# Mechanical properties :
#
#
# Convention : Reuss Voigt Hill
#
# Bulk Modulus (GPa) = 54.23740 56.46232 55.34986
# Shear Modulus (GPa) = 22.46243 24.14246 23.30244
#
# Velocity S-wave (km/s) = 3.50184 3.63044 3.56672
# Velocity P-wave (km/s) = 6.77940 6.95685 6.86870
#
# Compressibility (1/GPa) = 0.01843746
#
# Stress axis : x y z
#
# Youngs Moduli (GPa) = 72.32954 62.53436 67.21242
#
# Poissons Ratio (x) = 0.07749 0.29989
# Poissons Ratio (y) = 0.08963 0.49924
# Poissons Ratio (z) = 0.32272 0.46449
#
# Static dielectric constant tensor:
#      x y z
#    x 3.364370 0.000000 0.000000 
#    y 0.000000 3.141700 0.000000 
#    z 0.000000 0.000000 3.176670 
# 
# 
# High freq. dielectric constant tensor:
#      x y z
#    x 1.702990 0.000000 0.000000 
#    y 0.000000 1.684840 0.000000 
#    z 0.000000 0.000000 1.700680 
# 
# From -- ./inp_files/23239.got.cif
#   From: 2010.03.12/outbox.cif.g09.slc.cpg/sg38_12_cif.got.tgz:23239.got - 2010.04.14 02:38:36.
