data_PCOD8177190
_publ_section_title
;
Structure prediction by ZEFSAII (Michael W. Deem and Ramdas Pophale) SiO2 
 PCOD8177190
Probable space group: A M M 2
;
_chemical_formula_sum "Si O2"
_cell_formula_units_Z 40
_cell_length_a 9.156365
_cell_length_b 26.302412
_cell_length_c 9.502271
_cell_angle_alpha 90.000000
_cell_angle_beta 90.000000
_cell_angle_gamma 90.000000
_cell_volume 2288.474539
_symmetry_space_group_name_H-M "A M M 2"
_symmetry_group_IT_number 38
_symmetry_cell_setting 'orthorhombic'
loop_
_space_group_symop_operation_xyz
x,y,z
-x,-y,z
-x,y,z
x,-y,z
x,1/2+y,1/2+z
-x,1/2-y,1/2+z
-x,1/2+y,1/2+z
x,1/2-y,1/2+z
loop_
_atom_site_type_symbol
_atom_site_label
_atom_site_fract_x
_atom_site_fract_y
_atom_site_fract_z
Si Si1 0.674095 0.500000 0.127921
Si Si2 0.672447 0.199638 0.644531
Si Si3 0.166181 0.400541 0.143509
Si Si4 0.329781 0.204789 0.320391
Si Si5 0.160998 0.608147 0.808615
Si Si6 0.170755 0.500000 0.837291
O O1 0.500000 0.500000 0.147770
O O2 0.744567 0.550322 0.199194
O O3 0.714500 0.500000 0.964029
O O4 0.500000 0.190868 0.662131
O O5 0.755196 0.149982 0.702238
O O6 0.714205 0.210919 0.482906
O O7 0.731294 0.247020 0.735329
O O8 0.000000 0.402772 0.199465
O O9 0.170721 0.399142 0.975600
O O10 0.500000 0.201226 0.297800
O O11 0.267867 0.152268 0.255456
O O12 0.198267 0.551685 0.745842
O O13 0.000000 0.625311 0.762189
O O14 0.000000 0.500000 0.892042
#
# Coordination Sequence:
#
# PCOD8177190 Si02
#       6
#     4   8   8   8   8   4
#     4  10  16  22  36  58  83 110 137 168 208 254
#     4   9  17  29  43  61  84 111 140 173 209 247
#     4   9  16  26  39  57  82 110 138 172 209 247
#     4   9  17  28  42  60  84 110 138 171 208 246
#     4   8  14  24  38  56  80 107 135 167 207 248
#     4   8  14  24  36  54  81 110 137 170 210 250
#
# _framework density 17.478891000000001
#
# number of rings (size 3 to 8) (size 9 to 14) (size 15 to 20)
#    0.000    3.200    0.000    2.700    0.000    5.600 
#    0.000    0.000    0.000    0.000    0.000    1.400 
#    0.000    9.600    0.000    0.000    0.000    0.000 
#
# Total GULP energy -247824.189972 kJ/mol
# GULP energy per Si atom -12391.209499 kJ/mol
# Density = 1.743911 g / cm^3
# Si number density = 17.478891 Si / 1000 Ang^3
#
#
#
# Elastic Constant Matrix: (Units=GPa)
#
#
# Indices 1 2 3 4 5 6 
#
# 1 77.7858 73.6478 19.2380 0.0000 0.0000 0.0000
# 2 73.6478 211.3882 34.9615 0.0000 0.0000 0.0000
# 3 19.2380 34.9615 19.0659 0.0000 0.0000 0.0000
# 4 0.0000 0.0000 0.0000 21.2721 0.0000 0.0000
# 5 0.0000 0.0000 0.0000 0.0000 8.2931 0.0000
# 6 0.0000 0.0000 0.0000 0.0000 0.0000 38.1233
#
#
#
# Elastic Compliance Matrix: (Units=1/GPa)
#
#
# Indices 1 2 3 4 5 6 
#
# 1 0.020671 -0.005385 -0.010982 0.000000 0.000000 0.000000
# 2 -0.005385 0.008193 -0.009590 0.000000 0.000000 0.000000
# 3 -0.010982 -0.009590 0.081115 0.000000 0.000000 0.000000
# 4 0.000000 0.000000 0.000000 0.047010 0.000000 0.000000
# 5 0.000000 0.000000 0.000000 0.000000 0.120582 0.000000
# 6 0.000000 0.000000 0.000000 0.000000 0.000000 0.026231
#
#
# Mechanical properties :
#
#
# Convention : Reuss Voigt Hill
#
# Bulk Modulus (GPa) = 17.22206 62.65940 39.94073
# Shear Modulus (GPa) = 13.33084 25.56389 19.44736
#
# Velocity S-wave (km/s) = 2.76467 3.82849 3.33921
# Velocity P-wave (km/s) = 4.47947 7.44779 6.14553
#
# Compressibility (1/GPa) = 0.05806507
#
# Stress axis : x y z
#
# Youngs Moduli (GPa) = 48.37735 122.05660 12.32813
#
# Poissons Ratio (x) = 0.65732 0.13539
# Poissons Ratio (y) = 0.26053 0.11822
# Poissons Ratio (z) = 0.53128 1.17046
#
# Static dielectric constant tensor:
#      x y z
#    x 3.231680 0.000000 0.000000 
#    y 0.000000 3.900570 0.000000 
#    z 0.000000 0.000000 2.612170 
# 
# 
# High freq. dielectric constant tensor:
#      x y z
#    x 1.674500 0.000000 0.000000 
#    y 0.000000 1.705100 0.000000 
#    z 0.000000 0.000000 1.587940 
# 
# From -- ./inp_files/8191.got.cif
#   From: 2010.03.12/outbox.cif.g09.slc.cpg/sg38_5_cif.got.tgz:8191.got - 2010.04.14 02:38:36.
