data_PCOD8177437
_publ_section_title
;
Structure prediction by ZEFSAII (Michael W. Deem and Ramdas Pophale) SiO2 
 PCOD8177437
Probable space group: A M M 2
;
_chemical_formula_sum "Si O2"
_cell_formula_units_Z 64
_cell_length_a 19.620939
_cell_length_b 8.881664
_cell_length_c 20.378181
_cell_angle_alpha 90.000000
_cell_angle_beta 90.000000
_cell_angle_gamma 90.000000
_cell_volume 3551.236064
_symmetry_space_group_name_H-M "A M M 2"
_symmetry_group_IT_number 38
_symmetry_cell_setting 'orthorhombic'
loop_
_space_group_symop_operation_xyz
x,y,z
-x,-y,z
-x,y,z
x,-y,z
x,1/2+y,1/2+z
-x,1/2-y,1/2+z
-x,1/2+y,1/2+z
x,1/2-y,1/2+z
loop_
_atom_site_type_symbol
_atom_site_label
_atom_site_fract_x
_atom_site_fract_y
_atom_site_fract_z
Si Si1 0.859305 0.176119 0.909450
Si Si2 0.921405 0.173537 0.532473
Si Si3 0.078802 0.677029 0.784815
Si Si4 0.717939 0.822720 0.970867
Si Si5 0.428154 0.175898 0.960490
Si Si6 0.152495 0.176902 0.152817
Si Si7 0.572714 0.328887 0.096288
Si Si8 0.719642 0.325769 0.112082
O O1 0.877286 0.233467 0.837512
O O2 0.779904 0.213970 0.922184
O O3 0.873914 0.000000 0.914757
O O4 0.907604 0.259338 0.960991
O O5 0.877349 0.258823 0.585940
O O6 0.000000 0.196099 0.550038
O O7 0.900257 0.000000 0.532218
O O8 0.088441 0.500000 0.796251
O O9 0.106627 0.727570 0.713964
O O10 0.000000 0.723998 0.789464
O O11 0.646543 0.770379 0.934450
O O12 0.715139 0.000000 0.988236
O O13 0.728653 0.731838 0.037787
O O14 0.500000 0.245668 0.930274
O O15 0.433010 0.000000 0.949779
O O16 0.427563 0.211541 0.037390
O O17 0.229555 0.238129 0.160905
O O18 0.154454 0.000000 0.146137
O O19 0.500000 0.310145 0.135575
O O20 0.577625 0.500000 0.068471
O O21 0.641613 0.298493 0.138271
O O22 0.739540 0.500000 0.113793
#
# Coordination Sequence:
#
# PCOD8177437 Si02
#       8
#     8   8   8   8   8   8   8   8
#     4  11  22  35  54  79 106 137 170 209 256 308
#     4  11  23  37  55  79 105 132 166 209 256 310
#     4  10  23  42  59  74  97 131 171 216 264 314
#     4   9  17  29  45  70 103 135 167 206 250 297
#     4   8  13  22  38  61  92 130 167 201 240 287
#     4  11  22  37  56  77 102 134 171 214 264 315
#     4   8  14  24  38  61  96 134 168 202 244 295
#     4  10  18  28  47  74 103 136 171 210 255 302
#
# _framework density 18.021894
#
# number of rings (size 3 to 8) (size 9 to 14) (size 15 to 20)
#    0.000    2.250    1.250    2.250    0.000    5.250 
#    0.000    0.000    0.000    0.000    0.000    0.875 
#    0.000    5.000    0.000    0.000    0.000    0.250 
#
# Total GULP energy -396438.695572 kJ/mol
# GULP energy per Si atom -12388.709237 kJ/mol
# Density = 1.798088 g / cm^3
# Si number density = 18.021894 Si / 1000 Ang^3
#
#
#
# Elastic Constant Matrix: (Units=GPa)
#
#
# Indices 1 2 3 4 5 6 
#
# 1 150.7112 39.2895 34.6348 0.0000 0.0000 0.0000
# 2 39.2895 52.3789 26.8797 0.0000 0.0000 0.0000
# 3 34.6348 26.8797 50.3494 0.0000 0.0000 0.0000
# 4 0.0000 0.0000 0.0000 23.2082 0.0000 0.0000
# 5 0.0000 0.0000 0.0000 0.0000 18.9080 0.0000
# 6 0.0000 0.0000 0.0000 0.0000 0.0000 23.6089
#
#
#
# Elastic Compliance Matrix: (Units=1/GPa)
#
#
# Indices 1 2 3 4 5 6 
#
# 1 0.008657 -0.004735 -0.003427 0.000000 0.000000 0.000000
# 2 -0.004735 0.028886 -0.012164 0.000000 0.000000 0.000000
# 3 -0.003427 -0.012164 0.028713 0.000000 0.000000 0.000000
# 4 0.000000 0.000000 0.000000 0.043088 0.000000 0.000000
# 5 0.000000 0.000000 0.000000 0.000000 0.052888 0.000000
# 6 0.000000 0.000000 0.000000 0.000000 0.000000 0.042357
#
#
# Mechanical properties :
#
#
# Convention : Reuss Voigt Hill
#
# Bulk Modulus (GPa) = 39.05770 50.56083 44.80927
# Shear Modulus (GPa) = 19.70250 23.32073 21.51161
#
# Velocity S-wave (km/s) = 3.31003 3.60115 3.45865
# Velocity P-wave (km/s) = 6.02725 6.73849 6.39277
#
# Compressibility (1/GPa) = 0.02560315
#
# Stress axis : x y z
#
# Youngs Moduli (GPa) = 115.51050 34.61938 34.82777
#
# Poissons Ratio (x) = 0.16392 0.11937
# Poissons Ratio (y) = 0.54693 0.42364
# Poissons Ratio (z) = 0.39590 0.42110
#
# Static dielectric constant tensor:
#      x y z
#    x 4.264080 0.000000 0.000000 
#    y 0.000000 3.377290 0.000000 
#    z 0.000000 0.000000 2.869500 
# 
# 
# High freq. dielectric constant tensor:
#      x y z
#    x 1.735200 0.000000 0.000000 
#    y 0.000000 1.701720 0.000000 
#    z 0.000000 0.000000 1.632170 
# 
# From -- ./inp_files/18919.got.cif
#   From: 2010.03.12/outbox.cif.g09.slc.cpg/sg38_10_cif.got.tgz:18919.got - 2010.04.14 02:38:36.
