data_PCOD8177530
_publ_section_title
;
Structure prediction by ZEFSAII (Michael W. Deem and Ramdas Pophale) SiO2 
 PCOD8177530
Probable space group: A M M 2
;
_chemical_formula_sum "Si O2"
_cell_formula_units_Z 64
_cell_length_a 9.076057
_cell_length_b 23.381748
_cell_length_c 18.882861
_cell_angle_alpha 90.000000
_cell_angle_beta 90.000000
_cell_angle_gamma 90.000000
_cell_volume 4007.208930
_symmetry_space_group_name_H-M "A M M 2"
_symmetry_group_IT_number 38
_symmetry_cell_setting 'orthorhombic'
loop_
_space_group_symop_operation_xyz
x,y,z
-x,-y,z
-x,y,z
x,-y,z
x,1/2+y,1/2+z
-x,1/2-y,1/2+z
-x,1/2+y,1/2+z
x,1/2-y,1/2+z
loop_
_atom_site_type_symbol
_atom_site_label
_atom_site_fract_x
_atom_site_fract_y
_atom_site_fract_z
Si Si1 0.674913 0.436777 0.120980
Si Si2 0.672807 0.777699 0.122437
Si Si3 0.830160 0.770632 0.828175
Si Si4 0.826102 0.159857 0.242945
Si Si5 0.671722 0.166314 0.712761
Si Si6 0.329578 0.433838 0.828496
Si Si7 0.671838 0.622307 0.977574
Si Si8 0.172543 0.742552 0.985150
O O1 0.500000 0.438042 0.125085
O O2 0.740338 0.500000 0.135753
O O3 0.735586 0.392531 0.179934
O O4 0.722267 0.416971 0.042896
O O5 0.500000 0.789997 0.117538
O O6 0.749116 0.827562 0.167883
O O7 0.707519 0.716266 0.156887
O O8 0.742315 0.778502 0.044469
O O9 0.778259 0.708850 0.798916
O O10 0.745910 0.821625 0.788312
O O11 0.796947 0.774918 0.911264
O O12 0.000000 0.778890 0.810627
O O13 0.768912 0.099591 0.271846
O O14 0.000000 0.156871 0.231754
O O15 0.500000 0.161683 0.727056
O O16 0.500000 0.422867 0.810607
O O17 0.287624 0.500000 0.822370
O O18 0.293353 0.413371 0.907520
O O19 0.500000 0.639582 0.983627
O O20 0.768701 0.678717 0.978595
O O21 0.000000 0.740280 0.002920
#
# Coordination Sequence:
#
# PCOD8177530 Si02
#       8
#     8   8   8   8   8   8   8   8
#     4   9  16  28  46  68  95 126 161 198 232 272
#     4  10  19  32  49  71  95 122 159 201 244 291
#     4   9  19  32  46  65  93 126 157 193 240 288
#     4  10  19  33  49  69  95 129 164 199 246 293
#     4   9  17  29  46  69  91 119 158 196 233 277
#     4  10  20  32  48  71  98 132 172 209 243 281
#     4  10  18  30  46  67  96 132 169 200 231 274
#     4  11  20  31  47  70  97 128 160 195 242 293
#
# _framework density 15.971216
#
# number of rings (size 3 to 8) (size 9 to 14) (size 15 to 20)
#    0.000    2.250    2.500    1.500    0.000    3.750 
#    0.000    0.000    0.000    2.250    0.000    0.875 
#    0.000    3.000    0.000    0.000    0.000    0.000 
#
# Total GULP energy -396835.189707 kJ/mol
# GULP energy per Si atom -12401.099678 kJ/mol
# Density = 1.593486 g / cm^3
# Si number density = 15.971216 Si / 1000 Ang^3
#
#
#
# Elastic Constant Matrix: (Units=GPa)
#
#
# Indices 1 2 3 4 5 6 
#
# 1 63.9498 40.1941 56.2989 0.0000 0.0000 0.0000
# 2 40.1941 97.9271 66.3534 0.0000 0.0000 0.0000
# 3 56.2989 66.3534 114.5849 0.0000 0.0000 0.0000
# 4 0.0000 0.0000 0.0000 20.2199 0.0000 0.0000
# 5 0.0000 0.0000 0.0000 0.0000 27.4804 0.0000
# 6 0.0000 0.0000 0.0000 0.0000 0.0000 16.9378
#
#
#
# Elastic Compliance Matrix: (Units=1/GPa)
#
#
# Indices 1 2 3 4 5 6 
#
# 1 0.028313 -0.003613 -0.011819 0.000000 0.000000 0.000000
# 2 -0.003613 0.017267 -0.008224 0.000000 0.000000 0.000000
# 3 -0.011819 -0.008224 0.019296 0.000000 0.000000 0.000000
# 4 0.000000 0.000000 0.000000 0.049456 0.000000 0.000000
# 5 0.000000 0.000000 0.000000 0.000000 0.036390 0.000000
# 6 0.000000 0.000000 0.000000 0.000000 0.000000 0.059039
#
#
# Mechanical properties :
#
#
# Convention : Reuss Voigt Hill
#
# Bulk Modulus (GPa) = 56.93078 66.90608 61.91843
# Shear Modulus (GPa) = 19.01669 20.50198 19.75934
#
# Velocity S-wave (km/s) = 3.45437 3.58674 3.52118
# Velocity P-wave (km/s) = 7.18565 7.68996 7.44208
#
# Compressibility (1/GPa) = 0.01756519
#
# Stress axis : x y z
#
# Youngs Moduli (GPa) = 35.31964 57.91478 51.82345
#
# Poissons Ratio (x) = 0.20923 0.61250
# Poissons Ratio (y) = 0.12760 0.42618
# Poissons Ratio (z) = 0.41744 0.47627
#
# Static dielectric constant tensor:
#      x y z
#    x 2.943790 0.000000 0.000000 
#    y 0.000000 2.984480 0.000000 
#    z 0.000000 0.000000 3.140930 
# 
# 
# High freq. dielectric constant tensor:
#      x y z
#    x 1.608550 0.000000 0.000000 
#    y 0.000000 1.588970 0.000000 
#    z 0.000000 0.000000 1.611080 
# 
# From -- ./inp_files/17222.got.cif
#   From: 2010.03.12/outbox.cif.g09.slc.cpg/sg38_9_cif.got.tgz:17222.got - 2010.04.14 02:38:36.
