data_PCOD8177126
_publ_section_title
;
Structure prediction by ZEFSAII (Michael W. Deem and Ramdas Pophale) SiO2 
 PCOD8177126
Probable space group: C C C 2
;
_chemical_formula_sum "Si O2"
_cell_formula_units_Z 60
_cell_length_a 6.386509
_cell_length_b 24.101715
_cell_length_c 17.827420
_cell_angle_alpha 90.000000
_cell_angle_beta 90.000000
_cell_angle_gamma 90.000000
_cell_volume 2744.100238
_symmetry_space_group_name_H-M "C C C 2"
_symmetry_group_IT_number 37
_symmetry_cell_setting 'orthorhombic'
loop_
_space_group_symop_operation_xyz
x,y,z
-x,-y,z
-x,y,1/2+z
x,-y,1/2+z
1/2+x,1/2+y,z
1/2-x,1/2-y,z
1/2-x,1/2+y,1/2+z
1/2+x,1/2-y,1/2+z
loop_
_atom_site_type_symbol
_atom_site_label
_atom_site_fract_x
_atom_site_fract_y
_atom_site_fract_z
Si Si1 0.500669 0.894784 0.431590
Si Si2 0.137829 0.132443 0.190960
Si Si3 0.289732 0.685202 0.841564
Si Si4 0.529261 0.905305 0.597541
Si Si5 0.860319 0.809643 0.943225
Si Si6 0.677902 0.461631 0.205291
Si Si7 0.649021 0.308343 0.084932
Si Si8 0.000000 0.500000 0.324009
O O1 0.657041 0.846423 0.405369
O O2 0.540398 0.924559 0.511134
O O3 0.285728 0.862953 0.449034
O O4 0.509093 0.943776 0.371368
O O5 0.262127 0.157701 0.261483
O O6 0.300408 0.101231 0.135556
O O7 0.948350 0.094767 0.224089
O O8 0.035522 0.182499 0.144725
O O9 0.250000 0.750000 0.840751
O O10 0.535281 0.682188 0.861694
O O11 0.644336 0.953206 0.643656
O O12 0.657430 0.848641 0.599814
O O13 0.750000 0.750000 0.951755
O O14 0.047406 0.814023 0.003221
O O15 0.500000 0.500000 0.169499
O O16 0.786598 0.492594 0.275962
O O17 0.750000 0.250000 0.099147
#
# Coordination Sequence:
#
# PCOD8177126 Si02
#       8
#     8   8   8   8   8   8   8   4
#     4  12  25  46  72 106 141 191 245 297 367 432
#     4  11  26  43  69 104 146 189 242 305 364 440
#     4  12  25  42  66 105 146 188 238 299 361 436
#     4  11  24  46  72 103 142 184 249 301 359 443
#     4  12  23  43  71 103 148 194 241 301 369 434
#     4  11  24  48  71  99 137 187 234 300 373 432
#     4  11  24  41  69 105 143 195 245 299 365 438
#     4  12  28  48  74 102 146 190 240 310 364 454
#
# _framework density 21.865089999999999
#
# number of rings (size 3 to 8) (size 9 to 14) (size 15 to 20)
#    0.000    0.533    4.000    4.400    1.867    3.200 
#    0.000    0.000    0.000    0.000    0.000    0.000 
#    0.000    0.000    0.000    0.000    0.000    0.000 
#
# Total GULP energy -371782.577616 kJ/mol
# GULP energy per Si atom -12392.752587 kJ/mol
# Density = 2.181532 g / cm^3
# Si number density = 21.865090 Si / 1000 Ang^3
#
#
#
# Elastic Constant Matrix: (Units=GPa)
#
#
# Indices 1 2 3 4 5 6 
#
# 1 112.0898 43.7070 50.2666 0.0000 0.0000 0.0000
# 2 43.7070 116.7721 47.1566 0.0000 0.0000 0.0000
# 3 50.2666 47.1566 130.8610 0.0000 0.0000 0.0000
# 4 0.0000 0.0000 0.0000 45.2043 0.0000 0.0000
# 5 0.0000 0.0000 0.0000 0.0000 41.0371 0.0000
# 6 0.0000 0.0000 0.0000 0.0000 0.0000 37.7754
#
#
#
# Elastic Compliance Matrix: (Units=1/GPa)
#
#
# Indices 1 2 3 4 5 6 
#
# 1 0.011599 -0.002975 -0.003383 0.000000 0.000000 0.000000
# 2 -0.002975 0.010785 -0.002744 0.000000 0.000000 0.000000
# 3 -0.003383 -0.002744 0.009930 0.000000 0.000000 0.000000
# 4 0.000000 0.000000 0.000000 0.022122 0.000000 0.000000
# 5 0.000000 0.000000 0.000000 0.000000 0.024368 0.000000
# 6 0.000000 0.000000 0.000000 0.000000 0.000000 0.026472
#
#
# Mechanical properties :
#
#
# Convention : Reuss Voigt Hill
#
# Bulk Modulus (GPa) = 70.87236 71.33147 71.10192
# Shear Modulus (GPa) = 39.00657 39.37620 39.19139
#
# Velocity S-wave (km/s) = 4.22828 4.24827 4.23829
# Velocity P-wave (km/s) = 7.50478 7.53379 7.51930
#
# Compressibility (1/GPa) = 0.01410987
#
# Stress axis : x y z
#
# Youngs Moduli (GPa) = 86.21669 92.71928 100.70495
#
# Poissons Ratio (x) = 0.27584 0.34071
# Poissons Ratio (y) = 0.25650 0.27631
# Poissons Ratio (z) = 0.29169 0.25440
#
# Static dielectric constant tensor:
#      x y z
#    x 3.952410 0.000000 0.000000 
#    y 0.000000 3.919650 0.000000 
#    z 0.000000 0.000000 4.093330 
# 
# 
# High freq. dielectric constant tensor:
#      x y z
#    x 1.871990 0.000000 0.000000 
#    y 0.000000 1.866240 0.000000 
#    z 0.000000 0.000000 1.863340 
# 
# From -- ./inp_files/14024.got.cif
#   From: 2010.03.12/outbox.cif.g09.slc.cpg/sg37_8_cif.got.tgz:14024.got - 2010.04.14 02:25:27.
