data_PCOD8177849
_publ_section_title
;
Structure prediction by ZEFSAII (Michael W. Deem and Ramdas Pophale) SiO2 
 PCOD8177849
Probable space group: A M M 2
;
_chemical_formula_sum "Si O2"
_cell_formula_units_Z 56
_cell_length_a 16.488660
_cell_length_b 8.733223
_cell_length_c 20.441736
_cell_angle_alpha 90.000000
_cell_angle_beta 90.000000
_cell_angle_gamma 90.000000
_cell_volume 2943.592501
_symmetry_space_group_name_H-M "A M M 2"
_symmetry_group_IT_number 38
_symmetry_cell_setting 'orthorhombic'
loop_
_space_group_symop_operation_xyz
x,y,z
-x,-y,z
-x,y,z
x,-y,z
x,1/2+y,1/2+z
-x,1/2-y,1/2+z
-x,1/2+y,1/2+z
x,1/2-y,1/2+z
loop_
_atom_site_type_symbol
_atom_site_label
_atom_site_fract_x
_atom_site_fract_y
_atom_site_fract_z
Si Si1 0.408418 0.173954 0.312230
Si Si2 0.841255 0.176609 0.863917
Si Si3 0.271138 0.823591 0.739953
Si Si4 0.591700 0.320752 0.449696
Si Si5 0.750946 0.319071 0.985599
Si Si6 0.000000 0.179208 0.316678
Si Si7 0.831058 0.318185 0.119011
Si Si8 0.000000 0.817774 0.673122
O O1 0.500000 0.189929 0.286724
O O2 0.351393 0.224891 0.252837
O O3 0.392300 0.282841 0.373888
O O4 0.389026 0.000000 0.333462
O O5 0.793423 0.200372 0.797041
O O6 0.786616 0.235835 0.922828
O O7 0.922847 0.274817 0.860119
O O8 0.863368 0.000000 0.875387
O O9 0.231475 0.758315 0.673726
O O10 0.296559 0.000000 0.732992
O O11 0.500000 0.271511 0.469583
O O12 0.605082 0.500000 0.459916
O O13 0.656460 0.229005 0.493858
O O14 0.757653 0.500000 0.977292
O O15 0.801110 0.260660 0.048502
O O16 0.000000 0.264822 0.247728
O O17 0.000000 0.000000 0.303532
O O18 0.833045 0.500000 0.122043
O O19 0.921119 0.254533 0.134627
O O20 0.000000 0.000000 0.675165
#
# Coordination Sequence:
#
# PCOD8177849 Si02
#       8
#     8   8   8   8   8   4   8   4
#     4  10  20  33  53  84 118 149 187 241 296 335
#     4  11  22  38  61  85 115 152 190 235 286 341
#     4  10  19  35  59  84 111 148 194 232 277 343
#     4  10  20  35  56  81 111 152 197 236 285 350
#     4  11  22  37  58  88 121 150 191 241 290 341
#     4  12  24  37  58  91 121 147 193 247 292 332
#     4   9  20  37  60  85 112 153 194 231 283 346
#     4  10  18  39  64  81 111 153 195 233 282 350
#
# _framework density 19.024372
#
# number of rings (size 3 to 8) (size 9 to 14) (size 15 to 20)
#    0.000    1.714    2.857    2.357    0.000    2.857 
#    0.000    5.000    0.000    4.286    0.000    0.000 
#    0.000    0.000    0.000    0.000    0.000    0.000 
#
# Total GULP energy -347268.915033 kJ/mol
# GULP energy per Si atom -12402.461251 kJ/mol
# Density = 1.898107 g / cm^3
# Si number density = 19.024372 Si / 1000 Ang^3
#
#
#
# Elastic Constant Matrix: (Units=GPa)
#
#
# Indices 1 2 3 4 5 6 
#
# 1 121.0557 27.7666 29.0442 0.0000 0.0000 0.0000
# 2 27.7666 49.1432 19.1720 0.0000 0.0000 0.0000
# 3 29.0442 19.1720 69.0585 0.0000 0.0000 0.0000
# 4 0.0000 0.0000 0.0000 20.6766 0.0000 0.0000
# 5 0.0000 0.0000 0.0000 0.0000 27.6750 0.0000
# 6 0.0000 0.0000 0.0000 0.0000 0.0000 31.9139
#
#
#
# Elastic Compliance Matrix: (Units=1/GPa)
#
#
# Indices 1 2 3 4 5 6 
#
# 1 0.010002 -0.004497 -0.002958 0.000000 0.000000 0.000000
# 2 -0.004497 0.024842 -0.005005 0.000000 0.000000 0.000000
# 3 -0.002958 -0.005005 0.017114 0.000000 0.000000 0.000000
# 4 0.000000 0.000000 0.000000 0.048364 0.000000 0.000000
# 5 0.000000 0.000000 0.000000 0.000000 0.036134 0.000000
# 6 0.000000 0.000000 0.000000 0.000000 0.000000 0.031334
#
#
# Mechanical properties :
#
#
# Convention : Reuss Voigt Hill
#
# Bulk Modulus (GPa) = 36.98599 43.46924 40.22761
# Shear Modulus (GPa) = 24.78637 26.93808 25.86222
#
# Velocity S-wave (km/s) = 3.61345 3.76703 3.69104
# Velocity P-wave (km/s) = 6.07396 6.46680 6.27345
#
# Compressibility (1/GPa) = 0.02703727
#
# Stress axis : x y z
#
# Youngs Moduli (GPa) = 99.98122 40.25385 58.43131
#
# Poissons Ratio (x) = 0.18103 0.17284
# Poissons Ratio (y) = 0.44963 0.29247
# Poissons Ratio (z) = 0.29575 0.20148
#
# Static dielectric constant tensor:
#      x y z
#    x 3.830540 0.000000 0.000000 
#    y 0.000000 3.356130 0.000000 
#    z 0.000000 0.000000 3.367660 
# 
# 
# High freq. dielectric constant tensor:
#      x y z
#    x 1.756950 0.000000 0.000000 
#    y 0.000000 1.730710 0.000000 
#    z 0.000000 0.000000 1.717640 
# 
# From -- ./inp_files/21161.got.cif
#   From: 2010.03.12/outbox.cif.g09.slc.cpg/sg38_11_cif.got.tgz:21161.got - 2010.04.14 02:38:36.
