data_PCOD8177326
_publ_section_title
;
Structure prediction by ZEFSAII (Michael W. Deem and Ramdas Pophale) SiO2 
 PCOD8177326
Probable space group: A M M 2
;
_chemical_formula_sum "Si O2"
_cell_formula_units_Z 48
_cell_length_a 16.690864
_cell_length_b 15.043095
_cell_length_c 9.532425
_cell_angle_alpha 90.000000
_cell_angle_beta 90.000000
_cell_angle_gamma 90.000000
_cell_volume 2393.422743
_symmetry_space_group_name_H-M "A M M 2"
_symmetry_group_IT_number 38
_symmetry_cell_setting 'orthorhombic'
loop_
_space_group_symop_operation_xyz
x,y,z
-x,-y,z
-x,y,z
x,-y,z
x,1/2+y,1/2+z
-x,1/2-y,1/2+z
-x,1/2+y,1/2+z
x,1/2-y,1/2+z
loop_
_atom_site_type_symbol
_atom_site_label
_atom_site_fract_x
_atom_site_fract_y
_atom_site_fract_z
Si Si1 0.296116 0.099087 0.556320
Si Si2 0.589996 0.393730 0.287804
Si Si3 0.789477 0.839983 0.288749
Si Si4 0.086922 0.000000 0.653958
Si Si5 0.902168 0.500000 0.843872
Si Si6 0.287650 0.601990 0.520249
Si Si7 0.825883 0.641310 0.290664
O O1 0.376224 0.137299 0.634382
O O2 0.261903 0.161186 0.432904
O O3 0.234833 0.093770 0.684316
O O4 0.311208 0.000000 0.495096
O O5 0.500000 0.357120 0.304682
O O6 0.593382 0.500000 0.292164
O O7 0.642959 0.356706 0.419334
O O8 0.859921 0.913287 0.275685
O O9 0.721422 0.847941 0.168500
O O10 0.835074 0.746506 0.272665
O O11 0.133135 0.000000 0.503758
O O12 0.093658 0.088936 0.749629
O O13 0.000000 0.000000 0.589439
O O14 0.000000 0.500000 0.820841
O O15 0.306415 0.500000 0.553301
O O16 0.201521 0.614956 0.446181
#
# Coordination Sequence:
#
# PCOD8177326 Si02
#       7
#     8   8   8   4   4   8   8
#     4  10  17  35  59  79 112 154 199 234 277 338
#     4   8  16  31  56  87 117 153 197 237 284 343
#     4  12  21  35  59  86 116 150 196 239 285 343
#     4  11  22  41  63  83 110 152 197 238 293 355
#     4  11  24  41  59  81 118 156 189 234 299 349
#     4  10  19  33  57  83 114 150 188 236 293 330
#     4  11  20  36  59  84 110 147 195 242 275 343
#
# _framework density 20.054960999999999
#
# number of rings (size 3 to 8) (size 9 to 14) (size 15 to 20)
#    0.000    1.667    5.000    2.000    0.000    0.667 
#    0.000    2.500    0.000   20.000    0.000    0.000 
#    0.000    0.000    0.000    0.167    0.000    0.000 
#
# Total GULP energy -297327.453843 kJ/mol
# GULP energy per Si atom -12388.643910 kJ/mol
# Density = 2.000932 g / cm^3
# Si number density = 20.054961 Si / 1000 Ang^3
#
#
#
# Elastic Constant Matrix: (Units=GPa)
#
#
# Indices 1 2 3 4 5 6 
#
# 1 89.7345 26.0834 35.4630 0.0000 0.0000 0.0000
# 2 26.0834 114.9433 26.1302 0.0000 0.0000 0.0000
# 3 35.4630 26.1302 101.2779 0.0000 0.0000 0.0000
# 4 0.0000 0.0000 0.0000 21.6329 0.0000 0.0000
# 5 0.0000 0.0000 0.0000 0.0000 23.4780 0.0000
# 6 0.0000 0.0000 0.0000 0.0000 0.0000 5.7947
#
#
#
# Elastic Compliance Matrix: (Units=1/GPa)
#
#
# Indices 1 2 3 4 5 6 
#
# 1 0.013393 -0.002096 -0.004149 0.000000 0.000000 0.000000
# 2 -0.002096 0.009570 -0.001735 0.000000 0.000000 0.000000
# 3 -0.004149 -0.001735 0.011774 0.000000 0.000000 0.000000
# 4 0.000000 0.000000 0.000000 0.046226 0.000000 0.000000
# 5 0.000000 0.000000 0.000000 0.000000 0.042593 0.000000
# 6 0.000000 0.000000 0.000000 0.000000 0.000000 0.172572
#
#
# Mechanical properties :
#
#
# Convention : Reuss Voigt Hill
#
# Bulk Modulus (GPa) = 53.25630 53.47879 53.36755
# Shear Modulus (GPa) = 15.70612 24.73305 20.21958
#
# Velocity S-wave (km/s) = 2.80152 3.51559 3.17867
# Velocity P-wave (km/s) = 6.08913 6.57292 6.33564
#
# Compressibility (1/GPa) = 0.01877712
#
# Stress axis : x y z
#
# Youngs Moduli (GPa) = 74.66674 104.49279 84.93122
#
# Poissons Ratio (x) = 0.21902 0.35236
# Poissons Ratio (y) = 0.15650 0.14737
# Poissons Ratio (z) = 0.30978 0.18131
#
# Static dielectric constant tensor:
#      x y z
#    x 3.691000 0.000000 0.000000 
#    y 0.000000 3.387550 0.000000 
#    z 0.000000 0.000000 3.740500 
# 
# 
# High freq. dielectric constant tensor:
#      x y z
#    x 1.752740 0.000000 0.000000 
#    y 0.000000 1.769830 0.000000 
#    z 0.000000 0.000000 1.786060 
# 
# From -- ./inp_files/6208.got.cif
#   From: 2010.03.12/outbox.cif.g09.slc.cpg/sg38_4_cif.got.tgz:6208.got - 2010.04.14 02:38:36.
