data_PCOD8177317
_publ_section_title
;
Structure prediction by ZEFSAII (Michael W. Deem and Ramdas Pophale) SiO2 
 PCOD8177317
Probable space group: A M M 2
;
_chemical_formula_sum "Si O2"
_cell_formula_units_Z 64
_cell_length_a 8.346097
_cell_length_b 30.936321
_cell_length_c 12.139160
_cell_angle_alpha 90.000000
_cell_angle_beta 90.000000
_cell_angle_gamma 90.000000
_cell_volume 3134.301200
_symmetry_space_group_name_H-M "A M M 2"
_symmetry_group_IT_number 38
_symmetry_cell_setting 'orthorhombic'
loop_
_space_group_symop_operation_xyz
x,y,z
-x,-y,z
-x,y,z
x,-y,z
x,1/2+y,1/2+z
-x,1/2-y,1/2+z
-x,1/2+y,1/2+z
x,1/2-y,1/2+z
loop_
_atom_site_type_symbol
_atom_site_label
_atom_site_fract_x
_atom_site_fract_y
_atom_site_fract_z
Si Si1 0.689996 0.372912 0.275260
Si Si2 0.691002 0.371197 0.524727
Si Si3 0.814351 0.293455 0.669688
Si Si4 0.183042 0.334395 0.900706
Si Si5 0.315648 0.426273 0.900895
Si Si6 0.309571 0.047904 0.165694
Si Si7 0.314735 0.797462 0.614576
Si Si8 0.309626 0.452393 0.134606
O O1 0.500000 0.375668 0.279038
O O2 0.755546 0.371284 0.399637
O O3 0.746621 0.330325 0.209393
O O4 0.761282 0.415714 0.215406
O O5 0.500000 0.367376 0.531339
O O6 0.768765 0.330380 0.583609
O O7 0.753695 0.415472 0.581994
O O8 0.772176 0.308241 0.792103
O O9 0.707179 0.251415 0.652260
O O10 0.000000 0.281566 0.655869
O O11 0.300176 0.374917 0.908432
O O12 0.000000 0.350412 0.897076
O O13 0.211261 0.303780 0.004891
O O14 0.500000 0.439484 0.897882
O O15 0.235768 0.443849 0.787974
O O16 0.237694 0.446855 0.010987
O O17 0.500000 0.051196 0.171052
O O18 0.256167 0.000000 0.125349
O O19 0.500000 0.806495 0.588488
O O20 0.500000 0.446828 0.128930
O O21 0.261943 0.500000 0.179159
#
# Coordination Sequence:
#
# PCOD8177317 Si02
#       8
#     8   8   8   8   8   8   8   8
#     4   9  19  34  53  84 116 144 186 236 280 334
#     4  10  20  36  58  84 115 152 194 237 286 341
#     4  11  25  42  59  84 117 150 191 237 288 345
#     4  11  23  39  60  86 117 150 188 236 290 342
#     4  10  17  31  55  83 114 149 193 237 285 339
#     4   9  17  29  51  85 118 147 188 243 294 340
#     4  11  23  40  62  86 115 149 191 238 287 342
#     4   9  16  28  51  83 116 147 182 232 289 337
#
# _framework density 20.419224
#
# number of rings (size 3 to 8) (size 9 to 14) (size 15 to 20)
#    0.000    2.000    2.500    1.500    1.750    3.500 
#    0.000    3.125    0.000    2.625    0.000    0.000 
#    0.000    0.000    0.000    0.000    0.000    0.000 
#
# Total GULP energy -396780.709478 kJ/mol
# GULP energy per Si atom -12399.397171 kJ/mol
# Density = 2.037275 g / cm^3
# Si number density = 20.419224 Si / 1000 Ang^3
#
#
#
# Elastic Constant Matrix: (Units=GPa)
#
#
# Indices 1 2 3 4 5 6 
#
# 1 14.9269 4.2241 12.5766 0.0000 0.0000 0.0000
# 2 4.2241 166.5071 77.6668 0.0000 0.0000 0.0000
# 3 12.5766 77.6668 178.4935 0.0000 0.0000 0.0000
# 4 0.0000 0.0000 0.0000 -26.8371 0.0000 0.0000
# 5 0.0000 0.0000 0.0000 0.0000 13.2103 0.0000
# 6 0.0000 0.0000 0.0000 0.0000 0.0000 5.0243
#
#
#
# Elastic Compliance Matrix: (Units=1/GPa)
#
#
# Indices 1 2 3 4 5 6 
#
# 1 0.071281 0.000670 -0.005314 0.000000 0.000000 0.000000
# 2 0.000670 0.007541 -0.003329 0.000000 0.000000 0.000000
# 3 -0.005314 -0.003329 0.007425 0.000000 0.000000 0.000000
# 4 0.000000 0.000000 0.000000 -0.037262 0.000000 0.000000
# 5 0.000000 0.000000 0.000000 0.000000 0.075699 0.000000
# 6 0.000000 0.000000 0.000000 0.000000 0.000000 0.199034
#
#
# Mechanical properties :
#
#
# Convention : Reuss Voigt Hill
#
# Bulk Modulus (GPa) = 14.22422 60.98473 37.60447
# Shear Modulus (GPa) = 13.77042 15.97682 14.87362
#
# Velocity S-wave (km/s) = 2.59971 2.80025 2.70184
# Velocity P-wave (km/s) = 3.99907 6.35503 5.30937
#
# Compressibility (1/GPa) = 0.07030262
#
# Stress axis : x y z
#
# Youngs Moduli (GPa) = 14.02904 132.60140 134.67526
#
# Poissons Ratio (x) = -0.08890 0.71568
# Poissons Ratio (y) = -0.00941 0.44829
# Poissons Ratio (z) = 0.07455 0.44139
#
# Static dielectric constant tensor:
#      x y z
#    x 3.185610 0.000000 0.000000 
#    y 0.000000 3.766690 0.000000 
#    z 0.000000 0.000000 3.987580 
# 
# 
# High freq. dielectric constant tensor:
#      x y z
#    x 1.749610 0.000000 0.000000 
#    y 0.000000 1.809030 0.000000 
#    z 0.000000 0.000000 1.807690 
# 
# From -- ./inp_files/8593.got.cif
#   From: 2010.03.12/outbox.cif.g09.slc.cpg/sg38_5_cif.got.tgz:8593.got - 2010.04.14 02:38:36.
