data_PCOD8177387
_publ_section_title
;
Structure prediction by ZEFSAII (Michael W. Deem and Ramdas Pophale) SiO2 
 PCOD8177387
Probable space group: A M M 2
;
_chemical_formula_sum "Si O2"
_cell_formula_units_Z 64
_cell_length_a 8.901072
_cell_length_b 25.951996
_cell_length_c 18.341450
_cell_angle_alpha 90.000000
_cell_angle_beta 90.000000
_cell_angle_gamma 90.000000
_cell_volume 4236.885679
_symmetry_space_group_name_H-M "A M M 2"
_symmetry_group_IT_number 38
_symmetry_cell_setting 'orthorhombic'
loop_
_space_group_symop_operation_xyz
x,y,z
-x,-y,z
-x,y,z
x,-y,z
x,1/2+y,1/2+z
-x,1/2-y,1/2+z
-x,1/2+y,1/2+z
x,1/2-y,1/2+z
loop_
_atom_site_type_symbol
_atom_site_label
_atom_site_fract_x
_atom_site_fract_y
_atom_site_fract_z
Si Si1 0.325502 0.559921 0.059790
Si Si2 0.676139 0.756694 0.716211
Si Si3 0.825295 0.059879 0.711407
Si Si4 0.321129 0.757785 0.551029
Si Si5 0.821589 0.354130 0.974054
Si Si6 0.833981 0.299903 0.834576
Si Si7 0.321529 0.643847 0.304652
Si Si8 0.169368 0.197701 0.930282
O O1 0.500000 0.574979 0.059943
O O2 0.299763 0.500000 0.044167
O O3 0.257304 0.576228 0.137262
O O4 0.238338 0.589816 0.996057
O O5 0.500000 0.756130 0.718554
O O6 0.734375 0.750941 0.634086
O O7 0.730238 0.707775 0.764020
O O8 0.733765 0.810375 0.750869
O O9 0.751883 0.090948 0.777652
O O10 0.000000 0.073541 0.703528
O O11 0.799861 0.000000 0.728537
O O12 0.500000 0.757495 0.543480
O O13 0.259759 0.812456 0.524568
O O14 0.253204 0.709780 0.506182
O O15 0.779193 0.345716 0.888461
O O16 0.000000 0.349188 0.985123
O O17 0.832926 0.249443 0.884041
O O18 0.000000 0.311542 0.804885
O O19 0.500000 0.638590 0.306671
O O20 0.260911 0.654181 0.386240
O O21 0.000000 0.178328 0.945808
#
# Coordination Sequence:
#
# PCOD8177387 Si02
#       8
#     8   8   8   8   8   8   8   8
#     4  10  20  32  45  62  84 111 144 180 215 251
#     4   9  18  28  40  60  84 110 140 172 207 248
#     4  10  20  32  45  62  85 113 144 179 216 251
#     4  10  18  28  42  62  87 113 143 177 211 250
#     4  10  19  30  44  62  83 111 145 177 213 254
#     4   8  16  28  41  58  80 106 137 171 205 245
#     4  10  18  29  45  63  84 113 146 178 214 252
#     4   9  17  29  42  59  83 111 143 176 211 251
#
# _framework density 15.105435
#
# number of rings (size 3 to 8) (size 9 to 14) (size 15 to 20)
#    0.000    2.500    0.000    3.750    0.000    7.500 
#    0.000    0.000    0.000    0.000    0.000    0.000 
#    0.000    1.000    0.000    7.000    0.000    5.500 
#
# Total GULP energy -396757.896882 kJ/mol
# GULP energy per Si atom -12398.684278 kJ/mol
# Density = 1.507105 g / cm^3
# Si number density = 15.105435 Si / 1000 Ang^3
#
#
#
# Elastic Constant Matrix: (Units=GPa)
#
#
# Indices 1 2 3 4 5 6 
#
# 1 67.0682 27.3314 39.5243 0.0000 0.0000 0.0000
# 2 27.3314 53.9464 38.9615 0.0000 0.0000 0.0000
# 3 39.5243 38.9615 97.8577 0.0000 0.0000 0.0000
# 4 0.0000 0.0000 0.0000 28.1459 0.0000 0.0000
# 5 0.0000 0.0000 0.0000 0.0000 26.6281 0.0000
# 6 0.0000 0.0000 0.0000 0.0000 0.0000 24.1578
#
#
#
# Elastic Compliance Matrix: (Units=1/GPa)
#
#
# Indices 1 2 3 4 5 6 
#
# 1 0.021006 -0.006337 -0.005961 0.000000 0.000000 0.000000
# 2 -0.006337 0.027930 -0.008561 0.000000 0.000000 0.000000
# 3 -0.005961 -0.008561 0.016035 0.000000 0.000000 0.000000
# 4 0.000000 0.000000 0.000000 0.035529 0.000000 0.000000
# 5 0.000000 0.000000 0.000000 0.000000 0.037554 0.000000
# 6 0.000000 0.000000 0.000000 0.000000 0.000000 0.041395
#
#
# Mechanical properties :
#
#
# Convention : Reuss Voigt Hill
#
# Bulk Modulus (GPa) = 43.00488 47.83408 45.41948
# Shear Modulus (GPa) = 21.84192 23.32336 22.58264
#
# Velocity S-wave (km/s) = 3.80671 3.93369 3.87072
# Velocity P-wave (km/s) = 6.91759 7.23653 7.07886
#
# Compressibility (1/GPa) = 0.02325317
#
# Stress axis : x y z
#
# Youngs Moduli (GPa) = 47.60643 35.80339 62.36364
#
# Poissons Ratio (x) = 0.22689 0.37175
# Poissons Ratio (y) = 0.30168 0.53388
# Poissons Ratio (z) = 0.28378 0.30651
#
# Static dielectric constant tensor:
#      x y z
#    x 3.040640 0.000000 0.000000 
#    y 0.000000 2.735570 0.000000 
#    z 0.000000 0.000000 3.034420 
# 
# 
# High freq. dielectric constant tensor:
#      x y z
#    x 1.595070 0.000000 0.000000 
#    y 0.000000 1.542810 0.000000 
#    z 0.000000 0.000000 1.567220 
# 
# From -- ./inp_files/17272.got.cif
#   From: 2010.03.12/outbox.cif.g09.slc.cpg/sg38_9_cif.got.tgz:17272.got - 2010.04.14 02:38:36.
