data_PCOD8177522
_publ_section_title
;
Structure prediction by ZEFSAII (Michael W. Deem and Ramdas Pophale) SiO2 
 PCOD8177522
Probable space group: A M M 2
;
_chemical_formula_sum "Si O2"
_cell_formula_units_Z 56
_cell_length_a 21.466838
_cell_length_b 9.174772
_cell_length_c 15.167348
_cell_angle_alpha 90.000000
_cell_angle_beta 90.000000
_cell_angle_gamma 90.000000
_cell_volume 2987.259911
_symmetry_space_group_name_H-M "A M M 2"
_symmetry_group_IT_number 38
_symmetry_cell_setting 'orthorhombic'
loop_
_space_group_symop_operation_xyz
x,y,z
-x,-y,z
-x,y,z
x,-y,z
x,1/2+y,1/2+z
-x,1/2-y,1/2+z
-x,1/2+y,1/2+z
x,1/2-y,1/2+z
loop_
_atom_site_type_symbol
_atom_site_label
_atom_site_fract_x
_atom_site_fract_y
_atom_site_fract_z
Si Si1 0.785341 0.171143 0.926820
Si Si2 0.570843 0.329300 0.084500
Si Si3 0.000000 0.671744 0.765194
Si Si4 0.877809 0.330665 0.272896
Si Si5 0.135758 0.334551 0.068240
Si Si6 0.570871 0.670629 0.759444
Si Si7 0.654552 0.827988 0.421986
Si Si8 0.000000 0.164223 0.589137
O O1 0.821031 0.211539 0.836727
O O2 0.719189 0.246142 0.921319
O O3 0.776386 0.000000 0.937536
O O4 0.821700 0.226755 0.012806
O O5 0.500000 0.284409 0.061046
O O6 0.575889 0.500000 0.100702
O O7 0.594492 0.250318 0.172078
O O8 0.615451 0.277703 0.006520
O O9 0.062565 0.739652 0.807150
O O10 0.000000 0.500000 0.780274
O O11 0.000000 0.711476 0.662412
O O12 0.894825 0.500000 0.280896
O O13 0.860019 0.291968 0.171841
O O14 0.159288 0.500000 0.054216
O O15 0.063829 0.318493 0.033696
O O16 0.500000 0.715172 0.782824
O O17 0.576053 0.500000 0.743017
O O18 0.615175 0.722291 0.837757
O O19 0.666377 0.000000 0.422186
O O20 0.000000 0.000000 0.632255
#
# Coordination Sequence:
#
# PCOD8177522 Si02
#       8
#     8   8   4   8   8   8   8   4
#     4  11  24  38  53  77 107 141 183 224 261 306
#     4   9  18  34  57  83 108 137 174 213 258 315
#     4  10  18  29  54  87 108 128 170 225 269 309
#     4   9  20  39  57  74 105 145 176 211 267 326
#     4   9  18  36  59  79 104 139 176 214 263 322
#     4   9  18  34  57  84 110 136 171 217 265 309
#     4  10  21  37  55  75 106 146 180 212 257 315
#     4   8  16  33  56  79 106 140 172 209 267 329
#
# _framework density 18.746276999999999
#
# number of rings (size 3 to 8) (size 9 to 14) (size 15 to 20)
#    0.000    2.571    0.000    2.357    0.000    8.000 
#    0.000    5.714    0.000    4.286    0.000    0.000 
#    0.000    0.000    0.000    0.000    0.000    0.000 
#
# Total GULP energy -347159.529976 kJ/mol
# GULP energy per Si atom -12398.554642 kJ/mol
# Density = 1.870361 g / cm^3
# Si number density = 18.746277 Si / 1000 Ang^3
#
#
#
# Elastic Constant Matrix: (Units=GPa)
#
#
# Indices 1 2 3 4 5 6 
#
# 1 157.3321 64.4145 94.4727 0.0000 0.0000 0.0000
# 2 64.4145 63.7631 55.8540 0.0000 0.0000 0.0000
# 3 94.4727 55.8540 134.7093 0.0000 0.0000 0.0000
# 4 0.0000 0.0000 0.0000 29.8924 0.0000 0.0000
# 5 0.0000 0.0000 0.0000 0.0000 81.0127 0.0000
# 6 0.0000 0.0000 0.0000 0.0000 0.0000 30.7349
#
#
#
# Elastic Compliance Matrix: (Units=1/GPa)
#
#
# Indices 1 2 3 4 5 6 
#
# 1 0.013265 -0.008247 -0.005884 0.000000 0.000000 0.000000
# 2 -0.008247 0.029755 -0.006553 0.000000 0.000000 0.000000
# 3 -0.005884 -0.006553 0.014267 0.000000 0.000000 0.000000
# 4 0.000000 0.000000 0.000000 0.033453 0.000000 0.000000
# 5 0.000000 0.000000 0.000000 0.000000 0.012344 0.000000
# 6 0.000000 0.000000 0.000000 0.000000 0.000000 0.032536
#
#
# Mechanical properties :
#
#
# Convention : Reuss Voigt Hill
#
# Bulk Modulus (GPa) = 62.81857 87.25410 75.03634
# Shear Modulus (GPa) = 27.42799 37.73220 32.58009
#
# Velocity S-wave (km/s) = 3.82922 4.49127 4.17340
# Velocity P-wave (km/s) = 7.28925 8.57562 7.95847
#
# Compressibility (1/GPa) = 0.01591886
#
# Stress axis : x y z
#
# Youngs Moduli (GPa) = 75.38379 33.60782 70.09222
#
# Poissons Ratio (x) = 0.27717 0.41240
# Poissons Ratio (y) = 0.62170 0.45935
# Poissons Ratio (z) = 0.44354 0.22025
#
# Static dielectric constant tensor:
#      x y z
#    x 3.533650 0.000000 0.000000 
#    y 0.000000 3.322130 0.000000 
#    z 0.000000 0.000000 3.442960 
# 
# 
# High freq. dielectric constant tensor:
#      x y z
#    x 1.732020 0.000000 0.000000 
#    y 0.000000 1.720270 0.000000 
#    z 0.000000 0.000000 1.723290 
# 
# From -- ./inp_files/15533.got.cif
#   From: 2010.03.12/outbox.cif.g09.slc.cpg/sg38_8_cif.got.tgz:15533.got - 2010.04.14 02:38:36.
