data_PCOD8177898
_publ_section_title
;
Structure prediction by ZEFSAII (Michael W. Deem and Ramdas Pophale) SiO2 
 PCOD8177898
Probable space group: A M M 2
;
_chemical_formula_sum "Si O2"
_cell_formula_units_Z 56
_cell_length_a 9.217436
_cell_length_b 13.761748
_cell_length_c 29.362676
_cell_angle_alpha 90.000000
_cell_angle_beta 90.000000
_cell_angle_gamma 90.000000
_cell_volume 3724.597648
_symmetry_space_group_name_H-M "A M M 2"
_symmetry_group_IT_number 38
_symmetry_cell_setting 'orthorhombic'
loop_
_space_group_symop_operation_xyz
x,y,z
-x,-y,z
-x,y,z
x,-y,z
x,1/2+y,1/2+z
-x,1/2-y,1/2+z
-x,1/2+y,1/2+z
x,1/2-y,1/2+z
loop_
_atom_site_type_symbol
_atom_site_label
_atom_site_fract_x
_atom_site_fract_y
_atom_site_fract_z
Si Si1 0.171947 0.784400 0.456630
Si Si2 0.328973 0.888759 0.915158
Si Si3 0.331211 0.609958 0.877552
Si Si4 0.169722 0.389607 0.048504
Si Si5 0.669611 0.208844 0.823040
Si Si6 0.661525 0.384206 0.135451
Si Si7 0.673414 0.890856 0.734434
O O1 0.243009 0.678209 0.450947
O O2 0.235323 0.861177 0.420708
O O3 0.215413 0.822622 0.506362
O O4 0.000000 0.778007 0.449959
O O5 0.500000 0.869714 0.920808
O O6 0.276901 0.860023 0.864308
O O7 0.287995 0.000000 0.924831
O O8 0.500000 0.623826 0.890801
O O9 0.296140 0.500000 0.863040
O O10 0.291360 0.679258 0.834741
O O11 0.223214 0.500000 0.039252
O O12 0.240723 0.345158 0.094131
O O13 0.000000 0.387925 0.056440
O O14 0.500000 0.193877 0.817608
O O15 0.739788 0.176620 0.774844
O O16 0.500000 0.342662 0.127969
O O17 0.658676 0.500000 0.135931
O O18 0.724855 0.350629 0.184861
O O19 0.500000 0.891444 0.734081
O O20 0.731029 0.000000 0.743019
#
# Coordination Sequence:
#
# PCOD8177898 Si02
#       7
#     8   8   8   8   8   8   8
#     4  10  19  29  42  60  81 107 139 169 200 241
#     4   9  17  29  44  62  84 109 136 165 197 234
#     4   9  17  28  41  59  83 109 138 171 203 236
#     4   9  17  28  40  55  78 107 135 163 198 239
#     4   8  13  22  38  59  81 106 134 160 191 233
#     4   8  14  23  36  56  78  99 127 163 200 237
#     4   8  12  19  34  57  81 101 125 160 198 236
#
# _framework density 15.035181
#
# number of rings (size 3 to 8) (size 9 to 14) (size 15 to 20)
#    0.000    3.286    0.000    3.000    0.000    4.000 
#    0.000    1.429    0.000    3.429    0.000    5.000 
#    0.000    3.429    0.000    0.000    0.000    0.000 
#
# Total GULP energy -346986.765430 kJ/mol
# GULP energy per Si atom -12392.384480 kJ/mol
# Density = 1.500096 g / cm^3
# Si number density = 15.035181 Si / 1000 Ang^3
#
#
#
# Elastic Constant Matrix: (Units=GPa)
#
#
# Indices 1 2 3 4 5 6 
#
# 1 32.3987 28.8027 39.5547 0.0000 0.0000 0.0000
# 2 28.8027 102.5205 65.2109 0.0000 0.0000 0.0000
# 3 39.5547 65.2109 147.9277 0.0000 0.0000 0.0000
# 4 0.0000 0.0000 0.0000 22.9115 0.0000 0.0000
# 5 0.0000 0.0000 0.0000 0.0000 5.3219 0.0000
# 6 0.0000 0.0000 0.0000 0.0000 0.0000 15.7622
#
#
#
# Elastic Compliance Matrix: (Units=1/GPa)
#
#
# Indices 1 2 3 4 5 6 
#
# 1 0.049823 -0.007676 -0.009939 0.000000 0.000000 0.000000
# 2 -0.007676 0.014738 -0.004444 0.000000 0.000000 0.000000
# 3 -0.009939 -0.004444 0.011377 0.000000 0.000000 0.000000
# 4 0.000000 0.000000 0.000000 0.043646 0.000000 0.000000
# 5 0.000000 0.000000 0.000000 0.000000 0.187901 0.000000
# 6 0.000000 0.000000 0.000000 0.000000 0.000000 0.063443
#
#
# Mechanical properties :
#
#
# Convention : Reuss Voigt Hill
#
# Bulk Modulus (GPa) = 31.42685 61.10927 46.26806
# Shear Modulus (GPa) = 11.74669 18.75105 15.24887
#
# Velocity S-wave (km/s) = 2.79817 3.53532 3.18813
# Velocity P-wave (km/s) = 5.60243 7.57609 6.66275
#
# Compressibility (1/GPa) = 0.03181992
#
# Stress axis : x y z
#
# Youngs Moduli (GPa) = 20.07102 67.85387 87.89888
#
# Poissons Ratio (x) = 0.52084 0.87359
# Poissons Ratio (y) = 0.15406 0.39065
# Poissons Ratio (z) = 0.19948 0.30156
#
# Static dielectric constant tensor:
#      x y z
#    x 2.686810 0.000000 0.000000 
#    y 0.000000 2.832870 0.000000 
#    z 0.000000 0.000000 3.164200 
# 
# 
# High freq. dielectric constant tensor:
#      x y z
#    x 1.550050 0.000000 0.000000 
#    y 0.000000 1.549750 0.000000 
#    z 0.000000 0.000000 1.575130 
# 
# From -- ./inp_files/24626.got.cif
#   From: 2010.03.12/outbox.cif.g09.slc.cpg/sg38_13_cif.got.tgz:24626.got - 2010.04.14 02:38:36.
