data_PCOD8177461
_publ_section_title
;
Structure prediction by ZEFSAII (Michael W. Deem and Ramdas Pophale) SiO2 
 PCOD8177461
Probable space group: A M M 2
;
_chemical_formula_sum "Si O2"
_cell_formula_units_Z 64
_cell_length_a 14.168902
_cell_length_b 9.074517
_cell_length_c 30.960244
_cell_angle_alpha 90.000000
_cell_angle_beta 90.000000
_cell_angle_gamma 90.000000
_cell_volume 3980.742539
_symmetry_space_group_name_H-M "A M M 2"
_symmetry_group_IT_number 38
_symmetry_cell_setting 'orthorhombic'
loop_
_space_group_symop_operation_xyz
x,y,z
-x,-y,z
-x,y,z
x,-y,z
x,1/2+y,1/2+z
-x,1/2-y,1/2+z
-x,1/2+y,1/2+z
x,1/2-y,1/2+z
loop_
_atom_site_type_symbol
_atom_site_label
_atom_site_fract_x
_atom_site_fract_y
_atom_site_fract_z
Si Si1 0.611756 0.336985 0.304240
Si Si2 0.894441 0.668155 0.021716
Si Si3 0.388678 0.669775 0.720474
Si Si4 0.393579 0.674402 0.399732
Si Si5 0.605649 0.175089 0.561242
Si Si6 0.719652 0.175000 0.644524
Si Si7 0.709432 0.171098 0.475594
Si Si8 0.107714 0.671945 0.610234
O O1 0.500000 0.349928 0.304456
O O2 0.654187 0.500000 0.294716
O O3 0.645566 0.222481 0.267829
O O4 0.642487 0.280352 0.351784
O O5 0.880784 0.500000 0.038187
O O6 0.872998 0.773118 0.061800
O O7 0.000000 0.693976 0.003503
O O8 0.820748 0.700872 0.983373
O O9 0.500000 0.694599 0.714489
O O10 0.360593 0.500000 0.714815
O O11 0.335338 0.768566 0.686004
O O12 0.500000 0.733916 0.408290
O O13 0.392624 0.500000 0.404379
O O14 0.320895 0.742700 0.433283
O O15 0.500000 0.239644 0.564253
O O16 0.664750 0.232704 0.602080
O O17 0.652625 0.232006 0.517087
O O18 0.604338 0.000000 0.561867
O O19 0.824777 0.242609 0.643603
O O20 0.725961 0.000000 0.646561
O O21 0.687570 0.000000 0.468252
O O22 0.130580 0.500000 0.612098
O O23 0.000000 0.705385 0.623832
#
# Coordination Sequence:
#
# PCOD8177461 Si02
#       8
#     8   8   8   8   8   8   8   8
#     4   8  15  30  49  66  88 121 159 195 233 279
#     4   9  17  31  49  67  89 119 158 200 238 281
#     4  10  20  32  47  71 101 127 156 196 239 282
#     4   9  18  31  46  67  95 125 157 193 233 278
#     4   9  17  28  41  61  91 124 158 191 220 261
#     4  11  20  32  49  68  93 129 166 195 230 280
#     4  10  18  29  45  67  92 122 158 194 233 276
#     4  10  20  33  49  69  93 120 153 200 251 287
#
# _framework density 16.077404000000001
#
# number of rings (size 3 to 8) (size 9 to 14) (size 15 to 20)
#    0.000    2.500    1.250    2.625    0.000    3.750 
#    0.000    1.250    0.000    2.250    0.000    0.875 
#    0.000    3.000    0.000    0.000    0.000    0.000 
#
# Total GULP energy -396751.622092 kJ/mol
# GULP energy per Si atom -12398.488190 kJ/mol
# Density = 1.604081 g / cm^3
# Si number density = 16.077404 Si / 1000 Ang^3
#
#
#
# Elastic Constant Matrix: (Units=GPa)
#
#
# Indices 1 2 3 4 5 6 
#
# 1 88.8938 39.5367 48.9563 0.0000 0.0000 0.0000
# 2 39.5367 65.8069 45.6580 0.0000 0.0000 0.0000
# 3 48.9563 45.6580 113.8707 0.0000 0.0000 0.0000
# 4 0.0000 0.0000 0.0000 27.7819 0.0000 0.0000
# 5 0.0000 0.0000 0.0000 0.0000 11.9926 0.0000
# 6 0.0000 0.0000 0.0000 0.0000 0.0000 21.9465
#
#
#
# Elastic Compliance Matrix: (Units=1/GPa)
#
#
# Indices 1 2 3 4 5 6 
#
# 1 0.016806 -0.007043 -0.004401 0.000000 0.000000 0.000000
# 2 -0.007043 0.024005 -0.006597 0.000000 0.000000 0.000000
# 3 -0.004401 -0.006597 0.013319 0.000000 0.000000 0.000000
# 4 0.000000 0.000000 0.000000 0.035995 0.000000 0.000000
# 5 0.000000 0.000000 0.000000 0.000000 0.083385 0.000000
# 6 0.000000 0.000000 0.000000 0.000000 0.000000 0.045565
#
#
# Mechanical properties :
#
#
# Convention : Reuss Voigt Hill
#
# Bulk Modulus (GPa) = 55.41109 59.65257 57.53183
# Shear Modulus (GPa) = 19.14442 21.30557 20.22500
#
# Velocity S-wave (km/s) = 3.45449 3.64426 3.55064
# Velocity P-wave (km/s) = 7.10291 7.40888 7.25751
#
# Compressibility (1/GPa) = 0.01804693
#
# Stress axis : x y z
#
# Youngs Moduli (GPa) = 59.50311 41.65868 75.07957
#
# Poissons Ratio (x) = 0.29341 0.33044
# Poissons Ratio (y) = 0.41910 0.49529
# Poissons Ratio (z) = 0.26189 0.27482
#
# Static dielectric constant tensor:
#      x y z
#    x 3.079360 0.000000 0.000000 
#    y 0.000000 2.983900 0.000000 
#    z 0.000000 0.000000 3.085590 
# 
# 
# High freq. dielectric constant tensor:
#      x y z
#    x 1.601940 0.000000 0.000000 
#    y 0.000000 1.612570 0.000000 
#    z 0.000000 0.000000 1.605140 
# 
# From -- ./inp_files/25063.got.cif
#   From: 2010.03.12/outbox.cif.g09.slc.cpg/sg38_13_cif.got.tgz:25063.got - 2010.04.14 02:38:36.
