data_PCOD8177463
_publ_section_title
;
Structure prediction by ZEFSAII (Michael W. Deem and Ramdas Pophale) SiO2 
 PCOD8177463
Probable space group: A M M 2
;
_chemical_formula_sum "Si O2"
_cell_formula_units_Z 64
_cell_length_a 19.354151
_cell_length_b 9.272162
_cell_length_c 20.460147
_cell_angle_alpha 90.000000
_cell_angle_beta 90.000000
_cell_angle_gamma 90.000000
_cell_volume 3671.672068
_symmetry_space_group_name_H-M "A M M 2"
_symmetry_group_IT_number 38
_symmetry_cell_setting 'orthorhombic'
loop_
_space_group_symop_operation_xyz
x,y,z
-x,-y,z
-x,y,z
x,-y,z
x,1/2+y,1/2+z
-x,1/2-y,1/2+z
-x,1/2+y,1/2+z
x,1/2-y,1/2+z
loop_
_atom_site_type_symbol
_atom_site_label
_atom_site_fract_x
_atom_site_fract_y
_atom_site_fract_z
Si Si1 0.293174 0.167770 0.168960
Si Si2 0.149238 0.829934 0.116801
Si Si3 0.424478 0.337895 0.165872
Si Si4 0.707338 0.668094 0.822378
Si Si5 0.080720 0.664459 0.749780
Si Si6 0.576242 0.161985 0.821155
Si Si7 0.839688 0.171268 0.859299
Si Si8 0.922075 0.328578 0.487394
O O1 0.226175 0.230777 0.131323
O O2 0.361669 0.241538 0.139052
O O3 0.282424 0.199599 0.245609
O O4 0.302772 0.000000 0.156473
O O5 0.097762 0.790366 0.175745
O O6 0.155196 0.000000 0.109366
O O7 0.117840 0.763308 0.050378
O O8 0.500000 0.280745 0.141640
O O9 0.413229 0.500000 0.140376
O O10 0.423687 0.334196 0.243493
O O11 0.712338 0.500000 0.838647
O O12 0.633298 0.726560 0.847654
O O13 0.765189 0.754048 0.862439
O O14 0.106371 0.500000 0.763162
O O15 0.119006 0.774837 0.796567
O O16 0.000000 0.678471 0.761818
O O17 0.500000 0.207833 0.846868
O O18 0.593916 0.000000 0.845134
O O19 0.881606 0.220934 0.923078
O O20 0.830629 0.000000 0.855337
O O21 0.925025 0.500000 0.492103
O O22 0.000000 0.266185 0.485050
#
# Coordination Sequence:
#
# PCOD8177463 Si02
#       8
#     8   8   8   8   8   8   8   8
#     4   9  16  26  43  67  94 120 153 198 237 275
#     4   9  16  30  49  71  96 122 158 201 242 285
#     4   8  14  24  38  59  91 128 159 185 222 278
#     4  10  18  29  45  68  98 129 165 202 240 289
#     4  10  19  32  52  74  95 122 156 195 244 298
#     4   8  14  25  41  64  96 131 163 195 238 289
#     4  11  21  32  48  71  99 128 160 201 248 293
#     4   9  18  32  50  71  94 123 161 204 246 291
#
# _framework density 17.43075
#
# number of rings (size 3 to 8) (size 9 to 14) (size 15 to 20)
#    0.000    2.750    1.250    2.250    0.000    3.250 
#    0.000    2.500    0.000    3.000    0.000    0.875 
#    0.000    3.000    0.000    0.000    0.000    0.000 
#
# Total GULP energy -396663.900503 kJ/mol
# GULP energy per Si atom -12395.746891 kJ/mol
# Density = 1.739108 g / cm^3
# Si number density = 17.430750 Si / 1000 Ang^3
#
#
#
# Elastic Constant Matrix: (Units=GPa)
#
#
# Indices 1 2 3 4 5 6 
#
# 1 159.8683 57.1877 42.5299 0.0000 0.0000 0.0000
# 2 57.1877 62.5425 27.4607 0.0000 0.0000 0.0000
# 3 42.5299 27.4607 62.2772 0.0000 0.0000 0.0000
# 4 0.0000 0.0000 0.0000 12.3469 0.0000 0.0000
# 5 0.0000 0.0000 0.0000 0.0000 20.5925 0.0000
# 6 0.0000 0.0000 0.0000 0.0000 0.0000 31.3493
#
#
#
# Elastic Compliance Matrix: (Units=1/GPa)
#
#
# Indices 1 2 3 4 5 6 
#
# 1 0.009849 -0.007506 -0.003416 0.000000 0.000000 0.000000
# 2 -0.007506 0.025548 -0.006139 0.000000 0.000000 0.000000
# 3 -0.003416 -0.006139 0.021098 0.000000 0.000000 0.000000
# 4 0.000000 0.000000 0.000000 0.080992 0.000000 0.000000
# 5 0.000000 0.000000 0.000000 0.000000 0.048561 0.000000
# 6 0.000000 0.000000 0.000000 0.000000 0.000000 0.031899
#
#
# Mechanical properties :
#
#
# Convention : Reuss Voigt Hill
#
# Bulk Modulus (GPa) = 44.70018 59.89386 52.29702
# Shear Modulus (GPa) = 19.26586 23.35838 21.31212
#
# Velocity S-wave (km/s) = 3.32818 3.66466 3.50047
# Velocity P-wave (km/s) = 6.36154 7.23478 6.81216
#
# Compressibility (1/GPa) = 0.02237127
#
# Stress axis : x y z
#
# Youngs Moduli (GPa) = 101.53407 39.14228 47.39898
#
# Poissons Ratio (x) = 0.29379 0.16193
# Poissons Ratio (y) = 0.76208 0.29100
# Poissons Ratio (z) = 0.34688 0.24031
#
# Static dielectric constant tensor:
#      x y z
#    x 3.728210 0.000000 0.000000 
#    y 0.000000 3.065410 0.000000 
#    z 0.000000 0.000000 2.957640 
# 
# 
# High freq. dielectric constant tensor:
#      x y z
#    x 1.696460 0.000000 0.000000 
#    y 0.000000 1.647790 0.000000 
#    z 0.000000 0.000000 1.625990 
# 
# From -- ./inp_files/18908.got.cif
#   From: 2010.03.12/outbox.cif.g09.slc.cpg/sg38_10_cif.got.tgz:18908.got - 2010.04.14 02:38:36.
