data_PCOD8177492
_publ_section_title
;
Structure prediction by ZEFSAII (Michael W. Deem and Ramdas Pophale) SiO2 
 PCOD8177492
Probable space group: A M M 2
;
_chemical_formula_sum "Si O2"
_cell_formula_units_Z 64
_cell_length_a 14.614204
_cell_length_b 9.278644
_cell_length_c 24.712843
_cell_angle_alpha 90.000000
_cell_angle_beta 90.000000
_cell_angle_gamma 90.000000
_cell_volume 3351.061418
_symmetry_space_group_name_H-M "A M M 2"
_symmetry_group_IT_number 38
_symmetry_cell_setting 'orthorhombic'
loop_
_space_group_symop_operation_xyz
x,y,z
-x,-y,z
-x,y,z
x,-y,z
x,1/2+y,1/2+z
-x,1/2-y,1/2+z
-x,1/2+y,1/2+z
x,1/2-y,1/2+z
loop_
_atom_site_type_symbol
_atom_site_label
_atom_site_fract_x
_atom_site_fract_y
_atom_site_fract_z
Si Si1 0.107082 0.670499 0.856140
Si Si2 0.794836 0.830407 0.953399
Si Si3 0.100396 0.336330 0.167820
Si Si4 0.400713 0.335083 0.491303
Si Si5 0.787256 0.667724 0.751016
Si Si6 0.163507 0.339438 0.056345
Si Si7 0.399147 0.335068 0.704005
Si Si8 0.364590 0.662631 0.096029
O O1 0.118997 0.500000 0.863517
O O2 0.153058 0.748507 0.906431
O O3 0.162963 0.730577 0.804207
O O4 0.000000 0.712117 0.851122
O O5 0.686022 0.787923 0.953960
O O6 0.810017 0.000000 0.946464
O O7 0.840903 0.779032 0.009414
O O8 0.134236 0.500000 0.176622
O O9 0.170558 0.231634 0.196747
O O10 0.090992 0.303401 0.103381
O O11 0.000000 0.312973 0.193158
O O12 0.500000 0.318538 0.460923
O O13 0.383825 0.500000 0.508646
O O14 0.409232 0.242410 0.545282
O O15 0.807247 0.500000 0.749860
O O16 0.678324 0.703826 0.749056
O O17 0.148244 0.500000 0.031283
O O18 0.256640 0.333635 0.090033
O O19 0.500000 0.313943 0.730503
O O20 0.384515 0.500000 0.685340
O O21 0.393137 0.237004 0.651437
O O22 0.402265 0.500000 0.097068
#
# Coordination Sequence:
#
# PCOD8177492 Si02
#       8
#     8   8   8   8   8   8   8   8
#     4  10  22  41  62  81 104 139 181 227 284 340
#     4  10  21  36  57  84 110 139 183 232 272 318
#     4  10  20  34  54  81 112 145 178 217 274 334
#     4   9  18  33  52  76 111 151 184 217 265 322
#     4  10  21  38  59  80 107 142 184 229 270 323
#     4   9  18  33  51  76 114 152 180 215 269 327
#     4  10  20  33  51  77 110 147 183 220 268 322
#     4  10  18  29  48  76 111 149 188 225 258 307
#
# _framework density 19.098426
#
# number of rings (size 3 to 8) (size 9 to 14) (size 15 to 20)
#    0.000    2.250    1.250    1.500    0.000    5.500 
#    0.000    1.875    0.000    0.750    0.000    0.000 
#    0.000    0.000    0.000    0.000    0.000    0.000 
#
# Total GULP energy -396596.850660 kJ/mol
# GULP energy per Si atom -12393.651583 kJ/mol
# Density = 1.905496 g / cm^3
# Si number density = 19.098426 Si / 1000 Ang^3
#
#
#
# Elastic Constant Matrix: (Units=GPa)
#
#
# Indices 1 2 3 4 5 6 
#
# 1 132.4097 45.2678 66.2615 0.0000 0.0000 0.0000
# 2 45.2678 55.1103 37.3401 0.0000 0.0000 0.0000
# 3 66.2615 37.3401 95.1143 0.0000 0.0000 0.0000
# 4 0.0000 0.0000 0.0000 27.1107 0.0000 0.0000
# 5 0.0000 0.0000 0.0000 0.0000 19.6964 0.0000
# 6 0.0000 0.0000 0.0000 0.0000 0.0000 21.1500
#
#
#
# Elastic Compliance Matrix: (Units=1/GPa)
#
#
# Indices 1 2 3 4 5 6 
#
# 1 0.012973 -0.006175 -0.006613 0.000000 0.000000 0.000000
# 2 -0.006175 0.027660 -0.006557 0.000000 0.000000 0.000000
# 3 -0.006613 -0.006557 0.017695 0.000000 0.000000 0.000000
# 4 0.000000 0.000000 0.000000 0.036886 0.000000 0.000000
# 5 0.000000 0.000000 0.000000 0.000000 0.050771 0.000000
# 6 0.000000 0.000000 0.000000 0.000000 0.000000 0.047281
#
#
# Mechanical properties :
#
#
# Convention : Reuss Voigt Hill
#
# Bulk Modulus (GPa) = 50.92344 64.48591 57.70468
# Shear Modulus (GPa) = 20.96406 22.50908 21.73657
#
# Velocity S-wave (km/s) = 3.31673 3.43677 3.37728
# Velocity P-wave (km/s) = 6.43344 7.04180 6.74448
#
# Compressibility (1/GPa) = 0.01963732
#
# Stress axis : x y z
#
# Youngs Moduli (GPa) = 77.08324 36.15266 56.51281
#
# Poissons Ratio (x) = 0.22325 0.37374
# Poissons Ratio (y) = 0.47600 0.37056
# Poissons Ratio (z) = 0.50978 0.23706
#
# Static dielectric constant tensor:
#      x y z
#    x 3.956100 0.000000 0.000000 
#    y 0.000000 3.490970 0.000000 
#    z 0.000000 0.000000 3.269860 
# 
# 
# High freq. dielectric constant tensor:
#      x y z
#    x 1.760770 0.000000 0.000000 
#    y 0.000000 1.739080 0.000000 
#    z 0.000000 0.000000 1.711090 
# 
# From -- ./inp_files/22970.got.cif
#   From: 2010.03.12/outbox.cif.g09.slc.cpg/sg38_12_cif.got.tgz:22970.got - 2010.04.14 02:38:36.
