data_PCOD8177363
_publ_section_title
;
Structure prediction by ZEFSAII (Michael W. Deem and Ramdas Pophale) SiO2 
 PCOD8177363
Probable space group: A M M 2
;
_chemical_formula_sum "Si O2"
_cell_formula_units_Z 64
_cell_length_a 8.795854
_cell_length_b 26.669842
_cell_length_c 18.414345
_cell_angle_alpha 90.000000
_cell_angle_beta 90.000000
_cell_angle_gamma 90.000000
_cell_volume 4319.711378
_symmetry_space_group_name_H-M "A M M 2"
_symmetry_group_IT_number 38
_symmetry_cell_setting 'orthorhombic'
loop_
_space_group_symop_operation_xyz
x,y,z
-x,-y,z
-x,y,z
x,-y,z
x,1/2+y,1/2+z
-x,1/2-y,1/2+z
-x,1/2+y,1/2+z
x,1/2-y,1/2+z
loop_
_atom_site_type_symbol
_atom_site_label
_atom_site_fract_x
_atom_site_fract_y
_atom_site_fract_z
Si Si1 0.679707 0.749034 0.093920
Si Si2 0.679477 0.850440 0.674690
Si Si3 0.172556 0.853995 0.353654
Si Si4 0.320733 0.444641 0.927814
Si Si5 0.318844 0.055426 0.590633
Si Si6 0.676712 0.204337 0.811363
Si Si7 0.175810 0.209864 0.222935
Si Si8 0.177835 0.253564 0.938611
O O1 0.500000 0.755977 0.101107
O O2 0.739101 0.695675 0.125258
O O3 0.765837 0.793302 0.139622
O O4 0.726475 0.753575 0.010859
O O5 0.500000 0.851613 0.665333
O O6 0.750121 0.902621 0.645008
O O7 0.720655 0.843618 0.760407
O O8 0.268310 0.903063 0.371051
O O9 0.191810 0.842219 0.267517
O O10 0.225357 0.806036 0.401166
O O11 0.000000 0.866374 0.373177
O O12 0.500000 0.444855 0.928190
O O13 0.261044 0.500000 0.904507
O O14 0.261794 0.432142 0.009075
O O15 0.500000 0.056231 0.592612
O O16 0.260821 0.000000 0.614115
O O17 0.500000 0.203549 0.833101
O O18 0.709697 0.251576 0.760505
O O19 0.777293 0.207848 0.884291
O O20 0.000000 0.227991 0.227453
O O21 0.000000 0.250797 0.955336
#
# Coordination Sequence:
#
# PCOD8177363 Si02
#       8
#     8   8   8   8   8   8   8   8
#     4  10  18  27  41  60  80 105 136 166 200 239
#     4   8  14  23  36  55  77 102 132 163 193 229
#     4   9  18  29  41  57  78 108 139 165 199 240
#     4   9  17  27  40  59  81 106 137 172 205 234
#     4   8  13  22  36  55  79 104 130 162 198 229
#     4   9  16  26  39  56  78 103 134 168 199 235
#     4   9  17  29  41  56  80 105 132 166 202 241
#     4  10  19  29  40  57  81 107 136 167 202 242
#
# _framework density 14.815804
#
# number of rings (size 3 to 8) (size 9 to 14) (size 15 to 20)
#    0.000    3.000    0.000    4.500    0.000    4.250 
#    0.000    0.000    0.000    0.750    0.000    0.000 
#    0.000    1.000    0.000    5.250    0.000    2.625 
#
# Total GULP energy -396479.465886 kJ/mol
# GULP energy per Si atom -12389.983309 kJ/mol
# Density = 1.478208 g / cm^3
# Si number density = 14.815804 Si / 1000 Ang^3
#
#
#
# Elastic Constant Matrix: (Units=GPa)
#
#
# Indices 1 2 3 4 5 6 
#
# 1 36.2087 23.7785 22.2790 0.0000 0.0000 0.0000
# 2 23.7785 82.3863 52.8377 0.0000 0.0000 0.0000
# 3 22.2790 52.8377 94.1417 0.0000 0.0000 0.0000
# 4 0.0000 0.0000 0.0000 24.3317 0.0000 0.0000
# 5 0.0000 0.0000 0.0000 0.0000 22.1724 0.0000
# 6 0.0000 0.0000 0.0000 0.0000 0.0000 13.1201
#
#
#
# Elastic Compliance Matrix: (Units=1/GPa)
#
#
# Indices 1 2 3 4 5 6 
#
# 1 0.035056 -0.007495 -0.004089 0.000000 0.000000 0.000000
# 2 -0.007495 0.020567 -0.009769 0.000000 0.000000 0.000000
# 3 -0.004089 -0.009769 0.017073 0.000000 0.000000 0.000000
# 4 0.000000 0.000000 0.000000 0.041099 0.000000 0.000000
# 5 0.000000 0.000000 0.000000 0.000000 0.045101 0.000000
# 6 0.000000 0.000000 0.000000 0.000000 0.000000 0.076219
#
#
# Mechanical properties :
#
#
# Convention : Reuss Voigt Hill
#
# Bulk Modulus (GPa) = 33.34684 45.61412 39.48048
# Shear Modulus (GPa) = 17.37204 19.51429 18.44316
#
# Velocity S-wave (km/s) = 3.42794 3.63316 3.53204
# Velocity P-wave (km/s) = 6.18257 6.96090 6.58325
#
# Compressibility (1/GPa) = 0.02998785
#
# Stress axis : x y z
#
# Youngs Moduli (GPa) = 28.52575 48.62208 58.57123
#
# Poissons Ratio (x) = 0.36444 0.23952
# Poissons Ratio (y) = 0.21381 0.57221
# Poissons Ratio (z) = 0.11665 0.47501
#
# Static dielectric constant tensor:
#      x y z
#    x 2.714250 0.000000 0.000000 
#    y 0.000000 2.921190 0.000000 
#    z 0.000000 0.000000 3.047290 
# 
# 
# High freq. dielectric constant tensor:
#      x y z
#    x 1.558670 0.000000 0.000000 
#    y 0.000000 1.530730 0.000000 
#    z 0.000000 0.000000 1.560040 
# 
# From -- ./inp_files/17353.got.cif
#   From: 2010.03.12/outbox.cif.g09.slc.cpg/sg38_9_cif.got.tgz:17353.got - 2010.04.14 02:38:36.
