data_PCOD8177010
_publ_section_title
;
Structure prediction by ZEFSAII (Michael W. Deem and Ramdas Pophale) SiO2 
 PCOD8177010
Probable space group: C C C 2
;
_chemical_formula_sum "Si O2"
_cell_formula_units_Z 52
_cell_length_a 23.930959
_cell_length_b 10.858704
_cell_length_c 8.731270
_cell_angle_alpha 90.000000
_cell_angle_beta 90.000000
_cell_angle_gamma 90.000000
_cell_volume 2268.900839
_symmetry_space_group_name_H-M "C C C 2"
_symmetry_group_IT_number 37
_symmetry_cell_setting 'orthorhombic'
loop_
_space_group_symop_operation_xyz
x,y,z
-x,-y,z
-x,y,1/2+z
x,-y,1/2+z
1/2+x,1/2+y,z
1/2-x,1/2-y,z
1/2-x,1/2+y,1/2+z
1/2+x,1/2-y,1/2+z
loop_
_atom_site_type_symbol
_atom_site_label
_atom_site_fract_x
_atom_site_fract_y
_atom_site_fract_z
Si Si1 0.750000 0.750000 0.449780
Si Si2 0.016392 0.138203 0.868586
Si Si3 0.878430 0.871177 0.062515
Si Si4 0.156272 0.085721 0.389175
Si Si5 0.195874 0.339374 0.991799
Si Si6 0.075735 0.243500 0.572867
Si Si7 0.670970 0.088520 0.147233
O O1 0.784634 0.848506 0.347527
O O2 0.706627 0.815638 0.555422
O O3 0.058117 0.117493 0.010119
O O4 0.046133 0.207013 0.729851
O O5 0.967638 0.230789 0.930441
O O6 0.000000 0.000000 0.817946
O O7 0.858403 0.732193 0.051291
O O8 0.835330 0.947406 0.952120
O O9 0.880400 0.917950 0.236694
O O10 0.124833 0.148126 0.532560
O O11 0.250000 0.250000 0.003757
O O12 0.183349 0.391666 0.824838
O O13 0.194624 0.453569 0.108957
O O14 0.105824 0.378352 0.599468
#
# Coordination Sequence:
#
# PCOD8177010 Si02
#       7
#     4   8   8   8   8   8   8
#     4  10  24  44  74  96 148 190 248 298 376 444
#     4  12  23  41  74 115 145 196 252 313 372 444
#     4  12  26  44  74 109 149 192 252 308 378 437
#     4  11  25  42  68 109 145 193 243 311 374 447
#     4  12  28  48  79 106 150 197 249 304 374 453
#     4  11  24  44  71 105 150 191 247 316 372 438
#     4  11  26  49  71 107 148 194 247 307 370 453
#
# _framework density 22.918586999999999
#
# number of rings (size 3 to 8) (size 9 to 14) (size 15 to 20)
#    0.000    0.615    3.846    3.231    7.538    2.462 
#    0.000    0.769    0.000    0.000    0.000    0.000 
#    0.000    0.000    0.000    0.000    0.000    0.000 
#
# Total GULP energy -322191.924124 kJ/mol
# GULP energy per Si atom -12391.997082 kJ/mol
# Density = 2.286642 g / cm^3
# Si number density = 22.918587 Si / 1000 Ang^3
#
#
#
# Elastic Constant Matrix: (Units=GPa)
#
#
# Indices 1 2 3 4 5 6 
#
# 1 115.6324 52.3294 32.8792 0.0000 0.0000 0.0000
# 2 52.3294 110.6680 45.2721 0.0000 0.0000 0.0000
# 3 32.8792 45.2721 115.4579 0.0000 0.0000 0.0000
# 4 0.0000 0.0000 0.0000 38.4121 0.0000 0.0000
# 5 0.0000 0.0000 0.0000 0.0000 33.4894 0.0000
# 6 0.0000 0.0000 0.0000 0.0000 0.0000 37.8070
#
#
#
# Elastic Compliance Matrix: (Units=1/GPa)
#
#
# Indices 1 2 3 4 5 6 
#
# 1 0.011169 -0.004741 -0.001322 0.000000 0.000000 0.000000
# 2 -0.004741 0.012774 -0.003659 0.000000 0.000000 0.000000
# 3 -0.001322 -0.003659 0.010472 0.000000 0.000000 0.000000
# 4 0.000000 0.000000 0.000000 0.026033 0.000000 0.000000
# 5 0.000000 0.000000 0.000000 0.000000 0.029860 0.000000
# 6 0.000000 0.000000 0.000000 0.000000 0.000000 0.026450
#
#
# Mechanical properties :
#
#
# Convention : Reuss Voigt Hill
#
# Bulk Modulus (GPa) = 66.78636 66.96884 66.87760
# Shear Modulus (GPa) = 35.41228 36.02688 35.71958
#
# Velocity S-wave (km/s) = 3.93508 3.96908 3.95212
# Velocity P-wave (km/s) = 7.06049 7.09144 7.07598
#
# Compressibility (1/GPa) = 0.01497312
#
# Stress axis : x y z
#
# Youngs Moduli (GPa) = 89.53077 78.28108 95.48992
#
# Poissons Ratio (x) = 0.37111 0.12622
# Poissons Ratio (y) = 0.42444 0.34940
# Poissons Ratio (z) = 0.11835 0.28643
#
# Static dielectric constant tensor:
#      x y z
#    x 4.479110 0.000000 0.000000 
#    y 0.000000 4.313660 0.000000 
#    z 0.000000 0.000000 4.105150 
# 
# 
# High freq. dielectric constant tensor:
#      x y z
#    x 1.912320 0.000000 0.000000 
#    y 0.000000 1.891060 0.000000 
#    z 0.000000 0.000000 1.918580 
# 
# From -- ./inp_files/4782.got.cif
#   From: 2010.03.12/outbox.cif.g09.slc.cpg/sg37_3_cif.got.tgz:4782.got - 2010.04.14 02:25:27.
