data_PCOD8177670
_publ_section_title
;
Structure prediction by ZEFSAII (Michael W. Deem and Ramdas Pophale) SiO2 
 PCOD8177670
Probable space group: A M M 2
;
_chemical_formula_sum "Si O2"
_cell_formula_units_Z 56
_cell_length_a 9.053548
_cell_length_b 20.087773
_cell_length_c 15.544427
_cell_angle_alpha 90.000000
_cell_angle_beta 90.000000
_cell_angle_gamma 90.000000
_cell_volume 2826.996808
_symmetry_space_group_name_H-M "A M M 2"
_symmetry_group_IT_number 38
_symmetry_cell_setting 'orthorhombic'
loop_
_space_group_symop_operation_xyz
x,y,z
-x,-y,z
-x,y,z
x,-y,z
x,1/2+y,1/2+z
-x,1/2-y,1/2+z
-x,1/2+y,1/2+z
x,1/2-y,1/2+z
loop_
_atom_site_type_symbol
_atom_site_label
_atom_site_fract_x
_atom_site_fract_y
_atom_site_fract_z
Si Si1 0.674488 0.304695 0.058410
Si Si2 0.659155 0.426280 0.292900
Si Si3 0.169133 0.421638 0.133053
Si Si4 0.825296 0.573469 0.642424
Si Si5 0.175177 0.285914 0.704679
Si Si6 0.164334 0.897385 0.951276
Si Si7 0.165229 0.754174 0.397522
O O1 0.500000 0.299453 0.068680
O O2 0.728579 0.380884 0.067894
O O3 0.748448 0.256389 0.129135
O O4 0.720044 0.289183 0.960764
O O5 0.500000 0.387810 0.291426
O O6 0.629079 0.500000 0.258543
O O7 0.779562 0.395748 0.227764
O O8 0.722612 0.432732 0.388029
O O9 0.188351 0.500000 0.116317
O O10 0.000000 0.399867 0.122771
O O11 0.762691 0.500000 0.671421
O O12 0.772819 0.636051 0.700549
O O13 0.772238 0.589688 0.545882
O O14 0.000000 0.570156 0.645104
O O15 0.221934 0.259425 0.798937
O O16 0.000000 0.279904 0.689098
O O17 0.159880 0.820949 0.927325
O O18 0.000000 0.928201 0.942053
O O19 0.000000 0.785544 0.404754
#
# Coordination Sequence:
#
# PCOD8177670 Si02
#       7
#     8   8   8   8   8   8   8
#     4  12  24  38  60  88 121 154 188 243 305 366
#     4  10  20  32  48  77 117 152 183 226 287 356
#     4  10  21  38  60  83 110 149 196 241 287 347
#     4   9  17  31  54  83 114 151 198 253 304 347
#     4  10  20  38  62  87 118 157 205 255 298 353
#     4  10  18  31  52  78 108 148 199 249 293 349
#     4  10  21  37  59  84 112 151 199 247 295 353
#
# _framework density 19.809006
#
# number of rings (size 3 to 8) (size 9 to 14) (size 15 to 20)
#    0.000    1.857    1.429    3.429    0.000    4.571 
#    0.000    0.714    0.000    3.000    0.000    0.000 
#    0.000    0.000    0.000    0.000    0.000    0.000 
#
# Total GULP energy -346955.890481 kJ/mol
# GULP energy per Si atom -12391.281803 kJ/mol
# Density = 1.976392 g / cm^3
# Si number density = 19.809006 Si / 1000 Ang^3
#
#
#
# Elastic Constant Matrix: (Units=GPa)
#
#
# Indices 1 2 3 4 5 6 
#
# 1 100.3721 27.1696 38.4049 0.0000 0.0000 0.0000
# 2 27.1696 82.7015 21.6824 0.0000 0.0000 0.0000
# 3 38.4049 21.6824 82.3225 0.0000 0.0000 0.0000
# 4 0.0000 0.0000 0.0000 35.0624 0.0000 0.0000
# 5 0.0000 0.0000 0.0000 0.0000 2.6646 0.0000
# 6 0.0000 0.0000 0.0000 0.0000 0.0000 -11.9385
#
#
#
# Elastic Compliance Matrix: (Units=1/GPa)
#
#
# Indices 1 2 3 4 5 6 
#
# 1 0.012710 -0.002815 -0.005188 0.000000 0.000000 0.000000
# 2 -0.002815 0.013612 -0.002272 0.000000 0.000000 0.000000
# 3 -0.005188 -0.002272 0.015166 0.000000 0.000000 0.000000
# 4 0.000000 0.000000 0.000000 0.028521 0.000000 0.000000
# 5 0.000000 0.000000 0.000000 0.000000 0.375289 0.000000
# 6 0.000000 0.000000 0.000000 0.000000 0.000000 -0.083763
#
#
# Mechanical properties :
#
#
# Convention : Reuss Voigt Hill
#
# Bulk Modulus (GPa) = 47.76016 48.87887 48.31952
# Shear Modulus (GPa) = 12.85132 17.03365 14.94248
#
# Velocity S-wave (km/s) = 2.54984 2.93558 2.74948
# Velocity P-wave (km/s) = 5.72989 6.01820 5.87581
#
# Compressibility (1/GPa) = 0.02093795
#
# Stress axis : x y z
#
# Youngs Moduli (GPa) = 78.67780 73.46339 65.93710
#
# Poissons Ratio (x) = 0.20683 0.34208
# Poissons Ratio (y) = 0.22151 0.14979
# Poissons Ratio (z) = 0.40818 0.16689
#
# Static dielectric constant tensor:
#      x y z
#    x 3.624740 0.000000 0.000000 
#    y 0.000000 3.765800 0.000000 
#    z 0.000000 0.000000 3.623720 
# 
# 
# High freq. dielectric constant tensor:
#      x y z
#    x 1.752860 0.000000 0.000000 
#    y 0.000000 1.775990 0.000000 
#    z 0.000000 0.000000 1.758540 
# 
# From -- ./inp_files/12369.got.cif
#   From: 2010.03.12/outbox.cif.g09.slc.cpg/sg38_7_cif.got.tgz:12369.got - 2010.04.14 02:38:36.
