data_PCOD8177638
_publ_section_title
;
Structure prediction by ZEFSAII (Michael W. Deem and Ramdas Pophale) SiO2 
 PCOD8177638
Probable space group: A M M 2
;
_chemical_formula_sum "Si O2"
_cell_formula_units_Z 48
_cell_length_a 17.824308
_cell_length_b 13.337976
_cell_length_c 12.801759
_cell_angle_alpha 90.000000
_cell_angle_beta 90.000000
_cell_angle_gamma 90.000000
_cell_volume 3043.492647
_symmetry_space_group_name_H-M "A M M 2"
_symmetry_group_IT_number 38
_symmetry_cell_setting 'orthorhombic'
loop_
_space_group_symop_operation_xyz
x,y,z
-x,-y,z
-x,y,z
x,-y,z
x,1/2+y,1/2+z
-x,1/2-y,1/2+z
-x,1/2+y,1/2+z
x,1/2-y,1/2+z
loop_
_atom_site_type_symbol
_atom_site_label
_atom_site_fract_x
_atom_site_fract_y
_atom_site_fract_z
Si Si1 0.415066 0.615716 0.016660
Si Si2 0.806287 0.254479 0.797718
Si Si3 0.695695 0.763233 0.125590
Si Si4 0.197746 0.883716 0.986336
Si Si5 0.672795 0.115167 0.314126
Si Si6 0.085931 0.114802 0.174343
O O1 0.500000 0.653112 0.032379
O O2 0.406477 0.500000 0.048317
O O3 0.359963 0.677060 0.090110
O O4 0.394120 0.631899 0.895668
O O5 0.764272 0.213857 0.692564
O O6 0.749597 0.332496 0.855448
O O7 0.881516 0.313278 0.764537
O O8 0.826420 0.164095 0.875465
O O9 0.728037 0.828136 0.029479
O O10 0.649271 0.837845 0.202321
O O11 0.129217 0.869666 0.065725
O O12 0.217095 0.000000 0.968489
O O13 0.692024 0.000000 0.296696
O O14 0.000000 0.144229 0.154895
O O15 0.094292 0.000000 0.212022
#
# Coordination Sequence:
#
# PCOD8177638 Si02
#       6
#     8   8   8   8   8   8
#     4  10  20  33  49  72 102 132 162 201 251 301
#     4   9  18  29  51  75  95 126 163 204 242 284
#     4   9  17  32  48  72  93 130 162 205 242 289
#     4  10  18  31  50  74  99 129 166 204 247 293
#     4   9  17  31  51  73  94 122 163 208 241 284
#     4   9  18  32  51  74 101 130 162 202 247 294
#
# _framework density 15.771353
#
# number of rings (size 3 to 8) (size 9 to 14) (size 15 to 20)
#    1.000    1.667    1.667    1.000    0.000    2.000 
#    0.000    0.000    0.000    1.500    0.000    0.000 
#    0.000    0.000    0.000    0.000    0.000    0.000 
#
# Total GULP energy -297417.302833 kJ/mol
# GULP energy per Si atom -12392.387618 kJ/mol
# Density = 1.573546 g / cm^3
# Si number density = 15.771353 Si / 1000 Ang^3
#
#
#
# Elastic Constant Matrix: (Units=GPa)
#
#
# Indices 1 2 3 4 5 6 
#
# 1 102.9896 52.7049 33.4035 0.0000 0.0000 0.0000
# 2 52.7049 89.1394 54.9412 0.0000 0.0000 0.0000
# 3 33.4035 54.9412 76.7097 0.0000 0.0000 0.0000
# 4 0.0000 0.0000 0.0000 34.3639 0.0000 0.0000
# 5 0.0000 0.0000 0.0000 0.0000 17.7898 0.0000
# 6 0.0000 0.0000 0.0000 0.0000 0.0000 25.5779
#
#
#
# Elastic Compliance Matrix: (Units=1/GPa)
#
#
# Indices 1 2 3 4 5 6 
#
# 1 0.013926 -0.008050 -0.000299 0.000000 0.000000 0.000000
# 2 -0.008050 0.024738 -0.014212 0.000000 0.000000 0.000000
# 3 -0.000299 -0.014212 0.023345 0.000000 0.000000 0.000000
# 4 0.000000 0.000000 0.000000 0.029100 0.000000 0.000000
# 5 0.000000 0.000000 0.000000 0.000000 0.056212 0.000000
# 6 0.000000 0.000000 0.000000 0.000000 0.000000 0.039096
#
#
# Mechanical properties :
#
#
# Convention : Reuss Voigt Hill
#
# Bulk Modulus (GPa) = 59.21561 61.21532 60.21547
# Shear Modulus (GPa) = 21.08198 24.06559 22.57378
#
# Velocity S-wave (km/s) = 3.66009 3.91052 3.78738
# Velocity P-wave (km/s) = 7.44913 7.69988 7.57554
#
# Compressibility (1/GPa) = 0.01688744
#
# Stress axis : x y z
#
# Youngs Moduli (GPa) = 71.80737 40.42377 42.83486
#
# Poissons Ratio (x) = 0.32541 0.01279
# Poissons Ratio (y) = 0.57805 0.60879
# Poissons Ratio (z) = 0.02144 0.57452
#
# Static dielectric constant tensor:
#      x y z
#    x 2.868850 0.000000 0.000000 
#    y 0.000000 2.893050 0.000000 
#    z 0.000000 0.000000 2.897920 
# 
# 
# High freq. dielectric constant tensor:
#      x y z
#    x 1.592880 0.000000 0.000000 
#    y 0.000000 1.598910 0.000000 
#    z 0.000000 0.000000 1.598530 
# 
# From -- ./inp_files/15141.got.cif
#   From: 2010.03.12/outbox.cif.g09.slc.cpg/sg38_8_cif.got.tgz:15141.got - 2010.04.14 02:38:36.
