data_PCOD8177920
_publ_section_title
;
Structure prediction by ZEFSAII (Michael W. Deem and Ramdas Pophale) SiO2 
 PCOD8177920
Probable space group: A M M 2
;
_chemical_formula_sum "Si O2"
_cell_formula_units_Z 56
_cell_length_a 15.146788
_cell_length_b 9.220157
_cell_length_c 24.921783
_cell_angle_alpha 90.000000
_cell_angle_beta 90.000000
_cell_angle_gamma 90.000000
_cell_volume 3480.470630
_symmetry_space_group_name_H-M "A M M 2"
_symmetry_group_IT_number 38
_symmetry_cell_setting 'orthorhombic'
loop_
_space_group_symop_operation_xyz
x,y,z
-x,-y,z
-x,y,z
x,-y,z
x,1/2+y,1/2+z
-x,1/2-y,1/2+z
-x,1/2+y,1/2+z
x,1/2-y,1/2+z
loop_
_atom_site_type_symbol
_atom_site_label
_atom_site_fract_x
_atom_site_fract_y
_atom_site_fract_z
Si Si1 0.597600 0.836421 0.670530
Si Si2 0.898498 0.168619 0.384526
Si Si3 0.768563 0.828619 0.171953
Si Si4 0.595814 0.337087 0.297988
Si Si5 0.237579 0.168023 0.295433
Si Si6 0.895103 0.163954 0.988512
Si Si7 0.895927 0.330902 0.093752
O O1 0.500000 0.787867 0.649446
O O2 0.674009 0.728431 0.649434
O O3 0.596924 0.832128 0.734200
O O4 0.618123 0.000000 0.650639
O O5 0.846298 0.213158 0.330950
O O6 0.860387 0.260863 0.434206
O O7 0.000000 0.206381 0.372932
O O8 0.886428 0.000000 0.398907
O O9 0.780548 0.785778 0.234275
O O10 0.848259 0.747923 0.142792
O O11 0.774572 0.000000 0.162056
O O12 0.500000 0.278744 0.318130
O O13 0.609685 0.500000 0.318716
O O14 0.675523 0.241770 0.320784
O O15 0.257276 0.000000 0.298567
O O16 0.000000 0.164206 0.987882
O O17 0.858124 0.000000 0.992274
O O18 0.861504 0.256802 0.039046
O O19 0.871068 0.500000 0.092194
O O20 0.000000 0.308016 0.101578
#
# Coordination Sequence:
#
# PCOD8177920 Si02
#       7
#     8   8   8   8   8   8   8
#     4   8  14  26  43  61  84 116 151 185 221 262
#     4   9  17  30  46  63  87 119 151 181 215 259
#     4  10  19  29  43  66  95 123 151 185 223 263
#     4   8  14  25  41  60  83 113 147 183 222 259
#     4   9  18  29  42  64  92 122 152 180 215 259
#     4   9  17  30  48  68  86 106 141 189 231 262
#     4  10  20  33  48  65  87 118 153 186 222 266
#
# _framework density 16.089777000000002
#
# number of rings (size 3 to 8) (size 9 to 14) (size 15 to 20)
#    0.000    3.000    0.000    2.143    0.000    4.857 
#    0.000    4.286    0.000    1.714    0.000    1.000 
#    0.000    3.429    0.000    0.000    0.000    0.000 
#
# Total GULP energy -347069.266319 kJ/mol
# GULP energy per Si atom -12395.330940 kJ/mol
# Density = 1.605316 g / cm^3
# Si number density = 16.089777 Si / 1000 Ang^3
#
#
#
# Elastic Constant Matrix: (Units=GPa)
#
#
# Indices 1 2 3 4 5 6 
#
# 1 88.9982 54.2001 49.1265 0.0000 0.0000 0.0000
# 2 54.2001 94.1727 50.6668 0.0000 0.0000 0.0000
# 3 49.1265 50.6668 74.9959 0.0000 0.0000 0.0000
# 4 0.0000 0.0000 0.0000 23.7503 0.0000 0.0000
# 5 0.0000 0.0000 0.0000 0.0000 2.3980 0.0000
# 6 0.0000 0.0000 0.0000 0.0000 0.0000 29.2656
#
#
#
# Elastic Compliance Matrix: (Units=1/GPa)
#
#
# Indices 1 2 3 4 5 6 
#
# 1 0.020221 -0.007088 -0.008458 0.000000 0.000000 0.000000
# 2 -0.007088 0.019167 -0.008306 0.000000 0.000000 0.000000
# 3 -0.008458 -0.008306 0.024486 0.000000 0.000000 0.000000
# 4 0.000000 0.000000 0.000000 0.042105 0.000000 0.000000
# 5 0.000000 0.000000 0.000000 0.000000 0.417014 0.000000
# 6 0.000000 0.000000 0.000000 0.000000 0.000000 0.034170
#
#
# Mechanical properties :
#
#
# Convention : Reuss Voigt Hill
#
# Bulk Modulus (GPa) = 61.83924 62.90595 62.37260
# Shear Modulus (GPa) = 8.19329 18.02767 13.11048
#
# Velocity S-wave (km/s) = 2.25905 3.35093 2.85762
# Velocity P-wave (km/s) = 6.73214 7.35890 7.05248
#
# Compressibility (1/GPa) = 0.01617096
#
# Stress axis : x y z
#
# Youngs Moduli (GPa) = 49.45326 52.17308 40.83988
#
# Poissons Ratio (x) = 0.36979 0.34540
# Poissons Ratio (y) = 0.35051 0.33923
# Poissons Ratio (z) = 0.41825 0.43336
#
# Static dielectric constant tensor:
#      x y z
#    x 3.215810 0.000000 0.000000 
#    y 0.000000 3.187350 0.000000 
#    z 0.000000 0.000000 2.864060 
# 
# 
# High freq. dielectric constant tensor:
#      x y z
#    x 1.608820 0.000000 0.000000 
#    y 0.000000 1.625860 0.000000 
#    z 0.000000 0.000000 1.582380 
# 
# From -- ./inp_files/23057.got.cif
#   From: 2010.03.12/outbox.cif.g09.slc.cpg/sg38_12_cif.got.tgz:23057.got - 2010.04.14 02:38:36.
