data_PCOD8177278
_publ_section_title
;
Structure prediction by ZEFSAII (Michael W. Deem and Ramdas Pophale) SiO2 
 PCOD8177278
Probable space group: A M M 2
;
_chemical_formula_sum "Si O2"
_cell_formula_units_Z 64
_cell_length_a 9.161984
_cell_length_b 23.441917
_cell_length_c 18.994451
_cell_angle_alpha 90.000000
_cell_angle_beta 90.000000
_cell_angle_gamma 90.000000
_cell_volume 4079.523118
_symmetry_space_group_name_H-M "A M M 2"
_symmetry_group_IT_number 38
_symmetry_cell_setting 'orthorhombic'
loop_
_space_group_symop_operation_xyz
x,y,z
-x,-y,z
-x,y,z
x,-y,z
x,1/2+y,1/2+z
-x,1/2-y,1/2+z
-x,1/2+y,1/2+z
x,1/2-y,1/2+z
loop_
_atom_site_type_symbol
_atom_site_label
_atom_site_fract_x
_atom_site_fract_y
_atom_site_fract_z
Si Si1 0.829150 0.660196 0.098070
Si Si2 0.170481 0.270378 0.963070
Si Si3 0.330562 0.749856 0.828658
Si Si4 0.332428 0.739770 0.672774
Si Si5 0.672384 0.565787 0.175014
Si Si6 0.331044 0.171111 0.040473
Si Si7 0.326866 0.880149 0.820246
Si Si8 0.327205 0.937310 0.961571
O O1 0.768243 0.707513 0.151510
O O2 0.750739 0.600013 0.112006
O O3 0.000000 0.654128 0.111822
O O4 0.795693 0.678578 0.017628
O O5 0.240830 0.285096 0.887421
O O6 0.000000 0.260819 0.953896
O O7 0.238942 0.211765 0.990378
O O8 0.500000 0.747081 0.849040
O O9 0.299954 0.720779 0.752761
O O10 0.273979 0.814936 0.824266
O O11 0.500000 0.760882 0.666113
O O12 0.302174 0.685380 0.622465
O O13 0.500000 0.574226 0.167918
O O14 0.717138 0.500000 0.168404
O O15 0.731593 0.589904 0.249437
O O16 0.500000 0.180509 0.020114
O O17 0.283749 0.105904 0.024778
O O18 0.500000 0.882338 0.819901
O O19 0.264041 0.914139 0.887509
O O20 0.500000 0.941817 0.955470
O O21 0.260686 0.000000 0.977494
#
# Coordination Sequence:
#
# PCOD8177278 Si02
#       8
#     8   8   8   8   8   8   8   8
#     4  10  20  32  45  64  91 121 152 188 231 273
#     4  10  20  31  44  64  90 118 149 188 231 271
#     4  10  17  28  46  66  87 118 151 182 224 270
#     4   9  17  29  46  65  88 114 148 189 227 270
#     4  10  19  31  48  68  92 124 159 192 224 263
#     4   9  16  28  45  65  86 114 150 185 219 262
#     4   9  15  25  40  64  92 117 148 180 210 252
#     4   9  15  23  39  63  88 114 145 177 208 248
#
# _framework density 15.688108
#
# number of rings (size 3 to 8) (size 9 to 14) (size 15 to 20)
#    0.000    2.500    2.500    1.125    0.000    3.750 
#    0.000    0.000    0.000    0.375    0.000    0.875 
#    0.000    3.000    0.000    0.000    0.000    0.000 
#
# Total GULP energy -396707.144462 kJ/mol
# GULP energy per Si atom -12397.098264 kJ/mol
# Density = 1.565240 g / cm^3
# Si number density = 15.688108 Si / 1000 Ang^3
#
#
#
# Elastic Constant Matrix: (Units=GPa)
#
#
# Indices 1 2 3 4 5 6 
#
# 1 46.5851 30.0500 42.4776 0.0000 0.0000 0.0000
# 2 30.0500 94.2581 62.9605 0.0000 0.0000 0.0000
# 3 42.4776 62.9605 124.9926 0.0000 0.0000 0.0000
# 4 0.0000 0.0000 0.0000 24.6034 0.0000 0.0000
# 5 0.0000 0.0000 0.0000 0.0000 18.1579 0.0000
# 6 0.0000 0.0000 0.0000 0.0000 0.0000 11.3529
#
#
#
# Elastic Compliance Matrix: (Units=1/GPa)
#
#
# Indices 1 2 3 4 5 6 
#
# 1 0.032308 -0.004470 -0.008728 0.000000 0.000000 0.000000
# 2 -0.004470 0.016607 -0.006846 0.000000 0.000000 0.000000
# 3 -0.008728 -0.006846 0.014415 0.000000 0.000000 0.000000
# 4 0.000000 0.000000 0.000000 0.040645 0.000000 0.000000
# 5 0.000000 0.000000 0.000000 0.000000 0.055073 0.000000
# 6 0.000000 0.000000 0.000000 0.000000 0.000000 0.088084
#
#
# Mechanical properties :
#
#
# Convention : Reuss Voigt Hill
#
# Bulk Modulus (GPa) = 43.02574 59.64578 51.33576
# Shear Modulus (GPa) = 16.95107 19.51267 18.23187
#
# Velocity S-wave (km/s) = 3.29067 3.53056 3.41272
# Velocity P-wave (km/s) = 6.47482 7.39744 6.95145
#
# Compressibility (1/GPa) = 0.02324190
#
# Stress axis : x y z
#
# Youngs Moduli (GPa) = 30.95220 60.21482 69.37176
#
# Poissons Ratio (x) = 0.26916 0.60547
# Poissons Ratio (y) = 0.13836 0.47493
# Poissons Ratio (z) = 0.27015 0.41224
#
# Static dielectric constant tensor:
#      x y z
#    x 2.800130 0.000000 0.000000 
#    y 0.000000 2.967360 0.000000 
#    z 0.000000 0.000000 3.178340 
# 
# 
# High freq. dielectric constant tensor:
#      x y z
#    x 1.579190 0.000000 0.000000 
#    y 0.000000 1.576170 0.000000 
#    z 0.000000 0.000000 1.602130 
# 
# From -- ./inp_files/17307.got.cif
#   From: 2010.03.12/outbox.cif.g09.slc.cpg/sg38_9_cif.got.tgz:17307.got - 2010.04.14 02:38:36.
