data_PCOD8177066
_publ_section_title
;
Structure prediction by ZEFSAII (Michael W. Deem and Ramdas Pophale) SiO2 
 PCOD8177066
Probable space group: C C C 2
;
_chemical_formula_sum "Si O2"
_cell_formula_units_Z 64
_cell_length_a 8.644648
_cell_length_b 22.571722
_cell_length_c 14.641599
_cell_angle_alpha 90.000000
_cell_angle_beta 90.000000
_cell_angle_gamma 90.000000
_cell_volume 2856.936023
_symmetry_space_group_name_H-M "C C C 2"
_symmetry_group_IT_number 37
_symmetry_cell_setting 'orthorhombic'
loop_
_space_group_symop_operation_xyz
x,y,z
-x,-y,z
-x,y,1/2+z
x,-y,1/2+z
1/2+x,1/2+y,z
1/2-x,1/2-y,z
1/2-x,1/2+y,1/2+z
1/2+x,1/2-y,1/2+z
loop_
_atom_site_type_symbol
_atom_site_label
_atom_site_fract_x
_atom_site_fract_y
_atom_site_fract_z
Si Si1 0.341829 0.464917 0.204230
Si Si2 0.197629 0.420212 0.749584
Si Si3 0.568654 0.064572 0.426096
Si Si4 0.606357 0.143107 0.070822
Si Si5 0.431382 0.255563 0.123762
Si Si6 0.513010 0.351552 0.775045
Si Si7 0.575112 0.668419 0.479958
Si Si8 0.389425 0.552748 0.504256
O O1 0.500000 0.500000 0.204459
O O2 0.220178 0.508028 0.253158
O O3 0.356749 0.401009 0.252173
O O4 0.297310 0.456206 0.098572
O O5 0.054853 0.411000 0.821284
O O6 0.156274 0.404818 0.645695
O O7 0.346058 0.381848 0.779885
O O8 0.499665 0.111846 0.495401
O O9 0.755795 0.061524 0.430760
O O10 0.500000 0.000000 0.443769
O O11 0.511658 0.191588 0.128987
O O12 0.749983 0.172478 0.017398
O O13 0.250000 0.250000 0.137059
O O14 0.497441 0.299011 0.201484
O O15 0.471875 0.279818 0.023388
O O16 0.565024 0.323793 0.871290
O O17 0.504811 0.607220 0.514487
O O18 0.500000 0.500000 0.471667
#
# Coordination Sequence:
#
# PCOD8177066 Si02
#       8
#     8   8   8   8   8   8   8   8
#     4   9  19  38  67 106 141 182 237 292 365 437
#     4  11  24  45  73 111 149 202 239 316 382 445
#     4  12  27  43  70 116 150 197 249 304 382 450
#     4  12  28  50  75 106 154 199 249 318 378 444
#     4  12  28  51  74 105 143 194 256 311 374 450
#     4  11  24  43  80 108 145 194 253 306 372 454
#     4  12  24  46  76 108 140 195 253 303 377 446
#     4  11  21  40  71 100 148 198 242 298 366 448
#
# _framework density 22.401620999999999
#
# number of rings (size 3 to 8) (size 9 to 14) (size 15 to 20)
#    0.000    0.750    3.750    4.125    3.500    4.500 
#    0.000    0.000    0.000    0.000    0.000    0.000 
#    0.000    0.000    0.000    0.000    0.000    0.000 
#
# Total GULP energy -396796.376334 kJ/mol
# GULP energy per Si atom -12399.886760 kJ/mol
# Density = 2.235063 g / cm^3
# Si number density = 22.401621 Si / 1000 Ang^3
#
#
#
# Elastic Constant Matrix: (Units=GPa)
#
#
# Indices 1 2 3 4 5 6 
#
# 1 80.3766 22.2379 19.5578 0.0000 0.0000 0.0000
# 2 22.2379 103.2533 36.1921 0.0000 0.0000 0.0000
# 3 19.5578 36.1921 139.7336 0.0000 0.0000 0.0000
# 4 0.0000 0.0000 0.0000 43.5074 0.0000 0.0000
# 5 0.0000 0.0000 0.0000 0.0000 25.3657 0.0000
# 6 0.0000 0.0000 0.0000 0.0000 0.0000 31.4080
#
#
#
# Elastic Compliance Matrix: (Units=1/GPa)
#
#
# Indices 1 2 3 4 5 6 
#
# 1 0.013423 -0.002455 -0.001243 0.000000 0.000000 0.000000
# 2 -0.002455 0.011101 -0.002532 0.000000 0.000000 0.000000
# 3 -0.001243 -0.002532 0.007986 0.000000 0.000000 0.000000
# 4 0.000000 0.000000 0.000000 0.022985 0.000000 0.000000
# 5 0.000000 0.000000 0.000000 0.000000 0.039423 0.000000
# 6 0.000000 0.000000 0.000000 0.000000 0.000000 0.031839
#
#
# Mechanical properties :
#
#
# Convention : Reuss Voigt Hill
#
# Bulk Modulus (GPa) = 49.87319 53.25991 51.56655
# Shear Modulus (GPa) = 34.26992 36.41460 35.34226
#
# Velocity S-wave (km/s) = 3.91550 4.03617 3.97629
# Velocity P-wave (km/s) = 6.53859 6.74889 6.64457
#
# Compressibility (1/GPa) = 0.02005085
#
# Stress axis : x y z
#
# Youngs Moduli (GPa) = 74.49808 90.08111 125.21706
#
# Poissons Ratio (x) = 0.22118 0.15562
# Poissons Ratio (y) = 0.18292 0.31700
# Poissons Ratio (z) = 0.09259 0.22805
#
# Static dielectric constant tensor:
#      x y z
#    x 4.122430 0.000000 0.000000 
#    y 0.000000 3.587910 0.000000 
#    z 0.000000 0.000000 4.338410 
# 
# 
# High freq. dielectric constant tensor:
#      x y z
#    x 1.874580 0.000000 0.000000 
#    y 0.000000 1.881340 0.000000 
#    z 0.000000 0.000000 1.899850 
# 
# From -- ./inp_files/10996.got.cif
#   From: 2010.03.12/outbox.cif.g09.slc.cpg/sg37_6_cif.got.tgz:10996.got - 2010.04.14 02:25:27.
