data_PCOD8177614
_publ_section_title
;
Structure prediction by ZEFSAII (Michael W. Deem and Ramdas Pophale) SiO2 
 PCOD8177614
Probable space group: A M M 2
;
_chemical_formula_sum "Si O2"
_cell_formula_units_Z 52
_cell_length_a 8.893510
_cell_length_b 12.002433
_cell_length_c 24.915689
_cell_angle_alpha 90.000000
_cell_angle_beta 90.000000
_cell_angle_gamma 90.000000
_cell_volume 2659.594275
_symmetry_space_group_name_H-M "A M M 2"
_symmetry_group_IT_number 38
_symmetry_cell_setting 'orthorhombic'
loop_
_space_group_symop_operation_xyz
x,y,z
-x,-y,z
-x,y,z
x,-y,z
x,1/2+y,1/2+z
-x,1/2-y,1/2+z
-x,1/2+y,1/2+z
x,1/2-y,1/2+z
loop_
_atom_site_type_symbol
_atom_site_label
_atom_site_fract_x
_atom_site_fract_y
_atom_site_fract_z
Si Si1 0.166573 0.742630 0.570130
Si Si2 0.668154 0.000000 0.180816
Si Si3 0.822518 0.800964 0.886658
Si Si4 0.666500 0.000000 0.944226
Si Si5 0.323766 0.869705 0.779083
Si Si6 0.821678 0.124105 0.471132
Si Si7 0.254014 0.000000 0.060582
Si Si8 0.820121 0.229059 0.187977
O O1 0.250817 0.809542 0.522207
O O2 0.153650 0.610975 0.557852
O O3 0.241511 0.762163 0.628504
O O4 0.000000 0.791549 0.573439
O O5 0.755145 0.107950 0.203401
O O6 0.500000 0.000000 0.204522
O O7 0.653905 0.000000 0.116073
O O8 0.761301 0.894241 0.926412
O O9 0.738682 0.803314 0.830080
O O10 0.782445 0.683971 0.915046
O O11 0.000000 0.817465 0.877824
O O12 0.500000 0.000000 0.917098
O O13 0.640077 0.000000 0.008257
O O14 0.500000 0.847857 0.772986
O O15 0.239129 0.824422 0.727037
O O16 0.286731 0.000000 0.786032
O O17 0.000000 0.122419 0.477650
O O18 0.753603 0.000000 0.469622
O O19 0.000000 0.221761 0.189787
#
# Coordination Sequence:
#
# PCOD8177614 Si02
#       8
#     8   4   8   4   8   8   4   8
#     4   9  17  30  53  86 119 149 188 241 290 336
#     4  10  20  37  58  85 122 161 197 238 292 350
#     4  11  22  37  60  86 113 150 193 240 290 347
#     4  12  22  33  54  87 120 151 185 234 294 348
#     4  11  24  42  62  84 115 151 191 245 302 355
#     4   9  18  33  54  84 119 151 185 232 287 341
#     4  10  18  30  52  84 115 158 195 234 285 350
#     4  10  21  37  60  89 118 153 198 246 292 347
#
# _framework density 19.551853999999999
#
# number of rings (size 3 to 8) (size 9 to 14) (size 15 to 20)
#    0.000    1.846    2.308    2.308    0.000    4.000 
#    1.385    1.538    0.000    1.385    0.000    0.000 
#    0.000    0.000    0.000    0.000    0.000    0.000 
#
# Total GULP energy -322283.649531 kJ/mol
# GULP energy per Si atom -12395.524982 kJ/mol
# Density = 1.950735 g / cm^3
# Si number density = 19.551854 Si / 1000 Ang^3
#
#
#
# Elastic Constant Matrix: (Units=GPa)
#
#
# Indices 1 2 3 4 5 6 
#
# 1 79.9898 29.2712 29.4953 0.0000 0.0000 0.0000
# 2 29.2712 128.4140 64.1494 0.0000 0.0000 0.0000
# 3 29.4953 64.1494 128.1960 0.0000 0.0000 0.0000
# 4 0.0000 0.0000 0.0000 5.8738 0.0000 0.0000
# 5 0.0000 0.0000 0.0000 0.0000 18.7463 0.0000
# 6 0.0000 0.0000 0.0000 0.0000 0.0000 19.5755
#
#
#
# Elastic Compliance Matrix: (Units=1/GPa)
#
#
# Indices 1 2 3 4 5 6 
#
# 1 0.014081 -0.002122 -0.002178 0.000000 0.000000 0.000000
# 2 -0.002122 0.010702 -0.004867 0.000000 0.000000 0.000000
# 3 -0.002178 -0.004867 0.010737 0.000000 0.000000 0.000000
# 4 0.000000 0.000000 0.000000 0.170248 0.000000 0.000000
# 5 0.000000 0.000000 0.000000 0.000000 0.053344 0.000000
# 6 0.000000 0.000000 0.000000 0.000000 0.000000 0.051084
#
#
# Mechanical properties :
#
#
# Convention : Reuss Voigt Hill
#
# Bulk Modulus (GPa) = 58.18463 64.71463 61.44963
# Shear Modulus (GPa) = 14.95842 23.08471 19.02156
#
# Velocity S-wave (km/s) = 2.76898 3.43985 3.12248
# Velocity P-wave (km/s) = 6.32825 6.99625 6.67062
#
# Compressibility (1/GPa) = 0.01718667
#
# Stress axis : x y z
#
# Youngs Moduli (GPa) = 71.01696 93.43682 93.13307
#
# Poissons Ratio (x) = 0.19824 0.20286
# Poissons Ratio (y) = 0.15067 0.45331
# Poissons Ratio (z) = 0.15468 0.45479
#
# Static dielectric constant tensor:
#      x y z
#    x 3.281860 0.000000 0.000000 
#    y 0.000000 4.290570 0.000000 
#    z 0.000000 0.000000 3.681690 
# 
# 
# High freq. dielectric constant tensor:
#      x y z
#    x 1.738070 0.000000 0.000000 
#    y 0.000000 1.756980 0.000000 
#    z 0.000000 0.000000 1.767730 
# 
# From -- ./inp_files/23431.got.cif
#   From: 2010.03.12/outbox.cif.g09.slc.cpg/sg38_12_cif.got.tgz:23431.got - 2010.04.14 02:38:36.
