data_PCOD8177003
_publ_section_title
;
Structure prediction by ZEFSAII (Michael W. Deem and Ramdas Pophale) SiO2 
 PCOD8177003
Probable space group: C C C 2
;
_chemical_formula_sum "Si O2"
_cell_formula_units_Z 60
_cell_length_a 10.899565
_cell_length_b 27.666370
_cell_length_c 8.862369
_cell_angle_alpha 90.000000
_cell_angle_beta 90.000000
_cell_angle_gamma 90.000000
_cell_volume 2672.459763
_symmetry_space_group_name_H-M "C C C 2"
_symmetry_group_IT_number 37
_symmetry_cell_setting 'orthorhombic'
loop_
_space_group_symop_operation_xyz
x,y,z
-x,-y,z
-x,y,1/2+z
x,-y,1/2+z
1/2+x,1/2+y,z
1/2-x,1/2-y,z
1/2-x,1/2+y,1/2+z
1/2+x,1/2-y,1/2+z
loop_
_atom_site_type_symbol
_atom_site_label
_atom_site_fract_x
_atom_site_fract_y
_atom_site_fract_z
Si Si1 0.832593 0.962822 0.103160
Si Si2 0.479785 0.683097 0.308380
Si Si3 0.108374 0.245825 0.549213
Si Si4 0.508047 0.098209 0.852612
Si Si5 0.830359 0.855545 0.077105
Si Si6 0.000000 0.000000 0.851011
Si Si7 0.925013 0.665973 0.101743
Si Si8 0.610163 0.035951 0.095614
O O1 0.920395 0.964329 0.247816
O O2 0.734390 0.006068 0.115519
O O3 0.773763 0.909503 0.095703
O O4 0.912002 0.967410 0.952382
O O5 0.545404 0.724527 0.402678
O O6 0.391724 0.709980 0.190829
O O7 0.399648 0.649235 0.417277
O O8 0.577985 0.652080 0.216290
O O9 0.250000 0.250000 0.506997
O O10 0.032102 0.294616 0.585469
O O11 0.569745 0.142862 0.767390
O O12 0.415139 0.068349 0.744339
O O13 0.429892 0.122011 0.984467
O O14 0.613242 0.066141 0.937400
O O15 0.717282 0.816500 0.084278
O O16 0.500000 0.000000 0.072807
#
# Coordination Sequence:
#
# PCOD8177003 Si02
#       8
#     8   8   8   8   8   4   8   8
#     4  11  24  45  69  95 146 185 248 290 339 427
#     4  10  26  46  70 100 138 184 228 302 343 425
#     4  11  26  46  74 105 139 174 228 286 372 429
#     4  10  24  44  64 110 136 174 236 286 365 405
#     4  11  25  45  70 101 139 186 240 289 353 410
#     4  10  26  42  66 100 132 206 238 288 352 400
#     4  11  25  43  75 102 136 181 226 294 351 438
#     4  11  24  40  68  99 137 182 225 294 354 397
#
# _framework density 22.451225999999998
#
# number of rings (size 3 to 8) (size 9 to 14) (size 15 to 20)
#    0.000    1.333    0.000    3.600   14.933    1.067 
#    0.000    0.000    0.000    0.000    0.000    0.000 
#    0.000    0.000    0.000    0.000    0.000    0.000 
#
# Total GULP energy -371855.417077 kJ/mol
# GULP energy per Si atom -12395.180569 kJ/mol
# Density = 2.240013 g / cm^3
# Si number density = 22.451226 Si / 1000 Ang^3
#
#
#
# Elastic Constant Matrix: (Units=GPa)
#
#
# Indices 1 2 3 4 5 6 
#
# 1 111.2518 22.4050 14.4914 0.0000 0.0000 0.0000
# 2 22.4050 91.7256 17.5528 0.0000 0.0000 0.0000
# 3 14.4914 17.5528 97.4273 0.0000 0.0000 0.0000
# 4 0.0000 0.0000 0.0000 0.8508 0.0000 0.0000
# 5 0.0000 0.0000 0.0000 0.0000 -32.6253 0.0000
# 6 0.0000 0.0000 0.0000 0.0000 0.0000 36.5061
#
#
#
# Elastic Compliance Matrix: (Units=1/GPa)
#
#
# Indices 1 2 3 4 5 6 
#
# 1 0.009554 -0.002135 -0.001036 0.000000 0.000000 0.000000
# 2 -0.002135 0.011769 -0.001803 0.000000 0.000000 0.000000
# 3 -0.001036 -0.001803 0.010743 0.000000 0.000000 0.000000
# 4 0.000000 0.000000 0.000000 1.175429 0.000000 0.000000
# 5 0.000000 0.000000 0.000000 0.000000 -0.030651 0.000000
# 6 0.000000 0.000000 0.000000 0.000000 0.000000 0.027393
#
#
# Mechanical properties :
#
#
# Convention : Reuss Voigt Hill
#
# Bulk Modulus (GPa) = 45.21468 45.47812 45.34640
# Shear Modulus (GPa) = 4.09314 17.34333 10.71823
#
# Velocity S-wave (km/s) = 1.35170 2.78238 2.18732
# Velocity P-wave (km/s) = 4.75593 5.53377 5.15953
#
# Compressibility (1/GPa) = 0.02211671
#
# Stress axis : x y z
#
# Youngs Moduli (GPa) = 104.67228 84.97179 93.08401
#
# Poissons Ratio (x) = 0.18144 0.09646
# Poissons Ratio (y) = 0.22350 0.16780
# Poissons Ratio (z) = 0.10847 0.15318
#
# Static dielectric constant tensor:
#      x y z
#    x 6.953760 0.000000 0.000000 
#    y 0.000000 4.058030 0.000000 
#    z 0.000000 0.000000 4.408660 
# 
# 
# High freq. dielectric constant tensor:
#      x y z
#    x 1.884630 0.000000 0.000000 
#    y 0.000000 1.878850 0.000000 
#    z 0.000000 0.000000 1.909820 
# 
# From -- ./inp_files/3070.got.cif
#   From: 2010.03.12/outbox.cif.g09.slc.cpg/sg37_2_cif.got.tgz:3070.got - 2010.04.14 02:25:27.
