data_PCOD8177681
_publ_section_title
;
Structure prediction by ZEFSAII (Michael W. Deem and Ramdas Pophale) SiO2 
 PCOD8177681
Probable space group: A M M 2
;
_chemical_formula_sum "Si O2"
_cell_formula_units_Z 48
_cell_length_a 17.235088
_cell_length_b 8.875043
_cell_length_c 15.695640
_cell_angle_alpha 90.000000
_cell_angle_beta 90.000000
_cell_angle_gamma 90.000000
_cell_volume 2400.838795
_symmetry_space_group_name_H-M "A M M 2"
_symmetry_group_IT_number 38
_symmetry_cell_setting 'orthorhombic'
loop_
_space_group_symop_operation_xyz
x,y,z
-x,-y,z
-x,y,z
x,-y,z
x,1/2+y,1/2+z
-x,1/2-y,1/2+z
-x,1/2+y,1/2+z
x,1/2-y,1/2+z
loop_
_atom_site_type_symbol
_atom_site_label
_atom_site_fract_x
_atom_site_fract_y
_atom_site_fract_z
Si Si1 0.665070 0.822429 0.106070
Si Si2 0.500000 0.671059 0.944497
Si Si3 0.173956 0.824382 0.183817
Si Si4 0.330580 0.826578 0.423950
Si Si5 0.185628 0.177893 0.855505
Si Si6 0.500000 0.173144 0.117705
Si Si7 0.912439 0.179382 0.015901
O O1 0.734808 0.791433 0.170491
O O2 0.583723 0.764589 0.150781
O O3 0.660619 0.000000 0.082635
O O4 0.679573 0.731494 0.019894
O O5 0.500000 0.500000 0.983250
O O6 0.579813 0.693139 0.891015
O O7 0.500000 0.797297 0.016825
O O8 0.146954 0.738318 0.268611
O O9 0.126013 0.760955 0.103236
O O10 0.157349 0.000000 0.196483
O O11 0.274054 0.735065 0.361904
O O12 0.305419 0.000000 0.420361
O O13 0.184912 0.000000 0.853711
O O14 0.135825 0.240815 0.935161
O O15 0.500000 0.000000 0.139765
O O16 0.000000 0.240949 0.009998
O O17 0.910421 0.000000 0.015429
#
# Coordination Sequence:
#
# PCOD8177681 Si02
#       7
#     8   4   8   8   8   4   8
#     4   9  16  30  51  77 108 144 183 227 276 329
#     4   8  16  28  45  74 107 142 184 230 275 321
#     4  10  20  36  57  82 112 146 186 227 273 330
#     4  10  18  31  53  79 110 147 188 231 277 327
#     4  11  22  37  57  84 115 148 187 229 277 331
#     4   8  14  24  45  74 103 138 182 224 269 325
#     4   9  19  38  62  83 109 147 184 224 279 338
#
# _framework density 19.993013000000001
#
# number of rings (size 3 to 8) (size 9 to 14) (size 15 to 20)
#    0.000    2.500    1.667    1.000    0.000    2.000 
#    0.000    0.833    0.000    6.500    0.000    0.000 
#    0.000    0.000    0.000    0.000    0.000    0.000 
#
# Total GULP energy -297386.381492 kJ/mol
# GULP energy per Si atom -12391.099229 kJ/mol
# Density = 1.994751 g / cm^3
# Si number density = 19.993013 Si / 1000 Ang^3
#
#
#
# Elastic Constant Matrix: (Units=GPa)
#
#
# Indices 1 2 3 4 5 6 
#
# 1 141.1757 26.7143 61.0045 0.0000 0.0000 0.0000
# 2 26.7143 44.0191 33.8317 0.0000 0.0000 0.0000
# 3 61.0045 33.8317 127.7392 0.0000 0.0000 0.0000
# 4 0.0000 0.0000 0.0000 28.8574 0.0000 0.0000
# 5 0.0000 0.0000 0.0000 0.0000 11.7257 0.0000
# 6 0.0000 0.0000 0.0000 0.0000 0.0000 17.1345
#
#
#
# Elastic Compliance Matrix: (Units=1/GPa)
#
#
# Indices 1 2 3 4 5 6 
#
# 1 0.009186 -0.002766 -0.003654 0.000000 0.000000 0.000000
# 2 -0.002766 0.029357 -0.006454 0.000000 0.000000 0.000000
# 3 -0.003654 -0.006454 0.011283 0.000000 0.000000 0.000000
# 4 0.000000 0.000000 0.000000 0.034653 0.000000 0.000000
# 5 0.000000 0.000000 0.000000 0.000000 0.085283 0.000000
# 6 0.000000 0.000000 0.000000 0.000000 0.000000 0.058362
#
#
# Mechanical properties :
#
#
# Convention : Reuss Voigt Hill
#
# Bulk Modulus (GPa) = 41.53441 61.78168 51.65804
# Shear Modulus (GPa) = 19.09141 24.30241 21.69691
#
# Velocity S-wave (km/s) = 3.09350 3.49025 3.29785
# Velocity P-wave (km/s) = 5.79476 6.87104 6.35572
#
# Compressibility (1/GPa) = 0.02407642
#
# Stress axis : x y z
#
# Youngs Moduli (GPa) = 108.86257 34.06397 88.62897
#
# Poissons Ratio (x) = 0.09423 0.32388
# Poissons Ratio (y) = 0.30113 0.57202
# Poissons Ratio (z) = 0.39782 0.21985
#
# Static dielectric constant tensor:
#      x y z
#    x 4.104440 0.000000 0.000000 
#    y 0.000000 3.379270 0.000000 
#    z 0.000000 0.000000 3.385400 
# 
# 
# High freq. dielectric constant tensor:
#      x y z
#    x 1.795000 0.000000 0.000000 
#    y 0.000000 1.753000 0.000000 
#    z 0.000000 0.000000 1.752770 
# 
# From -- ./inp_files/15069.got.cif
#   From: 2010.03.12/outbox.cif.g09.slc.cpg/sg38_8_cif.got.tgz:15069.got - 2010.04.14 02:38:36.
