data_PCOD8177124
_publ_section_title
;
Structure prediction by ZEFSAII (Michael W. Deem and Ramdas Pophale) SiO2 
 PCOD8177124
Probable space group: C C C 2
;
_chemical_formula_sum "Si O2"
_cell_formula_units_Z 56
_cell_length_a 12.101085
_cell_length_b 19.821310
_cell_length_c 11.009382
_cell_angle_alpha 90.000000
_cell_angle_beta 90.000000
_cell_angle_gamma 90.000000
_cell_volume 2640.703289
_symmetry_space_group_name_H-M "C C C 2"
_symmetry_group_IT_number 37
_symmetry_cell_setting 'orthorhombic'
loop_
_space_group_symop_operation_xyz
x,y,z
-x,-y,z
-x,y,1/2+z
x,-y,1/2+z
1/2+x,1/2+y,z
1/2-x,1/2-y,z
1/2-x,1/2+y,1/2+z
1/2+x,1/2-y,1/2+z
loop_
_atom_site_type_symbol
_atom_site_label
_atom_site_fract_x
_atom_site_fract_y
_atom_site_fract_z
Si Si1 0.007513 0.806451 0.846120
Si Si2 0.875663 0.581201 0.343357
Si Si3 0.719753 0.140377 0.598707
Si Si4 0.716888 0.325972 0.963988
Si Si5 0.287300 0.325236 0.741651
Si Si6 0.081931 0.229599 0.092841
Si Si7 0.134384 0.425674 0.866345
O O1 0.893507 0.847234 0.823794
O O2 0.118651 0.850112 0.871181
O O3 0.020237 0.760440 0.723651
O O4 0.999701 0.767130 0.975957
O O5 0.828928 0.614330 0.223160
O O6 0.817178 0.621162 0.453442
O O7 0.843125 0.503243 0.336966
O O8 0.005225 0.591251 0.363412
O O9 0.850912 0.158021 0.600996
O O10 0.662383 0.209802 0.565581
O O11 0.689468 0.086006 0.496866
O O12 0.750000 0.250000 0.923298
O O13 0.676056 0.327338 0.102247
O O14 0.250000 0.250000 0.780710
O O15 0.190451 0.378421 0.765257
#
# Coordination Sequence:
#
# PCOD8177124 Si02
#       7
#     8   8   8   8   8   8   8
#     4  12  22  42  65 104 133 176 218 288 342 396
#     4  11  27  44  68  99 138 180 223 276 340 410
#     4  11  24  43  68  97 137 184 221 277 338 419
#     4  11  25  41  67 100 135 175 224 281 334 395
#     4  11  25  41  67 100 135 175 224 281 334 395
#     4  11  24  40  69 104 141 173 229 279 351 398
#     4  11  27  44  68  99 138 180 223 276 340 410
#
# _framework density 21.206472000000002
#
# number of rings (size 3 to 8) (size 9 to 14) (size 15 to 20)
#    0.000    0.857    4.286    1.714   12.000    1.143 
#    0.000    0.714    0.000    3.429    0.000    0.000 
#    0.000    0.000    0.000    0.000    0.000    0.000 
#
# Total GULP energy -347035.935696 kJ/mol
# GULP energy per Si atom -12394.140561 kJ/mol
# Density = 2.115821 g / cm^3
# Si number density = 21.206472 Si / 1000 Ang^3
#
#
#
# Elastic Constant Matrix: (Units=GPa)
#
#
# Indices 1 2 3 4 5 6 
#
# 1 112.3342 53.2412 31.2004 0.0000 0.0000 0.0000
# 2 53.2412 96.7088 12.1876 0.0000 0.0000 0.0000
# 3 31.2004 12.1876 124.9461 0.0000 0.0000 0.0000
# 4 0.0000 0.0000 0.0000 48.7701 0.0000 0.0000
# 5 0.0000 0.0000 0.0000 0.0000 38.1288 0.0000
# 6 0.0000 0.0000 0.0000 0.0000 0.0000 27.7793
#
#
#
# Elastic Compliance Matrix: (Units=1/GPa)
#
#
# Indices 1 2 3 4 5 6 
#
# 1 0.012794 -0.006723 -0.002539 0.000000 0.000000 0.000000
# 2 -0.006723 0.014002 0.000313 0.000000 0.000000 0.000000
# 3 -0.002539 0.000313 0.008607 0.000000 0.000000 0.000000
# 4 0.000000 0.000000 0.000000 0.020504 0.000000 0.000000
# 5 0.000000 0.000000 0.000000 0.000000 0.026227 0.000000
# 6 0.000000 0.000000 0.000000 0.000000 0.000000 0.035998
#
#
# Mechanical properties :
#
#
# Convention : Reuss Voigt Hill
#
# Bulk Modulus (GPa) = 57.12818 58.58305 57.85561
# Shear Modulus (GPa) = 35.24461 38.75963 37.00212
#
# Velocity S-wave (km/s) = 4.08115 4.27983 4.18167
# Velocity P-wave (km/s) = 7.01465 7.21856 7.11734
#
# Compressibility (1/GPa) = 0.01750450
#
# Stress axis : x y z
#
# Youngs Moduli (GPa) = 78.16302 71.41678 116.18574
#
# Poissons Ratio (x) = 0.48016 0.29499
# Poissons Ratio (y) = 0.52552 -0.03638
# Poissons Ratio (z) = 0.19845 -0.02236
#
# Static dielectric constant tensor:
#      x y z
#    x 4.290270 0.000000 0.000000 
#    y 0.000000 3.654270 0.000000 
#    z 0.000000 0.000000 3.988930 
# 
# 
# High freq. dielectric constant tensor:
#      x y z
#    x 1.851340 0.000000 0.000000 
#    y 0.000000 1.785430 0.000000 
#    z 0.000000 0.000000 1.855490 
# 
# From -- ./inp_files/7289.got.cif
#   From: 2010.03.12/outbox.cif.g09.slc.cpg/sg37_4_cif.got.tgz:7289.got - 2010.04.14 02:25:27.
