data_PCOD8177344
_publ_section_title
;
Structure prediction by ZEFSAII (Michael W. Deem and Ramdas Pophale) SiO2 
 PCOD8177344
Probable space group: A M M 2
;
_chemical_formula_sum "Si O2"
_cell_formula_units_Z 56
_cell_length_a 9.021843
_cell_length_b 22.271637
_cell_length_c 17.625060
_cell_angle_alpha 90.000000
_cell_angle_beta 90.000000
_cell_angle_gamma 90.000000
_cell_volume 3541.424674
_symmetry_space_group_name_H-M "A M M 2"
_symmetry_group_IT_number 38
_symmetry_cell_setting 'orthorhombic'
loop_
_space_group_symop_operation_xyz
x,y,z
-x,-y,z
-x,y,z
x,-y,z
x,1/2+y,1/2+z
-x,1/2-y,1/2+z
-x,1/2+y,1/2+z
x,1/2-y,1/2+z
loop_
_atom_site_type_symbol
_atom_site_label
_atom_site_fract_x
_atom_site_fract_y
_atom_site_fract_z
Si Si1 0.826312 0.430455 0.698250
Si Si2 0.329574 0.352247 0.822551
Si Si3 0.171706 0.772507 0.620126
Si Si4 0.666645 0.717078 0.265540
Si Si5 0.329974 0.649210 0.582387
Si Si6 0.830228 0.813719 0.461802
Si Si7 0.331873 0.303996 0.427185
O O1 0.785430 0.500000 0.702153
O O2 0.758512 0.398802 0.771432
O O3 0.760214 0.404529 0.620182
O O4 0.000000 0.418849 0.698003
O O5 0.500000 0.370881 0.822415
O O6 0.302882 0.285507 0.791154
O O7 0.269645 0.356965 0.909359
O O8 0.220875 0.802912 0.699424
O O9 0.270588 0.713331 0.610207
O O10 0.198298 0.821147 0.552502
O O11 0.000000 0.753574 0.623317
O O12 0.500000 0.709810 0.234686
O O13 0.692327 0.674495 0.339977
O O14 0.500000 0.644680 0.609168
O O15 0.315946 0.643491 0.490305
O O16 0.792303 0.744645 0.445697
O O17 0.000000 0.826106 0.440583
O O18 0.500000 0.276165 0.432661
#
# Coordination Sequence:
#
# PCOD8177344 Si02
#       7
#     8   8   8   8   8   8   8
#     4  11  23  35  47  64  86 114 149 188 226 264
#     4  10  19  31  46  62  82 113 148 183 222 259
#     4  10  18  26  40  63  90 119 148 177 212 258
#     4   9  16  26  41  62  87 115 145 178 214 256
#     4  10  18  30  46  61  82 114 148 185 223 257
#     4   9  17  27  40  60  85 114 145 177 214 257
#     4   8  16  28  41  59  83 112 147 179 212 259
#
# _framework density 15.812844999999999
#
# number of rings (size 3 to 8) (size 9 to 14) (size 15 to 20)
#    0.000    2.429    1.429    3.000    0.000    5.714 
#    0.000    0.000    0.000    0.000    0.000    0.000 
#    0.000    1.143    0.000    7.429    0.000    5.571 
#
# Total GULP energy -346993.474647 kJ/mol
# GULP energy per Si atom -12392.624095 kJ/mol
# Density = 1.577685 g / cm^3
# Si number density = 15.812845 Si / 1000 Ang^3
#
#
#
# Elastic Constant Matrix: (Units=GPa)
#
#
# Indices 1 2 3 4 5 6 
#
# 1 78.3238 31.3585 57.9032 0.0000 0.0000 0.0000
# 2 31.3585 42.9576 38.1169 0.0000 0.0000 0.0000
# 3 57.9032 38.1169 142.7387 0.0000 0.0000 0.0000
# 4 0.0000 0.0000 0.0000 12.4200 0.0000 0.0000
# 5 0.0000 0.0000 0.0000 0.0000 29.1374 0.0000
# 6 0.0000 0.0000 0.0000 0.0000 0.0000 12.8587
#
#
#
# Elastic Compliance Matrix: (Units=1/GPa)
#
#
# Indices 1 2 3 4 5 6 
#
# 1 0.021220 -0.010290 -0.005860 0.000000 0.000000 0.000000
# 2 -0.010290 0.035498 -0.005305 0.000000 0.000000 0.000000
# 3 -0.005860 -0.005305 0.010800 0.000000 0.000000 0.000000
# 4 0.000000 0.000000 0.000000 0.080515 0.000000 0.000000
# 5 0.000000 0.000000 0.000000 0.000000 0.034320 0.000000
# 6 0.000000 0.000000 0.000000 0.000000 0.000000 0.077768
#
#
# Mechanical properties :
#
#
# Convention : Reuss Voigt Hill
#
# Bulk Modulus (GPa) = 40.63989 57.64193 49.14091
# Shear Modulus (GPa) = 16.06510 19.99266 18.02888
#
# Velocity S-wave (km/s) = 3.19086 3.55960 3.38026
# Velocity P-wave (km/s) = 6.27151 7.30931 6.81021
#
# Compressibility (1/GPa) = 0.02460637
#
# Stress axis : x y z
#
# Youngs Moduli (GPa) = 47.12605 28.17071 92.59621
#
# Poissons Ratio (x) = 0.28989 0.54261
# Poissons Ratio (y) = 0.48495 0.49121
# Poissons Ratio (z) = 0.27616 0.14944
#
# Static dielectric constant tensor:
#      x y z
#    x 3.129730 0.000000 0.000000 
#    y 0.000000 2.450540 0.000000 
#    z 0.000000 0.000000 3.554120 
# 
# 
# High freq. dielectric constant tensor:
#      x y z
#    x 1.624770 0.000000 0.000000 
#    y 0.000000 1.522630 0.000000 
#    z 0.000000 0.000000 1.629050 
# 
# From -- ./inp_files/17063.got.cif
#   From: 2010.03.12/outbox.cif.g09.slc.cpg/sg38_9_cif.got.tgz:17063.got - 2010.04.14 02:38:36.
