data_PCOD8177551
_publ_section_title
;
Structure prediction by ZEFSAII (Michael W. Deem and Ramdas Pophale) SiO2 
 PCOD8177551
Probable space group: A M M 2
;
_chemical_formula_sum "Si O2"
_cell_formula_units_Z 48
_cell_length_a 9.646477
_cell_length_b 11.706482
_cell_length_c 25.269149
_cell_angle_alpha 90.000000
_cell_angle_beta 90.000000
_cell_angle_gamma 90.000000
_cell_volume 2853.551737
_symmetry_space_group_name_H-M "A M M 2"
_symmetry_group_IT_number 38
_symmetry_cell_setting 'orthorhombic'
loop_
_space_group_symop_operation_xyz
x,y,z
-x,-y,z
-x,y,z
x,-y,z
x,1/2+y,1/2+z
-x,1/2-y,1/2+z
-x,1/2+y,1/2+z
x,1/2-y,1/2+z
loop_
_atom_site_type_symbol
_atom_site_label
_atom_site_fract_x
_atom_site_fract_y
_atom_site_fract_z
Si Si1 0.161551 0.133732 0.152310
Si Si2 0.342530 0.266923 0.232190
Si Si3 0.838375 0.000000 0.571847
Si Si4 0.653302 0.000000 0.671634
Si Si5 0.661079 0.631557 0.342073
Si Si6 0.163316 0.752259 0.545673
Si Si7 0.841049 0.134065 0.941007
O O1 0.242048 0.176113 0.204366
O O2 0.222215 0.197961 0.100182
O O3 0.000000 0.161660 0.160668
O O4 0.187377 0.000000 0.144549
O O5 0.500000 0.222276 0.226557
O O6 0.325289 0.390622 0.207408
O O7 0.302339 0.283828 0.293681
O O8 0.769682 0.000000 0.628299
O O9 0.795223 0.114250 0.540443
O O10 0.000000 0.000000 0.583745
O O11 0.500000 0.000000 0.645669
O O12 0.500000 0.640964 0.357113
O O13 0.698364 0.500000 0.328002
O O14 0.751400 0.675639 0.391326
O O15 0.223722 0.691026 0.493775
O O16 0.000000 0.732259 0.546701
O O17 0.000000 0.171882 0.931590
O O18 0.828987 0.000000 0.949451
#
# Coordination Sequence:
#
# PCOD8177551 Si02
#       7
#     8   8   4   4   8   8   8
#     4  10  20  33  50  73 101 132 163 198 241 288
#     4  10  19  32  51  73 100 131 160 196 245 295
#     4  10  18  30  50  74  96 126 164 197 238 291
#     4  10  18  30  48  74 102 128 156 193 244 291
#     4   9  17  31  50  72  97 125 159 199 243 286
#     4   9  17  30  49  72  98 126 158 197 241 289
#     4   9  17  30  48  70  95 125 161 199 240 285
#
# _framework density 16.821144
#
# number of rings (size 3 to 8) (size 9 to 14) (size 15 to 20)
#    0.000    2.500    2.500    0.500    0.000    3.000 
#    0.000    1.667    1.833    2.000    0.000    0.000 
#    0.000    0.000    0.000    0.000    0.000    0.000 
#
# Total GULP energy -297547.945139 kJ/mol
# GULP energy per Si atom -12397.831047 kJ/mol
# Density = 1.678286 g / cm^3
# Si number density = 16.821144 Si / 1000 Ang^3
#
#
#
# Elastic Constant Matrix: (Units=GPa)
#
#
# Indices 1 2 3 4 5 6 
#
# 1 50.8490 35.8199 55.0616 0.0000 0.0000 0.0000
# 2 35.8199 79.1478 50.8613 0.0000 0.0000 0.0000
# 3 55.0616 50.8613 140.0462 0.0000 0.0000 0.0000
# 4 0.0000 0.0000 0.0000 31.4434 0.0000 0.0000
# 5 0.0000 0.0000 0.0000 0.0000 14.5379 0.0000
# 6 0.0000 0.0000 0.0000 0.0000 0.0000 22.4422
#
#
#
# Elastic Compliance Matrix: (Units=1/GPa)
#
#
# Indices 1 2 3 4 5 6 
#
# 1 0.039881 -0.010400 -0.011903 0.000000 0.000000 0.000000
# 2 -0.010400 0.019193 -0.002881 0.000000 0.000000 0.000000
# 3 -0.011903 -0.002881 0.012867 0.000000 0.000000 0.000000
# 4 0.000000 0.000000 0.000000 0.031803 0.000000 0.000000
# 5 0.000000 0.000000 0.000000 0.000000 0.068786 0.000000
# 6 0.000000 0.000000 0.000000 0.000000 0.000000 0.044559
#
#
# Mechanical properties :
#
#
# Convention : Reuss Voigt Hill
#
# Bulk Modulus (GPa) = 46.35604 61.50319 53.92962
# Shear Modulus (GPa) = 18.20505 22.23804 20.22154
#
# Velocity S-wave (km/s) = 3.29336 3.63992 3.47097
# Velocity P-wave (km/s) = 6.48688 7.36938 6.94217
#
# Compressibility (1/GPa) = 0.02157216
#
# Stress axis : x y z
#
# Youngs Moduli (GPa) = 25.07432 52.10234 77.71910
#
# Poissons Ratio (x) = 0.54187 0.92509
# Poissons Ratio (y) = 0.26078 0.22394
# Poissons Ratio (z) = 0.29846 0.15013
#
# Static dielectric constant tensor:
#      x y z
#    x 3.047660 0.000000 0.000000 
#    y 0.000000 3.107810 0.000000 
#    z 0.000000 0.000000 3.269060 
# 
# 
# High freq. dielectric constant tensor:
#      x y z
#    x 1.629430 0.000000 0.000000 
#    y 0.000000 1.637410 0.000000 
#    z 0.000000 0.000000 1.647990 
# 
# From -- ./inp_files/20605.got.cif
#   From: 2010.03.12/outbox.cif.g09.slc.cpg/sg38_11_cif.got.tgz:20605.got - 2010.04.14 02:38:36.
