data_PCOD8177234
_publ_section_title
;
Structure prediction by ZEFSAII (Michael W. Deem and Ramdas Pophale) SiO2 
 PCOD8177234
Probable space group: A M M 2
;
_chemical_formula_sum "Si O2"
_cell_formula_units_Z 64
_cell_length_a 8.922819
_cell_length_b 22.457719
_cell_length_c 20.733101
_cell_angle_alpha 90.000000
_cell_angle_beta 90.000000
_cell_angle_gamma 90.000000
_cell_volume 4154.626531
_symmetry_space_group_name_H-M "A M M 2"
_symmetry_group_IT_number 38
_symmetry_cell_setting 'orthorhombic'
loop_
_space_group_symop_operation_xyz
x,y,z
-x,-y,z
-x,y,z
x,-y,z
x,1/2+y,1/2+z
-x,1/2-y,1/2+z
-x,1/2+y,1/2+z
x,1/2-y,1/2+z
loop_
_atom_site_type_symbol
_atom_site_label
_atom_site_fract_x
_atom_site_fract_y
_atom_site_fract_z
Si Si1 0.825725 0.434872 0.000000
Si Si2 0.826423 0.829852 0.418992
Si Si3 0.325685 0.651168 0.241671
Si Si4 0.177624 0.156715 0.607783
Si Si5 0.676029 0.248471 0.523213
Si Si6 0.165802 0.758744 0.820917
Si Si7 0.675830 0.568072 0.359747
Si Si8 0.831315 0.342025 0.445318
O O1 0.746255 0.500000 0.998050
O O2 0.764809 0.394922 0.059166
O O3 0.000000 0.444734 0.011199
O O4 0.797631 0.400192 0.931769
O O5 0.711303 0.795256 0.464318
O O6 0.798813 0.809502 0.344350
O O7 0.000000 0.814287 0.438623
O O8 0.500000 0.649314 0.225155
O O9 0.231556 0.637472 0.178199
O O10 0.284888 0.716869 0.269423
O O11 0.277761 0.601622 0.293894
O O12 0.250273 0.220196 0.587684
O O13 0.000000 0.163647 0.606232
O O14 0.500000 0.255122 0.533860
O O15 0.744343 0.313629 0.506579
O O16 0.172850 0.795988 0.886592
O O17 0.000000 0.762996 0.789738
O O18 0.500000 0.573944 0.370717
O O19 0.728203 0.500000 0.353317
O O20 0.754424 0.596803 0.422113
O O21 0.000000 0.356419 0.466944
#
# Coordination Sequence:
#
# PCOD8177234 Si02
#       8
#     8   8   8   8   8   8   8   8
#     4   8  14  25  41  60  81 107 139 171 200 233
#     4   8  14  25  41  60  81 104 132 167 207 248
#     4  10  19  29  41  58  80 109 144 178 210 245
#     4  10  19  30  42  57  81 112 144 177 209 245
#     4  10  17  26  42  61  80 103 133 170 214 259
#     4   8  14  25  40  57  77 102 131 166 208 249
#     4   9  18  31  44  60  86 118 148 178 212 249
#     4   9  16  27  43  62  82 104 135 174 214 254
#
# _framework density 15.404514000000001
#
# number of rings (size 3 to 8) (size 9 to 14) (size 15 to 20)
#    0.000    3.000    0.000    3.750    0.000    4.250 
#    0.000    0.000    0.000    9.000    0.000    0.000 
#    0.000    1.000    0.000    5.000    0.000    3.625 
#
# Total GULP energy -396495.119740 kJ/mol
# GULP energy per Si atom -12390.472492 kJ/mol
# Density = 1.536945 g / cm^3
# Si number density = 15.404514 Si / 1000 Ang^3
#
#
#
# Elastic Constant Matrix: (Units=GPa)
#
#
# Indices 1 2 3 4 5 6 
#
# 1 68.0070 37.2381 22.5723 0.0000 0.0000 0.0000
# 2 37.2381 104.3789 59.3620 0.0000 0.0000 0.0000
# 3 22.5723 59.3620 38.3845 0.0000 0.0000 0.0000
# 4 0.0000 0.0000 0.0000 16.7896 0.0000 0.0000
# 5 0.0000 0.0000 0.0000 0.0000 22.7707 0.0000
# 6 0.0000 0.0000 0.0000 0.0000 0.0000 16.3136
#
#
#
# Elastic Compliance Matrix: (Units=1/GPa)
#
#
# Indices 1 2 3 4 5 6 
#
# 1 0.018416 -0.003412 -0.005553 0.000000 0.000000 0.000000
# 2 -0.003412 0.080155 -0.121954 0.000000 0.000000 0.000000
# 3 -0.005553 -0.121954 0.217920 0.000000 0.000000 0.000000
# 4 0.000000 0.000000 0.000000 0.059561 0.000000 0.000000
# 5 0.000000 0.000000 0.000000 0.000000 0.043916 0.000000
# 6 0.000000 0.000000 0.000000 0.000000 0.000000 0.061299
#
#
# Mechanical properties :
#
#
# Convention : Reuss Voigt Hill
#
# Bulk Modulus (GPa) = 18.29703 49.90168 34.09935
# Shear Modulus (GPa) = 6.56753 17.28131 11.92442
#
# Velocity S-wave (km/s) = 2.06704 3.35301 2.78526
# Velocity P-wave (km/s) = 4.19528 6.88874 5.70329
#
# Compressibility (1/GPa) = 0.05465368
#
# Stress axis : x y z
#
# Youngs Moduli (GPa) = 54.30157 12.47586 4.58884
#
# Poissons Ratio (x) = 0.04257 0.02548
# Poissons Ratio (y) = 0.18528 0.55963
# Poissons Ratio (z) = 0.30152 1.52148
#
# Static dielectric constant tensor:
#      x y z
#    x 2.881760 0.000000 0.000000 
#    y 0.000000 3.191340 0.000000 
#    z 0.000000 0.000000 2.820170 
# 
# 
# High freq. dielectric constant tensor:
#      x y z
#    x 1.588440 0.000000 0.000000 
#    y 0.000000 1.572650 0.000000 
#    z 0.000000 0.000000 1.554860 
# 
# From -- ./inp_files/20209.got.cif
#   From: 2010.03.12/outbox.cif.g09.slc.cpg/sg38_11_cif.got.tgz:20209.got - 2010.04.14 02:38:36.
