data_PCOD8177590
_publ_section_title
;
Structure prediction by ZEFSAII (Michael W. Deem and Ramdas Pophale) SiO2 
 PCOD8177590
Probable space group: A M M 2
;
_chemical_formula_sum "Si O2"
_cell_formula_units_Z 64
_cell_length_a 8.943432
_cell_length_b 20.652757
_cell_length_c 19.520531
_cell_angle_alpha 90.000000
_cell_angle_beta 90.000000
_cell_angle_gamma 90.000000
_cell_volume 3605.569503
_symmetry_space_group_name_H-M "A M M 2"
_symmetry_group_IT_number 38
_symmetry_cell_setting 'orthorhombic'
loop_
_space_group_symop_operation_xyz
x,y,z
-x,-y,z
-x,y,z
x,-y,z
x,1/2+y,1/2+z
-x,1/2-y,1/2+z
-x,1/2+y,1/2+z
x,1/2-y,1/2+z
loop_
_atom_site_type_symbol
_atom_site_label
_atom_site_fract_x
_atom_site_fract_y
_atom_site_fract_z
Si Si1 0.672972 0.686025 0.689930
Si Si2 0.176753 0.929301 0.697537
Si Si3 0.171811 0.426236 0.613349
Si Si4 0.671263 0.757961 0.333375
Si Si5 0.175035 0.125075 0.841056
Si Si6 0.672328 0.118605 0.980137
Si Si7 0.669474 0.728924 0.984283
Si Si8 0.823283 0.306637 0.115456
O O1 0.500000 0.686211 0.668604
O O2 0.743761 0.618271 0.668051
O O3 0.694544 0.691550 0.771809
O O4 0.749200 0.745333 0.651358
O O5 0.220680 0.918755 0.776604
O O6 0.241873 0.872252 0.649715
O O7 0.000000 0.928061 0.689945
O O8 0.239356 0.000000 0.674872
O O9 0.188687 0.500000 0.638356
O O10 0.240272 0.420146 0.537993
O O11 0.000000 0.404579 0.610081
O O12 0.500000 0.731731 0.335582
O O13 0.781497 0.698283 0.321894
O O14 0.706749 0.792479 0.406151
O O15 0.262880 0.098070 0.906579
O O16 0.000000 0.122469 0.856932
O O17 0.500000 0.098653 0.983124
O O18 0.696037 0.194621 0.991996
O O19 0.500000 0.710740 0.003689
O O20 0.780147 0.691506 0.035349
O O21 0.000000 0.300954 0.124042
#
# Coordination Sequence:
#
# PCOD8177590 Si02
#       8
#     8   8   8   8   8   8   8   8
#     4  11  21  35  57  81 106 140 177 222 275 325
#     4   9  19  34  50  73 107 144 180 219 267 316
#     4  11  24  39  55  78 108 142 181 225 269 321
#     4   9  19  34  53  77 107 139 175 218 268 323
#     4  10  18  30  51  77 106 144 183 222 264 311
#     4  10  20  34  52  76 108 146 180 216 263 319
#     4   9  18  33  52  77 107 138 171 217 267 315
#     4  11  20  32  54  81 105 137 180 225 267 314
#
# _framework density 17.750318
#
# number of rings (size 3 to 8) (size 9 to 14) (size 15 to 20)
#    0.000    2.000    2.500    2.625    0.000    4.000 
#    0.000    1.250    0.000    6.375    0.000    3.500 
#    0.000    0.000    0.000    0.000    0.000    0.000 
#
# Total GULP energy -396810.008646 kJ/mol
# GULP energy per Si atom -12400.312770 kJ/mol
# Density = 1.770992 g / cm^3
# Si number density = 17.750318 Si / 1000 Ang^3
#
#
#
# Elastic Constant Matrix: (Units=GPa)
#
#
# Indices 1 2 3 4 5 6 
#
# 1 86.7247 39.2367 46.7052 0.0000 0.0000 0.0000
# 2 39.2367 92.6439 56.6391 0.0000 0.0000 0.0000
# 3 46.7052 56.6391 113.0255 0.0000 0.0000 0.0000
# 4 0.0000 0.0000 0.0000 24.0856 0.0000 0.0000
# 5 0.0000 0.0000 0.0000 0.0000 30.5502 0.0000
# 6 0.0000 0.0000 0.0000 0.0000 0.0000 10.9544
#
#
#
# Elastic Compliance Matrix: (Units=1/GPa)
#
#
# Indices 1 2 3 4 5 6 
#
# 1 0.015742 -0.003878 -0.004562 0.000000 0.000000 0.000000
# 2 -0.003878 0.016517 -0.006674 0.000000 0.000000 0.000000
# 3 -0.004562 -0.006674 0.014077 0.000000 0.000000 0.000000
# 4 0.000000 0.000000 0.000000 0.041519 0.000000 0.000000
# 5 0.000000 0.000000 0.000000 0.000000 0.032733 0.000000
# 6 0.000000 0.000000 0.000000 0.000000 0.000000 0.091288
#
#
# Mechanical properties :
#
#
# Convention : Reuss Voigt Hill
#
# Bulk Modulus (GPa) = 62.08186 64.17292 63.12739
# Shear Modulus (GPa) = 20.20421 23.10557 21.65489
#
# Velocity S-wave (km/s) = 3.37745 3.61182 3.49660
# Velocity P-wave (km/s) = 7.08947 7.32293 7.20714
#
# Compressibility (1/GPa) = 0.01610777
#
# Stress axis : x y z
#
# Youngs Moduli (GPa) = 63.52438 60.54355 71.03717
#
# Poissons Ratio (x) = 0.23481 0.32404
# Poissons Ratio (y) = 0.24637 0.47413
# Poissons Ratio (z) = 0.28977 0.40409
#
# Static dielectric constant tensor:
#      x y z
#    x 3.299580 0.000000 0.000000 
#    y 0.000000 3.186100 0.000000 
#    z 0.000000 0.000000 3.528290 
# 
# 
# High freq. dielectric constant tensor:
#      x y z
#    x 1.687740 0.000000 0.000000 
#    y 0.000000 1.658110 0.000000 
#    z 0.000000 0.000000 1.693920 
# 
# From -- ./inp_files/20009.got.cif
#   From: 2010.03.12/outbox.cif.g09.slc.cpg/sg38_11_cif.got.tgz:20009.got - 2010.04.14 02:38:36.
