data_PCOD8177725
_publ_section_title
;
Structure prediction by ZEFSAII (Michael W. Deem and Ramdas Pophale) SiO2 
 PCOD8177725
Probable space group: A M M 2
;
_chemical_formula_sum "Si O2"
_cell_formula_units_Z 64
_cell_length_a 8.917410
_cell_length_b 19.646944
_cell_length_c 20.977775
_cell_angle_alpha 90.000000
_cell_angle_beta 90.000000
_cell_angle_gamma 90.000000
_cell_volume 3675.303136
_symmetry_space_group_name_H-M "A M M 2"
_symmetry_group_IT_number 38
_symmetry_cell_setting 'orthorhombic'
loop_
_space_group_symop_operation_xyz
x,y,z
-x,-y,z
-x,y,z
x,-y,z
x,1/2+y,1/2+z
-x,1/2-y,1/2+z
-x,1/2+y,1/2+z
x,1/2-y,1/2+z
loop_
_atom_site_type_symbol
_atom_site_label
_atom_site_fract_x
_atom_site_fract_y
_atom_site_fract_z
Si Si1 0.177422 0.925809 0.465090
Si Si2 0.825405 0.785752 0.029345
Si Si3 0.671452 0.924568 0.597052
Si Si4 0.829200 0.575214 0.585134
Si Si5 0.177154 0.293172 0.765136
Si Si6 0.674122 0.283927 0.149979
Si Si7 0.177789 0.209943 0.405927
Si Si8 0.325086 0.577016 0.716749
O O1 0.224376 0.909508 0.537017
O O2 0.240447 0.866371 0.419498
O O3 0.000000 0.926716 0.463533
O O4 0.240955 0.000000 0.443518
O O5 0.762087 0.761033 0.960761
O O6 0.000000 0.766967 0.036939
O O7 0.799408 0.867321 0.031902
O O8 0.738416 0.749559 0.086297
O O9 0.500000 0.920443 0.573513
O O10 0.702044 0.865588 0.649044
O O11 0.705565 0.000000 0.626068
O O12 0.800463 0.500000 0.555469
O O13 0.718072 0.588903 0.643372
O O14 0.000000 0.580933 0.610755
O O15 0.247591 0.244234 0.712829
O O16 0.228273 0.266831 0.835325
O O17 0.232162 0.370950 0.759802
O O18 0.000000 0.291974 0.756629
O O19 0.500000 0.265431 0.154007
O O20 0.000000 0.208426 0.408843
O O21 0.500000 0.592255 0.724251
O O22 0.284889 0.500000 0.737842
#
# Coordination Sequence:
#
# PCOD8177725 Si02
#       8
#     8   8   8   8   8   8   8   8
#     4   9  16  28  48  73 100 129 162 200 242 294
#     4  10  18  32  54  76 100 131 167 211 256 303
#     4   9  18  32  50  74 102 130 162 203 252 303
#     4   9  17  29  49  77 103 130 166 205 251 308
#     4  11  22  35  51  72 102 142 178 212 251 303
#     4  11  21  33  52  77 102 131 169 213 258 304
#     4   9  19  33  49  72 101 134 172 209 253 300
#     4  10  20  33  49  72 104 137 170 212 256 299
#
# _framework density 17.413530999999999
#
# number of rings (size 3 to 8) (size 9 to 14) (size 15 to 20)
#    0.000    2.250    2.500    1.125    0.000    1.750 
#    0.000    3.750    0.000    2.250    0.000    1.750 
#    0.000    0.000    0.000    0.000    0.000    0.000 
#
# Total GULP energy -396618.366374 kJ/mol
# GULP energy per Si atom -12394.323949 kJ/mol
# Density = 1.737390 g / cm^3
# Si number density = 17.413531 Si / 1000 Ang^3
#
#
#
# Elastic Constant Matrix: (Units=GPa)
#
#
# Indices 1 2 3 4 5 6 
#
# 1 52.7565 33.1808 35.7242 0.0000 0.0000 0.0000
# 2 33.1808 120.0201 74.1766 0.0000 0.0000 0.0000
# 3 35.7242 74.1766 128.8391 0.0000 0.0000 0.0000
# 4 0.0000 0.0000 0.0000 23.8081 0.0000 0.0000
# 5 0.0000 0.0000 0.0000 0.0000 -1.4406 0.0000
# 6 0.0000 0.0000 0.0000 0.0000 0.0000 21.0813
#
#
#
# Elastic Compliance Matrix: (Units=1/GPa)
#
#
# Indices 1 2 3 4 5 6 
#
# 1 0.024514 -0.003999 -0.004495 0.000000 0.000000 0.000000
# 2 -0.003999 0.013587 -0.006713 0.000000 0.000000 0.000000
# 3 -0.004495 -0.006713 0.012873 0.000000 0.000000 0.000000
# 4 0.000000 0.000000 0.000000 0.042002 0.000000 0.000000
# 5 0.000000 0.000000 0.000000 0.000000 -0.694139 0.000000
# 6 0.000000 0.000000 0.000000 0.000000 0.000000 0.047435
#
#
# Mechanical properties :
#
#
# Convention : Reuss Voigt Hill
#
# Bulk Modulus (GPa) = 48.64058 65.30877 56.97467
# Shear Modulus (GPa) = -9.68128 19.25870 4.78871
#
# Velocity S-wave (km/s) = -2.36044 3.32921 1.66011
# Velocity P-wave (km/s) = 4.53479 7.23631 6.03857
#
# Compressibility (1/GPa) = 0.02055897
#
# Stress axis : x y z
#
# Youngs Moduli (GPa) = 40.79326 73.60166 77.68222
#
# Poissons Ratio (x) = 0.29435 0.34915
# Poissons Ratio (y) = 0.16314 0.52151
# Poissons Ratio (z) = 0.18335 0.49411
#
# Static dielectric constant tensor:
#      x y z
#    x 3.177030 0.000000 0.000000 
#    y 0.000000 3.693300 0.000000 
#    z 0.000000 0.000000 3.167690 
# 
# 
# High freq. dielectric constant tensor:
#      x y z
#    x 1.665030 0.000000 0.000000 
#    y 0.000000 1.683980 0.000000 
#    z 0.000000 0.000000 1.641070 
# 
# From -- ./inp_files/20213.got.cif
#   From: 2010.03.12/outbox.cif.g09.slc.cpg/sg38_11_cif.got.tgz:20213.got - 2010.04.14 02:38:36.
