data_PCOD8177986
_publ_section_title
;
Structure prediction by ZEFSAII (Michael W. Deem and Ramdas Pophale) SiO2 
 PCOD8177986
Probable space group: A M M 2
;
_chemical_formula_sum "Si O2"
_cell_formula_units_Z 56
_cell_length_a 9.153749
_cell_length_b 18.048389
_cell_length_c 20.884442
_cell_angle_alpha 90.000000
_cell_angle_beta 90.000000
_cell_angle_gamma 90.000000
_cell_volume 3450.327492
_symmetry_space_group_name_H-M "A M M 2"
_symmetry_group_IT_number 38
_symmetry_cell_setting 'orthorhombic'
loop_
_space_group_symop_operation_xyz
x,y,z
-x,-y,z
-x,y,z
x,-y,z
x,1/2+y,1/2+z
-x,1/2-y,1/2+z
-x,1/2+y,1/2+z
x,1/2-y,1/2+z
loop_
_atom_site_type_symbol
_atom_site_label
_atom_site_fract_x
_atom_site_fract_y
_atom_site_fract_z
Si Si1 0.832093 0.414424 0.341120
Si Si2 0.828315 0.417121 0.843384
Si Si3 0.673172 0.645919 0.462839
Si Si4 0.829759 0.833221 0.215760
Si Si5 0.338528 0.706280 0.903725
Si Si6 0.831962 0.913443 0.084538
Si Si7 0.335822 0.705510 0.271842
O O1 0.821432 0.500000 0.322395
O O2 0.753449 0.402162 0.408927
O O3 0.754899 0.369620 0.283553
O O4 0.000000 0.388439 0.347477
O O5 0.764727 0.500000 0.850876
O O6 0.781774 0.386835 0.773842
O O7 0.765945 0.365006 0.900001
O O8 0.000000 0.417659 0.851279
O O9 0.500000 0.634066 0.454727
O O10 0.713192 0.733546 0.456542
O O11 0.725055 0.618999 0.531545
O O12 0.789942 0.874548 0.150698
O O13 0.741739 0.755889 0.217969
O O14 0.000000 0.814247 0.220882
O O15 0.500000 0.676795 0.919839
O O16 0.337647 0.749526 0.837267
O O17 0.000000 0.897945 0.065558
O O18 0.803152 0.000000 0.093030
O O19 0.500000 0.685850 0.249411
#
# Coordination Sequence:
#
# PCOD8177986 Si02
#       7
#     8   8   8   8   8   8   8
#     4  10  19  30  46  68  92 118 149 185 226 272
#     4   9  16  26  43  67  90 112 141 178 219 261
#     4  10  20  32  45  63  90 122 155 190 226 266
#     4   9  17  30  46  63  89 123 153 182 217 259
#     4   8  16  29  42  59  84 114 146 179 218 263
#     4  10  20  32  46  66  92 123 158 190 220 260
#     4   9  17  29  45  65  89 116 148 185 223 265
#
# _framework density 16.230343999999999
#
# number of rings (size 3 to 8) (size 9 to 14) (size 15 to 20)
#    0.000    2.714    0.000    3.000    0.000    9.714 
#    0.000    0.000    0.000    2.571    0.000    1.000 
#    0.000    5.714    0.000    0.000    0.000    0.000 
#
# Total GULP energy -347143.198420 kJ/mol
# GULP energy per Si atom -12397.971372 kJ/mol
# Density = 1.619340 g / cm^3
# Si number density = 16.230344 Si / 1000 Ang^3
#
#
#
# Elastic Constant Matrix: (Units=GPa)
#
#
# Indices 1 2 3 4 5 6 
#
# 1 86.8276 61.2323 36.1875 0.0000 0.0000 0.0000
# 2 61.2323 116.6120 48.4279 0.0000 0.0000 0.0000
# 3 36.1875 48.4279 59.0940 0.0000 0.0000 0.0000
# 4 0.0000 0.0000 0.0000 27.2098 0.0000 0.0000
# 5 0.0000 0.0000 0.0000 0.0000 20.4364 0.0000
# 6 0.0000 0.0000 0.0000 0.0000 0.0000 22.0549
#
#
#
# Elastic Compliance Matrix: (Units=1/GPa)
#
#
# Indices 1 2 3 4 5 6 
#
# 1 0.019340 -0.007939 -0.005337 0.000000 0.000000 0.000000
# 2 -0.007939 0.016258 -0.008462 0.000000 0.000000 0.000000
# 3 -0.005337 -0.008462 0.027126 0.000000 0.000000 0.000000
# 4 0.000000 0.000000 0.000000 0.036751 0.000000 0.000000
# 5 0.000000 0.000000 0.000000 0.000000 0.048932 0.000000
# 6 0.000000 0.000000 0.000000 0.000000 0.000000 0.045341
#
#
# Mechanical properties :
#
#
# Convention : Reuss Voigt Hill
#
# Bulk Modulus (GPa) = 51.95626 61.58098 56.76862
# Shear Modulus (GPa) = 20.52189 21.71929 21.12059
#
# Velocity S-wave (km/s) = 3.55972 3.66210 3.61127
# Velocity P-wave (km/s) = 6.99834 7.47700 7.24163
#
# Compressibility (1/GPa) = 0.01924696
#
# Stress axis : x y z
#
# Youngs Moduli (GPa) = 51.70584 61.50659 36.86548
#
# Poissons Ratio (x) = 0.48829 0.19677
# Poissons Ratio (y) = 0.41048 0.31197
# Poissons Ratio (z) = 0.27598 0.52049
#
# Static dielectric constant tensor:
#      x y z
#    x 3.188600 0.000000 0.000000 
#    y 0.000000 3.240990 0.000000 
#    z 0.000000 0.000000 2.812390 
# 
# 
# High freq. dielectric constant tensor:
#      x y z
#    x 1.631780 0.000000 0.000000 
#    y 0.000000 1.625300 0.000000 
#    z 0.000000 0.000000 1.582830 
# 
# From -- ./inp_files/19970.got.cif
#   From: 2010.03.12/outbox.cif.g09.slc.cpg/sg38_10_cif.got.tgz:19970.got - 2010.04.14 02:38:36.
