data_PCOD8177431
_publ_section_title
;
Structure prediction by ZEFSAII (Michael W. Deem and Ramdas Pophale) SiO2 
 PCOD8177431
Probable space group: A M M 2
;
_chemical_formula_sum "Si O2"
_cell_formula_units_Z 64
_cell_length_a 13.286624
_cell_length_b 22.617971
_cell_length_c 11.210913
_cell_angle_alpha 90.000000
_cell_angle_beta 90.000000
_cell_angle_gamma 90.000000
_cell_volume 3369.064071
_symmetry_space_group_name_H-M "A M M 2"
_symmetry_group_IT_number 38
_symmetry_cell_setting 'orthorhombic'
loop_
_space_group_symop_operation_xyz
x,y,z
-x,-y,z
-x,y,z
x,-y,z
x,1/2+y,1/2+z
-x,1/2-y,1/2+z
-x,1/2+y,1/2+z
x,1/2-y,1/2+z
loop_
_atom_site_type_symbol
_atom_site_label
_atom_site_fract_x
_atom_site_fract_y
_atom_site_fract_z
Si Si1 0.231398 0.657473 0.632250
Si Si2 0.740188 0.747127 0.938321
Si Si3 0.616474 0.348257 0.837523
Si Si4 0.891381 0.749347 0.255732
Si Si5 0.613136 0.431975 0.057543
Si Si6 0.891990 0.661077 0.041841
Si Si7 0.881544 0.930148 0.959117
Si Si8 0.197952 0.931874 0.702144
O O1 0.279889 0.709233 0.548019
O O2 0.320549 0.634832 0.718633
O O3 0.144227 0.685978 0.712364
O O4 0.182298 0.603429 0.560321
O O5 0.638285 0.719549 0.882585
O O6 0.808471 0.781787 0.841479
O O7 0.805943 0.686814 0.957333
O O8 0.500000 0.352443 0.802588
O O9 0.644029 0.393614 0.943087
O O10 0.903721 0.708550 0.144198
O O11 0.000000 0.755562 0.321006
O O12 0.500000 0.416471 0.099379
O O13 0.623075 0.500000 0.018066
O O14 0.684342 0.418727 0.172168
O O15 0.866125 0.598135 0.098162
O O16 0.000000 0.654584 0.975576
O O17 0.833453 0.909644 0.833275
O O18 0.000000 0.912706 0.962282
O O19 0.867849 0.000000 0.980316
O O20 0.170850 0.000000 0.692538
#
# Coordination Sequence:
#
# PCOD8177431 Si02
#       8
#     8   8   8   8   8   8   8   8
#     4  10  21  35  56  81 112 145 184 227 275 332
#     4  10  19  33  50  75 106 141 179 223 271 325
#     4  10  21  38  58  80 108 144 185 233 284 334
#     4   9  18  31  50  75 102 138 180 220 260 314
#     4   9  18  35  59  81 103 139 187 235 281 325
#     4  10  18  28  46  73 104 135 173 216 261 313
#     4  10  21  37  58  83 114 151 185 223 278 339
#     4  10  19  32  52  78 109 143 180 222 269 325
#
# _framework density 18.996373999999999
#
# number of rings (size 3 to 8) (size 9 to 14) (size 15 to 20)
#    0.000    2.250    1.250    1.875    0.000    4.250 
#    0.000    0.625    0.000    0.750    0.000    0.000 
#    0.000    0.000    0.000    0.000    0.000    0.000 
#
# Total GULP energy -396519.776506 kJ/mol
# GULP energy per Si atom -12391.243016 kJ/mol
# Density = 1.895314 g / cm^3
# Si number density = 18.996374 Si / 1000 Ang^3
#
#
#
# Elastic Constant Matrix: (Units=GPa)
#
#
# Indices 1 2 3 4 5 6 
#
# 1 104.5741 33.1410 41.2436 0.0000 0.0000 0.0000
# 2 33.1410 53.7349 23.6869 0.0000 0.0000 0.0000
# 3 41.2436 23.6869 80.1359 0.0000 0.0000 0.0000
# 4 0.0000 0.0000 0.0000 17.8937 0.0000 0.0000
# 5 0.0000 0.0000 0.0000 0.0000 22.6458 0.0000
# 6 0.0000 0.0000 0.0000 0.0000 0.0000 26.1901
#
#
#
# Elastic Compliance Matrix: (Units=1/GPa)
#
#
# Indices 1 2 3 4 5 6 
#
# 1 0.013522 -0.006062 -0.005167 0.000000 0.000000 0.000000
# 2 -0.006062 0.024115 -0.004008 0.000000 0.000000 0.000000
# 3 -0.005167 -0.004008 0.016323 0.000000 0.000000 0.000000
# 4 0.000000 0.000000 0.000000 0.055886 0.000000 0.000000
# 5 0.000000 0.000000 0.000000 0.000000 0.044158 0.000000
# 6 0.000000 0.000000 0.000000 0.000000 0.000000 0.038182
#
#
# Mechanical properties :
#
#
# Convention : Reuss Voigt Hill
#
# Bulk Modulus (GPa) = 42.58000 48.28754 45.43377
# Shear Modulus (GPa) = 21.69295 22.70415 22.19855
#
# Velocity S-wave (km/s) = 3.38294 3.46089 3.42214
# Velocity P-wave (km/s) = 6.14187 6.43777 6.29156
#
# Compressibility (1/GPa) = 0.02348521
#
# Stress axis : x y z
#
# Youngs Moduli (GPa) = 73.95562 41.46747 61.26272
#
# Poissons Ratio (x) = 0.25136 0.31657
# Poissons Ratio (y) = 0.44829 0.24556
# Poissons Ratio (z) = 0.38216 0.16622
#
# Static dielectric constant tensor:
#      x y z
#    x 3.838740 0.000000 0.000000 
#    y 0.000000 3.490790 0.000000 
#    z 0.000000 0.000000 3.542360 
# 
# 
# High freq. dielectric constant tensor:
#      x y z
#    x 1.737470 0.000000 0.000000 
#    y 0.000000 1.731180 0.000000 
#    z 0.000000 0.000000 1.733420 
# 
# From -- ./inp_files/9575.got.cif
#   From: 2010.03.12/outbox.cif.g09.slc.cpg/sg38_5_cif.got.tgz:9575.got - 2010.04.14 02:38:36.
