data_PCOD8177433
_publ_section_title
;
Structure prediction by ZEFSAII (Michael W. Deem and Ramdas Pophale) SiO2 
 PCOD8177433
Probable space group: A M M 2
;
_chemical_formula_sum "Si O2"
_cell_formula_units_Z 64
_cell_length_a 18.779872
_cell_length_b 9.017396
_cell_length_c 20.934440
_cell_angle_alpha 90.000000
_cell_angle_beta 90.000000
_cell_angle_gamma 90.000000
_cell_volume 3545.154102
_symmetry_space_group_name_H-M "A M M 2"
_symmetry_group_IT_number 38
_symmetry_cell_setting 'orthorhombic'
loop_
_space_group_symop_operation_xyz
x,y,z
-x,-y,z
-x,y,z
x,-y,z
x,1/2+y,1/2+z
-x,1/2-y,1/2+z
-x,1/2+y,1/2+z
x,1/2-y,1/2+z
loop_
_atom_site_type_symbol
_atom_site_label
_atom_site_fract_x
_atom_site_fract_y
_atom_site_fract_z
Si Si1 0.671255 0.674759 0.608440
Si Si2 0.332458 0.836547 0.481968
Si Si3 0.163708 0.161841 0.483761
Si Si4 0.579627 0.675750 0.728592
Si Si5 0.837327 0.177494 0.346640
Si Si6 0.323017 0.676867 0.842204
Si Si7 0.918127 0.672531 0.235501
Si Si8 0.179182 0.177660 0.619243
O O1 0.683856 0.500000 0.605669
O O2 0.642831 0.729255 0.539342
O O3 0.612680 0.720814 0.660617
O O4 0.744119 0.751112 0.630831
O O5 0.248290 0.853968 0.482435
O O6 0.352933 0.770856 0.411822
O O7 0.366878 0.000000 0.492222
O O8 0.140559 0.241296 0.417506
O O9 0.145275 0.239310 0.551824
O O10 0.127649 0.000000 0.484142
O O11 0.500000 0.741821 0.732744
O O12 0.577830 0.500000 0.735303
O O13 0.626550 0.742591 0.786731
O O14 0.757687 0.233650 0.329324
O O15 0.894464 0.238902 0.297657
O O16 0.839588 0.000000 0.347430
O O17 0.322367 0.500000 0.841632
O O18 0.904871 0.500000 0.248043
O O19 0.873096 0.729231 0.175137
O O20 0.000000 0.707679 0.221151
O O21 0.187825 0.000000 0.615768
#
# Coordination Sequence:
#
# PCOD8177433 Si02
#       8
#     8   8   8   8   8   8   8   8
#     4  10  18  28  47  73  95 117 150 191 230 271
#     4   8  14  27  47  69  93 118 145 185 233 273
#     4   7  12  25  46  69  88 109 143 184 222 260
#     4   9  17  28  42  64  95 127 157 190 228 268
#     4   9  16  29  50  72  91 113 147 191 231 266
#     4   8  14  27  48  69  88 116 156 195 225 261
#     4  10  21  34  46  65  95 126 152 181 223 274
#     4   9  17  32  52  69  89 120 154 188 226 267
#
# _framework density 18.052811999999999
#
# number of rings (size 3 to 8) (size 9 to 14) (size 15 to 20)
#    0.000    3.250    0.000    3.375    0.000    1.750 
#    0.000    6.875    0.000    6.000    0.000    0.000 
#    0.000    0.000    0.000    0.000    0.000    0.000 
#
# Total GULP energy -396444.742915 kJ/mol
# GULP energy per Si atom -12388.898216 kJ/mol
# Density = 1.801172 g / cm^3
# Si number density = 18.052812 Si / 1000 Ang^3
#
#
#
# Elastic Constant Matrix: (Units=GPa)
#
#
# Indices 1 2 3 4 5 6 
#
# 1 64.3663 16.8878 41.4975 0.0000 0.0000 0.0000
# 2 16.8878 28.0963 25.8598 0.0000 0.0000 0.0000
# 3 41.4975 25.8598 144.6040 0.0000 0.0000 0.0000
# 4 0.0000 0.0000 0.0000 25.0947 0.0000 0.0000
# 5 0.0000 0.0000 0.0000 0.0000 8.2630 0.0000
# 6 0.0000 0.0000 0.0000 0.0000 0.0000 15.0442
#
#
#
# Elastic Compliance Matrix: (Units=1/GPa)
#
#
# Indices 1 2 3 4 5 6 
#
# 1 0.020559 -0.008292 -0.004417 0.000000 0.000000 0.000000
# 2 -0.008292 0.045949 -0.005837 0.000000 0.000000 0.000000
# 3 -0.004417 -0.005837 0.009227 0.000000 0.000000 0.000000
# 4 0.000000 0.000000 0.000000 0.039849 0.000000 0.000000
# 5 0.000000 0.000000 0.000000 0.000000 0.121022 0.000000
# 6 0.000000 0.000000 0.000000 0.000000 0.000000 0.066471
#
#
# Mechanical properties :
#
#
# Convention : Reuss Voigt Hill
#
# Bulk Modulus (GPa) = 25.87874 45.06188 35.47031
# Shear Modulus (GPa) = 14.16228 19.86848 17.01538
#
# Velocity S-wave (km/s) = 2.80392 3.32109 3.07340
# Velocity P-wave (km/s) = 4.98485 6.30250 5.68200
#
# Compressibility (1/GPa) = 0.03864175
#
# Stress axis : x y z
#
# Youngs Moduli (GPa) = 48.63942 21.76337 108.37792
#
# Poissons Ratio (x) = 0.18046 0.47872
# Poissons Ratio (y) = 0.40332 0.63266
# Poissons Ratio (z) = 0.21485 0.12704
#
# Static dielectric constant tensor:
#      x y z
#    x 3.118810 0.000000 0.000000 
#    y 0.000000 2.920080 0.000000 
#    z 0.000000 0.000000 3.984950 
# 
# 
# High freq. dielectric constant tensor:
#      x y z
#    x 1.663870 0.000000 0.000000 
#    y 0.000000 1.650840 0.000000 
#    z 0.000000 0.000000 1.727110 
# 
# From -- ./inp_files/21507.got.cif
#   From: 2010.03.12/outbox.cif.g09.slc.cpg/sg38_11_cif.got.tgz:21507.got - 2010.04.14 02:38:36.
