data_PCOD8177125
_publ_section_title
;
Structure prediction by ZEFSAII (Michael W. Deem and Ramdas Pophale) SiO2 
 PCOD8177125
Probable space group: C C C 2
;
_chemical_formula_sum "Si O2"
_cell_formula_units_Z 52
_cell_length_a 8.970543
_cell_length_b 25.338680
_cell_length_c 11.101548
_cell_angle_alpha 90.000000
_cell_angle_beta 90.000000
_cell_angle_gamma 90.000000
_cell_volume 2523.400938
_symmetry_space_group_name_H-M "C C C 2"
_symmetry_group_IT_number 37
_symmetry_cell_setting 'orthorhombic'
loop_
_space_group_symop_operation_xyz
x,y,z
-x,-y,z
-x,y,1/2+z
x,-y,1/2+z
1/2+x,1/2+y,z
1/2-x,1/2-y,z
1/2-x,1/2+y,1/2+z
1/2+x,1/2-y,1/2+z
loop_
_atom_site_type_symbol
_atom_site_label
_atom_site_fract_x
_atom_site_fract_y
_atom_site_fract_z
Si Si1 0.168725 0.979031 0.806030
Si Si2 0.452843 0.184269 0.728479
Si Si3 0.929899 0.787615 0.118929
Si Si4 0.794456 0.852268 0.560691
Si Si5 0.750000 0.750000 0.902910
Si Si6 0.338377 0.526113 0.069301
Si Si7 0.752358 0.640328 0.292648
O O1 0.181092 0.917285 0.778962
O O2 0.250026 0.007491 0.691144
O O3 0.239112 0.990328 0.940403
O O4 0.000000 0.000000 0.812303
O O5 0.557957 0.230684 0.679238
O O6 0.366223 0.155133 0.620981
O O7 0.335553 0.205982 0.825447
O O8 0.566855 0.140679 0.782296
O O9 0.815641 0.823577 0.190097
O O10 0.092635 0.812713 0.124588
O O11 0.869349 0.781834 0.983289
O O12 0.854427 0.911310 0.575050
O O13 0.786808 0.835607 0.422049
O O14 0.500000 0.500000 0.075912
#
# Coordination Sequence:
#
# PCOD8177125 Si02
#       7
#     8   8   8   8   4   8   8
#     4   9  18  37  62  93 122 154 209 268 322 383
#     4  12  24  43  60  93 136 171 218 266 325 385
#     4  12  22  41  64  93 127 176 220 262 315 383
#     4  11  24  41  66  93 128 170 215 269 321 386
#     4  12  24  40  62  92 134 176 224 264 318 386
#     4   9  18  37  61  92 120 151 208 268 317 375
#     4  11  24  41  66  94 131 173 214 270 329 380
#
# _framework density 20.607109000000001
#
# number of rings (size 3 to 8) (size 9 to 14) (size 15 to 20)
#    0.000    1.231    3.077    3.692    0.000    1.231 
#    2.769    0.769    0.000    3.692    0.000    0.000 
#    0.000    0.000    0.000    0.000    0.000    0.000 
#
# Total GULP energy -322234.073543 kJ/mol
# GULP energy per Si atom -12393.618213 kJ/mol
# Density = 2.056021 g / cm^3
# Si number density = 20.607109 Si / 1000 Ang^3
#
#
#
# Elastic Constant Matrix: (Units=GPa)
#
#
# Indices 1 2 3 4 5 6 
#
# 1 73.5117 27.5508 7.0840 0.0000 0.0000 0.0000
# 2 27.5508 79.9497 28.1789 0.0000 0.0000 0.0000
# 3 7.0840 28.1789 140.0504 0.0000 0.0000 0.0000
# 4 0.0000 0.0000 0.0000 35.8716 0.0000 0.0000
# 5 0.0000 0.0000 0.0000 0.0000 33.7802 0.0000
# 6 0.0000 0.0000 0.0000 0.0000 0.0000 8.3444
#
#
#
# Elastic Compliance Matrix: (Units=1/GPa)
#
#
# Indices 1 2 3 4 5 6 
#
# 1 0.015634 -0.005499 0.000316 0.000000 0.000000 0.000000
# 2 -0.005499 0.015397 -0.002820 0.000000 0.000000 0.000000
# 3 0.000316 -0.002820 0.007692 0.000000 0.000000 0.000000
# 4 0.000000 0.000000 0.000000 0.027877 0.000000 0.000000
# 5 0.000000 0.000000 0.000000 0.000000 0.029603 0.000000
# 6 0.000000 0.000000 0.000000 0.000000 0.000000 0.119841
#
#
# Mechanical properties :
#
#
# Convention : Reuss Voigt Hill
#
# Bulk Modulus (GPa) = 44.02124 46.57102 45.29613
# Shear Modulus (GPa) = 20.86628 30.97911 25.92270
#
# Velocity S-wave (km/s) = 3.18555 3.88148 3.55061
# Velocity P-wave (km/s) = 5.91091 6.53730 6.23198
#
# Compressibility (1/GPa) = 0.02271631
#
# Stress axis : x y z
#
# Youngs Moduli (GPa) = 63.96461 64.94973 130.01080
#
# Poissons Ratio (x) = 0.35713 -0.04103
# Poissons Ratio (y) = 0.35172 0.36660
# Poissons Ratio (z) = -0.02019 0.18314
#
# Static dielectric constant tensor:
#      x y z
#    x 3.567340 0.000000 0.000000 
#    y 0.000000 3.707890 0.000000 
#    z 0.000000 0.000000 4.549160 
# 
# 
# High freq. dielectric constant tensor:
#      x y z
#    x 1.782040 0.000000 0.000000 
#    y 0.000000 1.800110 0.000000 
#    z 0.000000 0.000000 1.834510 
# 
# From -- ./inp_files/6505.got.cif
#   From: 2010.03.12/outbox.cif.g09.slc.cpg/sg37_4_cif.got.tgz:6505.got - 2010.04.14 02:25:27.
