data_PCOD8177593
_publ_section_title
;
Structure prediction by ZEFSAII (Michael W. Deem and Ramdas Pophale) SiO2 
 PCOD8177593
Probable space group: A M M 2
;
_chemical_formula_sum "Si O2"
_cell_formula_units_Z 56
_cell_length_a 14.828140
_cell_length_b 21.623850
_cell_length_c 8.853144
_cell_angle_alpha 90.000000
_cell_angle_beta 90.000000
_cell_angle_gamma 90.000000
_cell_volume 2838.685152
_symmetry_space_group_name_H-M "A M M 2"
_symmetry_group_IT_number 38
_symmetry_cell_setting 'orthorhombic'
loop_
_space_group_symop_operation_xyz
x,y,z
-x,-y,z
-x,y,z
x,-y,z
x,1/2+y,1/2+z
-x,1/2-y,1/2+z
-x,1/2+y,1/2+z
x,1/2-y,1/2+z
loop_
_atom_site_type_symbol
_atom_site_label
_atom_site_fract_x
_atom_site_fract_y
_atom_site_fract_z
Si Si1 0.894655 0.570144 0.701920
Si Si2 0.595941 0.070190 0.963256
Si Si3 0.242635 0.839007 0.335621
Si Si4 0.187499 0.740857 0.574294
Si Si5 0.101723 0.173447 0.803990
Si Si6 0.211291 0.429945 0.386668
Si Si7 0.600501 0.069352 0.320205
O O1 0.886990 0.500000 0.765435
O O2 0.846942 0.617976 0.818381
O O3 0.841491 0.573315 0.544592
O O4 0.000000 0.588469 0.681383
O O5 0.500000 0.102117 0.912132
O O6 0.687707 0.099978 0.898582
O O7 0.593797 0.000000 0.906345
O O8 0.602654 0.071131 0.141532
O O9 0.238063 0.792342 0.476379
O O10 0.255740 0.798876 0.180737
O O11 0.328300 0.880762 0.378772
O O12 0.114827 0.772887 0.683290
O O13 0.131232 0.694742 0.470472
O O14 0.160391 0.112417 0.763805
O O15 0.000000 0.151816 0.807102
O O16 0.214451 0.500000 0.327131
O O17 0.500000 0.086097 0.379677
O O18 0.626890 0.000000 0.375009
#
# Coordination Sequence:
#
# PCOD8177593 Si02
#       7
#     8   8   8   8   8   8   8
#     4  10  19  30  50  79 106 137 177 223 276 328
#     4   8  13  23  44  77 109 134 167 211 259 312
#     4  11  20  38  55  78 112 145 180 231 271 320
#     4  10  24  36  54  76 105 147 190 220 265 320
#     4  11  21  37  55  77 105 141 181 227 269 320
#     4  10  18  30  51  79 109 139 173 219 278 332
#     4   9  16  29  56  88 110 135 176 226 277 324
#
# _framework density 19.727442
#
# number of rings (size 3 to 8) (size 9 to 14) (size 15 to 20)
#    0.000    2.143    2.857    2.143    0.000    3.714 
#    0.000    2.143    0.000    4.286    0.000    2.000 
#    0.000    6.857    0.000    0.000    0.000    0.000 
#
# Total GULP energy -346913.082227 kJ/mol
# GULP energy per Si atom -12389.752937 kJ/mol
# Density = 1.968254 g / cm^3
# Si number density = 19.727442 Si / 1000 Ang^3
#
#
#
# Elastic Constant Matrix: (Units=GPa)
#
#
# Indices 1 2 3 4 5 6 
#
# 1 161.6133 60.2144 14.5167 0.0000 0.0000 0.0000
# 2 60.2144 106.7328 22.3994 0.0000 0.0000 0.0000
# 3 14.5167 22.3994 42.6219 0.0000 0.0000 0.0000
# 4 0.0000 0.0000 0.0000 17.2642 0.0000 0.0000
# 5 0.0000 0.0000 0.0000 0.0000 10.8535 0.0000
# 6 0.0000 0.0000 0.0000 0.0000 0.0000 26.5878
#
#
#
# Elastic Compliance Matrix: (Units=1/GPa)
#
#
# Indices 1 2 3 4 5 6 
#
# 1 0.007840 -0.004342 -0.000389 0.000000 0.000000 0.000000
# 2 -0.004342 0.012935 -0.005319 0.000000 0.000000 0.000000
# 3 -0.000389 -0.005319 0.026390 0.000000 0.000000 0.000000
# 4 0.000000 0.000000 0.000000 0.057923 0.000000 0.000000
# 5 0.000000 0.000000 0.000000 0.000000 0.092136 0.000000
# 6 0.000000 0.000000 0.000000 0.000000 0.000000 0.037611
#
#
# Mechanical properties :
#
#
# Convention : Reuss Voigt Hill
#
# Bulk Modulus (GPa) = 36.94623 56.13655 46.54139
# Shear Modulus (GPa) = 18.94257 25.19693 22.06975
#
# Velocity S-wave (km/s) = 3.10209 3.57774 3.34838
# Velocity P-wave (km/s) = 5.62136 6.75166 6.21227
#
# Compressibility (1/GPa) = 0.02706636
#
# Stress axis : x y z
#
# Youngs Moduli (GPa) = 127.54951 77.31103 37.89333
#
# Poissons Ratio (x) = 0.33565 0.01473
# Poissons Ratio (y) = 0.55376 0.20156
# Poissons Ratio (z) = 0.04957 0.41122
#
# Static dielectric constant tensor:
#      x y z
#    x 4.266420 0.000000 0.000000 
#    y 0.000000 3.879070 0.000000 
#    z 0.000000 0.000000 3.188620 
# 
# 
# High freq. dielectric constant tensor:
#      x y z
#    x 1.770560 0.000000 0.000000 
#    y 0.000000 1.771630 0.000000 
#    z 0.000000 0.000000 1.721680 
# 
# From -- ./inp_files/5710.got.cif
#   From: 2010.03.12/outbox.cif.g09.slc.cpg/sg38_3_cif.got.tgz:5710.got - 2010.04.14 02:38:36.
