data_PCOD8177583
_publ_section_title
;
Structure prediction by ZEFSAII (Michael W. Deem and Ramdas Pophale) SiO2 
 PCOD8177583
Probable space group: A M M 2
;
_chemical_formula_sum "Si O2"
_cell_formula_units_Z 48
_cell_length_a 17.636455
_cell_length_b 15.986168
_cell_length_c 7.901363
_cell_angle_alpha 90.000000
_cell_angle_beta 90.000000
_cell_angle_gamma 90.000000
_cell_volume 2227.705010
_symmetry_space_group_name_H-M "A M M 2"
_symmetry_group_IT_number 38
_symmetry_cell_setting 'orthorhombic'
loop_
_space_group_symop_operation_xyz
x,y,z
-x,-y,z
-x,y,z
x,-y,z
x,1/2+y,1/2+z
-x,1/2-y,1/2+z
-x,1/2+y,1/2+z
x,1/2-y,1/2+z
loop_
_atom_site_type_symbol
_atom_site_label
_atom_site_fract_x
_atom_site_fract_y
_atom_site_fract_z
Si Si1 0.685276 0.899836 0.120510
Si Si2 0.584829 0.900802 0.432804
Si Si3 0.089019 0.500000 0.729779
Si Si4 0.089091 0.500000 0.346610
Si Si5 0.584880 0.400786 0.308484
Si Si6 0.151309 0.837109 0.179661
Si Si7 0.086476 0.322083 0.326316
O O1 0.641124 0.867857 0.287825
O O2 0.764077 0.851049 0.114813
O O3 0.696871 0.000000 0.120971
O O4 0.640758 0.867700 0.954126
O O5 0.500000 0.866128 0.398061
O O6 0.612495 0.872107 0.620640
O O7 0.582310 0.000000 0.424400
O O8 0.121917 0.500000 0.536746
O O9 0.124779 0.413768 0.804650
O O10 0.000000 0.500000 0.760471
O O11 0.111834 0.413744 0.248918
O O12 0.000000 0.500000 0.372111
O O13 0.500000 0.366346 0.342953
O O14 0.582845 0.500000 0.317116
O O15 0.145929 0.748868 0.275314
O O16 0.090531 0.832333 0.028093
O O17 0.000000 0.299509 0.274767
#
# Coordination Sequence:
#
# PCOD8177583 Si02
#       7
#     8   8   4   4   8   8   8
#     4  10  18  30  50  84 126 162 199 245 303 364
#     4   8  14  26  47  78 119 164 207 250 291 342
#     4   9  16  32  57  81 110 152 196 232 280 368
#     4   7  14  30  57  81  99 134 186 242 297 348
#     4   8  14  26  47  78 117 163 210 248 288 347
#     4  11  21  36  56  86 117 154 195 243 311 366
#     4  10  20  38  61  82 108 147 198 255 304 366
#
# _framework density 21.546838999999999
#
# number of rings (size 3 to 8) (size 9 to 14) (size 15 to 20)
#    0.000    2.833    0.833    4.000    0.000    2.000 
#    3.000    0.833    0.000    1.000    0.000    4.667 
#    0.000    0.000    0.000    0.667    0.000    1.667 
#
# Total GULP energy -297326.643781 kJ/mol
# GULP energy per Si atom -12388.610158 kJ/mol
# Density = 2.149780 g / cm^3
# Si number density = 21.546839 Si / 1000 Ang^3
#
#
#
# Elastic Constant Matrix: (Units=GPa)
#
#
# Indices 1 2 3 4 5 6 
#
# 1 109.1922 34.5878 47.6782 0.0000 0.0000 0.0000
# 2 34.5878 114.5108 27.7161 0.0000 0.0000 0.0000
# 3 47.6782 27.7161 95.1352 0.0000 0.0000 0.0000
# 4 0.0000 0.0000 0.0000 13.5746 0.0000 0.0000
# 5 0.0000 0.0000 0.0000 0.0000 21.7709 0.0000
# 6 0.0000 0.0000 0.0000 0.0000 0.0000 21.5765
#
#
#
# Elastic Compliance Matrix: (Units=1/GPa)
#
#
# Indices 1 2 3 4 5 6 
#
# 1 0.012304 -0.002393 -0.005469 0.000000 0.000000 0.000000
# 2 -0.002393 0.009861 -0.001674 0.000000 0.000000 0.000000
# 3 -0.005469 -0.001674 0.013740 0.000000 0.000000 0.000000
# 4 0.000000 0.000000 0.000000 0.073667 0.000000 0.000000
# 5 0.000000 0.000000 0.000000 0.000000 0.045933 0.000000
# 6 0.000000 0.000000 0.000000 0.000000 0.000000 0.046347
#
#
# Mechanical properties :
#
#
# Convention : Reuss Voigt Hill
#
# Bulk Modulus (GPa) = 59.40529 59.86694 59.63611
# Shear Modulus (GPa) = 22.07175 25.30814 23.68994
#
# Velocity S-wave (km/s) = 3.20404 3.43091 3.31941
# Velocity P-wave (km/s) = 6.42790 6.59846 6.51374
#
# Compressibility (1/GPa) = 0.01683352
#
# Stress axis : x y z
#
# Youngs Moduli (GPa) = 81.27289 101.41392 72.78043
#
# Poissons Ratio (x) = 0.24265 0.39806
# Poissons Ratio (y) = 0.19446 0.12181
# Poissons Ratio (z) = 0.44451 0.16973
#
# Static dielectric constant tensor:
#      x y z
#    x 3.698790 0.000000 0.000000 
#    y 0.000000 4.058820 0.000000 
#    z 0.000000 0.000000 3.808750 
# 
# 
# High freq. dielectric constant tensor:
#      x y z
#    x 1.833250 0.000000 0.000000 
#    y 0.000000 1.830350 0.000000 
#    z 0.000000 0.000000 1.817400 
# 
# From -- ./inp_files/6228.got.cif
#   From: 2010.03.12/outbox.cif.g09.slc.cpg/sg38_4_cif.got.tgz:6228.got - 2010.04.14 02:38:36.
