data_PCOD8177790
_publ_section_title
;
Structure prediction by ZEFSAII (Michael W. Deem and Ramdas Pophale) SiO2 
 PCOD8177790
Probable space group: A M M 2
;
_chemical_formula_sum "Si O2"
_cell_formula_units_Z 64
_cell_length_a 8.932891
_cell_length_b 23.954081
_cell_length_c 15.526041
_cell_angle_alpha 90.000000
_cell_angle_beta 90.000000
_cell_angle_gamma 90.000000
_cell_volume 3322.249748
_symmetry_space_group_name_H-M "A M M 2"
_symmetry_group_IT_number 38
_symmetry_cell_setting 'orthorhombic'
loop_
_space_group_symop_operation_xyz
x,y,z
-x,-y,z
-x,y,z
x,-y,z
x,1/2+y,1/2+z
-x,1/2-y,1/2+z
-x,1/2+y,1/2+z
x,1/2-y,1/2+z
loop_
_atom_site_type_symbol
_atom_site_label
_atom_site_fract_x
_atom_site_fract_y
_atom_site_fract_z
Si Si1 0.327403 0.247537 0.875000
Si Si2 0.176761 0.869504 0.133054
Si Si3 0.326473 0.130041 0.955242
Si Si4 0.321847 0.936990 0.788643
Si Si5 0.324723 0.564738 0.783769
Si Si6 0.678031 0.638367 0.132400
Si Si7 0.675513 0.633625 0.943275
Si Si8 0.176297 0.751844 0.694659
O O1 0.500000 0.249501 0.843470
O O2 0.299546 0.195009 0.936223
O O3 0.281268 0.301980 0.928520
O O4 0.220529 0.242845 0.793725
O O5 0.242297 0.913783 0.199461
O O6 0.232124 0.807467 0.157713
O O7 0.000000 0.873640 0.135384
O O8 0.233690 0.886827 0.038945
O O9 0.500000 0.117104 0.972434
O O10 0.266074 0.093211 0.875369
O O11 0.500000 0.936963 0.785617
O O12 0.259637 0.903257 0.705812
O O13 0.258665 0.000000 0.785936
O O14 0.500000 0.577624 0.773212
O O15 0.291689 0.500000 0.795393
O O16 0.254668 0.595254 0.868112
O O17 0.500000 0.643582 0.138275
O O18 0.743668 0.699989 0.141247
O O19 0.730346 0.615436 0.038641
O O20 0.500000 0.625050 0.938859
O O21 0.000000 0.758693 0.685229
#
# Coordination Sequence:
#
# PCOD8177790 Si02
#       8
#     8   8   8   8   8   8   8   8
#     4  10  18  33  57  83 110 145 185 226 280 338
#     4  11  24  39  56  82 114 151 189 231 285 338
#     4  10  20  35  57  85 113 146 188 232 280 334
#     4   9  18  33  55  84 114 143 181 228 275 324
#     4  10  21  38  60  85 113 147 189 237 281 326
#     4  10  19  35  59  85 114 148 183 224 277 336
#     4   9  18  32  56  86 112 139 180 230 276 329
#     4  11  22  35  54  82 114 148 185 229 280 333
#
# _framework density 19.264054000000002
#
# number of rings (size 3 to 8) (size 9 to 14) (size 15 to 20)
#    0.000    2.000    2.500    1.500    0.000    4.250 
#    0.000    5.000    0.000    1.125    0.000    0.000 
#    0.000    0.000    0.000    0.000    0.000    0.000 
#
# Total GULP energy -396833.114035 kJ/mol
# GULP energy per Si atom -12401.034814 kJ/mol
# Density = 1.922021 g / cm^3
# Si number density = 19.264054 Si / 1000 Ang^3
#
#
#
# Elastic Constant Matrix: (Units=GPa)
#
#
# Indices 1 2 3 4 5 6 
#
# 1 32.3056 25.7122 29.6712 0.0000 0.0000 0.0000
# 2 25.7122 102.7030 59.2120 0.0000 0.0000 0.0000
# 3 29.6712 59.2120 164.1172 0.0000 0.0000 0.0000
# 4 0.0000 0.0000 0.0000 17.4565 0.0000 0.0000
# 5 0.0000 0.0000 0.0000 0.0000 5.4919 0.0000
# 6 0.0000 0.0000 0.0000 0.0000 0.0000 15.4868
#
#
#
# Elastic Compliance Matrix: (Units=1/GPa)
#
#
# Indices 1 2 3 4 5 6 
#
# 1 0.041369 -0.007633 -0.004726 0.000000 0.000000 0.000000
# 2 -0.007633 0.013702 -0.003564 0.000000 0.000000 0.000000
# 3 -0.004726 -0.003564 0.008233 0.000000 0.000000 0.000000
# 4 0.000000 0.000000 0.000000 0.057285 0.000000 0.000000
# 5 0.000000 0.000000 0.000000 0.000000 0.182086 0.000000
# 6 0.000000 0.000000 0.000000 0.000000 0.000000 0.064571
#
#
# Mechanical properties :
#
#
# Convention : Reuss Voigt Hill
#
# Bulk Modulus (GPa) = 31.78512 58.70186 45.24349
# Shear Modulus (GPa) = 12.20768 19.98906 16.09837
#
# Velocity S-wave (km/s) = 2.52008 3.22473 2.89393
# Velocity P-wave (km/s) = 5.00032 6.66360 5.89096
#
# Compressibility (1/GPa) = 0.03146126
#
# Stress axis : x y z
#
# Youngs Moduli (GPa) = 24.17246 72.98037 121.45775
#
# Poissons Ratio (x) = 0.55703 0.57395
# Poissons Ratio (y) = 0.18450 0.43284
# Poissons Ratio (z) = 0.11423 0.26008
#
# Static dielectric constant tensor:
#      x y z
#    x 3.145400 0.000000 0.000000 
#    y 0.000000 3.695080 0.000000 
#    z 0.000000 0.000000 3.777970 
# 
# 
# High freq. dielectric constant tensor:
#      x y z
#    x 1.710610 0.000000 0.000000 
#    y 0.000000 1.750890 0.000000 
#    z 0.000000 0.000000 1.765100 
# 
# From -- ./inp_files/12757.got.cif
#   From: 2010.03.12/outbox.cif.g09.slc.cpg/sg38_7_cif.got.tgz:12757.got - 2010.04.14 02:38:36.
