data_PCOD8177446
_publ_section_title
;
Structure prediction by ZEFSAII (Michael W. Deem and Ramdas Pophale) SiO2 
 PCOD8177446
Probable space group: A M M 2
;
_chemical_formula_sum "Si O2"
_cell_formula_units_Z 40
_cell_length_a 8.500893
_cell_length_b 26.125014
_cell_length_c 8.998995
_cell_angle_alpha 90.000000
_cell_angle_beta 90.000000
_cell_angle_gamma 90.000000
_cell_volume 1998.550341
_symmetry_space_group_name_H-M "A M M 2"
_symmetry_group_IT_number 38
_symmetry_cell_setting 'orthorhombic'
loop_
_space_group_symop_operation_xyz
x,y,z
-x,-y,z
-x,y,z
x,-y,z
x,1/2+y,1/2+z
-x,1/2-y,1/2+z
-x,1/2+y,1/2+z
x,1/2-y,1/2+z
loop_
_atom_site_type_symbol
_atom_site_label
_atom_site_fract_x
_atom_site_fract_y
_atom_site_fract_z
Si Si1 0.818714 0.000000 0.778160
Si Si2 0.314688 0.610416 0.599857
Si Si3 0.819210 0.796424 0.273815
Si Si4 0.682445 0.000000 0.096078
Si Si5 0.317155 0.602826 0.253402
Si Si6 0.682801 0.205156 0.592162
O O1 0.776147 0.947346 0.692007
O O2 0.000000 0.000000 0.823827
O O3 0.706892 0.000000 0.920442
O O4 0.500000 0.618746 0.629938
O O5 0.213477 0.651614 0.685764
O O6 0.253884 0.554239 0.659674
O O7 0.278200 0.615126 0.424927
O O8 0.708293 0.793409 0.416528
O O9 0.785039 0.749110 0.166955
O O10 0.000000 0.795293 0.323669
O O11 0.500000 0.000000 0.126064
O O12 0.500000 0.592213 0.229406
O O13 0.260278 0.650731 0.155837
O O14 0.500000 0.214926 0.627593
#
# Coordination Sequence:
#
# PCOD8177446 Si02
#       6
#     4   8   8   4   8   8
#     4  10  18  28  51  84 117 148 178 220 278 334
#     4   9  17  34  59  85 112 147 191 233 272 325
#     4  12  25  39  57  85 118 147 179 232 292 338
#     4   8  16  32  55  80 109 146 190 232 266 314
#     4   9  19  36  59  83 109 145 191 234 269 317
#     4  11  23  41  63  83 107 148 195 233 273 334
#
# _framework density 20.014505
#
# number of rings (size 3 to 8) (size 9 to 14) (size 15 to 20)
#    0.000    2.000    0.000    5.700    0.000    6.400 
#    0.000    1.000    0.000    2.400    0.000    0.000 
#    0.000    0.000    0.000    0.000    0.000    0.000 
#
# Total GULP energy -247939.645291 kJ/mol
# GULP energy per Si atom -12396.982265 kJ/mol
# Density = 1.996895 g / cm^3
# Si number density = 20.014505 Si / 1000 Ang^3
#
#
#
# Elastic Constant Matrix: (Units=GPa)
#
#
# Indices 1 2 3 4 5 6 
#
# 1 39.2585 34.2033 13.5503 0.0000 0.0000 0.0000
# 2 34.2033 179.2908 49.4098 0.0000 0.0000 0.0000
# 3 13.5503 49.4098 68.8211 0.0000 0.0000 0.0000
# 4 0.0000 0.0000 0.0000 29.1480 0.0000 0.0000
# 5 0.0000 0.0000 0.0000 0.0000 18.3491 0.0000
# 6 0.0000 0.0000 0.0000 0.0000 0.0000 25.1876
#
#
#
# Elastic Compliance Matrix: (Units=1/GPa)
#
#
# Indices 1 2 3 4 5 6 
#
# 1 0.030840 -0.005248 -0.002304 0.000000 0.000000 0.000000
# 2 -0.005248 0.007846 -0.004600 0.000000 0.000000 0.000000
# 3 -0.002304 -0.004600 0.018287 0.000000 0.000000 0.000000
# 4 0.000000 0.000000 0.000000 0.034308 0.000000 0.000000
# 5 0.000000 0.000000 0.000000 0.000000 0.054499 0.000000
# 6 0.000000 0.000000 0.000000 0.000000 0.000000 0.039702
#
#
# Mechanical properties :
#
#
# Convention : Reuss Voigt Hill
#
# Bulk Modulus (GPa) = 30.61082 53.52192 42.06637
# Shear Modulus (GPa) = 22.65767 27.21739 24.93753
#
# Velocity S-wave (km/s) = 3.36826 3.69166 3.53366
# Velocity P-wave (km/s) = 5.51856 6.70602 6.14106
#
# Compressibility (1/GPa) = 0.03266819
#
# Stress axis : x y z
#
# Youngs Moduli (GPa) = 32.42540 127.44636 54.68488
#
# Poissons Ratio (x) = 0.66889 0.12600
# Poissons Ratio (y) = 0.17018 0.25155
# Poissons Ratio (z) = 0.07471 0.58625
#
# Static dielectric constant tensor:
#      x y z
#    x 3.399990 0.000000 0.000000 
#    y 0.000000 4.268560 0.000000 
#    z 0.000000 0.000000 3.306020 
# 
# 
# High freq. dielectric constant tensor:
#      x y z
#    x 1.769360 0.000000 0.000000 
#    y 0.000000 1.811040 0.000000 
#    z 0.000000 0.000000 1.745930 
# 
# From -- ./inp_files/3482.got.cif
#   From: 2010.03.12/outbox.cif.g09.slc.cpg/sg38_2_cif.got.tgz:3482.got - 2010.04.14 02:38:36.
