data_PCOD8177521
_publ_section_title
;
Structure prediction by ZEFSAII (Michael W. Deem and Ramdas Pophale) SiO2 
 PCOD8177521
Probable space group: A M M 2
;
_chemical_formula_sum "Si O2"
_cell_formula_units_Z 56
_cell_length_a 21.753326
_cell_length_b 8.617448
_cell_length_c 15.044798
_cell_angle_alpha 90.000000
_cell_angle_beta 90.000000
_cell_angle_gamma 90.000000
_cell_volume 2820.270085
_symmetry_space_group_name_H-M "A M M 2"
_symmetry_group_IT_number 38
_symmetry_cell_setting 'orthorhombic'
loop_
_space_group_symop_operation_xyz
x,y,z
-x,-y,z
-x,y,z
x,-y,z
x,1/2+y,1/2+z
-x,1/2-y,1/2+z
-x,1/2+y,1/2+z
x,1/2-y,1/2+z
loop_
_atom_site_type_symbol
_atom_site_label
_atom_site_fract_x
_atom_site_fract_y
_atom_site_fract_z
Si Si1 0.367662 0.316366 0.090190
Si Si2 0.715849 0.317288 0.443435
Si Si3 0.929798 0.321021 0.100902
Si Si4 0.928815 0.179454 0.286152
Si Si5 0.144834 0.818482 0.942142
Si Si6 0.500000 0.681060 0.776434
Si Si7 0.623247 0.316824 0.294401
Si Si8 0.500000 0.819559 0.587146
O O1 0.364726 0.500000 0.080539
O O2 0.359845 0.268467 0.193448
O O3 0.434380 0.252155 0.052390
O O4 0.312801 0.242639 0.035147
O O5 0.714644 0.500000 0.446468
O O6 0.785387 0.257502 0.435317
O O7 0.678144 0.257857 0.357780
O O8 0.920407 0.500000 0.126333
O O9 0.910684 0.217560 0.185063
O O10 0.000000 0.287317 0.072868
O O11 0.887252 0.278414 0.019025
O O12 0.888095 0.286444 0.349132
O O13 0.000000 0.220109 0.302982
O O14 0.915171 0.000000 0.305867
O O15 0.141127 0.000000 0.964291
O O16 0.500000 0.500000 0.751423
O O17 0.562133 0.726294 0.829218
O O18 0.500000 0.794239 0.692251
O O19 0.612289 0.500000 0.302768
O O20 0.500000 0.000000 0.566585
#
# Coordination Sequence:
#
# PCOD8177521 Si02
#       8
#     8   8   8   8   8   4   8   4
#     4   9  18  34  57  80 105 139 179 224 273 325
#     4  10  23  39  54  77 109 146 188 225 264 320
#     4  10  21  38  61  88 115 146 186 230 278 332
#     4  10  21  38  61  89 117 145 182 230 282 333
#     4  11  23  38  56  82 117 154 191 231 274 326
#     4  10  18  29  52  85 108 128 172 229 275 317
#     4   9  19  38  57  74 105 146 179 215 272 333
#     4   8  16  33  54  77 106 140 174 213 273 337
#
# _framework density 19.856255000000001
#
# number of rings (size 3 to 8) (size 9 to 14) (size 15 to 20)
#    0.000    2.286    0.000    3.214    0.000    9.143 
#    0.000    2.857    0.000    0.000    0.000    0.000 
#    0.000    0.000    0.000    0.000    0.000    0.000 
#
# Total GULP energy -347135.104114 kJ/mol
# GULP energy per Si atom -12397.682290 kJ/mol
# Density = 1.981106 g / cm^3
# Si number density = 19.856255 Si / 1000 Ang^3
#
#
#
# Elastic Constant Matrix: (Units=GPa)
#
#
# Indices 1 2 3 4 5 6 
#
# 1 146.2862 30.3305 72.3016 0.0000 0.0000 0.0000
# 2 30.3305 21.9721 15.9934 0.0000 0.0000 0.0000
# 3 72.3016 15.9934 98.2332 0.0000 0.0000 0.0000
# 4 0.0000 0.0000 0.0000 30.8356 0.0000 0.0000
# 5 0.0000 0.0000 0.0000 0.0000 546.6489 0.0000
# 6 0.0000 0.0000 0.0000 0.0000 0.0000 25.4879
#
#
#
# Elastic Compliance Matrix: (Units=1/GPa)
#
#
# Indices 1 2 3 4 5 6 
#
# 1 0.013283 -0.012728 -0.007704 0.000000 0.000000 0.000000
# 2 -0.012728 0.063827 -0.001024 0.000000 0.000000 0.000000
# 3 -0.007704 -0.001024 0.016017 0.000000 0.000000 0.000000
# 4 0.000000 0.000000 0.000000 0.032430 0.000000 0.000000
# 5 0.000000 0.000000 0.000000 0.000000 0.001829 0.000000
# 6 0.000000 0.000000 0.000000 0.000000 0.000000 0.039234
#
#
# Mechanical properties :
#
#
# Convention : Reuss Voigt Hill
#
# Bulk Modulus (GPa) = 19.91426 55.97139 37.94283
# Shear Modulus (GPa) = 22.09754 130.45221 76.27487
#
# Velocity S-wave (km/s) = 3.33960 8.11424 6.20459
# Velocity P-wave (km/s) = 4.99215 10.77207 8.39520
#
# Compressibility (1/GPa) = 0.05021526
#
# Stress axis : x y z
#
# Youngs Moduli (GPa) = 75.28699 15.66735 62.43425
#
# Poissons Ratio (x) = 0.19941 0.48099
# Poissons Ratio (y) = 0.95823 0.06393
# Poissons Ratio (z) = 0.58001 0.01604
#
# Static dielectric constant tensor:
#      x y z
#    x 3.451570 0.000000 0.000000 
#    y 0.000000 3.436120 0.000000 
#    z 0.000000 0.000000 3.545480 
# 
# 
# High freq. dielectric constant tensor:
#      x y z
#    x 1.779590 0.000000 0.000000 
#    y 0.000000 1.765480 0.000000 
#    z 0.000000 0.000000 1.769100 
# 
# From -- ./inp_files/15570.got.cif
#   From: 2010.03.12/outbox.cif.g09.slc.cpg/sg38_8_cif.got.tgz:15570.got - 2010.04.14 02:38:36.
