data_PCOD8177252
_publ_section_title
;
Structure prediction by ZEFSAII (Michael W. Deem and Ramdas Pophale) SiO2 
 PCOD8177252
Probable space group: A M M 2
;
_chemical_formula_sum "Si O2"
_cell_formula_units_Z 64
_cell_length_a 9.064406
_cell_length_b 14.649744
_cell_length_c 28.162323
_cell_angle_alpha 90.000000
_cell_angle_beta 90.000000
_cell_angle_gamma 90.000000
_cell_volume 3739.709438
_symmetry_space_group_name_H-M "A M M 2"
_symmetry_group_IT_number 38
_symmetry_cell_setting 'orthorhombic'
loop_
_space_group_symop_operation_xyz
x,y,z
-x,-y,z
-x,y,z
x,-y,z
x,1/2+y,1/2+z
-x,1/2-y,1/2+z
-x,1/2+y,1/2+z
x,1/2-y,1/2+z
loop_
_atom_site_type_symbol
_atom_site_label
_atom_site_fract_x
_atom_site_fract_y
_atom_site_fract_z
Si Si1 0.324901 0.224491 0.200750
Si Si2 0.829974 0.894210 0.278757
Si Si3 0.824961 0.282347 0.428852
Si Si4 0.326810 0.604391 0.508928
Si Si5 0.174985 0.100488 0.841736
Si Si6 0.324971 0.600957 0.615681
Si Si7 0.824959 0.099188 0.385898
Si Si8 0.173372 0.104777 0.735187
O O1 0.500000 0.229745 0.201506
O O2 0.271063 0.167470 0.245744
O O3 0.265004 0.174959 0.153081
O O4 0.260076 0.326989 0.200434
O O5 0.772836 0.877946 0.332449
O O6 0.000000 0.863130 0.273217
O O7 0.811796 0.000000 0.264625
O O8 0.755947 0.324555 0.475633
O O9 0.762730 0.332347 0.381808
O O10 0.774292 0.176745 0.423170
O O11 0.000000 0.291948 0.432494
O O12 0.500000 0.618877 0.502825
O O13 0.283844 0.500000 0.496058
O O14 0.274961 0.627364 0.562463
O O15 0.222546 0.130793 0.788913
O O16 0.000000 0.097746 0.843449
O O17 0.238749 0.000000 0.852699
O O18 0.500000 0.597093 0.617340
O O19 0.263179 0.500000 0.628713
O O20 0.000000 0.094709 0.383934
O O21 0.762311 0.000000 0.402163
O O22 0.000000 0.118965 0.728140
O O23 0.216673 0.000000 0.723629
#
# Coordination Sequence:
#
# PCOD8177252 Si02
#       8
#     8   8   8   8   8   8   8   8
#     4  11  20  29  47  72  95 120 152 192 234 275
#     4   9  17  30  48  69  94 125 159 190 221 267
#     4  10  17  26  46  71  91 114 148 190 228 261
#     4   9  18  33  50  66  88 118 148 180 223 276
#     4   8  14  25  42  64  89 118 150 180 215 265
#     4   8  16  32  50  66  88 120 151 176 216 280
#     4   8  15  28  45  65  91 125 160 187 215 260
#     4   9  18  33  50  66  90 127 164 192 220 262
#
# _framework density 17.113629
#
# number of rings (size 3 to 8) (size 9 to 14) (size 15 to 20)
#    0.000    3.000    0.000    4.125    0.000    3.750 
#    0.000    3.750    0.000    4.125    0.000    3.500 
#    0.000    0.000    0.000    0.000    0.000    0.000 
#
# Total GULP energy -396609.794582 kJ/mol
# GULP energy per Si atom -12394.056081 kJ/mol
# Density = 1.707468 g / cm^3
# Si number density = 17.113629 Si / 1000 Ang^3
#
#
#
# Elastic Constant Matrix: (Units=GPa)
#
#
# Indices 1 2 3 4 5 6 
#
# 1 33.4598 38.5130 28.7708 0.0000 0.0000 0.0000
# 2 38.5130 141.5263 90.5117 0.0000 0.0000 0.0000
# 3 28.7708 90.5117 108.0900 0.0000 0.0000 0.0000
# 4 0.0000 0.0000 0.0000 31.2407 0.0000 0.0000
# 5 0.0000 0.0000 0.0000 0.0000 20.1013 0.0000
# 6 0.0000 0.0000 0.0000 0.0000 0.0000 22.5317
#
#
#
# Elastic Compliance Matrix: (Units=1/GPa)
#
#
# Indices 1 2 3 4 5 6 
#
# 1 0.044173 -0.009691 -0.003643 0.000000 0.000000 0.000000
# 2 -0.009691 0.017339 -0.011940 0.000000 0.000000 0.000000
# 3 -0.003643 -0.011940 0.020219 0.000000 0.000000 0.000000
# 4 0.000000 0.000000 0.000000 0.032010 0.000000 0.000000
# 5 0.000000 0.000000 0.000000 0.000000 0.049748 0.000000
# 6 0.000000 0.000000 0.000000 0.000000 0.000000 0.044382
#
#
# Mechanical properties :
#
#
# Convention : Reuss Voigt Hill
#
# Bulk Modulus (GPa) = 32.06721 66.51857 49.29289
# Shear Modulus (GPa) = 18.60031 23.12678 20.86354
#
# Velocity S-wave (km/s) = 3.30035 3.68008 3.49538
# Velocity P-wave (km/s) = 5.77075 7.55053 6.71982
#
# Compressibility (1/GPa) = 0.03118451
#
# Stress axis : x y z
#
# Youngs Moduli (GPa) = 22.63802 57.67398 49.45819
#
# Poissons Ratio (x) = 0.55892 0.18017
# Poissons Ratio (y) = 0.21938 0.59051
# Poissons Ratio (z) = 0.08247 0.68860
#
# Static dielectric constant tensor:
#      x y z
#    x 2.811100 0.000000 0.000000 
#    y 0.000000 3.540650 0.000000 
#    z 0.000000 0.000000 3.206660 
# 
# 
# High freq. dielectric constant tensor:
#      x y z
#    x 1.620060 0.000000 0.000000 
#    y 0.000000 1.668900 0.000000 
#    z 0.000000 0.000000 1.643610 
# 
# From -- ./inp_files/24701.got.cif
#   From: 2010.03.12/outbox.cif.g09.slc.cpg/sg38_13_cif.got.tgz:24701.got - 2010.04.14 02:38:36.
