data_PCOD8177931
_publ_section_title
;
Structure prediction by ZEFSAII (Michael W. Deem and Ramdas Pophale) SiO2 
 PCOD8177931
Probable space group: A M M 2
;
_chemical_formula_sum "Si O2"
_cell_formula_units_Z 56
_cell_length_a 8.831232
_cell_length_b 18.399208
_cell_length_c 20.904372
_cell_angle_alpha 90.000000
_cell_angle_beta 90.000000
_cell_angle_gamma 90.000000
_cell_volume 3396.702792
_symmetry_space_group_name_H-M "A M M 2"
_symmetry_group_IT_number 38
_symmetry_cell_setting 'orthorhombic'
loop_
_space_group_symop_operation_xyz
x,y,z
-x,-y,z
-x,y,z
x,-y,z
x,1/2+y,1/2+z
-x,1/2-y,1/2+z
-x,1/2+y,1/2+z
x,1/2-y,1/2+z
loop_
_atom_site_type_symbol
_atom_site_label
_atom_site_fract_x
_atom_site_fract_y
_atom_site_fract_z
Si Si1 0.821671 0.342861 0.688630
Si Si2 0.680765 0.081818 0.308066
Si Si3 0.676190 0.415133 0.569837
Si Si4 0.825998 0.417003 0.307785
Si Si5 0.334473 0.285602 0.878744
Si Si6 0.332218 0.791382 0.742821
Si Si7 0.680577 0.357583 0.432037
O O1 0.750048 0.398021 0.739822
O O2 0.778344 0.370966 0.618829
O O3 0.760966 0.260629 0.695244
O O4 0.000000 0.342729 0.697802
O O5 0.500000 0.090916 0.302074
O O6 0.745305 0.136153 0.364314
O O7 0.727273 0.000000 0.326405
O O8 0.500000 0.397469 0.581546
O O9 0.708935 0.500000 0.577400
O O10 0.728567 0.390158 0.499621
O O11 0.807176 0.500000 0.286001
O O12 0.750804 0.368440 0.252095
O O13 0.749096 0.407662 0.376888
O O14 0.000000 0.393964 0.314424
O O15 0.500000 0.302482 0.907116
O O16 0.345683 0.246987 0.810626
O O17 0.255220 0.226466 0.925707
O O18 0.500000 0.804636 0.714192
O O19 0.500000 0.356857 0.422584
#
# Coordination Sequence:
#
# PCOD8177931 Si02
#       7
#     8   8   8   8   8   8   8
#     4  11  21  31  44  63  89 118 149 188 234 278
#     4   9  16  27  44  65  90 119 148 179 220 273
#     4  10  20  32  45  62  86 120 162 199 227 263
#     4  10  19  29  44  70 101 125 146 181 229 273
#     4   7  12  24  42  63  83 106 141 184 224 258
#     4   9  17  31  49  65  85 116 153 188 222 267
#     4   9  17  30  47  64  86 121 163 197 223 261
#
# _framework density 16.486577
#
# number of rings (size 3 to 8) (size 9 to 14) (size 15 to 20)
#    0.000    2.714    0.000    4.714    0.000    4.571 
#    0.000    0.000    0.000    0.000    0.000    1.000 
#    0.000    3.429    0.000    0.000    0.000    0.000 
#
# Total GULP energy -346959.560914 kJ/mol
# GULP energy per Si atom -12391.412890 kJ/mol
# Density = 1.644905 g / cm^3
# Si number density = 16.486577 Si / 1000 Ang^3
#
#
#
# Elastic Constant Matrix: (Units=GPa)
#
#
# Indices 1 2 3 4 5 6 
#
# 1 66.8013 40.0514 22.4068 0.0000 0.0000 0.0000
# 2 40.0514 121.0846 38.3908 0.0000 0.0000 0.0000
# 3 22.4068 38.3908 47.3651 0.0000 0.0000 0.0000
# 4 0.0000 0.0000 0.0000 27.5337 0.0000 0.0000
# 5 0.0000 0.0000 0.0000 0.0000 13.0729 0.0000
# 6 0.0000 0.0000 0.0000 0.0000 0.0000 21.7116
#
#
#
# Elastic Compliance Matrix: (Units=1/GPa)
#
#
# Indices 1 2 3 4 5 6 
#
# 1 0.019656 -0.004782 -0.005422 0.000000 0.000000 0.000000
# 2 -0.004782 0.012279 -0.007690 0.000000 0.000000 0.000000
# 3 -0.005422 -0.007690 0.029911 0.000000 0.000000 0.000000
# 4 0.000000 0.000000 0.000000 0.036319 0.000000 0.000000
# 5 0.000000 0.000000 0.000000 0.000000 0.076494 0.000000
# 6 0.000000 0.000000 0.000000 0.000000 0.000000 0.046058
#
#
# Mechanical properties :
#
#
# Convention : Reuss Voigt Hill
#
# Bulk Modulus (GPa) = 38.37875 48.54988 43.46431
# Shear Modulus (GPa) = 18.85434 21.42378 20.13906
#
# Velocity S-wave (km/s) = 3.38541 3.60872 3.49885
# Velocity P-wave (km/s) = 6.21375 6.84660 6.53783
#
# Compressibility (1/GPa) = 0.02605609
#
# Stress axis : x y z
#
# Youngs Moduli (GPa) = 50.87537 81.44174 33.43305
#
# Poissons Ratio (x) = 0.38949 0.18128
# Poissons Ratio (y) = 0.24331 0.25710
# Poissons Ratio (z) = 0.27586 0.62628
#
# Static dielectric constant tensor:
#      x y z
#    x 3.036180 0.000000 0.000000 
#    y 0.000000 3.508450 0.000000 
#    z 0.000000 0.000000 2.874360 
# 
# 
# High freq. dielectric constant tensor:
#      x y z
#    x 1.623370 0.000000 0.000000 
#    y 0.000000 1.645230 0.000000 
#    z 0.000000 0.000000 1.591170 
# 
# From -- ./inp_files/19980.got.cif
#   From: 2010.03.12/outbox.cif.g09.slc.cpg/sg38_10_cif.got.tgz:19980.got - 2010.04.14 02:38:36.
