data_PCOD8177510
_publ_section_title
;
Structure prediction by ZEFSAII (Michael W. Deem and Ramdas Pophale) SiO2 
 PCOD8177510
Probable space group: A M M 2
;
_chemical_formula_sum "Si O2"
_cell_formula_units_Z 56
_cell_length_a 15.220192
_cell_length_b 9.213198
_cell_length_c 19.987106
_cell_angle_alpha 90.000000
_cell_angle_beta 90.000000
_cell_angle_gamma 90.000000
_cell_volume 2802.724768
_symmetry_space_group_name_H-M "A M M 2"
_symmetry_group_IT_number 38
_symmetry_cell_setting 'orthorhombic'
loop_
_space_group_symop_operation_xyz
x,y,z
-x,-y,z
-x,y,z
x,-y,z
x,1/2+y,1/2+z
-x,1/2-y,1/2+z
-x,1/2+y,1/2+z
x,1/2-y,1/2+z
loop_
_atom_site_type_symbol
_atom_site_label
_atom_site_fract_x
_atom_site_fract_y
_atom_site_fract_z
Si Si1 0.280412 0.829127 0.016010
Si Si2 0.097051 0.165536 0.707350
Si Si3 0.867725 0.834293 0.339889
Si Si4 0.673966 0.835674 0.387697
Si Si5 0.280246 0.170398 0.648398
Si Si6 0.400713 0.667506 0.751011
Si Si7 0.905809 0.664793 0.466892
O O1 0.315981 0.750911 0.082272
O O2 0.296335 0.000000 0.022541
O O3 0.333220 0.771612 0.951084
O O4 0.177112 0.784975 0.011051
O O5 0.100344 0.265834 0.771533
O O6 0.176398 0.206778 0.657174
O O7 0.000000 0.185664 0.673381
O O8 0.110344 0.000000 0.730882
O O9 0.764236 0.814223 0.347987
O O10 0.916704 0.759604 0.401038
O O11 0.896880 0.000000 0.339061
O O12 0.602003 0.798794 0.330951
O O13 0.664254 0.000000 0.414932
O O14 0.335058 0.228128 0.711376
O O15 0.297100 0.000000 0.640648
O O16 0.500000 0.695690 0.726484
O O17 0.372739 0.500000 0.738780
O O18 0.888127 0.500000 0.444281
O O19 0.000000 0.678291 0.505912
#
# Coordination Sequence:
#
# PCOD8177510 Si02
#       7
#     8   8   8   8   8   8   8
#     4  10  21  36  57  81 111 154 198 238 289 345
#     4  10  21  35  51  75 111 156 200 240 286 339
#     4  10  18  29  49  78 110 144 186 238 290 339
#     4   9  18  35  58  85 115 145 183 233 289 346
#     4  11  23  39  59  84 119 159 198 242 291 343
#     4  10  21  40  67  94 119 149 186 234 293 352
#     4   9  18  32  49  72 106 148 194 242 291 343
#
# _framework density 19.980556
#
# number of rings (size 3 to 8) (size 9 to 14) (size 15 to 20)
#    0.000    2.143    1.429    1.714    0.000    5.429 
#    0.000    0.714    0.000    2.571    0.000    0.000 
#    0.000    0.000    0.000    0.000    0.000    0.000 
#
# Total GULP energy -347097.693114 kJ/mol
# GULP energy per Si atom -12396.346183 kJ/mol
# Density = 1.993508 g / cm^3
# Si number density = 19.980556 Si / 1000 Ang^3
#
#
#
# Elastic Constant Matrix: (Units=GPa)
#
#
# Indices 1 2 3 4 5 6 
#
# 1 64.7272 29.6870 24.5146 0.0000 0.0000 0.0000
# 2 29.6870 97.8114 56.9624 0.0000 0.0000 0.0000
# 3 24.5146 56.9624 101.0367 0.0000 0.0000 0.0000
# 4 0.0000 0.0000 0.0000 31.8497 0.0000 0.0000
# 5 0.0000 0.0000 0.0000 0.0000 6.9773 0.0000
# 6 0.0000 0.0000 0.0000 0.0000 0.0000 18.6314
#
#
#
# Elastic Compliance Matrix: (Units=1/GPa)
#
#
# Indices 1 2 3 4 5 6 
#
# 1 0.018199 -0.004395 -0.001938 0.000000 0.000000 0.000000
# 2 -0.004395 0.016283 -0.008113 0.000000 0.000000 0.000000
# 3 -0.001938 -0.008113 0.014942 0.000000 0.000000 0.000000
# 4 0.000000 0.000000 0.000000 0.031397 0.000000 0.000000
# 5 0.000000 0.000000 0.000000 0.000000 0.143323 0.000000
# 6 0.000000 0.000000 0.000000 0.000000 0.000000 0.053673
#
#
# Mechanical properties :
#
#
# Convention : Reuss Voigt Hill
#
# Bulk Modulus (GPa) = 48.70714 53.98927 51.34821
# Shear Modulus (GPa) = 15.94625 21.65244 18.79935
#
# Velocity S-wave (km/s) = 2.82811 3.29549 3.07071
# Velocity P-wave (km/s) = 5.92406 6.44670 6.19090
#
# Compressibility (1/GPa) = 0.02053087
#
# Stress axis : x y z
#
# Youngs Moduli (GPa) = 54.94744 61.41448 66.92647
#
# Poissons Ratio (x) = 0.26993 0.12969
# Poissons Ratio (y) = 0.24150 0.54301
# Poissons Ratio (z) = 0.10648 0.49829
#
# Static dielectric constant tensor:
#      x y z
#    x 3.711950 0.000000 0.000000 
#    y 0.000000 3.626690 0.000000 
#    z 0.000000 0.000000 3.367760 
# 
# 
# High freq. dielectric constant tensor:
#      x y z
#    x 1.770830 0.000000 0.000000 
#    y 0.000000 1.781490 0.000000 
#    z 0.000000 0.000000 1.761380 
# 
# From -- ./inp_files/21083.got.cif
#   From: 2010.03.12/outbox.cif.g09.slc.cpg/sg38_11_cif.got.tgz:21083.got - 2010.04.14 02:38:36.
