data_PCOD8177722
_publ_section_title
;
Structure prediction by ZEFSAII (Michael W. Deem and Ramdas Pophale) SiO2 
 PCOD8177722
Probable space group: A M M 2
;
_chemical_formula_sum "Si O2"
_cell_formula_units_Z 56
_cell_length_a 16.527495
_cell_length_b 8.946490
_cell_length_c 20.080771
_cell_angle_alpha 90.000000
_cell_angle_beta 90.000000
_cell_angle_gamma 90.000000
_cell_volume 2969.204423
_symmetry_space_group_name_H-M "A M M 2"
_symmetry_group_IT_number 38
_symmetry_cell_setting 'orthorhombic'
loop_
_space_group_symop_operation_xyz
x,y,z
-x,-y,z
-x,y,z
x,-y,z
x,1/2+y,1/2+z
-x,1/2-y,1/2+z
-x,1/2+y,1/2+z
x,1/2-y,1/2+z
loop_
_atom_site_type_symbol
_atom_site_label
_atom_site_fract_x
_atom_site_fract_y
_atom_site_fract_z
Si Si1 0.000000 0.170105 0.530611
Si Si2 0.000000 0.167669 0.688989
Si Si3 0.840291 0.674237 0.684588
Si Si4 0.321353 0.324186 0.993969
Si Si5 0.162740 0.176819 0.031567
Si Si6 0.592852 0.830304 0.630039
Si Si7 0.406589 0.674901 0.373374
Si Si8 0.327729 0.324948 0.749203
O O1 0.079086 0.255393 0.503641
O O2 0.000000 0.176770 0.609828
O O3 0.000000 0.000000 0.504575
O O4 0.918838 0.246205 0.715950
O O5 0.000000 0.000000 0.715956
O O6 0.858142 0.500000 0.686355
O O7 0.824221 0.724723 0.608537
O O8 0.763498 0.718884 0.729029
O O9 0.312730 0.500000 0.982358
O O10 0.383379 0.258321 0.940823
O O11 0.233998 0.246964 0.987131
O O12 0.355222 0.284308 0.066412
O O13 0.161720 0.000000 0.022395
O O14 0.500000 0.812850 0.609842
O O15 0.612206 0.718663 0.689836
O O16 0.612201 0.000000 0.652654
O O17 0.500000 0.709601 0.356410
O O18 0.391585 0.500000 0.382731
O O19 0.349948 0.734050 0.314683
O O20 0.336654 0.500000 0.763419
#
# Coordination Sequence:
#
# PCOD8177722 Si02
#       8
#     4   4   8   8   8   8   8   8
#     4   9  17  29  47  78 115 150 189 230 277 331
#     4   9  17  27  47  78 111 146 185 226 271 323
#     4   9  18  32  51  78 114 149 183 224 276 331
#     4  11  22  37  59  84 113 148 189 237 285 339
#     4  10  18  32  53  81 116 151 188 230 282 337
#     4  10  21  36  55  81 112 144 180 229 287 338
#     4  11  25  43  60  80 110 150 193 237 288 345
#     4  11  22  37  58  84 112 147 189 233 280 337
#
# _framework density 18.860271999999998
#
# number of rings (size 3 to 8) (size 9 to 14) (size 15 to 20)
#    0.000    1.857    1.429    3.000    0.000    7.714 
#    0.000    0.000    0.000    0.857    0.000    3.000 
#    0.000    0.000    0.000    0.000    0.000    0.000 
#
# Total GULP energy -347308.714605 kJ/mol
# GULP energy per Si atom -12403.882664 kJ/mol
# Density = 1.881735 g / cm^3
# Si number density = 18.860272 Si / 1000 Ang^3
#
#
#
# Elastic Constant Matrix: (Units=GPa)
#
#
# Indices 1 2 3 4 5 6 
#
# 1 113.8595 49.5900 21.6303 0.0000 0.0000 0.0000
# 2 49.5900 91.2038 31.0055 0.0000 0.0000 0.0000
# 3 21.6303 31.0055 48.6525 0.0000 0.0000 0.0000
# 4 0.0000 0.0000 0.0000 29.0244 0.0000 0.0000
# 5 0.0000 0.0000 0.0000 0.0000 25.5741 0.0000
# 6 0.0000 0.0000 0.0000 0.0000 0.0000 37.1848
#
#
#
# Elastic Compliance Matrix: (Units=1/GPa)
#
#
# Indices 1 2 3 4 5 6 
#
# 1 0.011588 -0.005807 -0.001451 0.000000 0.000000 0.000000
# 2 -0.005807 0.016907 -0.008193 0.000000 0.000000 0.000000
# 3 -0.001451 -0.008193 0.026420 0.000000 0.000000 0.000000
# 4 0.000000 0.000000 0.000000 0.034454 0.000000 0.000000
# 5 0.000000 0.000000 0.000000 0.000000 0.039102 0.000000
# 6 0.000000 0.000000 0.000000 0.000000 0.000000 0.026893
#
#
# Mechanical properties :
#
#
# Convention : Reuss Voigt Hill
#
# Bulk Modulus (GPa) = 41.64402 50.90750 46.27576
# Shear Modulus (GPa) = 25.73736 28.45599 27.09667
#
# Velocity S-wave (km/s) = 3.69810 3.88851 3.79450
# Velocity P-wave (km/s) = 6.35317 6.87104 6.61718
#
# Compressibility (1/GPa) = 0.02401305
#
# Stress axis : x y z
#
# Youngs Moduli (GPa) = 86.29861 59.14607 37.84983
#
# Poissons Ratio (x) = 0.34348 0.05491
# Poissons Ratio (y) = 0.50116 0.31010
# Poissons Ratio (z) = 0.12520 0.48458
#
# Static dielectric constant tensor:
#      x y z
#    x 3.633780 0.000000 0.000000 
#    y 0.000000 3.525640 0.000000 
#    z 0.000000 0.000000 3.152660 
# 
# 
# High freq. dielectric constant tensor:
#      x y z
#    x 1.748950 0.000000 0.000000 
#    y 0.000000 1.743250 0.000000 
#    z 0.000000 0.000000 1.694440 
# 
# From -- ./inp_files/21106.got.cif
#   From: 2010.03.12/outbox.cif.g09.slc.cpg/sg38_11_cif.got.tgz:21106.got - 2010.04.14 02:38:36.
