data_PCOD8177460
_publ_section_title
;
Structure prediction by ZEFSAII (Michael W. Deem and Ramdas Pophale) SiO2 
 PCOD8177460
Probable space group: A M M 2
;
_chemical_formula_sum "Si O2"
_cell_formula_units_Z 48
_cell_length_a 8.441241
_cell_length_b 17.912938
_cell_length_c 18.164583
_cell_angle_alpha 90.000000
_cell_angle_beta 90.000000
_cell_angle_gamma 90.000000
_cell_volume 2746.619852
_symmetry_space_group_name_H-M "A M M 2"
_symmetry_group_IT_number 38
_symmetry_cell_setting 'orthorhombic'
loop_
_space_group_symop_operation_xyz
x,y,z
-x,-y,z
-x,y,z
x,-y,z
x,1/2+y,1/2+z
-x,1/2-y,1/2+z
-x,1/2+y,1/2+z
x,1/2-y,1/2+z
loop_
_atom_site_type_symbol
_atom_site_label
_atom_site_fract_x
_atom_site_fract_y
_atom_site_fract_z
Si Si1 0.187593 0.584420 0.069930
Si Si2 0.818000 0.317805 0.571733
Si Si3 0.684117 0.196074 0.468609
Si Si4 0.186196 0.709360 0.351501
Si Si5 0.315849 0.915095 0.956644
Si Si6 0.187992 0.704478 0.186673
O O1 0.242807 0.500000 0.084638
O O2 0.251585 0.634900 0.137917
O O3 0.000000 0.589689 0.060878
O O4 0.269409 0.612332 0.993434
O O5 0.798263 0.249682 0.515316
O O6 0.717177 0.387725 0.540838
O O7 0.760438 0.284654 0.650709
O O8 0.000000 0.342839 0.574690
O O9 0.500000 0.212522 0.483469
O O10 0.726928 0.216777 0.384256
O O11 0.221147 0.634784 0.398150
O O12 0.255179 0.698465 0.269140
O O13 0.000000 0.723978 0.349345
O O14 0.500000 0.907148 0.939507
O O15 0.257780 0.000000 0.948683
O O16 0.000000 0.699736 0.186657
#
# Coordination Sequence:
#
# PCOD8177460 Si02
#       6
#     8   8   8   8   8   8
#     4   9  17  31  50  70  93 121 153 189 229 271
#     4   9  16  30  50  68  87 115 156 195 226 266
#     4  10  18  29  45  66  93 122 155 190 224 266
#     4  10  18  30  49  70  93 121 155 189 224 270
#     4  10  20  32  45  66  97 126 152 186 228 271
#     4   8  16  29  47  72  95 116 147 191 233 268
#
# _framework density 17.476026000000001
#
# number of rings (size 3 to 8) (size 9 to 14) (size 15 to 20)
#    0.000    2.667    0.000    6.000    0.000    2.333 
#    0.000   10.000    0.000    1.000    0.000    2.333 
#    0.000    0.000    0.000    0.000    0.000    0.000 
#
# Total GULP energy -297389.338836 kJ/mol
# GULP energy per Si atom -12391.222452 kJ/mol
# Density = 1.743625 g / cm^3
# Si number density = 17.476026 Si / 1000 Ang^3
#
#
#
# Elastic Constant Matrix: (Units=GPa)
#
#
# Indices 1 2 3 4 5 6 
#
# 1 38.6537 18.3016 20.9603 0.0000 0.0000 0.0000
# 2 18.3016 71.3692 78.4622 0.0000 0.0000 0.0000
# 3 20.9603 78.4622 117.3593 0.0000 0.0000 0.0000
# 4 0.0000 0.0000 0.0000 20.9633 0.0000 0.0000
# 5 0.0000 0.0000 0.0000 0.0000 7.0507 0.0000
# 6 0.0000 0.0000 0.0000 0.0000 0.0000 20.8935
#
#
#
# Elastic Compliance Matrix: (Units=1/GPa)
#
#
# Indices 1 2 3 4 5 6 
#
# 1 0.029466 -0.006681 -0.000796 0.000000 0.000000 0.000000
# 2 -0.006681 0.054391 -0.035170 0.000000 0.000000 0.000000
# 3 -0.000796 -0.035170 0.032177 0.000000 0.000000 0.000000
# 4 0.000000 0.000000 0.000000 0.047702 0.000000 0.000000
# 5 0.000000 0.000000 0.000000 0.000000 0.141830 0.000000
# 6 0.000000 0.000000 0.000000 0.000000 0.000000 0.047862
#
#
# Mechanical properties :
#
#
# Convention : Reuss Voigt Hill
#
# Bulk Modulus (GPa) = 32.53277 51.42560 41.97918
# Shear Modulus (GPa) = 11.13663 17.09202 14.11433
#
# Velocity S-wave (km/s) = 2.52712 3.13073 2.84498
# Velocity P-wave (km/s) = 5.21260 6.52372 5.90466
#
# Compressibility (1/GPa) = 0.03073824
#
# Stress axis : x y z
#
# Youngs Moduli (GPa) = 33.93780 18.38547 31.07846
#
# Poissons Ratio (x) = 0.12284 0.02473
# Poissons Ratio (y) = 0.22675 1.09304
# Poissons Ratio (z) = 0.02700 0.64662
#
# Static dielectric constant tensor:
#      x y z
#    x 3.058630 0.000000 0.000000 
#    y 0.000000 3.389510 0.000000 
#    z 0.000000 0.000000 3.630430 
# 
# 
# High freq. dielectric constant tensor:
#      x y z
#    x 1.667530 0.000000 0.000000 
#    y 0.000000 1.656540 0.000000 
#    z 0.000000 0.000000 1.661260 
# 
# From -- ./inp_files/16844.got.cif
#   From: 2010.03.12/outbox.cif.g09.slc.cpg/sg38_9_cif.got.tgz:16844.got - 2010.04.14 02:38:36.
