data_PCOD8177494
_publ_section_title
;
Structure prediction by ZEFSAII (Michael W. Deem and Ramdas Pophale) SiO2 
 PCOD8177494
Probable space group: A M M 2
;
_chemical_formula_sum "Si O2"
_cell_formula_units_Z 64
_cell_length_a 9.190849
_cell_length_b 27.709644
_cell_length_c 14.617253
_cell_angle_alpha 90.000000
_cell_angle_beta 90.000000
_cell_angle_gamma 90.000000
_cell_volume 3722.651157
_symmetry_space_group_name_H-M "A M M 2"
_symmetry_group_IT_number 38
_symmetry_cell_setting 'orthorhombic'
loop_
_space_group_symop_operation_xyz
x,y,z
-x,-y,z
-x,y,z
x,-y,z
x,1/2+y,1/2+z
-x,1/2-y,1/2+z
-x,1/2+y,1/2+z
x,1/2-y,1/2+z
loop_
_atom_site_type_symbol
_atom_site_label
_atom_site_fract_x
_atom_site_fract_y
_atom_site_fract_z
Si Si1 0.670326 0.356926 0.154560
Si Si2 0.829572 0.782723 0.532852
Si Si3 0.327131 0.946624 0.539161
Si Si4 0.667370 0.217481 0.351906
Si Si5 0.830058 0.670582 0.532539
Si Si6 0.666307 0.828438 0.853125
Si Si7 0.672670 0.053651 0.334523
Si Si8 0.671137 0.138550 0.206651
O O1 0.500000 0.348898 0.134097
O O2 0.756812 0.311532 0.115248
O O3 0.730829 0.406325 0.109599
O O4 0.699141 0.360087 0.263144
O O5 0.763529 0.800558 0.436822
O O6 0.792617 0.726630 0.547752
O O7 0.000000 0.792717 0.531904
O O8 0.500000 0.946704 0.539648
O O9 0.270005 0.934449 0.436885
O O10 0.270811 0.000000 0.568654
O O11 0.500000 0.208368 0.379074
O O12 0.699289 0.272885 0.327928
O O13 0.709712 0.186666 0.263145
O O14 0.768819 0.653214 0.434638
O O15 0.753977 0.639331 0.610815
O O16 0.000000 0.660170 0.534524
O O17 0.500000 0.834361 0.885230
O O18 0.500000 0.056537 0.336175
O O19 0.732692 0.092566 0.262653
O O20 0.724126 0.000000 0.305060
O O21 0.500000 0.134446 0.187454
#
# Coordination Sequence:
#
# PCOD8177494 Si02
#       8
#     8   8   8   8   8   8   8   8
#     4  10  18  29  49  73  94 120 156 193 229 272
#     4  10  20  31  44  66  96 127 156 188 228 274
#     4   8  14  26  46  73 101 122 142 177 227 278
#     4   9  17  29  45  66  92 122 156 192 229 271
#     4  10  21  34  46  63  91 126 160 194 232 273
#     4   9  18  31  46  65  90 121 158 197 231 267
#     4   8  14  25  43  70 100 123 144 177 225 277
#     4  10  18  29  49  72  92 119 156 194 231 272
#
# _framework density 17.192048
#
# number of rings (size 3 to 8) (size 9 to 14) (size 15 to 20)
#    0.000    2.750    0.000    3.000    0.000    5.500 
#    0.000    2.500    0.000    1.500    0.000    5.250 
#    0.000    0.000    0.000    0.000    0.000    0.000 
#
# Total GULP energy -396773.685488 kJ/mol
# GULP energy per Si atom -12399.177672 kJ/mol
# Density = 1.715292 g / cm^3
# Si number density = 17.192048 Si / 1000 Ang^3
#
#
#
# Elastic Constant Matrix: (Units=GPa)
#
#
# Indices 1 2 3 4 5 6 
#
# 1 48.1784 27.9937 45.5139 0.0000 0.0000 0.0000
# 2 27.9937 83.5358 66.6017 0.0000 0.0000 0.0000
# 3 45.5139 66.6017 131.6598 0.0000 0.0000 0.0000
# 4 0.0000 0.0000 0.0000 28.4719 0.0000 0.0000
# 5 0.0000 0.0000 0.0000 0.0000 11.0036 0.0000
# 6 0.0000 0.0000 0.0000 0.0000 0.0000 10.4005
#
#
#
# Elastic Compliance Matrix: (Units=1/GPa)
#
#
# Indices 1 2 3 4 5 6 
#
# 1 0.031300 -0.003121 -0.009241 0.000000 0.000000 0.000000
# 2 -0.003121 0.020374 -0.009227 0.000000 0.000000 0.000000
# 3 -0.009241 -0.009227 0.015458 0.000000 0.000000 0.000000
# 4 0.000000 0.000000 0.000000 0.035122 0.000000 0.000000
# 5 0.000000 0.000000 0.000000 0.000000 0.090880 0.000000
# 6 0.000000 0.000000 0.000000 0.000000 0.000000 0.096149
#
#
# Mechanical properties :
#
#
# Convention : Reuss Voigt Hill
#
# Bulk Modulus (GPa) = 41.75025 60.39919 51.07472
# Shear Modulus (GPa) = 14.68665 18.19286 16.43975
#
# Velocity S-wave (km/s) = 2.92596 3.25655 3.09567
# Velocity P-wave (km/s) = 5.97933 7.02485 6.52307
#
# Compressibility (1/GPa) = 0.02395195
#
# Stress axis : x y z
#
# Youngs Moduli (GPa) = 31.94896 49.08324 64.69222
#
# Poissons Ratio (x) = 0.15318 0.59785
# Poissons Ratio (y) = 0.09971 0.59694
# Poissons Ratio (z) = 0.29525 0.45291
#
# Static dielectric constant tensor:
#      x y z
#    x 2.921030 0.000000 0.000000 
#    y 0.000000 3.294890 0.000000 
#    z 0.000000 0.000000 3.235480 
# 
# 
# High freq. dielectric constant tensor:
#      x y z
#    x 1.634220 0.000000 0.000000 
#    y 0.000000 1.645550 0.000000 
#    z 0.000000 0.000000 1.663770 
# 
# From -- ./inp_files/8618.got.cif
#   From: 2010.03.12/outbox.cif.g09.slc.cpg/sg38_5_cif.got.tgz:8618.got - 2010.04.14 02:38:36.
