data_PCOD8177319
_publ_section_title
;
Structure prediction by ZEFSAII (Michael W. Deem and Ramdas Pophale) SiO2 
 PCOD8177319
Probable space group: A M M 2
;
_chemical_formula_sum "Si O2"
_cell_formula_units_Z 56
_cell_length_a 21.215513
_cell_length_b 8.769165
_cell_length_c 15.524117
_cell_angle_alpha 90.000000
_cell_angle_beta 90.000000
_cell_angle_gamma 90.000000
_cell_volume 2888.142961
_symmetry_space_group_name_H-M "A M M 2"
_symmetry_group_IT_number 38
_symmetry_cell_setting 'orthorhombic'
loop_
_space_group_symop_operation_xyz
x,y,z
-x,-y,z
-x,y,z
x,-y,z
x,1/2+y,1/2+z
-x,1/2-y,1/2+z
-x,1/2+y,1/2+z
x,1/2-y,1/2+z
loop_
_atom_site_type_symbol
_atom_site_label
_atom_site_fract_x
_atom_site_fract_y
_atom_site_fract_z
Si Si1 0.364999 0.319464 0.090190
Si Si2 0.713504 0.320028 0.438450
Si Si3 0.927087 0.322312 0.101049
Si Si4 0.926013 0.176540 0.279815
Si Si5 0.141700 0.820736 0.939909
Si Si6 0.500000 0.819695 0.843796
Si Si7 0.633380 0.319442 0.280173
Si Si8 0.500000 0.819867 0.529868
O O1 0.361292 0.500000 0.078820
O O2 0.343567 0.266933 0.185799
O O3 0.436743 0.261163 0.076885
O O4 0.317051 0.244465 0.024446
O O5 0.705875 0.500000 0.440480
O O6 0.785846 0.270684 0.433980
O O7 0.678462 0.250350 0.354306
O O8 0.915073 0.500000 0.117099
O O9 0.904012 0.232273 0.185667
O O10 0.000000 0.287565 0.081853
O O11 0.888194 0.268371 0.019218
O O12 0.891030 0.275466 0.351087
O O13 0.000000 0.204574 0.291500
O O14 0.908213 0.000000 0.290845
O O15 0.133413 0.000000 0.955083
O O16 0.561588 0.763841 0.792638
O O17 0.500000 0.000000 0.857245
O O18 0.500000 0.741664 0.934851
O O19 0.635539 0.500000 0.285917
O O20 0.500000 0.000000 0.528372
#
# Coordination Sequence:
#
# PCOD8177319 Si02
#       8
#     8   8   8   8   8   4   8   4
#     4  10  20  35  56  80 108 143 181 228 282 334
#     4  10  22  39  55  78 110 145 189 233 270 324
#     4  10  21  38  61  88 116 148 190 239 288 341
#     4  10  21  38  61  89 119 150 187 233 286 345
#     4  11  23  37  56  83 118 156 194 240 287 335
#     4  10  17  31  59  80 100 142 183 219 273 336
#     4   9  18  34  56  79 103 138 184 224 268 330
#     4  10  19  31  51  82 114 134 169 231 287 330
#
# _framework density 19.389621999999999
#
# number of rings (size 3 to 8) (size 9 to 14) (size 15 to 20)
#    0.000    2.000    1.429    2.143    0.000    7.429 
#    0.000    2.857    0.000    0.857    0.000    0.000 
#    0.000    0.000    0.000    0.000    0.000    0.000 
#
# Total GULP energy -347223.492146 kJ/mol
# GULP energy per Si atom -12400.839005 kJ/mol
# Density = 1.934549 g / cm^3
# Si number density = 19.389622 Si / 1000 Ang^3
#
#
#
# Elastic Constant Matrix: (Units=GPa)
#
#
# Indices 1 2 3 4 5 6 
#
# 1 104.9692 30.4186 68.1134 0.0000 0.0000 0.0000
# 2 30.4186 26.0442 12.6940 0.0000 0.0000 0.0000
# 3 68.1134 12.6940 154.3572 0.0000 0.0000 0.0000
# 4 0.0000 0.0000 0.0000 35.9245 0.0000 0.0000
# 5 0.0000 0.0000 0.0000 0.0000 -0.7351 0.0000
# 6 0.0000 0.0000 0.0000 0.0000 0.0000 20.6022
#
#
#
# Elastic Compliance Matrix: (Units=1/GPa)
#
#
# Indices 1 2 3 4 5 6 
#
# 1 0.019890 -0.019744 -0.007153 0.000000 0.000000 0.000000
# 2 -0.019744 0.059599 0.003811 0.000000 0.000000 0.000000
# 3 -0.007153 0.003811 0.009321 0.000000 0.000000 0.000000
# 4 0.000000 0.000000 0.000000 0.027836 0.000000 0.000000
# 5 0.000000 0.000000 0.000000 0.000000 -1.360337 0.000000
# 6 0.000000 0.000000 0.000000 0.000000 0.000000 0.048539
#
#
# Mechanical properties :
#
#
# Convention : Reuss Voigt Hill
#
# Bulk Modulus (GPa) = 23.45305 56.42474 39.93890
# Shear Modulus (GPa) = -4.40619 22.76795 9.18088
#
# Velocity S-wave (km/s) = -1.50910 3.43043 2.17835
# Velocity P-wave (km/s) = 3.01420 6.69732 5.19324
#
# Compressibility (1/GPa) = 0.04263838
#
# Stress axis : x y z
#
# Youngs Moduli (GPa) = 50.27737 16.77882 107.27908
#
# Poissons Ratio (x) = 0.33128 0.76737
# Poissons Ratio (y) = 0.99268 -0.40886
# Poissons Ratio (z) = 0.35964 -0.06395
#
# Static dielectric constant tensor:
#      x y z
#    x 3.833890 0.000000 0.000000 
#    y 0.000000 3.372250 0.000000 
#    z 0.000000 0.000000 3.721120 
# 
# 
# High freq. dielectric constant tensor:
#      x y z
#    x 1.754440 0.000000 0.000000 
#    y 0.000000 1.737730 0.000000 
#    z 0.000000 0.000000 1.772210 
# 
# From -- ./inp_files/15545.got.cif
#   From: 2010.03.12/outbox.cif.g09.slc.cpg/sg38_8_cif.got.tgz:15545.got - 2010.04.14 02:38:36.
