data_PCOD8177949
_publ_section_title
;
Structure prediction by ZEFSAII (Michael W. Deem and Ramdas Pophale) SiO2 
 PCOD8177949
Probable space group: A M M 2
;
_chemical_formula_sum "Si O2"
_cell_formula_units_Z 64
_cell_length_a 8.778912
_cell_length_b 33.345493
_cell_length_c 11.725184
_cell_angle_alpha 90.000000
_cell_angle_beta 90.000000
_cell_angle_gamma 90.000000
_cell_volume 3432.396931
_symmetry_space_group_name_H-M "A M M 2"
_symmetry_group_IT_number 38
_symmetry_cell_setting 'orthorhombic'
loop_
_space_group_symop_operation_xyz
x,y,z
-x,-y,z
-x,y,z
x,-y,z
x,1/2+y,1/2+z
-x,1/2-y,1/2+z
-x,1/2+y,1/2+z
x,1/2-y,1/2+z
loop_
_atom_site_type_symbol
_atom_site_label
_atom_site_fract_x
_atom_site_fract_y
_atom_site_fract_z
Si Si1 0.320331 0.685522 0.743670
Si Si2 0.321736 0.454504 0.983082
Si Si3 0.676951 0.681519 0.480948
Si Si4 0.673558 0.168720 0.628321
Si Si5 0.819618 0.625912 0.912374
Si Si6 0.820471 0.268582 0.285794
Si Si7 0.169814 0.044901 0.719040
Si Si8 0.668452 0.108939 0.838397
O O1 0.500000 0.684592 0.763840
O O2 0.277426 0.686934 0.611048
O O3 0.246758 0.645989 0.798579
O O4 0.249019 0.724607 0.801239
O O5 0.500000 0.448200 0.964269
O O6 0.272058 0.500000 0.946860
O O7 0.233738 0.420619 0.911713
O O8 0.286342 0.447836 0.116154
O O9 0.500000 0.691968 0.455755
O O10 0.782740 0.709347 0.403809
O O11 0.708644 0.635022 0.449460
O O12 0.500000 0.178238 0.592097
O O13 0.762080 0.151014 0.520832
O O14 0.749396 0.209667 0.674502
O O15 0.680694 0.136712 0.728043
O O16 0.000000 0.627114 0.910437
O O17 0.000000 0.266294 0.268775
O O18 0.212698 0.072781 0.825951
O O19 0.000000 0.055192 0.675139
O O20 0.179204 0.000000 0.765687
O O21 0.500000 0.090503 0.849255
#
# Coordination Sequence:
#
# PCOD8177949 Si02
#       8
#     8   8   8   8   8   8   8   8
#     4  11  24  42  62  81 110 152 197 239 285 344
#     4  10  20  35  56  82 115 155 194 234 286 350
#     4   9  21  41  61  80 105 146 195 234 279 339
#     4  10  20  36  57  81 112 151 192 228 276 343
#     4  12  24  37  57  87 120 151 190 242 299 347
#     4  11  23  38  59  86 117 147 185 239 292 337
#     4  10  19  29  46  78 116 148 180 223 279 339
#     4   9  17  32  55  79 105 139 184 230 272 328
#
# _framework density 18.645862999999999
#
# number of rings (size 3 to 8) (size 9 to 14) (size 15 to 20)
#    0.000    1.750    1.250    4.500    1.750    4.500 
#    0.000    0.000    0.000    0.750    0.000    1.750 
#    0.000    0.000    0.000    0.000    0.000    0.000 
#
# Total GULP energy -396830.242860 kJ/mol
# GULP energy per Si atom -12400.945089 kJ/mol
# Density = 1.860342 g / cm^3
# Si number density = 18.645863 Si / 1000 Ang^3
#
#
#
# Elastic Constant Matrix: (Units=GPa)
#
#
# Indices 1 2 3 4 5 6 
#
# 1 126.9366 59.1576 37.5639 0.0000 0.0000 0.0000
# 2 59.1576 120.4434 35.9886 0.0000 0.0000 0.0000
# 3 37.5639 35.9886 65.0254 0.0000 0.0000 0.0000
# 4 0.0000 0.0000 0.0000 26.1149 0.0000 0.0000
# 5 0.0000 0.0000 0.0000 0.0000 21.9954 0.0000
# 6 0.0000 0.0000 0.0000 0.0000 0.0000 30.9787
#
#
#
# Elastic Compliance Matrix: (Units=1/GPa)
#
#
# Indices 1 2 3 4 5 6 
#
# 1 0.011038 -0.004213 -0.004045 0.000000 0.000000 0.000000
# 2 -0.004213 0.011556 -0.003962 0.000000 0.000000 0.000000
# 3 -0.004045 -0.003962 0.019908 0.000000 0.000000 0.000000
# 4 0.000000 0.000000 0.000000 0.038292 0.000000 0.000000
# 5 0.000000 0.000000 0.000000 0.000000 0.045464 0.000000
# 6 0.000000 0.000000 0.000000 0.000000 0.000000 0.032280
#
#
# Mechanical properties :
#
#
# Convention : Reuss Voigt Hill
#
# Bulk Modulus (GPa) = 55.36315 64.20287 59.78301
# Shear Modulus (GPa) = 26.45515 27.79748 27.12631
#
# Velocity S-wave (km/s) = 3.77081 3.86529 3.81834
# Velocity P-wave (km/s) = 6.97962 7.37754 7.18134
#
# Compressibility (1/GPa) = 0.01806256
#
# Stress axis : x y z
#
# Youngs Moduli (GPa) = 90.59282 86.53702 50.23117
#
# Poissons Ratio (x) = 0.36458 0.20318
# Poissons Ratio (y) = 0.38167 0.19901
# Poissons Ratio (z) = 0.36644 0.34284
#
# Static dielectric constant tensor:
#      x y z
#    x 3.490950 0.000000 0.000000 
#    y 0.000000 3.647440 0.000000 
#    z 0.000000 0.000000 3.251990 
# 
# 
# High freq. dielectric constant tensor:
#      x y z
#    x 1.733770 0.000000 0.000000 
#    y 0.000000 1.730020 0.000000 
#    z 0.000000 0.000000 1.692660 
# 
# From -- ./inp_files/8516.got.cif
#   From: 2010.03.12/outbox.cif.g09.slc.cpg/sg38_5_cif.got.tgz:8516.got - 2010.04.14 02:38:36.
