data_PCOD8177398
_publ_section_title
;
Structure prediction by ZEFSAII (Michael W. Deem and Ramdas Pophale) SiO2 
 PCOD8177398
Probable space group: A M M 2
;
_chemical_formula_sum "Si O2"
_cell_formula_units_Z 56
_cell_length_a 13.725458
_cell_length_b 25.888400
_cell_length_c 9.646380
_cell_angle_alpha 90.000000
_cell_angle_beta 90.000000
_cell_angle_gamma 90.000000
_cell_volume 3427.649622
_symmetry_space_group_name_H-M "A M M 2"
_symmetry_group_IT_number 38
_symmetry_cell_setting 'orthorhombic'
loop_
_space_group_symop_operation_xyz
x,y,z
-x,-y,z
-x,y,z
x,-y,z
x,1/2+y,1/2+z
-x,1/2-y,1/2+z
-x,1/2+y,1/2+z
x,1/2-y,1/2+z
loop_
_atom_site_type_symbol
_atom_site_label
_atom_site_fract_x
_atom_site_fract_y
_atom_site_fract_z
Si Si1 0.884367 0.559697 0.951290
Si Si2 0.606502 0.315313 0.218139
Si Si3 0.110616 0.633156 0.716187
Si Si4 0.393407 0.268885 0.931972
Si Si5 0.804998 0.137536 0.658517
Si Si6 0.185529 0.788532 0.415940
Si Si7 0.886103 0.673787 0.433308
O O1 0.857362 0.500000 0.941076
O O2 0.843373 0.587638 0.811328
O O3 0.000000 0.568919 0.969353
O O4 0.827750 0.583466 0.083050
O O5 0.500000 0.342500 0.207102
O O6 0.616570 0.288873 0.369363
O O7 0.690030 0.358172 0.195378
O O8 0.613879 0.269957 0.100287
O O9 0.118813 0.687717 0.796261
O O10 0.156723 0.640789 0.563587
O O11 0.000000 0.617690 0.693489
O O12 0.500000 0.291892 0.886501
O O13 0.299499 0.300952 0.877736
O O14 0.840514 0.185119 0.562556
O O15 0.868351 0.139670 0.797674
O O16 0.170893 0.727559 0.424089
O O17 0.000000 0.685653 0.454093
#
# Coordination Sequence:
#
# PCOD8177398 Si02
#       7
#     8   8   8   8   8   8   8
#     4   9  18  35  54  67  85 117 154 192 235 280
#     4   9  17  29  44  64  93 125 157 190 222 262
#     4   9  19  31  44  65  90 120 157 189 223 275
#     4   9  17  27  40  60  87 124 159 184 214 255
#     4  10  19  30  46  69  93 120 156 192 225 272
#     4  10  18  28  43  62  93 130 155 178 218 264
#     4  11  20  28  41  65  96 123 150 186 225 266
#
# _framework density 16.337724999999999
#
# number of rings (size 3 to 8) (size 9 to 14) (size 15 to 20)
#    0.000    2.429    1.429    1.714    2.000    2.857 
#    0.000    0.714    0.000    3.000    0.000    0.000 
#    0.000    0.000    0.000    0.143    0.000    0.000 
#
# Total GULP energy -346880.830927 kJ/mol
# GULP energy per Si atom -12388.601105 kJ/mol
# Density = 1.630054 g / cm^3
# Si number density = 16.337725 Si / 1000 Ang^3
#
#
#
# Elastic Constant Matrix: (Units=GPa)
#
#
# Indices 1 2 3 4 5 6 
#
# 1 61.6063 22.7010 26.5685 0.0000 0.0000 0.0000
# 2 22.7010 88.5378 46.2657 0.0000 0.0000 0.0000
# 3 26.5685 46.2657 107.7073 0.0000 0.0000 0.0000
# 4 0.0000 0.0000 0.0000 10.8264 0.0000 0.0000
# 5 0.0000 0.0000 0.0000 0.0000 18.4096 0.0000
# 6 0.0000 0.0000 0.0000 0.0000 0.0000 13.6177
#
#
#
# Elastic Compliance Matrix: (Units=1/GPa)
#
#
# Indices 1 2 3 4 5 6 
#
# 1 0.018798 -0.003090 -0.003310 0.000000 0.000000 0.000000
# 2 -0.003090 0.015072 -0.005712 0.000000 0.000000 0.000000
# 3 -0.003310 -0.005712 0.012554 0.000000 0.000000 0.000000
# 4 0.000000 0.000000 0.000000 0.092367 0.000000 0.000000
# 5 0.000000 0.000000 0.000000 0.000000 0.054319 0.000000
# 6 0.000000 0.000000 0.000000 0.000000 0.000000 0.073434
#
#
# Mechanical properties :
#
#
# Convention : Reuss Voigt Hill
#
# Bulk Modulus (GPa) = 45.04348 49.88022 47.46185
# Shear Modulus (GPa) = 16.76910 19.39182 18.08046
#
# Velocity S-wave (km/s) = 3.20723 3.44893 3.33027
# Velocity P-wave (km/s) = 6.43002 6.81595 6.62579
#
# Compressibility (1/GPa) = 0.02220077
#
# Stress axis : x y z
#
# Youngs Moduli (GPa) = 53.19668 66.34962 79.65425
#
# Poissons Ratio (x) = 0.20505 0.26362
# Poissons Ratio (y) = 0.16440 0.45496
# Poissons Ratio (z) = 0.17605 0.37897
#
# Static dielectric constant tensor:
#      x y z
#    x 3.260840 0.000000 0.000000 
#    y 0.000000 2.675100 0.000000 
#    z 0.000000 0.000000 3.325980 
# 
# 
# High freq. dielectric constant tensor:
#      x y z
#    x 1.629820 0.000000 0.000000 
#    y 0.000000 1.567960 0.000000 
#    z 0.000000 0.000000 1.640720 
# 
# From -- ./inp_files/5969.got.cif
#   From: 2010.03.12/outbox.cif.g09.slc.cpg/sg38_3_cif.got.tgz:5969.got - 2010.04.14 02:38:36.
