data_PCOD8177742
_publ_section_title
;
Structure prediction by ZEFSAII (Michael W. Deem and Ramdas Pophale) SiO2 
 PCOD8177742
Probable space group: A M M 2
;
_chemical_formula_sum "Si O2"
_cell_formula_units_Z 48
_cell_length_a 9.069756
_cell_length_b 9.984286
_cell_length_c 28.011342
_cell_angle_alpha 90.000000
_cell_angle_beta 90.000000
_cell_angle_gamma 90.000000
_cell_volume 2536.568135
_symmetry_space_group_name_H-M "A M M 2"
_symmetry_group_IT_number 38
_symmetry_cell_setting 'orthorhombic'
loop_
_space_group_symop_operation_xyz
x,y,z
-x,-y,z
-x,y,z
x,-y,z
x,1/2+y,1/2+z
-x,1/2-y,1/2+z
-x,1/2+y,1/2+z
x,1/2-y,1/2+z
loop_
_atom_site_type_symbol
_atom_site_label
_atom_site_fract_x
_atom_site_fract_y
_atom_site_fract_z
Si Si1 0.175077 0.655809 0.630300
Si Si2 0.175816 0.000000 0.472099
Si Si3 0.674628 0.155573 0.707611
Si Si4 0.332354 0.261506 0.810225
Si Si5 0.825163 0.000000 0.362577
Si Si6 0.824480 0.758500 0.026107
Si Si7 0.173490 0.000000 0.965882
Si Si8 0.337980 0.500000 0.372016
O O1 0.224182 0.500000 0.636543
O O2 0.248677 0.753365 0.668200
O O3 0.231107 0.712915 0.579519
O O4 0.000000 0.666251 0.634958
O O5 0.235597 0.000000 0.417372
O O6 0.238039 0.876615 0.502845
O O7 0.000000 0.000000 0.470138
O O8 0.500000 0.160354 0.700780
O O9 0.721427 0.224343 0.757259
O O10 0.728329 0.000000 0.705000
O O11 0.500000 0.315519 0.809692
O O12 0.228141 0.370771 0.833988
O O13 0.317441 0.127769 0.839776
O O14 0.000000 0.000000 0.363095
O O15 0.000000 0.757651 0.025929
O O16 0.758872 0.871679 0.991745
O O17 0.211318 0.000000 0.910785
O O18 0.000000 0.000000 0.971606
O O19 0.500000 0.500000 0.396110
#
# Coordination Sequence:
#
# PCOD8177742 Si02
#       8
#     8   4   8   8   4   8   4   4
#     4  10  21  37  58  88 119 146 184 235 285 335
#     4   9  18  31  50  79 113 147 186 225 270 327
#     4  10  22  41  62  83 109 147 194 237 280 339
#     4  10  21  40  61  80 110 154 193 227 279 347
#     4  11  23  37  56  89 122 147 185 241 284 323
#     4   9  17  32  53  78 110 149 186 222 272 339
#     4  10  18  32  55  80 109 145 184 228 281 338
#     4  10  20  36  59  84 110 145 191 238 279 330
#
# _framework density 18.923206
#
# number of rings (size 3 to 8) (size 9 to 14) (size 15 to 20)
#    0.000    2.167    1.667    1.250    2.333    3.333 
#    0.000    0.833    0.000    2.000    0.000    0.000 
#    0.000    0.000    0.000    0.000    0.000    0.000 
#
# Total GULP energy -297508.776765 kJ/mol
# GULP energy per Si atom -12396.199032 kJ/mol
# Density = 1.888014 g / cm^3
# Si number density = 18.923206 Si / 1000 Ang^3
#
#
#
# Elastic Constant Matrix: (Units=GPa)
#
#
# Indices 1 2 3 4 5 6 
#
# 1 29.9215 38.0131 34.2033 0.0000 0.0000 0.0000
# 2 38.0131 168.3080 82.6936 0.0000 0.0000 0.0000
# 3 34.2033 82.6936 161.0911 0.0000 0.0000 0.0000
# 4 0.0000 0.0000 0.0000 167.8589 0.0000 0.0000
# 5 0.0000 0.0000 0.0000 0.0000 -25.7199 0.0000
# 6 0.0000 0.0000 0.0000 0.0000 0.0000 14.9315
#
#
#
# Elastic Compliance Matrix: (Units=1/GPa)
#
#
# Indices 1 2 3 4 5 6 
#
# 1 0.051720 -0.008406 -0.006666 0.000000 0.000000 0.000000
# 2 -0.008406 0.009312 -0.002995 0.000000 0.000000 0.000000
# 3 -0.006666 -0.002995 0.009161 0.000000 0.000000 0.000000
# 4 0.000000 0.000000 0.000000 0.005957 0.000000 0.000000
# 5 0.000000 0.000000 0.000000 0.000000 -0.038880 0.000000
# 6 0.000000 0.000000 0.000000 0.000000 0.000000 0.066973
#
#
# Mechanical properties :
#
#
# Convention : Reuss Voigt Hill
#
# Bulk Modulus (GPa) = 29.36212 74.34896 51.85554
# Shear Modulus (GPa) = 32.95343 45.04147 38.99745
#
# Velocity S-wave (km/s) = 4.17757 4.88405 4.54456
# Velocity P-wave (km/s) = 6.23054 8.43684 7.41620
#
# Compressibility (1/GPa) = 0.03405749
#
# Stress axis : x y z
#
# Youngs Moduli (GPa) = 19.33485 107.39273 109.16290
#
# Poissons Ratio (x) = 0.90273 0.72771
# Poissons Ratio (y) = 0.16253 0.32697
# Poissons Ratio (z) = 0.12889 0.32166
#
# Static dielectric constant tensor:
#      x y z
#    x 3.169540 0.000000 0.000000 
#    y 0.000000 3.654730 0.000000 
#    z 0.000000 0.000000 3.671890 
# 
# 
# High freq. dielectric constant tensor:
#      x y z
#    x 1.696940 0.000000 0.000000 
#    y 0.000000 1.755490 0.000000 
#    z 0.000000 0.000000 1.750960 
# 
# From -- ./inp_files/24499.got.cif
#   From: 2010.03.12/outbox.cif.g09.slc.cpg/sg38_13_cif.got.tgz:24499.got - 2010.04.14 02:38:36.
