data_PCOD8177572
_publ_section_title
;
Structure prediction by ZEFSAII (Michael W. Deem and Ramdas Pophale) SiO2 
 PCOD8177572
Probable space group: A M M 2
;
_chemical_formula_sum "Si O2"
_cell_formula_units_Z 56
_cell_length_a 19.430952
_cell_length_b 9.477211
_cell_length_c 16.095082
_cell_angle_alpha 90.000000
_cell_angle_beta 90.000000
_cell_angle_gamma 90.000000
_cell_volume 2963.929180
_symmetry_space_group_name_H-M "A M M 2"
_symmetry_group_IT_number 38
_symmetry_cell_setting 'orthorhombic'
loop_
_space_group_symop_operation_xyz
x,y,z
-x,-y,z
-x,y,z
x,-y,z
x,1/2+y,1/2+z
-x,1/2-y,1/2+z
-x,1/2+y,1/2+z
x,1/2-y,1/2+z
loop_
_atom_site_type_symbol
_atom_site_label
_atom_site_fract_x
_atom_site_fract_y
_atom_site_fract_z
Si Si1 0.581092 0.336718 0.535110
Si Si2 0.213029 0.661221 0.105383
Si Si3 0.075018 0.832625 0.685419
Si Si4 0.925228 0.332739 0.371105
Si Si5 0.650595 0.837393 0.868466
Si Si6 0.353869 0.836861 0.684851
Si Si7 0.211615 0.162596 0.950930
O O1 0.500000 0.320641 0.530659
O O2 0.604000 0.500000 0.544798
O O3 0.611477 0.271050 0.448666
O O4 0.607410 0.252964 0.615395
O O5 0.203303 0.500000 0.077064
O O6 0.240320 0.751789 0.028717
O O7 0.139696 0.727608 0.134211
O O8 0.271039 0.673665 0.176050
O O9 0.079394 0.770787 0.778341
O O10 0.000000 0.789994 0.646754
O O11 0.081805 0.000000 0.689578
O O12 0.917084 0.500000 0.366860
O O13 0.862149 0.271187 0.424492
O O14 0.000000 0.291382 0.409966
O O15 0.628677 0.776169 0.777738
O O16 0.732936 0.818369 0.877617
O O17 0.629945 0.000000 0.866752
O O18 0.376986 0.000000 0.675644
O O19 0.204528 0.000000 0.976894
#
# Coordination Sequence:
#
# PCOD8177572 Si02
#       7
#     8   8   8   8   8   8   8
#     4  10  21  38  58  81 110 139 169 209 259 318
#     4  10  19  30  47  74 104 131 169 217 260 302
#     4   8  14  26  44  66  95 131 170 213 258 301
#     4   8  14  25  43  68  94 123 167 218 257 294
#     4   9  18  34  56  79 103 138 179 212 250 306
#     4  10  20  35  57  82 107 138 178 221 258 301
#     4  10  18  30  50  72  98 133 172 212 257 307
#
# _framework density 18.893837999999999
#
# number of rings (size 3 to 8) (size 9 to 14) (size 15 to 20)
#    0.000    2.714    1.429    1.714    0.000    4.857 
#    0.000    2.857    0.000    2.571    0.000    2.000 
#    0.000    0.000    0.000    0.000    0.000    0.000 
#
# Total GULP energy -346934.406737 kJ/mol
# GULP energy per Si atom -12390.514526 kJ/mol
# Density = 1.885083 g / cm^3
# Si number density = 18.893838 Si / 1000 Ang^3
#
#
#
# Elastic Constant Matrix: (Units=GPa)
#
#
# Indices 1 2 3 4 5 6 
#
# 1 96.5819 25.3490 49.1709 0.0000 0.0000 0.0000
# 2 25.3490 35.4752 38.2658 0.0000 0.0000 0.0000
# 3 49.1709 38.2658 144.5496 0.0000 0.0000 0.0000
# 4 0.0000 0.0000 0.0000 22.3089 0.0000 0.0000
# 5 0.0000 0.0000 0.0000 0.0000 27.5771 0.0000
# 6 0.0000 0.0000 0.0000 0.0000 0.0000 18.4097
#
#
#
# Elastic Compliance Matrix: (Units=1/GPa)
#
#
# Indices 1 2 3 4 5 6 
#
# 1 0.013540 -0.006588 -0.002862 0.000000 0.000000 0.000000
# 2 -0.006588 0.042661 -0.009052 0.000000 0.000000 0.000000
# 3 -0.002862 -0.009052 0.010288 0.000000 0.000000 0.000000
# 4 0.000000 0.000000 0.000000 0.044825 0.000000 0.000000
# 5 0.000000 0.000000 0.000000 0.000000 0.036262 0.000000
# 6 0.000000 0.000000 0.000000 0.000000 0.000000 0.054319
#
#
# Mechanical properties :
#
#
# Convention : Reuss Voigt Hill
#
# Bulk Modulus (GPa) = 33.91654 55.79755 44.85705
# Shear Modulus (GPa) = 20.10234 24.58055 22.34145
#
# Velocity S-wave (km/s) = 3.26538 3.61083 3.44244
# Velocity P-wave (km/s) = 5.67513 6.85422 6.29235
#
# Compressibility (1/GPa) = 0.02948414
#
# Stress axis : x y z
#
# Youngs Moduli (GPa) = 73.85516 23.44078 97.20164
#
# Poissons Ratio (x) = 0.15443 0.27817
# Poissons Ratio (y) = 0.48657 0.87990
# Poissons Ratio (z) = 0.21136 0.21219
#
# Static dielectric constant tensor:
#      x y z
#    x 3.696620 0.000000 0.000000 
#    y 0.000000 2.950940 0.000000 
#    z 0.000000 0.000000 3.535870 
# 
# 
# High freq. dielectric constant tensor:
#      x y z
#    x 1.748850 0.000000 0.000000 
#    y 0.000000 1.672850 0.000000 
#    z 0.000000 0.000000 1.733010 
# 
# From -- ./inp_files/10740.got.cif
#   From: 2010.03.12/outbox.cif.g09.slc.cpg/sg38_6_cif.got.tgz:10740.got - 2010.04.14 02:38:36.
