data_PCOD8177348
_publ_section_title
;
Structure prediction by ZEFSAII (Michael W. Deem and Ramdas Pophale) SiO2 
 PCOD8177348
Probable space group: A M M 2
;
_chemical_formula_sum "Si O2"
_cell_formula_units_Z 48
_cell_length_a 17.333094
_cell_length_b 8.994584
_cell_length_c 15.657067
_cell_angle_alpha 90.000000
_cell_angle_beta 90.000000
_cell_angle_gamma 90.000000
_cell_volume 2440.998903
_symmetry_space_group_name_H-M "A M M 2"
_symmetry_group_IT_number 38
_symmetry_cell_setting 'orthorhombic'
loop_
_space_group_symop_operation_xyz
x,y,z
-x,-y,z
-x,y,z
x,-y,z
x,1/2+y,1/2+z
-x,1/2-y,1/2+z
-x,1/2+y,1/2+z
x,1/2-y,1/2+z
loop_
_atom_site_type_symbol
_atom_site_label
_atom_site_fract_x
_atom_site_fract_y
_atom_site_fract_z
Si Si1 0.818446 0.325093 0.036190
Si Si2 0.178944 0.176460 0.208158
Si Si3 0.665215 0.172393 0.282080
Si Si4 0.500000 0.327631 0.793625
Si Si5 0.913146 0.823286 0.373700
Si Si6 0.652191 0.174849 0.475294
Si Si7 0.500000 0.824804 0.973252
O O1 0.830744 0.500000 0.043578
O O2 0.851954 0.248544 0.120996
O O3 0.864834 0.262187 0.954429
O O4 0.728187 0.283610 0.028488
O O5 0.265715 0.241252 0.226134
O O6 0.125149 0.231683 0.285635
O O7 0.176473 0.000000 0.197616
O O8 0.579494 0.201956 0.240751
O O9 0.665516 0.233801 0.378680
O O10 0.685225 0.000000 0.287978
O O11 0.500000 0.500000 0.825685
O O12 0.500000 0.220476 0.874406
O O13 0.000000 0.760726 0.378803
O O14 0.912245 0.000000 0.375560
O O15 0.577944 0.258217 0.516104
O O16 0.635495 0.000000 0.476201
O O17 0.500000 0.000000 0.985779
#
# Coordination Sequence:
#
# PCOD8177348 Si02
#       7
#     8   8   8   4   8   8   4
#     4  10  20  35  56  81 108 142 184 224 265 319
#     4  10  19  33  54  80 109 139 177 224 270 318
#     4   8  13  26  49  72  94 131 180 216 246 301
#     4   8  14  26  47  70  95 136 184 218 249 309
#     4   9  18  35  59  82 106 142 184 221 262 324
#     4   9  16  31  52  70  97 142 188 219 254 315
#     4  10  18  26  43  76 109 134 170 224 277 311
#
# _framework density 19.664080999999999
#
# number of rings (size 3 to 8) (size 9 to 14) (size 15 to 20)
#    0.000    2.833    1.667    1.750    0.000    1.333 
#    0.000    5.000    0.000    2.000    0.000    0.000 
#    0.000    0.000    0.000    0.000    0.000    0.000 
#
# Total GULP energy -297395.285290 kJ/mol
# GULP energy per Si atom -12391.470220 kJ/mol
# Density = 1.961932 g / cm^3
# Si number density = 19.664081 Si / 1000 Ang^3
#
#
#
# Elastic Constant Matrix: (Units=GPa)
#
#
# Indices 1 2 3 4 5 6 
#
# 1 156.8617 37.0359 66.0040 0.0000 0.0000 0.0000
# 2 37.0359 40.2168 28.1652 0.0000 0.0000 0.0000
# 3 66.0040 28.1652 126.4259 0.0000 0.0000 0.0000
# 4 0.0000 0.0000 0.0000 23.5011 0.0000 0.0000
# 5 0.0000 0.0000 0.0000 0.0000 10.8268 0.0000
# 6 0.0000 0.0000 0.0000 0.0000 0.0000 12.5099
#
#
#
# Elastic Compliance Matrix: (Units=1/GPa)
#
#
# Indices 1 2 3 4 5 6 
#
# 1 0.009284 -0.006108 -0.003486 0.000000 0.000000 0.000000
# 2 -0.006108 0.033481 -0.004270 0.000000 0.000000 0.000000
# 3 -0.003486 -0.004270 0.010681 0.000000 0.000000 0.000000
# 4 0.000000 0.000000 0.000000 0.042551 0.000000 0.000000
# 5 0.000000 0.000000 0.000000 0.000000 0.092364 0.000000
# 6 0.000000 0.000000 0.000000 0.000000 0.000000 0.079937
#
#
# Mechanical properties :
#
#
# Convention : Reuss Voigt Hill
#
# Bulk Modulus (GPa) = 38.88447 65.10164 51.99305
# Shear Modulus (GPa) = 16.41505 22.18751 19.30128
#
# Velocity S-wave (km/s) = 2.89238 3.36270 3.13637
# Velocity P-wave (km/s) = 5.56523 6.94664 6.29395
#
# Compressibility (1/GPa) = 0.02571721
#
# Stress axis : x y z
#
# Youngs Moduli (GPa) = 107.71001 29.86788 93.62338
#
# Poissons Ratio (x) = 0.18244 0.32639
# Poissons Ratio (y) = 0.65793 0.39976
# Poissons Ratio (z) = 0.37550 0.12753
#
# Static dielectric constant tensor:
#      x y z
#    x 4.046080 0.000000 0.000000 
#    y 0.000000 3.012800 0.000000 
#    z 0.000000 0.000000 3.362420 
# 
# 
# High freq. dielectric constant tensor:
#      x y z
#    x 1.782540 0.000000 0.000000 
#    y 0.000000 1.712460 0.000000 
#    z 0.000000 0.000000 1.744250 
# 
# From -- ./inp_files/15036.got.cif
#   From: 2010.03.12/outbox.cif.g09.slc.cpg/sg38_8_cif.got.tgz:15036.got - 2010.04.14 02:38:36.
