data_PCOD8177007
_publ_section_title
;
Structure prediction by ZEFSAII (Michael W. Deem and Ramdas Pophale) SiO2 
 PCOD8177007
Probable space group: C C C 2
;
_chemical_formula_sum "Si O2"
_cell_formula_units_Z 60
_cell_length_a 18.804102
_cell_length_b 15.278710
_cell_length_c 9.243654
_cell_angle_alpha 90.000000
_cell_angle_beta 90.000000
_cell_angle_gamma 90.000000
_cell_volume 2655.724176
_symmetry_space_group_name_H-M "C C C 2"
_symmetry_group_IT_number 37
_symmetry_cell_setting 'orthorhombic'
loop_
_space_group_symop_operation_xyz
x,y,z
-x,-y,z
-x,y,1/2+z
x,-y,1/2+z
1/2+x,1/2+y,z
1/2-x,1/2-y,z
1/2-x,1/2+y,1/2+z
1/2+x,1/2-y,1/2+z
loop_
_atom_site_type_symbol
_atom_site_label
_atom_site_fract_x
_atom_site_fract_y
_atom_site_fract_z
Si Si1 0.887853 0.995685 0.479180
Si Si2 0.498629 0.634510 0.534685
Si Si3 0.953518 0.752273 0.784380
Si Si4 0.197393 0.672345 0.339461
Si Si5 0.063795 0.391748 0.256180
Si Si6 0.285593 0.841937 0.678782
Si Si7 0.211368 0.020791 0.726041
Si Si8 0.500000 0.000000 0.511744
O O1 0.943226 0.918730 0.439870
O O2 0.822182 0.957227 0.571018
O O3 0.853052 0.037899 0.337427
O O4 0.930211 0.072564 0.565896
O O5 0.539945 0.663177 0.680282
O O6 0.471097 0.718611 0.447199
O O7 0.878950 0.701686 0.780694
O O8 0.010844 0.686219 0.723316
O O9 0.250000 0.750000 0.299089
O O10 0.196810 0.652991 0.509275
O O11 0.221703 0.584037 0.256949
O O12 0.142388 0.352730 0.269485
O O13 0.044890 0.435893 0.409136
O O14 0.058073 0.455017 0.116576
O O15 0.250000 0.750000 0.720902
O O16 0.233754 0.919484 0.727459
#
# Coordination Sequence:
#
# PCOD8177007 Si02
#       8
#     8   8   8   8   8   8   8   4
#     4  11  24  44  71 104 141 192 233 299 359 432
#     4  11  24  43  73 106 143 182 240 291 368 433
#     4  12  25  44  74 103 142 183 233 301 360 428
#     4  11  24  46  72 105 143 190 234 291 364 435
#     4  11  25  44  70  99 135 177 234 286 351 422
#     4  11  27  45  71 101 145 195 238 295 359 429
#     4  12  25  45  71 104 146 193 243 294 362 434
#     4  10  24  44  72  98 134 178 226 292 352 416
#
# _framework density 22.592707000000001
#
# number of rings (size 3 to 8) (size 9 to 14) (size 15 to 20)
#    0.000    0.800    1.333    5.600   11.200    2.133 
#    2.400    0.667    0.000    0.000    0.000    0.000 
#    0.000    0.000    0.000    0.000    0.000    0.000 
#
# Total GULP energy -372081.346919 kJ/mol
# GULP energy per Si atom -12402.711564 kJ/mol
# Density = 2.254129 g / cm^3
# Si number density = 22.592707 Si / 1000 Ang^3
#
#
#
# Elastic Constant Matrix: (Units=GPa)
#
#
# Indices 1 2 3 4 5 6 
#
# 1 135.0936 45.5400 19.3666 0.0000 0.0000 0.0000
# 2 45.5400 115.3610 21.0483 0.0000 0.0000 0.0000
# 3 19.3666 21.0483 75.0277 0.0000 0.0000 0.0000
# 4 0.0000 0.0000 0.0000 30.6673 0.0000 0.0000
# 5 0.0000 0.0000 0.0000 0.0000 31.0760 0.0000
# 6 0.0000 0.0000 0.0000 0.0000 0.0000 46.4939
#
#
#
# Elastic Compliance Matrix: (Units=1/GPa)
#
#
# Indices 1 2 3 4 5 6 
#
# 1 0.008666 -0.003175 -0.001346 0.000000 0.000000 0.000000
# 2 -0.003175 0.010300 -0.002070 0.000000 0.000000 0.000000
# 3 -0.001346 -0.002070 0.014257 0.000000 0.000000 0.000000
# 4 0.000000 0.000000 0.000000 0.032608 0.000000 0.000000
# 5 0.000000 0.000000 0.000000 0.000000 0.032179 0.000000
# 6 0.000000 0.000000 0.000000 0.000000 0.000000 0.021508
#
#
# Mechanical properties :
#
#
# Convention : Reuss Voigt Hill
#
# Bulk Modulus (GPa) = 49.90154 55.26581 52.58368
# Shear Modulus (GPa) = 35.87335 37.61591 36.74463
#
# Velocity S-wave (km/s) = 3.98908 4.08482 4.03723
# Velocity P-wave (km/s) = 6.58426 6.83831 6.71249
#
# Compressibility (1/GPa) = 0.02003946
#
# Stress axis : x y z
#
# Youngs Moduli (GPa) = 115.39855 97.09151 70.14333
#
# Poissons Ratio (x) = 0.30829 0.09442
# Poissons Ratio (y) = 0.36642 0.14518
# Poissons Ratio (z) = 0.15533 0.20096
#
# Static dielectric constant tensor:
#      x y z
#    x 3.684070 0.000000 0.000000 
#    y 0.000000 4.281070 0.000000 
#    z 0.000000 0.000000 3.861700 
# 
# 
# High freq. dielectric constant tensor:
#      x y z
#    x 1.900110 0.000000 0.000000 
#    y 0.000000 1.900220 0.000000 
#    z 0.000000 0.000000 1.882440 
# 
# From -- ./inp_files/4093.got.cif
#   From: 2010.03.12/outbox.cif.g09.slc.cpg/sg37_3_cif.got.tgz:4093.got - 2010.04.14 02:25:27.
