data_PCOD8177401
_publ_section_title
;
Structure prediction by ZEFSAII (Michael W. Deem and Ramdas Pophale) SiO2 
 PCOD8177401
Probable space group: A M M 2
;
_chemical_formula_sum "Si O2"
_cell_formula_units_Z 56
_cell_length_a 8.881653
_cell_length_b 29.079479
_cell_length_c 13.762560
_cell_angle_alpha 90.000000
_cell_angle_beta 90.000000
_cell_angle_gamma 90.000000
_cell_volume 3554.509246
_symmetry_space_group_name_H-M "A M M 2"
_symmetry_group_IT_number 38
_symmetry_cell_setting 'orthorhombic'
loop_
_space_group_symop_operation_xyz
x,y,z
-x,-y,z
-x,y,z
x,-y,z
x,1/2+y,1/2+z
-x,1/2-y,1/2+z
-x,1/2+y,1/2+z
x,1/2-y,1/2+z
loop_
_atom_site_type_symbol
_atom_site_label
_atom_site_fract_x
_atom_site_fract_y
_atom_site_fract_z
Si Si1 0.673068 0.899133 0.724480
Si Si2 0.821334 0.401304 0.015422
Si Si3 0.672031 0.821046 0.410261
Si Si4 0.675295 0.264366 0.726356
Si Si5 0.669226 0.000000 0.701134
Si Si6 0.674195 0.774068 0.008350
Si Si7 0.827333 0.500000 0.007052
Si Si8 0.177340 0.181122 0.831612
O O1 0.500000 0.883503 0.720712
O O2 0.740318 0.891316 0.617226
O O3 0.688311 0.952419 0.761073
O O4 0.759949 0.868596 0.802682
O O5 0.762624 0.450681 0.970249
O O6 0.000000 0.402187 0.033467
O O7 0.780871 0.362750 0.937149
O O8 0.500000 0.837370 0.420161
O O9 0.709531 0.805924 0.300203
O O10 0.705837 0.778788 0.481893
O O11 0.500000 0.250658 0.729983
O O12 0.723295 0.281450 0.619731
O O13 0.766423 0.219061 0.755165
O O14 0.800643 0.000000 0.622244
O O15 0.500000 0.000000 0.653950
O O16 0.500000 0.786064 0.990732
O O17 0.770639 0.807785 0.941045
O O18 0.000000 0.500000 0.980869
O O19 0.000000 0.179707 0.828310
#
# Coordination Sequence:
#
# PCOD8177401 Si02
#       8
#     8   8   8   8   4   8   4   8
#     4  10  18  30  46  64  89 118 148 181 217 258
#     4  10  18  28  43  64  90 119 149 181 219 260
#     4   9  17  28  44  67  90 114 146 179 216 262
#     4   9  18  33  50  65  86 118 151 183 219 257
#     4   8  16  28  44  64  83 110 147 182 215 254
#     4   9  18  33  49  63  84 116 149 181 216 255
#     4   8  16  28  40  58  87 118 145 176 217 264
#     4  11  21  30  44  68  93 117 146 178 216 261
#
# _framework density 15.754636
#
# number of rings (size 3 to 8) (size 9 to 14) (size 15 to 20)
#    0.000    2.571    0.000    3.857    0.000    5.143 
#    0.000    0.000    0.000    0.000    0.000    1.000 
#    0.000    2.286    0.000    0.000    0.000    0.000 
#
# Total GULP energy -347026.807518 kJ/mol
# GULP energy per Si atom -12393.814554 kJ/mol
# Density = 1.571878 g / cm^3
# Si number density = 15.754636 Si / 1000 Ang^3
#
#
#
# Elastic Constant Matrix: (Units=GPa)
#
#
# Indices 1 2 3 4 5 6 
#
# 1 76.1087 47.7366 40.3751 0.0000 0.0000 0.0000
# 2 47.7366 117.3609 56.0015 0.0000 0.0000 0.0000
# 3 40.3751 56.0015 99.5869 0.0000 0.0000 0.0000
# 4 0.0000 0.0000 0.0000 21.2272 0.0000 0.0000
# 5 0.0000 0.0000 0.0000 0.0000 16.6112 0.0000
# 6 0.0000 0.0000 0.0000 0.0000 0.0000 22.2641
#
#
#
# Elastic Compliance Matrix: (Units=1/GPa)
#
#
# Indices 1 2 3 4 5 6 
#
# 1 0.019069 -0.005559 -0.004605 0.000000 0.000000 0.000000
# 2 -0.005559 0.013266 -0.005206 0.000000 0.000000 0.000000
# 3 -0.004605 -0.005206 0.014836 0.000000 0.000000 0.000000
# 4 0.000000 0.000000 0.000000 0.047109 0.000000 0.000000
# 5 0.000000 0.000000 0.000000 0.000000 0.060200 0.000000
# 6 0.000000 0.000000 0.000000 0.000000 0.000000 0.044915
#
#
# Mechanical properties :
#
#
# Convention : Reuss Voigt Hill
#
# Bulk Modulus (GPa) = 60.86193 64.58698 62.72446
# Shear Modulus (GPa) = 21.22123 21.95005 21.58564
#
# Velocity S-wave (km/s) = 3.67411 3.73667 3.70552
# Velocity P-wave (km/s) = 7.53085 7.72667 7.62939
#
# Compressibility (1/GPa) = 0.01643063
#
# Stress axis : x y z
#
# Youngs Moduli (GPa) = 52.44240 75.38009 67.40272
#
# Poissons Ratio (x) = 0.41902 0.31039
# Poissons Ratio (y) = 0.29152 0.35092
# Poissons Ratio (z) = 0.24150 0.39246
#
# Static dielectric constant tensor:
#      x y z
#    x 3.002300 0.000000 0.000000 
#    y 0.000000 3.174500 0.000000 
#    z 0.000000 0.000000 2.863080 
# 
# 
# High freq. dielectric constant tensor:
#      x y z
#    x 1.608980 0.000000 0.000000 
#    y 0.000000 1.605330 0.000000 
#    z 0.000000 0.000000 1.571360 
# 
# From -- ./inp_files/13025.got.cif
#   From: 2010.03.12/outbox.cif.g09.slc.cpg/sg38_7_cif.got.tgz:13025.got - 2010.04.14 02:38:36.
