data_PCOD8177455
_publ_section_title
;
Structure prediction by ZEFSAII (Michael W. Deem and Ramdas Pophale) SiO2 
 PCOD8177455
Probable space group: A M M 2
;
_chemical_formula_sum "Si O2"
_cell_formula_units_Z 56
_cell_length_a 8.750742
_cell_length_b 29.030004
_cell_length_c 13.707937
_cell_angle_alpha 90.000000
_cell_angle_beta 90.000000
_cell_angle_gamma 90.000000
_cell_volume 3482.283100
_symmetry_space_group_name_H-M "A M M 2"
_symmetry_group_IT_number 38
_symmetry_cell_setting 'orthorhombic'
loop_
_space_group_symop_operation_xyz
x,y,z
-x,-y,z
-x,y,z
x,-y,z
x,1/2+y,1/2+z
-x,1/2-y,1/2+z
-x,1/2+y,1/2+z
x,1/2-y,1/2+z
loop_
_atom_site_type_symbol
_atom_site_label
_atom_site_fract_x
_atom_site_fract_y
_atom_site_fract_z
Si Si1 0.669059 0.500000 0.379390
Si Si2 0.681026 0.402097 0.163655
Si Si3 0.321221 0.179489 0.975002
Si Si4 0.823383 0.225557 0.153058
Si Si5 0.825855 0.321129 0.056999
Si Si6 0.177680 0.235560 0.372298
Si Si7 0.666366 0.500000 0.148499
Si Si8 0.819534 0.405068 0.372760
O O1 0.500000 0.500000 0.427520
O O2 0.651879 0.500000 0.264368
O O3 0.758900 0.454152 0.411690
O O4 0.500000 0.406581 0.179696
O O5 0.716521 0.363096 0.084876
O O6 0.747885 0.451340 0.121727
O O7 0.755885 0.390264 0.267100
O O8 0.500000 0.170301 0.966074
O O9 0.279769 0.192992 0.085907
O O10 0.275378 0.219883 0.900322
O O11 0.231632 0.133084 0.950123
O O12 0.791993 0.278831 0.128991
O O13 0.777383 0.217582 0.265295
O O14 0.000000 0.213564 0.132457
O O15 0.000000 0.337718 0.067433
O O16 0.788358 0.306192 0.946381
O O17 0.000000 0.250167 0.377761
O O18 0.500000 0.500000 0.098356
O O19 0.000000 0.407246 0.365949
#
# Coordination Sequence:
#
# PCOD8177455 Si02
#       8
#     4   8   8   8   8   8   4   8
#     4   9  17  31  47  67  94 119 148 187 229 270
#     4  10  18  29  45  65  91 122 154 191 232 268
#     4  11  21  31  46  69  94 120 152 190 229 269
#     4   9  18  33  49  64  87 120 153 186 225 271
#     4   9  17  28  44  68  93 118 151 186 225 276
#     4   9  18  33  50  66  90 123 154 188 229 274
#     4   7  14  27  41  59  86 117 146 179 221 266
#     4  11  20  31  47  67  93 125 157 186 223 273
#
# _framework density 16.081403000000002
#
# number of rings (size 3 to 8) (size 9 to 14) (size 15 to 20)
#    0.000    2.429    0.000    5.786    0.000    4.000 
#    0.000    1.071    0.000    0.000    0.000    1.000 
#    0.000    3.429    0.000    0.000    0.000    0.000 
#
# Total GULP energy -347118.683292 kJ/mol
# GULP energy per Si atom -12397.095832 kJ/mol
# Density = 1.604480 g / cm^3
# Si number density = 16.081403 Si / 1000 Ang^3
#
#
#
# Elastic Constant Matrix: (Units=GPa)
#
#
# Indices 1 2 3 4 5 6 
#
# 1 87.9076 43.9410 28.0968 0.0000 0.0000 0.0000
# 2 43.9410 115.2633 44.3507 0.0000 0.0000 0.0000
# 3 28.0968 44.3507 87.4560 0.0000 0.0000 0.0000
# 4 0.0000 0.0000 0.0000 19.6039 0.0000 0.0000
# 5 0.0000 0.0000 0.0000 0.0000 19.3902 0.0000
# 6 0.0000 0.0000 0.0000 0.0000 0.0000 28.0422
#
#
#
# Elastic Compliance Matrix: (Units=1/GPa)
#
#
# Indices 1 2 3 4 5 6 
#
# 1 0.014414 -0.004613 -0.002291 0.000000 0.000000 0.000000
# 2 -0.004613 0.012256 -0.004733 0.000000 0.000000 0.000000
# 3 -0.002291 -0.004733 0.014571 0.000000 0.000000 0.000000
# 4 0.000000 0.000000 0.000000 0.051010 0.000000 0.000000
# 5 0.000000 0.000000 0.000000 0.000000 0.051573 0.000000
# 6 0.000000 0.000000 0.000000 0.000000 0.000000 0.035661
#
#
# Mechanical properties :
#
#
# Convention : Reuss Voigt Hill
#
# Bulk Modulus (GPa) = 55.66339 58.15600 56.90969
# Shear Modulus (GPa) = 23.95247 25.02315 24.48781
#
# Velocity S-wave (km/s) = 3.86353 3.94893 3.90646
# Velocity P-wave (km/s) = 7.38858 7.55209 7.47078
#
# Compressibility (1/GPa) = 0.01796513
#
# Stress axis : x y z
#
# Youngs Moduli (GPa) = 69.37771 81.59521 68.63136
#
# Poissons Ratio (x) = 0.37642 0.15725
# Poissons Ratio (y) = 0.32006 0.32483
# Poissons Ratio (z) = 0.15896 0.38619
#
# Static dielectric constant tensor:
#      x y z
#    x 3.018590 0.000000 0.000000 
#    y 0.000000 3.198210 0.000000 
#    z 0.000000 0.000000 2.894350 
# 
# 
# High freq. dielectric constant tensor:
#      x y z
#    x 1.619130 0.000000 0.000000 
#    y 0.000000 1.616880 0.000000 
#    z 0.000000 0.000000 1.587290 
# 
# From -- ./inp_files/13001.got.cif
#   From: 2010.03.12/outbox.cif.g09.slc.cpg/sg38_7_cif.got.tgz:13001.got - 2010.04.14 02:38:36.
