data_PCOD8177476
_publ_section_title
;
Structure prediction by ZEFSAII (Michael W. Deem and Ramdas Pophale) SiO2 
 PCOD8177476
Probable space group: A M M 2
;
_chemical_formula_sum "Si O2"
_cell_formula_units_Z 64
_cell_length_a 19.590836
_cell_length_b 8.820382
_cell_length_c 20.521526
_cell_angle_alpha 90.000000
_cell_angle_beta 90.000000
_cell_angle_gamma 90.000000
_cell_volume 3546.092137
_symmetry_space_group_name_H-M "A M M 2"
_symmetry_group_IT_number 38
_symmetry_cell_setting 'orthorhombic'
loop_
_space_group_symop_operation_xyz
x,y,z
-x,-y,z
-x,y,z
x,-y,z
x,1/2+y,1/2+z
-x,1/2-y,1/2+z
-x,1/2+y,1/2+z
x,1/2-y,1/2+z
loop_
_atom_site_type_symbol
_atom_site_label
_atom_site_fract_x
_atom_site_fract_y
_atom_site_fract_z
Si Si1 0.839655 0.178260 0.141110
Si Si2 0.571932 0.830265 0.342437
Si Si3 0.152458 0.176673 0.887800
Si Si4 0.711064 0.678181 0.192144
Si Si5 0.574553 0.169887 0.187616
Si Si6 0.920568 0.673987 0.254333
Si Si7 0.717616 0.680980 0.833114
Si Si8 0.923337 0.819771 0.016396
O O1 0.767035 0.263329 0.140772
O O2 0.881619 0.214911 0.206030
O O3 0.882034 0.238287 0.079161
O O4 0.826420 0.000000 0.137323
O O5 0.500000 0.747057 0.364377
O O6 0.574400 0.833576 0.264944
O O7 0.644749 0.757744 0.363657
O O8 0.568176 0.000000 0.370184
O O9 0.103135 0.209596 0.827354
O O10 0.223211 0.266985 0.881408
O O11 0.170067 0.000000 0.894081
O O12 0.114436 0.239228 0.951680
O O13 0.715573 0.500000 0.200061
O O14 0.636323 0.722813 0.164309
O O15 0.729655 0.751005 0.261657
O O16 0.500000 0.229272 0.162786
O O17 0.587160 0.000000 0.160885
O O18 0.904209 0.500000 0.235800
O O19 0.000000 0.709839 0.249658
O O20 0.715622 0.500000 0.826349
O O21 0.000000 0.752304 0.018883
O O22 0.927141 0.000000 0.015519
#
# Coordination Sequence:
#
# PCOD8177476 Si02
#       8
#     8   8   8   8   8   8   8   8
#     4  11  21  34  53  75 100 132 172 216 257 301
#     4   7  11  21  38  61  91 127 162 194 233 282
#     4  10  19  33  53  75 101 133 166 204 254 312
#     4  11  20  30  46  71 104 138 172 212 258 305
#     4   8  14  26  44  67  98 135 171 207 251 302
#     4  10  20  33  51  75 101 129 161 200 254 316
#     4  10  18  29  47  72 101 132 168 211 253 298
#     4   9  19  36  56  76  98 129 170 213 257 310
#
# _framework density 18.048037000000001
#
# number of rings (size 3 to 8) (size 9 to 14) (size 15 to 20)
#    0.000    2.500    1.250    4.125    0.000    2.500 
#    0.000    1.250    0.000    3.750    0.000    0.875 
#    0.000    5.000    0.000    0.000    0.000    0.000 
#
# Total GULP energy -396553.521604 kJ/mol
# GULP energy per Si atom -12392.297550 kJ/mol
# Density = 1.800696 g / cm^3
# Si number density = 18.048037 Si / 1000 Ang^3
#
#
#
# Elastic Constant Matrix: (Units=GPa)
#
#
# Indices 1 2 3 4 5 6 
#
# 1 184.8026 47.1066 51.8589 0.0000 0.0000 0.0000
# 2 47.1066 62.9193 25.8785 0.0000 0.0000 0.0000
# 3 51.8589 25.8785 74.3893 0.0000 0.0000 0.0000
# 4 0.0000 0.0000 0.0000 14.7173 0.0000 0.0000
# 5 0.0000 0.0000 0.0000 0.0000 18.6240 0.0000
# 6 0.0000 0.0000 0.0000 0.0000 0.0000 28.4249
#
#
#
# Elastic Compliance Matrix: (Units=1/GPa)
#
#
# Indices 1 2 3 4 5 6 
#
# 1 0.007520 -0.004054 -0.003832 0.000000 0.000000 0.000000
# 2 -0.004054 0.020733 -0.004386 0.000000 0.000000 0.000000
# 3 -0.003832 -0.004386 0.017640 0.000000 0.000000 0.000000
# 4 0.000000 0.000000 0.000000 0.067947 0.000000 0.000000
# 5 0.000000 0.000000 0.000000 0.000000 0.053694 0.000000
# 6 0.000000 0.000000 0.000000 0.000000 0.000000 0.035180
#
#
# Mechanical properties :
#
#
# Convention : Reuss Voigt Hill
#
# Bulk Modulus (GPa) = 46.84285 63.53327 55.18806
# Shear Modulus (GPa) = 21.33335 25.50439 23.41887
#
# Velocity S-wave (km/s) = 3.44180 3.76325 3.60611
# Velocity P-wave (km/s) = 6.46572 7.35945 6.92701
#
# Compressibility (1/GPa) = 0.02134797
#
# Stress axis : x y z
#
# Youngs Moduli (GPa) = 132.98117 48.23337 56.68889
#
# Poissons Ratio (x) = 0.19553 0.21723
# Poissons Ratio (y) = 0.53909 0.24866
# Poissons Ratio (z) = 0.50959 0.21157
#
# Static dielectric constant tensor:
#      x y z
#    x 4.081000 0.000000 0.000000 
#    y 0.000000 3.088490 0.000000 
#    z 0.000000 0.000000 2.969760 
# 
# 
# High freq. dielectric constant tensor:
#      x y z
#    x 1.730740 0.000000 0.000000 
#    y 0.000000 1.672380 0.000000 
#    z 0.000000 0.000000 1.645990 
# 
# From -- ./inp_files/18931.got.cif
#   From: 2010.03.12/outbox.cif.g09.slc.cpg/sg38_10_cif.got.tgz:18931.got - 2010.04.14 02:38:36.
