data_PCOD8177617
_publ_section_title
;
Structure prediction by ZEFSAII (Michael W. Deem and Ramdas Pophale) SiO2 
 PCOD8177617
Probable space group: A M M 2
;
_chemical_formula_sum "Si O2"
_cell_formula_units_Z 56
_cell_length_a 9.081351
_cell_length_b 14.401052
_cell_length_c 22.801724
_cell_angle_alpha 90.000000
_cell_angle_beta 90.000000
_cell_angle_gamma 90.000000
_cell_volume 2982.032448
_symmetry_space_group_name_H-M "A M M 2"
_symmetry_group_IT_number 38
_symmetry_cell_setting 'orthorhombic'
loop_
_space_group_symop_operation_xyz
x,y,z
-x,-y,z
-x,y,z
x,-y,z
x,1/2+y,1/2+z
-x,1/2-y,1/2+z
-x,1/2+y,1/2+z
x,1/2-y,1/2+z
loop_
_atom_site_type_symbol
_atom_site_label
_atom_site_fract_x
_atom_site_fract_y
_atom_site_fract_z
Si Si1 0.826072 0.781532 0.556150
Si Si2 0.674543 0.399322 0.287727
Si Si3 0.826048 0.606358 0.942002
Si Si4 0.674157 0.710785 0.836184
Si Si5 0.673235 0.606471 0.592514
Si Si6 0.331182 0.107516 0.655881
Si Si7 0.325669 0.398274 0.723978
O O1 0.773792 0.842125 0.500734
O O2 0.758030 0.678003 0.550120
O O3 0.770018 0.831602 0.614249
O O4 0.000000 0.772959 0.558590
O O5 0.500000 0.404103 0.283251
O O6 0.736012 0.500000 0.308985
O O7 0.720814 0.319633 0.334026
O O8 0.729526 0.377292 0.221862
O O9 0.770191 0.500000 0.943921
O O10 0.755111 0.659049 0.887818
O O11 0.000000 0.610269 0.934784
O O12 0.500000 0.697558 0.844358
O O13 0.730493 0.671048 0.773895
O O14 0.500000 0.619701 0.583601
O O15 0.717635 0.500000 0.577792
O O16 0.723082 0.632676 0.658904
O O17 0.500000 0.141936 0.650064
O O18 0.318389 0.000000 0.637956
O O19 0.500000 0.403694 0.724517
O O20 0.260110 0.500000 0.738037
#
# Coordination Sequence:
#
# PCOD8177617 Si02
#       7
#     8   8   8   8   8   8   8
#     4  11  22  35  52  73 102 140 175 210 256 306
#     4   8  15  29  50  78 109 135 160 199 254 307
#     4  10  23  41  54  67  96 136 171 206 253 303
#     4  10  18  30  53  79 100 128 169 212 247 288
#     4   9  18  34  56  80 106 135 167 206 252 303
#     4   9  17  31  54  81 106 134 169 209 254 306
#     4   8  14  26  47  76 105 129 156 198 254 304
#
# _framework density 18.779138
#
# number of rings (size 3 to 8) (size 9 to 14) (size 15 to 20)
#    0.000    2.714    0.000    3.857    0.000    5.429 
#    0.000    3.571    0.000    4.714    0.000    0.000 
#    0.000    0.000    0.000    0.000    0.000    0.000 
#
# Total GULP energy -347060.365007 kJ/mol
# GULP energy per Si atom -12395.013036 kJ/mol
# Density = 1.873640 g / cm^3
# Si number density = 18.779138 Si / 1000 Ang^3
#
#
#
# Elastic Constant Matrix: (Units=GPa)
#
#
# Indices 1 2 3 4 5 6 
#
# 1 28.4599 37.8401 26.0073 0.0000 0.0000 0.0000
# 2 37.8401 161.9361 84.2673 0.0000 0.0000 0.0000
# 3 26.0073 84.2673 83.5381 0.0000 0.0000 0.0000
# 4 0.0000 0.0000 0.0000 32.7616 0.0000 0.0000
# 5 0.0000 0.0000 0.0000 0.0000 -17.0728 0.0000
# 6 0.0000 0.0000 0.0000 0.0000 0.0000 23.1221
#
#
#
# Elastic Compliance Matrix: (Units=1/GPa)
#
#
# Indices 1 2 3 4 5 6 
#
# 1 0.053727 -0.008105 -0.008551 0.000000 0.000000 0.000000
# 2 -0.008105 0.014221 -0.011822 0.000000 0.000000 0.000000
# 3 -0.008551 -0.011822 0.026558 0.000000 0.000000 0.000000
# 4 0.000000 0.000000 0.000000 0.030524 0.000000 0.000000
# 5 0.000000 0.000000 0.000000 0.000000 -0.058573 0.000000
# 6 0.000000 0.000000 0.000000 0.000000 0.000000 0.043249
#
#
# Mechanical properties :
#
#
# Convention : Reuss Voigt Hill
#
# Bulk Modulus (GPa) = 26.63059 63.35150 44.99104
# Shear Modulus (GPa) = 27.90526 16.15014 22.02770
#
# Velocity S-wave (km/s) = 3.85901 2.93576 3.42861
# Velocity P-wave (km/s) = 5.83675 6.73052 6.29951
#
# Compressibility (1/GPa) = 0.03755081
#
# Stress axis : x y z
#
# Youngs Moduli (GPa) = 18.61246 70.31870 37.65405
#
# Poissons Ratio (x) = 0.56994 0.32197
# Poissons Ratio (y) = 0.15086 0.44514
# Poissons Ratio (z) = 0.15915 0.83129
#
# Static dielectric constant tensor:
#      x y z
#    x 3.037350 0.000000 0.000000 
#    y 0.000000 3.987960 0.000000 
#    z 0.000000 0.000000 3.390140 
# 
# 
# High freq. dielectric constant tensor:
#      x y z
#    x 1.685870 0.000000 0.000000 
#    y 0.000000 1.752480 0.000000 
#    z 0.000000 0.000000 1.712310 
# 
# From -- ./inp_files/19776.got.cif
#   From: 2010.03.12/outbox.cif.g09.slc.cpg/sg38_10_cif.got.tgz:19776.got - 2010.04.14 02:38:36.
