data_PCOD8177445
_publ_section_title
;
Structure prediction by ZEFSAII (Michael W. Deem and Ramdas Pophale) SiO2 
 PCOD8177445
Probable space group: A M M 2
;
_chemical_formula_sum "Si O2"
_cell_formula_units_Z 48
_cell_length_a 15.510577
_cell_length_b 9.094446
_cell_length_c 18.264821
_cell_angle_alpha 90.000000
_cell_angle_beta 90.000000
_cell_angle_gamma 90.000000
_cell_volume 2576.437567
_symmetry_space_group_name_H-M "A M M 2"
_symmetry_group_IT_number 38
_symmetry_cell_setting 'orthorhombic'
loop_
_space_group_symop_operation_xyz
x,y,z
-x,-y,z
-x,y,z
x,-y,z
x,1/2+y,1/2+z
-x,1/2-y,1/2+z
-x,1/2+y,1/2+z
x,1/2-y,1/2+z
loop_
_atom_site_type_symbol
_atom_site_label
_atom_site_fract_x
_atom_site_fract_y
_atom_site_fract_z
Si Si1 0.500000 0.674752 0.260600
Si Si2 0.000000 0.833735 0.416522
Si Si3 0.657013 0.326975 0.681490
Si Si4 0.000000 0.827080 0.768186
Si Si5 0.813255 0.333471 0.933279
Si Si6 0.335024 0.326448 0.514040
Si Si7 0.829912 0.328728 0.763838
Si Si8 0.500000 0.674699 0.427758
O O1 0.500000 0.500000 0.254779
O O2 0.584595 0.737168 0.223109
O O3 0.500000 0.728873 0.344473
O O4 0.912059 0.815016 0.463101
O O5 0.000000 0.712463 0.353593
O O6 0.000000 0.000000 0.381574
O O7 0.638202 0.500000 0.689954
O O8 0.655547 0.275725 0.597543
O O9 0.748752 0.282623 0.715048
O O10 0.912868 0.759352 0.733107
O O11 0.000000 0.000000 0.755705
O O12 0.780725 0.500000 0.942878
O O13 0.809709 0.287280 0.848047
O O14 0.754129 0.229541 0.981180
O O15 0.332720 0.500000 0.508787
O O16 0.415386 0.261733 0.468185
O O17 0.850711 0.500000 0.756451
O O18 0.500000 0.500000 0.432961
#
# Coordination Sequence:
#
# PCOD8177445 Si02
#       8
#     4   4   8   4   8   8   8   4
#     4  11  22  35  55  81 106 133 166 212 264 307
#     4   8  16  32  51  72 103 141 175 209 255 308
#     4  10  21  37  56  76 102 140 178 210 251 308
#     4  10  18  28  49  80 107 133 171 221 269 306
#     4   9  17  31  52  76 102 134 171 211 254 299
#     4  10  20  35  54  75 102 135 169 208 254 303
#     4   9  18  34  54  75 103 140 179 216 255 305
#     4   9  19  35  53  75 104 133 160 200 258 309
#
# _framework density 18.630375000000001
#
# number of rings (size 3 to 8) (size 9 to 14) (size 15 to 20)
#    0.000    2.500    0.000    3.500    0.000    5.333 
#    0.000    2.083    0.000    3.000    0.000    0.000 
#    0.000    0.000    0.000    0.000    0.000    0.000 
#
# Total GULP energy -297559.287241 kJ/mol
# GULP energy per Si atom -12398.303635 kJ/mol
# Density = 1.858797 g / cm^3
# Si number density = 18.630375 Si / 1000 Ang^3
#
#
#
# Elastic Constant Matrix: (Units=GPa)
#
#
# Indices 1 2 3 4 5 6 
#
# 1 180.7675 56.8568 88.4073 0.0000 0.0000 0.0000
# 2 56.8568 53.8806 40.5111 0.0000 0.0000 0.0000
# 3 88.4073 40.5111 123.0996 0.0000 0.0000 0.0000
# 4 0.0000 0.0000 0.0000 16.4848 0.0000 0.0000
# 5 0.0000 0.0000 0.0000 0.0000 -25.4555 0.0000
# 6 0.0000 0.0000 0.0000 0.0000 0.0000 24.7112
#
#
#
# Elastic Compliance Matrix: (Units=1/GPa)
#
#
# Indices 1 2 3 4 5 6 
#
# 1 0.010176 -0.006967 -0.005015 0.000000 0.000000 0.000000
# 2 -0.006967 0.029432 -0.004682 0.000000 0.000000 0.000000
# 3 -0.005015 -0.004682 0.013266 0.000000 0.000000 0.000000
# 4 0.000000 0.000000 0.000000 0.060662 0.000000 0.000000
# 5 0.000000 0.000000 0.000000 0.000000 -0.039284 0.000000
# 6 0.000000 0.000000 0.000000 0.000000 0.000000 0.040467
#
#
# Mechanical properties :
#
#
# Convention : Reuss Voigt Hill
#
# Bulk Modulus (GPa) = 51.16430 81.03312 66.09871
# Shear Modulus (GPa) = 32.34887 14.61293 23.48090
#
# Velocity S-wave (km/s) = 4.17148 2.80368 3.55400
# Velocity P-wave (km/s) = 7.12208 7.35326 7.23859
#
# Compressibility (1/GPa) = 0.01954488
#
# Stress axis : x y z
#
# Youngs Moduli (GPa) = 98.26711 33.97647 75.37888
#
# Poissons Ratio (x) = 0.23673 0.37806
# Poissons Ratio (y) = 0.68467 0.35292
# Poissons Ratio (z) = 0.49286 0.15908
#
# Static dielectric constant tensor:
#      x y z
#    x 3.997050 0.000000 0.000000 
#    y 0.000000 3.191930 0.000000 
#    z 0.000000 0.000000 3.323150 
# 
# 
# High freq. dielectric constant tensor:
#      x y z
#    x 1.745720 0.000000 0.000000 
#    y 0.000000 1.705410 0.000000 
#    z 0.000000 0.000000 1.701070 
# 
# From -- ./inp_files/18221.got.cif
#   From: 2010.03.12/outbox.cif.g09.slc.cpg/sg38_10_cif.got.tgz:18221.got - 2010.04.14 02:38:36.
