data_PCOD8177663
_publ_section_title
;
Structure prediction by ZEFSAII (Michael W. Deem and Ramdas Pophale) SiO2 
 PCOD8177663
Probable space group: A M M 2
;
_chemical_formula_sum "Si O2"
_cell_formula_units_Z 48
_cell_length_a 9.644823
_cell_length_b 12.279700
_cell_length_c 22.500479
_cell_angle_alpha 90.000000
_cell_angle_beta 90.000000
_cell_angle_gamma 90.000000
_cell_volume 2664.856223
_symmetry_space_group_name_H-M "A M M 2"
_symmetry_group_IT_number 38
_symmetry_cell_setting 'orthorhombic'
loop_
_space_group_symop_operation_xyz
x,y,z
-x,-y,z
-x,y,z
x,-y,z
x,1/2+y,1/2+z
-x,1/2-y,1/2+z
-x,1/2+y,1/2+z
x,1/2-y,1/2+z
loop_
_atom_site_type_symbol
_atom_site_label
_atom_site_fract_x
_atom_site_fract_y
_atom_site_fract_z
Si Si1 0.835273 0.500000 0.673380
Si Si2 0.344291 0.876966 0.627051
Si Si3 0.656832 0.876925 0.766476
Si Si4 0.164525 0.733212 0.849182
Si Si5 0.164302 0.379789 0.456039
Si Si6 0.835523 0.187493 0.085682
Si Si7 0.836274 0.500000 0.807789
O O1 0.783633 0.606698 0.637816
O O2 0.773686 0.500000 0.740461
O O3 0.000000 0.500000 0.674184
O O4 0.500000 0.838537 0.611235
O O5 0.319809 0.868801 0.696797
O O6 0.232843 0.804508 0.593335
O O7 0.320990 0.000000 0.605121
O O8 0.500000 0.842604 0.783526
O O9 0.767329 0.796738 0.795009
O O10 0.685172 0.000000 0.788249
O O11 0.218822 0.786689 0.910750
O O12 0.211484 0.606729 0.844634
O O13 0.000000 0.744616 0.842375
O O14 0.217627 0.500000 0.436309
O O15 0.217217 0.357403 0.522438
O O16 0.000000 0.378326 0.455615
O O17 0.000000 0.201403 0.086816
O O18 0.000000 0.500000 0.800900
#
# Coordination Sequence:
#
# PCOD8177663 Si02
#       7
#     4   8   8   8   8   8   4
#     4   9  16  28  49  73 103 133 162 209 260 300
#     4   9  19  35  51  70 102 137 165 203 259 311
#     4   9  18  33  52  74 101 132 166 208 259 305
#     4  10  19  32  51  75 104 136 171 208 246 299
#     4   9  17  31  50  74 103 133 167 210 261 302
#     4  10  18  31  52  76  99 130 173 215 252 301
#     4   9  18  30  45  73 105 135 166 203 254 300
#
# _framework density 18.012229000000001
#
# number of rings (size 3 to 8) (size 9 to 14) (size 15 to 20)
#    0.000    2.667    0.833    2.500    0.000    3.333 
#    1.500    3.333    0.000    4.000    0.000    0.000 
#    0.000    0.000    0.000    0.000    0.000    0.000 
#
# Total GULP energy -297514.054225 kJ/mol
# GULP energy per Si atom -12396.418926 kJ/mol
# Density = 1.797123 g / cm^3
# Si number density = 18.012229 Si / 1000 Ang^3
#
#
#
# Elastic Constant Matrix: (Units=GPa)
#
#
# Indices 1 2 3 4 5 6 
#
# 1 31.3705 34.3608 17.6605 0.0000 0.0000 0.0000
# 2 34.3608 144.3131 69.1371 0.0000 0.0000 0.0000
# 3 17.6605 69.1371 95.0702 0.0000 0.0000 0.0000
# 4 0.0000 0.0000 0.0000 30.6518 0.0000 0.0000
# 5 0.0000 0.0000 0.0000 0.0000 15.0688 0.0000
# 6 0.0000 0.0000 0.0000 0.0000 0.0000 19.9768
#
#
#
# Elastic Compliance Matrix: (Units=1/GPa)
#
#
# Indices 1 2 3 4 5 6 
#
# 1 0.043167 -0.009878 -0.000835 0.000000 0.000000 0.000000
# 2 -0.009878 0.012895 -0.007542 0.000000 0.000000 0.000000
# 3 -0.000835 -0.007542 0.016159 0.000000 0.000000 0.000000
# 4 0.000000 0.000000 0.000000 0.032624 0.000000 0.000000
# 5 0.000000 0.000000 0.000000 0.000000 0.066362 0.000000
# 6 0.000000 0.000000 0.000000 0.000000 0.000000 0.050058
#
#
# Mechanical properties :
#
#
# Convention : Reuss Voigt Hill
#
# Bulk Modulus (GPa) = 28.00413 57.00785 42.50599
# Shear Modulus (GPa) = 18.54058 23.11251 20.82655
#
# Velocity S-wave (km/s) = 3.21180 3.58600 3.40405
# Velocity P-wave (km/s) = 5.41620 6.99029 6.25298
#
# Compressibility (1/GPa) = 0.03570901
#
# Stress axis : x y z
#
# Youngs Moduli (GPa) = 23.16598 77.55176 61.88616
#
# Poissons Ratio (x) = 0.76603 0.05170
# Poissons Ratio (y) = 0.22883 0.46677
# Poissons Ratio (z) = 0.01935 0.58492
#
# Static dielectric constant tensor:
#      x y z
#    x 2.952680 0.000000 0.000000 
#    y 0.000000 3.645980 0.000000 
#    z 0.000000 0.000000 3.391690 
# 
# 
# High freq. dielectric constant tensor:
#      x y z
#    x 1.656610 0.000000 0.000000 
#    y 0.000000 1.707260 0.000000 
#    z 0.000000 0.000000 1.693220 
# 
# From -- ./inp_files/20627.got.cif
#   From: 2010.03.12/outbox.cif.g09.slc.cpg/sg38_11_cif.got.tgz:20627.got - 2010.04.14 02:38:36.
