data_PCOD8177532
_publ_section_title
;
Structure prediction by ZEFSAII (Michael W. Deem and Ramdas Pophale) SiO2 
 PCOD8177532
Probable space group: A M M 2
;
_chemical_formula_sum "Si O2"
_cell_formula_units_Z 64
_cell_length_a 14.147866
_cell_length_b 9.148126
_cell_length_c 30.910701
_cell_angle_alpha 90.000000
_cell_angle_beta 90.000000
_cell_angle_gamma 90.000000
_cell_volume 4000.662631
_symmetry_space_group_name_H-M "A M M 2"
_symmetry_group_IT_number 38
_symmetry_cell_setting 'orthorhombic'
loop_
_space_group_symop_operation_xyz
x,y,z
-x,-y,z
-x,y,z
x,-y,z
x,1/2+y,1/2+z
-x,1/2-y,1/2+z
-x,1/2+y,1/2+z
x,1/2-y,1/2+z
loop_
_atom_site_type_symbol
_atom_site_label
_atom_site_fract_x
_atom_site_fract_y
_atom_site_fract_z
Si Si1 0.608794 0.328361 0.363440
Si Si2 0.105708 0.833495 0.485581
Si Si3 0.609625 0.829006 0.183736
Si Si4 0.611944 0.660919 0.780134
Si Si5 0.292569 0.830588 0.440710
Si Si6 0.277389 0.326339 0.110097
Si Si7 0.108238 0.670020 0.573521
Si Si8 0.605675 0.326497 0.027432
O O1 0.500000 0.280613 0.371196
O O2 0.620336 0.500000 0.364554
O O3 0.646155 0.273266 0.316836
O O4 0.674433 0.260779 0.399941
O O5 0.180335 0.803982 0.447234
O O6 0.127479 0.727839 0.525324
O O7 0.000000 0.807515 0.467178
O O8 0.118342 0.000000 0.502577
O O9 0.500000 0.787650 0.177231
O O10 0.644962 0.790196 0.232332
O O11 0.671616 0.728952 0.152869
O O12 0.625704 0.000000 0.173972
O O13 0.500000 0.652298 0.778889
O O14 0.652794 0.500000 0.791232
O O15 0.346192 0.771871 0.483291
O O16 0.316105 0.000000 0.432294
O O17 0.269186 0.500000 0.111621
O O18 0.173118 0.256469 0.107608
O O19 0.335892 0.269312 0.068516
O O20 0.133953 0.500000 0.574559
O O21 0.000000 0.698325 0.587036
O O22 0.500000 0.261420 0.029879
O O23 0.603424 0.500000 0.028263
#
# Coordination Sequence:
#
# PCOD8177532 Si02
#       8
#     8   8   8   8   8   8   8   8
#     4  10  20  31  44  67  97 124 155 197 238 274
#     4   9  17  31  50  70  91 116 153 200 242 281
#     4   9  18  32  49  71  99 128 159 195 235 281
#     4   8  15  30  50  68  89 122 160 194 231 277
#     4  10  18  30  47  66  90 125 160 189 229 280
#     4  11  20  31  47  69  96 128 163 197 235 279
#     4  10  20  33  49  68  91 121 157 200 247 288
#     4   9  17  28  41  61  91 125 160 190 216 261
#
# _framework density 15.997349
#
# number of rings (size 3 to 8) (size 9 to 14) (size 15 to 20)
#    0.000    2.500    1.250    2.625    0.000    3.750 
#    0.000    1.250    0.000    2.250    0.000    0.875 
#    0.000    3.000    0.000    0.000    0.000    0.000 
#
# Total GULP energy -396756.500861 kJ/mol
# GULP energy per Si atom -12398.640652 kJ/mol
# Density = 1.596094 g / cm^3
# Si number density = 15.997349 Si / 1000 Ang^3
#
#
#
# Elastic Constant Matrix: (Units=GPa)
#
#
# Indices 1 2 3 4 5 6 
#
# 1 93.1350 47.0661 52.6147 0.0000 0.0000 0.0000
# 2 47.0661 74.4048 53.2684 0.0000 0.0000 0.0000
# 3 52.6147 53.2684 115.3253 0.0000 0.0000 0.0000
# 4 0.0000 0.0000 0.0000 28.4607 0.0000 0.0000
# 5 0.0000 0.0000 0.0000 0.0000 12.2430 0.0000
# 6 0.0000 0.0000 0.0000 0.0000 0.0000 21.3012
#
#
#
# Elastic Compliance Matrix: (Units=1/GPa)
#
#
# Indices 1 2 3 4 5 6 
#
# 1 0.017028 -0.007784 -0.004174 0.000000 0.000000 0.000000
# 2 -0.007784 0.023638 -0.007367 0.000000 0.000000 0.000000
# 3 -0.004174 -0.007367 0.013978 0.000000 0.000000 0.000000
# 4 0.000000 0.000000 0.000000 0.035136 0.000000 0.000000
# 5 0.000000 0.000000 0.000000 0.000000 0.081679 0.000000
# 6 0.000000 0.000000 0.000000 0.000000 0.000000 0.046946
#
#
# Mechanical properties :
#
#
# Convention : Reuss Voigt Hill
#
# Bulk Modulus (GPa) = 62.51695 65.41819 63.96757
# Shear Modulus (GPa) = 19.05586 21.06204 20.05895
#
# Velocity S-wave (km/s) = 3.45510 3.63243 3.54488
# Velocity P-wave (km/s) = 7.42168 7.65341 7.53844
#
# Compressibility (1/GPa) = 0.01599566
#
# Stress axis : x y z
#
# Youngs Moduli (GPa) = 58.72557 42.30463 71.54026
#
# Poissons Ratio (x) = 0.32928 0.29858
# Poissons Ratio (y) = 0.45710 0.52706
# Poissons Ratio (z) = 0.24510 0.31167
#
# Static dielectric constant tensor:
#      x y z
#    x 3.071590 0.000000 0.000000 
#    y 0.000000 2.982600 0.000000 
#    z 0.000000 0.000000 3.023270 
# 
# 
# High freq. dielectric constant tensor:
#      x y z
#    x 1.599030 0.000000 0.000000 
#    y 0.000000 1.609710 0.000000 
#    z 0.000000 0.000000 1.601650 
# 
# From -- ./inp_files/25054.got.cif
#   From: 2010.03.12/outbox.cif.g09.slc.cpg/sg38_13_cif.got.tgz:25054.got - 2010.04.14 02:38:36.
