data_PCOD8177130
_publ_section_title
;
Structure prediction by ZEFSAII (Michael W. Deem and Ramdas Pophale) SiO2 
 PCOD8177130
Probable space group: C C C 2
;
_chemical_formula_sum "Si O2"
_cell_formula_units_Z 40
_cell_length_a 10.649889
_cell_length_b 8.935503
_cell_length_c 18.112707
_cell_angle_alpha 90.000000
_cell_angle_beta 90.000000
_cell_angle_gamma 90.000000
_cell_volume 1723.643508
_symmetry_space_group_name_H-M "C C C 2"
_symmetry_group_IT_number 37
_symmetry_cell_setting 'orthorhombic'
loop_
_space_group_symop_operation_xyz
x,y,z
-x,-y,z
-x,y,1/2+z
x,-y,1/2+z
1/2+x,1/2+y,z
1/2-x,1/2-y,z
1/2-x,1/2+y,1/2+z
1/2+x,1/2-y,1/2+z
loop_
_atom_site_type_symbol
_atom_site_label
_atom_site_fract_x
_atom_site_fract_y
_atom_site_fract_z
Si Si1 0.635944 0.647009 0.488170
Si Si2 0.120948 0.171464 0.927453
Si Si3 0.637957 0.441049 0.156571
Si Si4 0.819294 0.390432 0.750322
Si Si5 0.908485 0.298663 0.269709
O O1 0.750000 0.750000 0.461947
O O2 0.498092 0.724438 0.478305
O O3 0.640379 0.505232 0.434442
O O4 0.656645 0.599819 0.572063
O O5 0.250000 0.250000 0.952956
O O6 0.081443 0.203383 0.843656
O O7 0.500000 0.500000 0.174059
O O8 0.739561 0.570957 0.176264
O O9 0.663944 0.296289 0.207607
O O10 0.750000 0.250000 0.791991
O O11 0.832114 0.549232 0.793909
O O12 0.959157 0.337139 0.732161
#
# Coordination Sequence:
#
# PCOD8177130 Si02
#       5
#     8   8   8   8   8
#     4  11  27  48  73 105 147 201 247 297 367 444
#     4  11  26  47  70 104 150 193 248 305 373 441
#     4  12  23  46  75 105 147 191 240 308 368 437
#     4  11  24  42  72 106 139 181 237 304 376 431
#     4  11  26  44  71 107 143 185 243 307 369 445
#
# _framework density 23.206655000000001
#
# number of rings (size 3 to 8) (size 9 to 14) (size 15 to 20)
#    0.000    0.800    4.000    3.000    2.800   12.000 
#    0.000    0.000    0.000    0.000    0.000    0.000 
#    0.000    0.000    0.000    0.000    0.000    0.000 
#
# Total GULP energy -247816.741468 kJ/mol
# GULP energy per Si atom -12390.837073 kJ/mol
# Density = 2.315384 g / cm^3
# Si number density = 23.206655 Si / 1000 Ang^3
#
#
#
# Elastic Constant Matrix: (Units=GPa)
#
#
# Indices 1 2 3 4 5 6 
#
# 1 219.1464 72.1785 39.1454 0.0000 0.0000 0.0000
# 2 72.1785 153.7702 58.8440 0.0000 0.0000 0.0000
# 3 39.1454 58.8440 124.3932 0.0000 0.0000 0.0000
# 4 0.0000 0.0000 0.0000 11.4837 0.0000 0.0000
# 5 0.0000 0.0000 0.0000 0.0000 8.0172 0.0000
# 6 0.0000 0.0000 0.0000 0.0000 0.0000 53.6500
#
#
#
# Elastic Compliance Matrix: (Units=1/GPa)
#
#
# Indices 1 2 3 4 5 6 
#
# 1 0.005436 -0.002316 -0.000615 0.000000 0.000000 0.000000
# 2 -0.002316 0.008928 -0.003494 0.000000 0.000000 0.000000
# 3 -0.000615 -0.003494 0.009886 0.000000 0.000000 0.000000
# 4 0.000000 0.000000 0.000000 0.087080 0.000000 0.000000
# 5 0.000000 0.000000 0.000000 0.000000 0.124732 0.000000
# 6 0.000000 0.000000 0.000000 0.000000 0.000000 0.018639
#
#
# Mechanical properties :
#
#
# Convention : Reuss Voigt Hill
#
# Bulk Modulus (GPa) = 87.73408 93.07172 90.40290
# Shear Modulus (GPa) = 18.42635 36.43964 27.43299
#
# Velocity S-wave (km/s) = 2.82088 3.96690 3.44192
# Velocity P-wave (km/s) = 6.96401 7.82141 7.40513
#
# Compressibility (1/GPa) = 0.01139808
#
# Stress axis : x y z
#
# Youngs Moduli (GPa) = 183.96265 112.01199 101.15824
#
# Poissons Ratio (x) = 0.25945 0.06221
# Poissons Ratio (y) = 0.42610 0.35348
# Poissons Ratio (z) = 0.11312 0.39140
#
# Static dielectric constant tensor:
#      x y z
#    x 5.093750 0.000000 0.000000 
#    y 0.000000 4.747590 0.000000 
#    z 0.000000 0.000000 3.708200 
# 
# 
# High freq. dielectric constant tensor:
#      x y z
#    x 1.957090 0.000000 0.000000 
#    y 0.000000 1.927430 0.000000 
#    z 0.000000 0.000000 1.882050 
# 
# From -- ./inp_files/14220.got.cif
#   From: 2010.03.12/outbox.cif.g09.slc.cpg/sg37_8_cif.got.tgz:14220.got - 2010.04.14 02:25:27.
