data_PCOD8177321
_publ_section_title
;
Structure prediction by ZEFSAII (Michael W. Deem and Ramdas Pophale) SiO2 
 PCOD8177321
Probable space group: A M M 2
;
_chemical_formula_sum "Si O2"
_cell_formula_units_Z 48
_cell_length_a 8.649320
_cell_length_b 18.470608
_cell_length_c 14.923260
_cell_angle_alpha 90.000000
_cell_angle_beta 90.000000
_cell_angle_gamma 90.000000
_cell_volume 2384.113144
_symmetry_space_group_name_H-M "A M M 2"
_symmetry_group_IT_number 38
_symmetry_cell_setting 'orthorhombic'
loop_
_space_group_symop_operation_xyz
x,y,z
-x,-y,z
-x,y,z
x,-y,z
x,1/2+y,1/2+z
-x,1/2-y,1/2+z
-x,1/2+y,1/2+z
x,1/2-y,1/2+z
loop_
_atom_site_type_symbol
_atom_site_label
_atom_site_fract_x
_atom_site_fract_y
_atom_site_fract_z
Si Si1 0.823069 0.077609 0.277250
Si Si2 0.816494 0.500000 0.449466
Si Si3 0.681167 0.348345 0.201240
Si Si4 0.183700 0.000000 0.749088
Si Si5 0.823197 0.120466 0.079972
Si Si6 0.817710 0.730767 0.838179
Si Si7 0.323108 0.760227 0.529896
O O1 0.811147 0.075193 0.170439
O O2 0.744561 0.151378 0.314350
O O3 0.000000 0.078919 0.308893
O O4 0.749667 0.000000 0.311105
O O5 0.750972 0.500000 0.349913
O O6 0.757926 0.571850 0.498989
O O7 0.000000 0.500000 0.453291
O O8 0.500000 0.352520 0.219753
O O9 0.754722 0.427719 0.202993
O O10 0.749162 0.294276 0.276385
O O11 0.716858 0.324163 0.099256
O O12 0.000000 0.000000 0.746138
O O13 0.000000 0.145744 0.063321
O O14 0.710558 0.188570 0.087142
O O15 0.784770 0.742270 0.942710
O O16 0.000000 0.731752 0.820023
O O17 0.500000 0.763825 0.498453
#
# Coordination Sequence:
#
# PCOD8177321 Si02
#       7
#     8   4   8   4   8   8   8
#     4   9  17  32  57  89 122 152 187 242 306 358
#     4   9  18  31  55  90 119 146 182 242 308 360
#     4  11  24  43  64  86 124 168 206 253 313 376
#     4  11  23  39  61  92 123 156 208 258 308 368
#     4  10  17  32  59  87 117 150 191 241 298 360
#     4  11  22  38  64  93 121 156 207 260 307 364
#     4  11  24  40  59  85 120 163 206 247 304 370
#
# _framework density 20.133272000000002
#
# number of rings (size 3 to 8) (size 9 to 14) (size 15 to 20)
#    0.000    1.667    2.500    2.750    0.000    3.333 
#    1.500    1.250    0.000    3.500    0.000    0.000 
#    0.000    0.000    0.000    0.000    0.000    0.000 
#
# Total GULP energy -297467.143723 kJ/mol
# GULP energy per Si atom -12394.464322 kJ/mol
# Density = 2.008745 g / cm^3
# Si number density = 20.133272 Si / 1000 Ang^3
#
#
#
# Elastic Constant Matrix: (Units=GPa)
#
#
# Indices 1 2 3 4 5 6 
#
# 1 56.4938 38.9430 30.6165 0.0000 0.0000 0.0000
# 2 38.9430 168.3265 34.9868 0.0000 0.0000 0.0000
# 3 30.6165 34.9868 73.6620 0.0000 0.0000 0.0000
# 4 0.0000 0.0000 0.0000 30.9054 0.0000 0.0000
# 5 0.0000 0.0000 0.0000 0.0000 21.7633 0.0000
# 6 0.0000 0.0000 0.0000 0.0000 0.0000 20.0506
#
#
#
# Elastic Compliance Matrix: (Units=1/GPa)
#
#
# Indices 1 2 3 4 5 6 
#
# 1 0.025098 -0.004037 -0.008514 0.000000 0.000000 0.000000
# 2 -0.004037 0.007241 -0.001761 0.000000 0.000000 0.000000
# 3 -0.008514 -0.001761 0.017951 0.000000 0.000000 0.000000
# 4 0.000000 0.000000 0.000000 0.032357 0.000000 0.000000
# 5 0.000000 0.000000 0.000000 0.000000 0.045949 0.000000
# 6 0.000000 0.000000 0.000000 0.000000 0.000000 0.049874
#
#
# Mechanical properties :
#
#
# Convention : Reuss Voigt Hill
#
# Bulk Modulus (GPa) = 46.15742 56.39722 51.27732
# Shear Modulus (GPa) = 23.33005 27.47292 25.40149
#
# Velocity S-wave (km/s) = 3.40778 3.69799 3.55585
# Velocity P-wave (km/s) = 6.20159 6.80487 6.51022
#
# Compressibility (1/GPa) = 0.02166499
#
# Stress axis : x y z
#
# Youngs Moduli (GPa) = 39.84374 138.10517 55.70749
#
# Poissons Ratio (x) = 0.55751 0.47431
# Poissons Ratio (y) = 0.16084 0.09812
# Poissons Ratio (z) = 0.33924 0.24324
#
# Static dielectric constant tensor:
#      x y z
#    x 3.382360 0.000000 0.000000 
#    y 0.000000 3.949430 0.000000 
#    z 0.000000 0.000000 3.620230 
# 
# 
# High freq. dielectric constant tensor:
#      x y z
#    x 1.757940 0.000000 0.000000 
#    y 0.000000 1.804460 0.000000 
#    z 0.000000 0.000000 1.781370 
# 
# From -- ./inp_files/12102.got.cif
#   From: 2010.03.12/outbox.cif.g09.slc.cpg/sg38_7_cif.got.tgz:12102.got - 2010.04.14 02:38:36.
