data_PCOD8177792
_publ_section_title
;
Structure prediction by ZEFSAII (Michael W. Deem and Ramdas Pophale) SiO2 
 PCOD8177792
Probable space group: A M M 2
;
_chemical_formula_sum "Si O2"
_cell_formula_units_Z 48
_cell_length_a 14.082188
_cell_length_b 8.909616
_cell_length_c 20.115793
_cell_angle_alpha 90.000000
_cell_angle_beta 90.000000
_cell_angle_gamma 90.000000
_cell_volume 2523.865938
_symmetry_space_group_name_H-M "A M M 2"
_symmetry_group_IT_number 38
_symmetry_cell_setting 'orthorhombic'
loop_
_space_group_symop_operation_xyz
x,y,z
-x,-y,z
-x,y,z
x,-y,z
x,1/2+y,1/2+z
-x,1/2-y,1/2+z
-x,1/2+y,1/2+z
x,1/2-y,1/2+z
loop_
_atom_site_type_symbol
_atom_site_label
_atom_site_fract_x
_atom_site_fract_y
_atom_site_fract_z
Si Si1 0.500000 0.821739 0.407920
Si Si2 0.691013 0.823846 0.872362
Si Si3 0.000000 0.679871 0.545345
Si Si4 0.793500 0.826325 0.735885
Si Si5 0.500000 0.176942 0.560492
Si Si6 0.000000 0.325168 0.188370
Si Si7 0.320390 0.828311 0.121549
Si Si8 0.193803 0.671688 0.494665
O O1 0.409064 0.761039 0.367820
O O2 0.500000 0.760684 0.484466
O O3 0.500000 0.000000 0.405994
O O4 0.758013 0.791315 0.809846
O O5 0.669272 0.000000 0.880960
O O6 0.746357 0.752124 0.935717
O O7 0.000000 0.734924 0.620447
O O8 0.089967 0.743793 0.504530
O O9 0.000000 0.500000 0.549085
O O10 0.727194 0.728412 0.688700
O O11 0.905117 0.782388 0.730148
O O12 0.778894 0.000000 0.717250
O O13 0.410327 0.230677 0.602060
O O14 0.500000 0.000000 0.558075
O O15 0.000000 0.500000 0.170896
O O16 0.243741 0.809513 0.064585
O O17 0.352442 0.000000 0.130615
O O18 0.181424 0.500000 0.473532
#
# Coordination Sequence:
#
# PCOD8177792 Si02
#       8
#     4   8   4   8   4   4   8   8
#     4  11  23  38  59  86 113 147 187 238 295 344
#     4  10  21  39  60  83 115 154 192 234 285 346
#     4  10  18  33  57  87 115 147 192 240 285 331
#     4  10  22  38  58  85 119 157 192 234 289 344
#     4  11  23  38  59  88 119 151 189 238 293 348
#     4  10  20  35  55  83 117 153 192 232 285 347
#     4  11  21  36  60  87 114 148 193 241 283 335
#     4   9  18  32  56  86 111 142 190 238 278 327
#
# _framework density 19.018442
#
# number of rings (size 3 to 8) (size 9 to 14) (size 15 to 20)
#    0.000    1.833    3.333    1.000    0.000    2.667 
#    0.000    5.000    0.000    0.000    0.000    2.333 
#    0.000    0.000    0.000    0.000    0.000    0.000 
#
# Total GULP energy -297581.672503 kJ/mol
# GULP energy per Si atom -12399.236354 kJ/mol
# Density = 1.897516 g / cm^3
# Si number density = 19.018442 Si / 1000 Ang^3
#
#
#
# Elastic Constant Matrix: (Units=GPa)
#
#
# Indices 1 2 3 4 5 6 
#
# 1 140.9107 36.2654 31.9944 0.0000 0.0000 0.0000
# 2 36.2654 48.6033 25.9865 0.0000 0.0000 0.0000
# 3 31.9944 25.9865 77.5987 0.0000 0.0000 0.0000
# 4 0.0000 0.0000 0.0000 27.0295 0.0000 0.0000
# 5 0.0000 0.0000 0.0000 0.0000 38.9457 0.0000
# 6 0.0000 0.0000 0.0000 0.0000 0.0000 21.3103
#
#
#
# Elastic Compliance Matrix: (Units=1/GPa)
#
#
# Indices 1 2 3 4 5 6 
#
# 1 0.008980 -0.005751 -0.001777 0.000000 0.000000 0.000000
# 2 -0.005751 0.028745 -0.007255 0.000000 0.000000 0.000000
# 3 -0.001777 -0.007255 0.016049 0.000000 0.000000 0.000000
# 4 0.000000 0.000000 0.000000 0.036997 0.000000 0.000000
# 5 0.000000 0.000000 0.000000 0.000000 0.025677 0.000000
# 6 0.000000 0.000000 0.000000 0.000000 0.000000 0.046926
#
#
# Mechanical properties :
#
#
# Convention : Reuss Voigt Hill
#
# Bulk Modulus (GPa) = 41.30723 50.62281 45.96502
# Shear Modulus (GPa) = 24.87475 28.98153 26.92814
#
# Velocity S-wave (km/s) = 3.62045 3.90791 3.76692
# Velocity P-wave (km/s) = 6.26447 6.85841 6.56816
#
# Compressibility (1/GPa) = 0.02420884
#
# Stress axis : x y z
#
# Youngs Moduli (GPa) = 111.35735 34.78922 62.30912
#
# Poissons Ratio (x) = 0.20006 0.11071
# Poissons Ratio (y) = 0.64036 0.45206
# Poissons Ratio (z) = 0.19786 0.25240
#
# Static dielectric constant tensor:
#      x y z
#    x 3.695190 0.000000 0.000000 
#    y 0.000000 3.314070 0.000000 
#    z 0.000000 0.000000 3.454460 
# 
# 
# High freq. dielectric constant tensor:
#      x y z
#    x 1.758700 0.000000 0.000000 
#    y 0.000000 1.717900 0.000000 
#    z 0.000000 0.000000 1.735770 
# 
# From -- ./inp_files/18244.got.cif
#   From: 2010.03.12/outbox.cif.g09.slc.cpg/sg38_10_cif.got.tgz:18244.got - 2010.04.14 02:38:36.
