data_PCOD8177699
_publ_section_title
;
Structure prediction by ZEFSAII (Michael W. Deem and Ramdas Pophale) SiO2 
 PCOD8177699
Probable space group: A M M 2
;
_chemical_formula_sum "Si O2"
_cell_formula_units_Z 64
_cell_length_a 8.767065
_cell_length_b 24.899278
_cell_length_c 15.286747
_cell_angle_alpha 90.000000
_cell_angle_beta 90.000000
_cell_angle_gamma 90.000000
_cell_volume 3336.998862
_symmetry_space_group_name_H-M "A M M 2"
_symmetry_group_IT_number 38
_symmetry_cell_setting 'orthorhombic'
loop_
_space_group_symop_operation_xyz
x,y,z
-x,-y,z
-x,y,z
x,-y,z
x,1/2+y,1/2+z
-x,1/2-y,1/2+z
-x,1/2+y,1/2+z
x,1/2-y,1/2+z
loop_
_atom_site_type_symbol
_atom_site_label
_atom_site_fract_x
_atom_site_fract_y
_atom_site_fract_z
Si Si1 0.681229 0.440418 0.965360
Si Si2 0.819693 0.337456 0.282708
Si Si3 0.680586 0.856796 0.960365
Si Si4 0.318403 0.560713 0.607179
Si Si5 0.320329 0.890880 0.287527
Si Si6 0.680909 0.350716 0.099239
Si Si7 0.824907 0.760409 0.056460
Si Si8 0.827606 0.283104 0.756340
O O1 0.500000 0.440046 0.960448
O O2 0.743475 0.500000 0.985655
O O3 0.747363 0.421703 0.871466
O O4 0.736154 0.401257 0.042193
O O5 0.756842 0.369254 0.366661
O O6 0.741182 0.361510 0.196673
O O7 0.774836 0.274734 0.291929
O O8 0.000000 0.344423 0.272913
O O9 0.500000 0.858361 0.950675
O O10 0.740455 0.902183 0.027629
O O11 0.731529 0.797981 0.991130
O O12 0.500000 0.562177 0.610305
O O13 0.259036 0.500000 0.592787
O O14 0.251154 0.583397 0.698724
O O15 0.500000 0.896656 0.285027
O O16 0.280026 0.828220 0.297145
O O17 0.500000 0.343645 0.100849
O O18 0.753964 0.298630 0.054423
O O19 0.811572 0.785291 0.152265
O O20 0.000000 0.757244 0.025230
O O21 0.000000 0.295058 0.785295
#
# Coordination Sequence:
#
# PCOD8177699 Si02
#       8
#     8   8   8   8   8   8   8   8
#     4   9  19  35  56  84 114 144 185 236 288 333
#     4  10  22  39  56  78 112 154 188 230 293 351
#     4  11  21  34  56  86 114 146 192 240 279 330
#     4   9  18  33  54  82 115 148 185 230 281 332
#     4  10  18  31  55  84 112 146 182 223 271 328
#     4  10  20  36  58  84 111 144 192 244 284 332
#     4  10  20  35  54  78 115 155 184 223 282 342
#     4   9  19  34  51  75 109 148 183 217 269 330
#
# _framework density 19.178909999999998
#
# number of rings (size 3 to 8) (size 9 to 14) (size 15 to 20)
#    0.000    2.250    1.250    2.625    1.750    4.000 
#    0.000    1.250    0.000   11.250    0.000    0.000 
#    0.000    0.000    0.000    0.000    0.000    0.000 
#
# Total GULP energy -396826.100417 kJ/mol
# GULP energy per Si atom -12400.815638 kJ/mol
# Density = 1.913526 g / cm^3
# Si number density = 19.178910 Si / 1000 Ang^3
#
#
#
# Elastic Constant Matrix: (Units=GPa)
#
#
# Indices 1 2 3 4 5 6 
#
# 1 33.5996 23.3934 12.9510 0.0000 0.0000 0.0000
# 2 23.3934 132.5644 76.8319 0.0000 0.0000 0.0000
# 3 12.9510 76.8319 121.7171 0.0000 0.0000 0.0000
# 4 0.0000 0.0000 0.0000 30.8476 0.0000 0.0000
# 5 0.0000 0.0000 0.0000 0.0000 19.8973 0.0000
# 6 0.0000 0.0000 0.0000 0.0000 0.0000 7.5887
#
#
#
# Elastic Compliance Matrix: (Units=1/GPa)
#
#
# Indices 1 2 3 4 5 6 
#
# 1 0.033937 -0.006144 0.000267 0.000000 0.000000 0.000000
# 2 -0.006144 0.013008 -0.007557 0.000000 0.000000 0.000000
# 3 0.000267 -0.007557 0.012958 0.000000 0.000000 0.000000
# 4 0.000000 0.000000 0.000000 0.032417 0.000000 0.000000
# 5 0.000000 0.000000 0.000000 0.000000 0.050258 0.000000
# 6 0.000000 0.000000 0.000000 0.000000 0.000000 0.131775
#
#
# Mechanical properties :
#
#
# Convention : Reuss Voigt Hill
#
# Bulk Modulus (GPa) = 30.27116 57.13707 43.70411
# Shear Modulus (GPa) = 16.01375 23.31371 19.66373
#
# Velocity S-wave (km/s) = 2.89271 3.49032 3.20547
# Velocity P-wave (km/s) = 5.19374 6.78965 6.04459
#
# Compressibility (1/GPa) = 0.03303474
#
# Stress axis : x y z
#
# Youngs Moduli (GPa) = 29.46665 76.87793 77.17419
#
# Poissons Ratio (x) = 0.47230 -0.02061
# Poissons Ratio (y) = 0.18103 0.58322
# Poissons Ratio (z) = -0.00787 0.58098
#
# Static dielectric constant tensor:
#      x y z
#    x 3.235710 0.000000 0.000000 
#    y 0.000000 3.535930 0.000000 
#    z 0.000000 0.000000 3.663670 
# 
# 
# High freq. dielectric constant tensor:
#      x y z
#    x 1.722630 0.000000 0.000000 
#    y 0.000000 1.737370 0.000000 
#    z 0.000000 0.000000 1.753560 
# 
# From -- ./inp_files/12830.got.cif
#   From: 2010.03.12/outbox.cif.g09.slc.cpg/sg38_7_cif.got.tgz:12830.got - 2010.04.14 02:38:36.
