data_PCOD8177237
_publ_section_title
;
Structure prediction by ZEFSAII (Michael W. Deem and Ramdas Pophale) SiO2 
 PCOD8177237
Probable space group: A M M 2
;
_chemical_formula_sum "Si O2"
_cell_formula_units_Z 64
_cell_length_a 8.678558
_cell_length_b 22.473135
_cell_length_c 20.917099
_cell_angle_alpha 90.000000
_cell_angle_beta 90.000000
_cell_angle_gamma 90.000000
_cell_volume 4079.553969
_symmetry_space_group_name_H-M "A M M 2"
_symmetry_group_IT_number 38
_symmetry_cell_setting 'orthorhombic'
loop_
_space_group_symop_operation_xyz
x,y,z
-x,-y,z
-x,y,z
x,-y,z
x,1/2+y,1/2+z
-x,1/2-y,1/2+z
-x,1/2+y,1/2+z
x,1/2-y,1/2+z
loop_
_atom_site_type_symbol
_atom_site_label
_atom_site_fract_x
_atom_site_fract_y
_atom_site_fract_z
Si Si1 0.676369 0.257104 0.199930
Si Si2 0.819527 0.342238 0.968168
Si Si3 0.820580 0.161049 0.804339
Si Si4 0.817508 0.565878 0.862505
Si Si5 0.323671 0.350843 0.101634
Si Si6 0.318663 0.432214 0.220150
Si Si7 0.318690 0.245284 0.381054
Si Si8 0.179667 0.664383 0.771797
O O1 0.500000 0.265156 0.222650
O O2 0.786566 0.294731 0.245813
O O3 0.695332 0.282984 0.128449
O O4 0.728182 0.187665 0.208353
O O5 0.757514 0.395876 0.923025
O O6 0.731488 0.280400 0.950336
O O7 0.000000 0.332253 0.958899
O O8 0.784369 0.359537 0.040863
O O9 0.759884 0.096088 0.783215
O O10 0.733360 0.186108 0.868202
O O11 0.000000 0.157416 0.819277
O O12 0.742490 0.500000 0.863799
O O13 0.773307 0.597837 0.794860
O O14 0.000000 0.561146 0.867644
O O15 0.500000 0.362806 0.081758
O O16 0.269736 0.397655 0.155625
O O17 0.500000 0.426861 0.229866
O O18 0.263006 0.500000 0.213794
O O19 0.500000 0.238448 0.371357
O O20 0.222292 0.206458 0.330862
O O21 0.000000 0.668242 0.756691
#
# Coordination Sequence:
#
# PCOD8177237 Si02
#       8
#     8   8   8   8   8   8   8   8
#     4   9  16  27  42  58  79 106 135 168 212 259
#     4  10  19  29  42  60  82 110 144 180 211 242
#     4  10  17  26  42  63  84 103 133 176 217 255
#     4   8  15  27  40  56  81 111 139 167 202 243
#     4   9  18  30  42  58  81 112 145 174 207 247
#     4   9  18  32  46  60  84 118 151 179 209 249
#     4  10  17  27  43  59  79 106 135 169 213 260
#     4   9  15  24  41  62  80 100 132 172 211 247
#
# _framework density 15.687988000000001
#
# number of rings (size 3 to 8) (size 9 to 14) (size 15 to 20)
#    0.000    2.750    0.000    6.375    0.000    3.250 
#    0.000    0.000    0.000   13.125    0.000    0.000 
#    0.000    1.000    0.000    6.500    0.000    4.250 
#
# Total GULP energy -396453.186481 kJ/mol
# GULP energy per Si atom -12389.162078 kJ/mol
# Density = 1.565228 g / cm^3
# Si number density = 15.687988 Si / 1000 Ang^3
#
#
#
# Elastic Constant Matrix: (Units=GPa)
#
#
# Indices 1 2 3 4 5 6 
#
# 1 48.1349 32.2108 19.8788 0.0000 0.0000 0.0000
# 2 32.2108 102.6396 61.6927 0.0000 0.0000 0.0000
# 3 19.8788 61.6927 41.4758 0.0000 0.0000 0.0000
# 4 0.0000 0.0000 0.0000 18.9087 0.0000 0.0000
# 5 0.0000 0.0000 0.0000 0.0000 23.5629 0.0000
# 6 0.0000 0.0000 0.0000 0.0000 0.0000 18.3072
#
#
#
# Elastic Compliance Matrix: (Units=1/GPa)
#
#
# Indices 1 2 3 4 5 6 
#
# 1 0.026340 -0.006399 -0.003106 0.000000 0.000000 0.000000
# 2 -0.006399 0.093504 -0.136014 0.000000 0.000000 0.000000
# 3 -0.003106 -0.136014 0.227911 0.000000 0.000000 0.000000
# 4 0.000000 0.000000 0.000000 0.052886 0.000000 0.000000
# 5 0.000000 0.000000 0.000000 0.000000 0.042440 0.000000
# 6 0.000000 0.000000 0.000000 0.000000 0.000000 0.054623
#
#
# Mechanical properties :
#
#
# Convention : Reuss Voigt Hill
#
# Bulk Modulus (GPa) = 17.63142 46.64610 32.13876
# Shear Modulus (GPa) = 6.19083 17.38696 11.78889
#
# Velocity S-wave (km/s) = 1.98867 3.33272 2.74425
# Velocity P-wave (km/s) = 4.06648 6.67889 5.52919
#
# Compressibility (1/GPa) = 0.05671692
#
# Stress axis : x y z
#
# Youngs Moduli (GPa) = 37.96525 10.69477 4.38768
#
# Poissons Ratio (x) = 0.06844 0.01363
# Poissons Ratio (y) = 0.24296 0.59678
# Poissons Ratio (z) = 0.11790 1.45464
#
# Static dielectric constant tensor:
#      x y z
#    x 2.923660 0.000000 0.000000 
#    y 0.000000 3.450600 0.000000 
#    z 0.000000 0.000000 2.974110 
# 
# 
# High freq. dielectric constant tensor:
#      x y z
#    x 1.603920 0.000000 0.000000 
#    y 0.000000 1.585290 0.000000 
#    z 0.000000 0.000000 1.563910 
# 
# From -- ./inp_files/22294.got.cif
#   From: 2010.03.12/outbox.cif.g09.slc.cpg/sg38_12_cif.got.tgz:22294.got - 2010.04.14 02:38:36.
