data_PCOD8177847
_publ_section_title
;
Structure prediction by ZEFSAII (Michael W. Deem and Ramdas Pophale) SiO2 
 PCOD8177847
Probable space group: A M M 2
;
_chemical_formula_sum "Si O2"
_cell_formula_units_Z 48
_cell_length_a 7.837143
_cell_length_b 16.516956
_cell_length_c 18.453330
_cell_angle_alpha 90.000000
_cell_angle_beta 90.000000
_cell_angle_gamma 90.000000
_cell_volume 2388.705070
_symmetry_space_group_name_H-M "A M M 2"
_symmetry_group_IT_number 38
_symmetry_cell_setting 'orthorhombic'
loop_
_space_group_symop_operation_xyz
x,y,z
-x,-y,z
-x,y,z
x,-y,z
x,1/2+y,1/2+z
-x,1/2-y,1/2+z
-x,1/2+y,1/2+z
x,1/2-y,1/2+z
loop_
_atom_site_type_symbol
_atom_site_label
_atom_site_fract_x
_atom_site_fract_y
_atom_site_fract_z
Si Si1 0.690112 0.500000 0.701370
Si Si2 0.194901 0.357508 0.802198
Si Si3 0.500000 0.911682 0.540152
Si Si4 0.500000 0.088254 0.708970
Si Si5 0.297514 0.152181 0.945620
Si Si6 0.297029 0.000000 0.040491
Si Si7 0.803939 0.170232 0.785325
Si Si8 0.804843 0.169456 0.464013
O O1 0.500000 0.500000 0.673945
O O2 0.713173 0.580409 0.748938
O O3 0.785290 0.500000 0.622507
O O4 0.226821 0.265987 0.778080
O O5 0.255875 0.364002 0.885462
O O6 0.000000 0.382350 0.797806
O O7 0.500000 0.921285 0.624531
O O8 0.326203 0.865863 0.521161
O O9 0.500000 0.000000 0.502759
O O10 0.674524 0.132980 0.728432
O O11 0.500000 0.000000 0.746531
O O12 0.500000 0.165014 0.949355
O O13 0.241341 0.133570 0.863650
O O14 0.202097 0.233659 0.969394
O O15 0.233437 0.080021 0.997825
O O16 0.500000 0.000000 0.039020
O O17 0.000000 0.148608 0.766205
O O18 0.000000 0.142716 0.480547
#
# Coordination Sequence:
#
# PCOD8177847 Si02
#       8
#     4   8   4   4   8   4   8   8
#     4  11  23  35  57  93 129 166 203 244 306 376
#     4   9  21  39  59  89 124 159 204 253 300 361
#     4  11  26  43  62  91 121 158 213 258 324 378
#     4  11  26  43  62  91 123 160 203 266 324 374
#     4  10  18  37  65  92 127 164 209 257 300 363
#     4   9  22  37  55  93 133 165 200 247 308 368
#     4  10  22  41  66  94 122 161 212 259 309 368
#     4  10  22  41  65  93 123 161 211 262 309 366
#
# _framework density 20.094569
#
# number of rings (size 3 to 8) (size 9 to 14) (size 15 to 20)
#    0.000    2.000    1.667    1.750    4.667    2.667 
#    0.000    7.917    0.000    0.000    0.000    0.000 
#    0.000    0.000    0.000    0.000    0.000    0.000 
#
# Total GULP energy -297494.647281 kJ/mol
# GULP energy per Si atom -12395.610303 kJ/mol
# Density = 2.004883 g / cm^3
# Si number density = 20.094569 Si / 1000 Ang^3
#
#
#
# Elastic Constant Matrix: (Units=GPa)
#
#
# Indices 1 2 3 4 5 6 
#
# 1 106.4559 29.4863 33.8759 0.0000 0.0000 0.0000
# 2 29.4863 93.1678 64.4422 0.0000 0.0000 0.0000
# 3 33.8759 64.4422 100.1413 0.0000 0.0000 0.0000
# 4 0.0000 0.0000 0.0000 25.9840 0.0000 0.0000
# 5 0.0000 0.0000 0.0000 0.0000 -4.5448 0.0000
# 6 0.0000 0.0000 0.0000 0.0000 0.0000 1.4423
#
#
#
# Elastic Compliance Matrix: (Units=1/GPa)
#
#
# Indices 1 2 3 4 5 6 
#
# 1 0.010655 -0.001584 -0.002585 0.000000 0.000000 0.000000
# 2 -0.001584 0.019579 -0.012063 0.000000 0.000000 0.000000
# 3 -0.002585 -0.012063 0.018623 0.000000 0.000000 0.000000
# 4 0.000000 0.000000 0.000000 0.038485 0.000000 0.000000
# 5 0.000000 0.000000 0.000000 0.000000 -0.220033 0.000000
# 6 0.000000 0.000000 0.000000 0.000000 0.000000 0.693336
#
#
# Mechanical properties :
#
#
# Convention : Reuss Voigt Hill
#
# Bulk Modulus (GPa) = 61.00515 61.70821 61.35668
# Shear Modulus (GPa) = 8.35320 16.04033 12.19676
#
# Velocity S-wave (km/s) = 2.04107 2.82838 2.46634
# Velocity P-wave (km/s) = 5.99830 6.43754 6.22179
#
# Compressibility (1/GPa) = 0.01639206
#
# Stress axis : x y z
#
# Youngs Moduli (GPa) = 93.85340 51.07635 53.69676
#
# Poissons Ratio (x) = 0.08092 0.13880
# Poissons Ratio (y) = 0.14868 0.64775
# Poissons Ratio (z) = 0.24260 0.61614
#
# Static dielectric constant tensor:
#      x y z
#    x 3.638690 0.000000 0.000000 
#    y 0.000000 3.841340 0.000000 
#    z 0.000000 0.000000 3.615900 
# 
# 
# High freq. dielectric constant tensor:
#      x y z
#    x 1.788160 0.000000 0.000000 
#    y 0.000000 1.789060 0.000000 
#    z 0.000000 0.000000 1.776450 
# 
# From -- ./inp_files/16766.got.cif
#   From: 2010.03.12/outbox.cif.g09.slc.cpg/sg38_9_cif.got.tgz:16766.got - 2010.04.14 02:38:36.
