data_PCOD8177240
_publ_section_title
;
Structure prediction by ZEFSAII (Michael W. Deem and Ramdas Pophale) SiO2 
 PCOD8177240
Probable space group: A M M 2
;
_chemical_formula_sum "Si O2"
_cell_formula_units_Z 64
_cell_length_a 14.484594
_cell_length_b 9.007128
_cell_length_c 31.183941
_cell_angle_alpha 90.000000
_cell_angle_beta 90.000000
_cell_angle_gamma 90.000000
_cell_volume 4068.400145
_symmetry_space_group_name_H-M "A M M 2"
_symmetry_group_IT_number 38
_symmetry_cell_setting 'orthorhombic'
loop_
_space_group_symop_operation_xyz
x,y,z
-x,-y,z
-x,y,z
x,-y,z
x,1/2+y,1/2+z
-x,1/2-y,1/2+z
-x,1/2+y,1/2+z
x,1/2-y,1/2+z
loop_
_atom_site_type_symbol
_atom_site_label
_atom_site_fract_x
_atom_site_fract_y
_atom_site_fract_z
Si Si1 0.109608 0.167026 0.025970
Si Si2 0.896544 0.823596 0.274011
Si Si3 0.600957 0.324074 0.726039
Si Si4 0.210100 0.676853 0.856885
Si Si5 0.106461 0.175034 0.611772
Si Si6 0.210015 0.175906 0.189248
Si Si7 0.600833 0.676514 0.822359
Si Si8 0.892882 0.174237 0.440780
O O1 0.144072 0.256904 0.067384
O O2 0.000000 0.168672 0.024837
O O3 0.148511 0.000000 0.028276
O O4 0.146578 0.245078 0.982932
O O5 0.846150 0.759869 0.316177
O O6 0.843881 0.770906 0.231536
O O7 0.000000 0.759237 0.272660
O O8 0.897474 0.000000 0.275955
O O9 0.500000 0.271084 0.708761
O O10 0.603882 0.500000 0.728965
O O11 0.683137 0.272417 0.694602
O O12 0.616875 0.261984 0.774156
O O13 0.204335 0.500000 0.856771
O O14 0.316480 0.733115 0.853106
O O15 0.165303 0.737411 0.900629
O O16 0.169073 0.239181 0.649122
O O17 0.000000 0.220582 0.619981
O O18 0.117931 0.000000 0.609248
O O19 0.200154 0.000000 0.181974
O O20 0.500000 0.730315 0.839489
O O21 0.603386 0.500000 0.820777
O O22 0.000000 0.211360 0.432322
O O23 0.878361 0.000000 0.447403
#
# Coordination Sequence:
#
# PCOD8177240 Si02
#       8
#     8   8   8   8   8   8   8   8
#     4   9  17  30  47  64  82 106 139 178 215 252
#     4   9  15  21  31  52  83 115 146 177 204 235
#     4   8  13  22  37  59  87 115 144 183 225 255
#     4   9  14  21  33  54  83 114 144 172 206 247
#     4  10  20  32  45  62  87 116 143 174 216 264
#     4  10  17  26  42  64  87 114 149 184 215 250
#     4   8  12  19  32  52  81 113 143 178 216 247
#     4   9  16  25  39  60  86 113 139 170 210 254
#
# _framework density 15.730999000000001
#
# number of rings (size 3 to 8) (size 9 to 14) (size 15 to 20)
#    0.000    3.000    1.250    2.250    0.000    4.250 
#    0.000    0.000    0.000    1.125    0.000    2.625 
#    0.000    3.500    0.000    0.000    0.000    0.000 
#
# Total GULP energy -396587.435576 kJ/mol
# GULP energy per Si atom -12393.357362 kJ/mol
# Density = 1.569519 g / cm^3
# Si number density = 15.730999 Si / 1000 Ang^3
#
#
#
# Elastic Constant Matrix: (Units=GPa)
#
#
# Indices 1 2 3 4 5 6 
#
# 1 120.3353 25.8136 72.0299 0.0000 0.0000 0.0000
# 2 25.8136 33.8216 35.7594 0.0000 0.0000 0.0000
# 3 72.0299 35.7594 142.7228 0.0000 0.0000 0.0000
# 4 0.0000 0.0000 0.0000 18.7514 0.0000 0.0000
# 5 0.0000 0.0000 0.0000 0.0000 12.0133 0.0000
# 6 0.0000 0.0000 0.0000 0.0000 0.0000 8.0257
#
#
#
# Elastic Compliance Matrix: (Units=1/GPa)
#
#
# Indices 1 2 3 4 5 6 
#
# 1 0.012261 -0.003830 -0.005228 0.000000 0.000000 0.000000
# 2 -0.003830 0.041418 -0.008444 0.000000 0.000000 0.000000
# 3 -0.005228 -0.008444 0.011761 0.000000 0.000000 0.000000
# 4 0.000000 0.000000 0.000000 0.053329 0.000000 0.000000
# 5 0.000000 0.000000 0.000000 0.000000 0.083241 0.000000
# 6 0.000000 0.000000 0.000000 0.000000 0.000000 0.124600
#
#
# Mechanical properties :
#
#
# Convention : Reuss Voigt Hill
#
# Bulk Modulus (GPa) = 32.85719 62.67617 47.76668
# Shear Modulus (GPa) = 13.44943 18.64319 16.04631
#
# Velocity S-wave (km/s) = 2.92715 3.44630 3.19728
# Velocity P-wave (km/s) = 5.68828 7.46759 6.63782
#
# Compressibility (1/GPa) = 0.03043474
#
# Stress axis : x y z
#
# Youngs Moduli (GPa) = 81.55695 24.14383 85.02633
#
# Poissons Ratio (x) = 0.09248 0.44456
# Poissons Ratio (y) = 0.31238 0.71800
# Poissons Ratio (z) = 0.42642 0.20388
#
# Static dielectric constant tensor:
#      x y z
#    x 3.230730 0.000000 0.000000 
#    y 0.000000 2.591910 0.000000 
#    z 0.000000 0.000000 3.046640 
# 
# 
# High freq. dielectric constant tensor:
#      x y z
#    x 1.591780 0.000000 0.000000 
#    y 0.000000 1.558490 0.000000 
#    z 0.000000 0.000000 1.595830 
# 
# From -- ./inp_files/25042.got.cif
#   From: 2010.03.12/outbox.cif.g09.slc.cpg/sg38_13_cif.got.tgz:25042.got - 2010.04.14 02:38:36.
