data_PCOD8177119
_publ_section_title
;
Structure prediction by ZEFSAII (Michael W. Deem and Ramdas Pophale) SiO2 
 PCOD8177119
Probable space group: C C C 2
;
_chemical_formula_sum "Si O2"
_cell_formula_units_Z 36
_cell_length_a 6.544248
_cell_length_b 17.676778
_cell_length_c 13.213049
_cell_angle_alpha 90.000000
_cell_angle_beta 90.000000
_cell_angle_gamma 90.000000
_cell_volume 1528.501616
_symmetry_space_group_name_H-M "C C C 2"
_symmetry_group_IT_number 37
_symmetry_cell_setting 'orthorhombic'
loop_
_space_group_symop_operation_xyz
x,y,z
-x,-y,z
-x,y,1/2+z
x,-y,1/2+z
1/2+x,1/2+y,z
1/2-x,1/2-y,z
1/2-x,1/2+y,1/2+z
1/2+x,1/2-y,1/2+z
loop_
_atom_site_type_symbol
_atom_site_label
_atom_site_fract_x
_atom_site_fract_y
_atom_site_fract_z
Si Si1 0.559102 0.375219 0.630650
Si Si2 0.250000 0.250000 0.556661
Si Si3 0.305287 0.046301 0.950047
Si Si4 0.056566 0.702185 0.398558
Si Si5 0.500000 0.500000 0.793040
Si Si6 0.250000 0.250000 0.236963
O O1 0.373799 0.315473 0.615402
O O2 0.643405 0.424947 0.536121
O O3 0.484293 0.427310 0.722040
O O4 0.748734 0.325029 0.668527
O O5 0.401466 0.200081 0.490837
O O6 0.380939 0.115879 0.881393
O O7 0.193735 0.992633 0.868454
O O8 0.500000 0.000000 0.996492
O O9 0.250000 0.750000 0.433515
O O10 0.956752 0.742416 0.301739
#
# Coordination Sequence:
#
# PCOD8177119 Si02
#       6
#     8   4   8   8   4   4
#     4  12  27  49  79 113 156 202 264 321 392 463
#     4  11  26  46  77 110 150 198 265 326 379 468
#     4  12  28  49  75 107 156 211 252 316 391 462
#     4  11  23  47  76 108 152 200 257 320 391 452
#     4  12  30  50  72 114 156 202 256 322 384 466
#     4  11  26  44  75 118 146 198 259 320 377 464
#
# _framework density 23.552475999999999
#
# number of rings (size 3 to 8) (size 9 to 14) (size 15 to 20)
#    0.000    0.444    2.222    4.667   14.000    2.667 
#    0.000    0.000    0.000    0.000    0.000    0.000 
#    0.000    0.000    0.000    0.000    0.000    0.000 
#
# Total GULP energy -223090.607306 kJ/mol
# GULP energy per Si atom -12393.922628 kJ/mol
# Density = 2.349887 g / cm^3
# Si number density = 23.552476 Si / 1000 Ang^3
#
#
#
# Elastic Constant Matrix: (Units=GPa)
#
#
# Indices 1 2 3 4 5 6 
#
# 1 124.0079 50.2803 53.5283 0.0000 0.0000 0.0000
# 2 50.2803 119.4173 52.3964 0.0000 0.0000 0.0000
# 3 53.5283 52.3964 126.9074 0.0000 0.0000 0.0000
# 4 0.0000 0.0000 0.0000 82.3155 0.0000 0.0000
# 5 0.0000 0.0000 0.0000 0.0000 8.4932 0.0000
# 6 0.0000 0.0000 0.0000 0.0000 0.0000 57.9721
#
#
#
# Elastic Compliance Matrix: (Units=1/GPa)
#
#
# Indices 1 2 3 4 5 6 
#
# 1 0.010717 -0.003089 -0.003245 0.000000 0.000000 0.000000
# 2 -0.003089 0.011117 -0.003287 0.000000 0.000000 0.000000
# 3 -0.003245 -0.003287 0.010606 0.000000 0.000000 0.000000
# 4 0.000000 0.000000 0.000000 0.012148 0.000000 0.000000
# 5 0.000000 0.000000 0.000000 0.000000 0.117741 0.000000
# 6 0.000000 0.000000 0.000000 0.000000 0.000000 0.017250
#
#
# Mechanical properties :
#
#
# Convention : Reuss Voigt Hill
#
# Bulk Modulus (GPa) = 75.76963 75.86030 75.81497
# Shear Modulus (GPa) = 24.60402 44.03133 34.31767
#
# Velocity S-wave (km/s) = 3.23561 4.32846 3.82130
# Velocity P-wave (km/s) = 6.79700 7.56702 7.19232
#
# Compressibility (1/GPa) = 0.01319790
#
# Stress axis : x y z
#
# Youngs Moduli (GPa) = 93.30907 89.95517 94.28908
#
# Poissons Ratio (x) = 0.27783 0.30599
# Poissons Ratio (y) = 0.28819 0.30993
# Poissons Ratio (z) = 0.30281 0.29569
#
# Static dielectric constant tensor:
#      x y z
#    x 4.396270 0.000000 0.000000 
#    y 0.000000 4.443380 0.000000 
#    z 0.000000 0.000000 4.195420 
# 
# 
# High freq. dielectric constant tensor:
#      x y z
#    x 1.942510 0.000000 0.000000 
#    y 0.000000 1.944050 0.000000 
#    z 0.000000 0.000000 1.933860 
# 
# From -- ./inp_files/9568.got.cif
#   From: 2010.03.12/outbox.cif.g09.slc.cpg/sg37_5_cif.got.tgz:9568.got - 2010.04.14 02:25:27.
