data_PCOD8177701
_publ_section_title
;
Structure prediction by ZEFSAII (Michael W. Deem and Ramdas Pophale) SiO2 
 PCOD8177701
Probable space group: A M M 2
;
_chemical_formula_sum "Si O2"
_cell_formula_units_Z 64
_cell_length_a 23.997791
_cell_length_b 9.226400
_cell_length_c 15.437523
_cell_angle_alpha 90.000000
_cell_angle_beta 90.000000
_cell_angle_gamma 90.000000
_cell_volume 3418.071659
_symmetry_space_group_name_H-M "A M M 2"
_symmetry_group_IT_number 38
_symmetry_cell_setting 'orthorhombic'
loop_
_space_group_symop_operation_xyz
x,y,z
-x,-y,z
-x,y,z
x,-y,z
x,1/2+y,1/2+z
-x,1/2-y,1/2+z
-x,1/2+y,1/2+z
x,1/2-y,1/2+z
loop_
_atom_site_type_symbol
_atom_site_label
_atom_site_fract_x
_atom_site_fract_y
_atom_site_fract_z
Si Si1 0.361345 0.830059 0.508830
Si Si2 0.244127 0.663440 0.831104
Si Si3 0.749227 0.829020 0.002826
Si Si4 0.873717 0.333665 0.758075
Si Si5 0.866205 0.671323 0.567421
Si Si6 0.936525 0.672197 0.407404
Si Si7 0.368230 0.334495 0.810129
Si Si8 0.563124 0.670961 0.166836
O O1 0.305515 0.748869 0.539420
O O2 0.377442 0.786036 0.410436
O O3 0.409652 0.782586 0.575218
O O4 0.349161 0.000000 0.513224
O O5 0.243650 0.500000 0.871105
O O6 0.237755 0.782704 0.904938
O O7 0.193134 0.684008 0.765394
O O8 0.303364 0.686271 0.783082
O O9 0.802394 0.776770 0.058302
O O10 0.739690 0.000000 0.006673
O O11 0.891162 0.500000 0.774536
O O12 0.889584 0.282222 0.661143
O O13 0.907176 0.232775 0.822486
O O14 0.867188 0.500000 0.558439
O O15 0.905496 0.736652 0.492164
O O16 0.932792 0.500000 0.403776
O O17 0.000000 0.725950 0.410542
O O18 0.387222 0.500000 0.797864
O O19 0.405598 0.236731 0.748910
O O20 0.500000 0.728554 0.165652
O O21 0.565492 0.500000 0.178090
#
# Coordination Sequence:
#
# PCOD8177701 Si02
#       8
#     8   8   8   8   8   8   8   8
#     4   9  20  38  56  78 110 147 182 219 273 330
#     4   9  18  33  54  80 114 146 175 219 277 329
#     4  10  18  31  56  83 111 141 180 224 268 325
#     4  10  20  35  57  83 110 142 184 227 268 323
#     4   9  19  34  54  82 110 143 180 218 271 327
#     4  10  21  39  58  77 110 150 186 227 273 323
#     4   9  19  35  56  81 110 143 182 224 270 324
#     4  10  22  39  57  79 110 147 186 226 271 326
#
# _framework density 18.724005999999999
#
# number of rings (size 3 to 8) (size 9 to 14) (size 15 to 20)
#    0.000    2.500    1.250    1.125    1.750    4.000 
#    0.000    4.375    0.000    0.000    0.000    0.000 
#    0.000    0.000    0.000    0.000    0.000    0.000 
#
# Total GULP energy -396725.931427 kJ/mol
# GULP energy per Si atom -12397.685357 kJ/mol
# Density = 1.868139 g / cm^3
# Si number density = 18.724006 Si / 1000 Ang^3
#
#
#
# Elastic Constant Matrix: (Units=GPa)
#
#
# Indices 1 2 3 4 5 6 
#
# 1 144.4469 38.6977 80.9548 0.0000 0.0000 0.0000
# 2 38.6977 29.1233 25.7992 0.0000 0.0000 0.0000
# 3 80.9548 25.7992 122.1210 0.0000 0.0000 0.0000
# 4 0.0000 0.0000 0.0000 28.6938 0.0000 0.0000
# 5 0.0000 0.0000 0.0000 0.0000 21.5683 0.0000
# 6 0.0000 0.0000 0.0000 0.0000 0.0000 26.3333
#
#
#
# Elastic Compliance Matrix: (Units=1/GPa)
#
#
# Indices 1 2 3 4 5 6 
#
# 1 0.014068 -0.012834 -0.006615 0.000000 0.000000 0.000000
# 2 -0.012834 0.053949 -0.002890 0.000000 0.000000 0.000000
# 3 -0.006615 -0.002890 0.013184 0.000000 0.000000 0.000000
# 4 0.000000 0.000000 0.000000 0.034851 0.000000 0.000000
# 5 0.000000 0.000000 0.000000 0.000000 0.046364 0.000000
# 6 0.000000 0.000000 0.000000 0.000000 0.000000 0.037975
#
#
# Mechanical properties :
#
#
# Convention : Reuss Voigt Hill
#
# Bulk Modulus (GPa) = 27.37816 65.17715 46.27766
# Shear Modulus (GPa) = 19.43685 25.33505 22.38595
#
# Velocity S-wave (km/s) = 3.22541 3.68241 3.46146
# Velocity P-wave (km/s) = 5.34085 7.27772 6.38318
#
# Compressibility (1/GPa) = 0.03652547
#
# Stress axis : x y z
#
# Youngs Moduli (GPa) = 71.08151 18.53586 75.84902
#
# Poissons Ratio (x) = 0.23788 0.50172
# Poissons Ratio (y) = 0.91223 0.21919
# Poissons Ratio (z) = 0.47019 0.05357
#
# Static dielectric constant tensor:
#      x y z
#    x 3.677060 0.000000 0.000000 
#    y 0.000000 3.239940 0.000000 
#    z 0.000000 0.000000 3.472590 
# 
# 
# High freq. dielectric constant tensor:
#      x y z
#    x 1.730240 0.000000 0.000000 
#    y 0.000000 1.706570 0.000000 
#    z 0.000000 0.000000 1.727110 
# 
# From -- ./inp_files/15783.got.cif
#   From: 2010.03.12/outbox.cif.g09.slc.cpg/sg38_8_cif.got.tgz:15783.got - 2010.04.14 02:38:36.
