data_PCOD8177098
_publ_section_title
;
Structure prediction by ZEFSAII (Michael W. Deem and Ramdas Pophale) SiO2 
 PCOD8177098
Probable space group: C C C 2
;
_chemical_formula_sum "Si O2"
_cell_formula_units_Z 64
_cell_length_a 14.736040
_cell_length_b 8.671128
_cell_length_c 22.412544
_cell_angle_alpha 90.000000
_cell_angle_beta 90.000000
_cell_angle_gamma 90.000000
_cell_volume 2863.832043
_symmetry_space_group_name_H-M "C C C 2"
_symmetry_group_IT_number 37
_symmetry_cell_setting 'orthorhombic'
loop_
_space_group_symop_operation_xyz
x,y,z
-x,-y,z
-x,y,1/2+z
x,-y,1/2+z
1/2+x,1/2+y,z
1/2-x,1/2-y,z
1/2-x,1/2+y,1/2+z
1/2+x,1/2-y,1/2+z
loop_
_atom_site_type_symbol
_atom_site_label
_atom_site_fract_x
_atom_site_fract_y
_atom_site_fract_z
Si Si1 0.569454 0.864087 0.190840
Si Si2 0.843492 0.655884 0.316443
Si Si3 0.843166 0.791255 0.084099
Si Si4 0.062648 0.135334 0.742135
Si Si5 0.017836 0.179361 0.401822
Si Si6 0.835110 0.864649 0.626969
Si Si7 0.651394 0.814385 0.851624
Si Si8 0.524390 0.323538 0.033405
O O1 0.622473 0.899170 0.251986
O O2 0.645385 0.818055 0.142583
O O3 0.507240 0.716785 0.198410
O O4 0.500000 0.000000 0.172682
O O5 0.750000 0.750000 0.312586
O O6 0.917191 0.763193 0.348875
O O7 0.834110 0.497583 0.352308
O O8 0.750000 0.750000 0.050779
O O9 0.926883 0.742738 0.042201
O O10 0.825910 0.972018 0.095394
O O11 0.140663 0.088823 0.695354
O O12 0.109037 0.242688 0.791238
O O13 0.000000 0.000000 0.771344
O O14 0.921581 0.269610 0.402003
O O15 0.062755 0.210898 0.466900
O O16 0.000000 0.000000 0.391953
O O17 0.750000 0.750000 0.628498
O O18 0.908042 0.770168 0.586146
O O19 0.750000 0.750000 0.866349
O O20 0.500000 0.500000 0.042154
#
# Coordination Sequence:
#
# PCOD8177098 Si02
#       8
#     8   8   8   8   8   8   8   8
#     4  12  23  40  65  93 134 170 209 262 321 374
#     4  12  26  43  64  95 132 169 214 266 320 384
#     4  11  24  40  64  95 130 164 210 262 317 376
#     4  12  22  40  69  93 129 173 212 256 319 383
#     4  11  23  44  71  92 124 168 215 270 327 380
#     4  11  23  41  64  94 128 168 211 258 314 385
#     4  12  26  42  65  96 131 168 216 264 321 387
#     4   9  21  44  66  90 124 166 211 265 319 375
#
# _framework density 22.347678999999999
#
# number of rings (size 3 to 8) (size 9 to 14) (size 15 to 20)
#    0.000    0.750    5.000    2.625    3.500    3.000 
#    0.000    6.250    0.000    0.000    0.000    0.000 
#    0.000    0.000    0.000    0.000    0.000    0.000 
#
# Total GULP energy -396441.990052 kJ/mol
# GULP energy per Si atom -12388.812189 kJ/mol
# Density = 2.229681 g / cm^3
# Si number density = 22.347679 Si / 1000 Ang^3
#
#
#
# Elastic Constant Matrix: (Units=GPa)
#
#
# Indices 1 2 3 4 5 6 
#
# 1 139.1496 30.6398 16.1158 0.0000 0.0000 0.0000
# 2 30.6398 108.5418 3.0929 0.0000 0.0000 0.0000
# 3 16.1158 3.0929 78.1693 0.0000 0.0000 0.0000
# 4 0.0000 0.0000 0.0000 7.5141 0.0000 0.0000
# 5 0.0000 0.0000 0.0000 0.0000 21.0581 0.0000
# 6 0.0000 0.0000 0.0000 0.0000 0.0000 44.4031
#
#
#
# Elastic Compliance Matrix: (Units=1/GPa)
#
#
# Indices 1 2 3 4 5 6 
#
# 1 0.007842 -0.002170 -0.001531 0.000000 0.000000 0.000000
# 2 -0.002170 0.009824 0.000059 0.000000 0.000000 0.000000
# 3 -0.001531 0.000059 0.013106 0.000000 0.000000 0.000000
# 4 0.000000 0.000000 0.000000 0.133082 0.000000 0.000000
# 5 0.000000 0.000000 0.000000 0.000000 0.047488 0.000000
# 6 0.000000 0.000000 0.000000 0.000000 0.000000 0.022521
#
#
# Mechanical properties :
#
#
# Convention : Reuss Voigt Hill
#
# Bulk Modulus (GPa) = 42.57608 47.28418 44.93013
# Shear Modulus (GPa) = 20.08227 32.99590 26.53909
#
# Velocity S-wave (km/s) = 3.00097 3.84667 3.44983
# Velocity P-wave (km/s) = 5.57681 6.39793 6.00143
#
# Compressibility (1/GPa) = 0.02348736
#
# Stress axis : x y z
#
# Youngs Moduli (GPa) = 127.52485 101.79246 76.30084
#
# Poissons Ratio (x) = 0.22088 0.11680
# Poissons Ratio (y) = 0.27672 -0.00448
# Poissons Ratio (z) = 0.19522 -0.00597
#
# Static dielectric constant tensor:
#      x y z
#    x 4.243610 0.000000 0.000000 
#    y 0.000000 3.498070 0.000000 
#    z 0.000000 0.000000 3.973220 
# 
# 
# High freq. dielectric constant tensor:
#      x y z
#    x 1.888380 0.000000 0.000000 
#    y 0.000000 1.880090 0.000000 
#    z 0.000000 0.000000 1.869620 
# 
# From -- ./inp_files/18901.got.cif
#   From: 2010.03.12/outbox.cif.g09.slc.cpg/sg37_10_cif.got.tgz:18901.got - 2010.04.14 02:25:27.
