data_PCOD8177566
_publ_section_title
;
Structure prediction by ZEFSAII (Michael W. Deem and Ramdas Pophale) SiO2 
 PCOD8177566
Probable space group: A M M 2
;
_chemical_formula_sum "Si O2"
_cell_formula_units_Z 56
_cell_length_a 15.430300
_cell_length_b 9.159073
_cell_length_c 20.518202
_cell_angle_alpha 90.000000
_cell_angle_beta 90.000000
_cell_angle_gamma 90.000000
_cell_volume 2899.780943
_symmetry_space_group_name_H-M "A M M 2"
_symmetry_group_IT_number 38
_symmetry_cell_setting 'orthorhombic'
loop_
_space_group_symop_operation_xyz
x,y,z
-x,-y,z
-x,y,z
x,-y,z
x,1/2+y,1/2+z
-x,1/2-y,1/2+z
-x,1/2+y,1/2+z
x,1/2-y,1/2+z
loop_
_atom_site_type_symbol
_atom_site_label
_atom_site_fract_x
_atom_site_fract_y
_atom_site_fract_z
Si Si1 0.275176 0.831489 0.008820
Si Si2 0.098269 0.171157 0.705485
Si Si3 0.868086 0.833704 0.337684
Si Si4 0.674455 0.835006 0.385530
Si Si5 0.262217 0.327029 0.653412
Si Si6 0.404190 0.673796 0.755472
Si Si7 0.907660 0.665508 0.460708
O O1 0.302968 0.790779 0.082277
O O2 0.290413 0.000000 0.994664
O O3 0.331583 0.750233 0.953901
O O4 0.173276 0.787707 0.005117
O O5 0.105984 0.235204 0.777356
O O6 0.169147 0.249521 0.659853
O O7 0.000000 0.198846 0.679398
O O8 0.119032 0.000000 0.707470
O O9 0.766602 0.823120 0.350890
O O10 0.917796 0.772389 0.399786
O O11 0.896632 0.000000 0.324306
O O12 0.610060 0.771198 0.330042
O O13 0.650349 0.000000 0.403460
O O14 0.246534 0.500000 0.661343
O O15 0.331269 0.264985 0.705964
O O16 0.500000 0.725220 0.732933
O O17 0.396896 0.500000 0.754750
O O18 0.892877 0.500000 0.435652
O O19 0.000000 0.677166 0.499242
#
# Coordination Sequence:
#
# PCOD8177566 Si02
#       7
#     8   8   8   8   8   8   8
#     4   9  19  33  52  76 106 143 177 217 271 320
#     4  11  23  35  49  74 109 148 184 222 275 328
#     4  10  18  30  49  74 102 134 178 228 271 314
#     4   9  17  32  54  79 105 135 176 220 264 319
#     4  10  20  37  57  80 109 144 187 229 269 321
#     4   9  17  33  59  86 109 138 180 227 274 325
#     4   9  17  29  44  66  99 138 179 219 266 321
#
# _framework density 19.311803999999999
#
# number of rings (size 3 to 8) (size 9 to 14) (size 15 to 20)
#    0.000    2.429    1.429    1.286    0.000    4.857 
#    0.000    2.143    0.000    2.571    0.000    0.000 
#    0.000    0.000    0.000    0.000    0.000    0.000 
#
# Total GULP energy -346985.931434 kJ/mol
# GULP energy per Si atom -12392.354694 kJ/mol
# Density = 1.926785 g / cm^3
# Si number density = 19.311804 Si / 1000 Ang^3
#
#
#
# Elastic Constant Matrix: (Units=GPa)
#
#
# Indices 1 2 3 4 5 6 
#
# 1 80.9912 29.5976 45.0088 0.0000 0.0000 0.0000
# 2 29.5976 62.9763 44.3099 0.0000 0.0000 0.0000
# 3 45.0088 44.3099 127.5875 0.0000 0.0000 0.0000
# 4 0.0000 0.0000 0.0000 27.5891 0.0000 0.0000
# 5 0.0000 0.0000 0.0000 0.0000 6.9362 0.0000
# 6 0.0000 0.0000 0.0000 0.0000 0.0000 14.4645
#
#
#
# Elastic Compliance Matrix: (Units=1/GPa)
#
#
# Indices 1 2 3 4 5 6 
#
# 1 0.016390 -0.004810 -0.004111 0.000000 0.000000 0.000000
# 2 -0.004810 0.022425 -0.006091 0.000000 0.000000 0.000000
# 3 -0.004111 -0.006091 0.011404 0.000000 0.000000 0.000000
# 4 0.000000 0.000000 0.000000 0.036246 0.000000 0.000000
# 5 0.000000 0.000000 0.000000 0.000000 0.144172 0.000000
# 6 0.000000 0.000000 0.000000 0.000000 0.000000 0.069135
#
#
# Mechanical properties :
#
#
# Convention : Reuss Voigt Hill
#
# Bulk Modulus (GPa) = 49.52144 56.59863 53.06003
# Shear Modulus (GPa) = 14.85763 19.97387 17.41575
#
# Velocity S-wave (km/s) = 2.77673 3.21952 3.00629
# Velocity P-wave (km/s) = 5.99826 6.57205 6.29170
#
# Compressibility (1/GPa) = 0.02019327
#
# Stress axis : x y z
#
# Youngs Moduli (GPa) = 61.01447 44.59212 87.69232
#
# Poissons Ratio (x) = 0.21449 0.36052
# Poissons Ratio (y) = 0.29349 0.53416
# Poissons Ratio (z) = 0.25084 0.27162
#
# Static dielectric constant tensor:
#      x y z
#    x 3.613120 0.000000 0.000000 
#    y 0.000000 3.415220 0.000000 
#    z 0.000000 0.000000 3.499750 
# 
# 
# High freq. dielectric constant tensor:
#      x y z
#    x 1.742370 0.000000 0.000000 
#    y 0.000000 1.729330 0.000000 
#    z 0.000000 0.000000 1.743540 
# 
# From -- ./inp_files/21080.got.cif
#   From: 2010.03.12/outbox.cif.g09.slc.cpg/sg38_11_cif.got.tgz:21080.got - 2010.04.14 02:38:36.
