data_PCOD8177637
_publ_section_title
;
Structure prediction by ZEFSAII (Michael W. Deem and Ramdas Pophale) SiO2 
 PCOD8177637
Probable space group: A M M 2
;
_chemical_formula_sum "Si O2"
_cell_formula_units_Z 64
_cell_length_a 8.901391
_cell_length_b 29.971740
_cell_length_c 14.566035
_cell_angle_alpha 90.000000
_cell_angle_beta 90.000000
_cell_angle_gamma 90.000000
_cell_volume 3886.075051
_symmetry_space_group_name_H-M "A M M 2"
_symmetry_group_IT_number 38
_symmetry_cell_setting 'orthorhombic'
loop_
_space_group_symop_operation_xyz
x,y,z
-x,-y,z
-x,y,z
x,-y,z
x,1/2+y,1/2+z
-x,1/2-y,1/2+z
-x,1/2+y,1/2+z
x,1/2-y,1/2+z
loop_
_atom_site_type_symbol
_atom_site_label
_atom_site_fract_x
_atom_site_fract_y
_atom_site_fract_z
Si Si1 0.674589 0.049722 0.849550
Si Si2 0.321896 0.130980 0.114177
Si Si3 0.669878 0.278408 0.937990
Si Si4 0.676262 0.363098 0.248910
Si Si5 0.678407 0.714642 0.730347
Si Si6 0.822928 0.702931 0.120695
Si Si7 0.330831 0.324661 0.434561
Si Si8 0.823655 0.550662 0.541743
O O1 0.500000 0.051668 0.875026
O O2 0.710245 0.084435 0.767124
O O3 0.722053 0.000000 0.816741
O O4 0.761341 0.063847 0.941464
O O5 0.500000 0.125962 0.114605
O O6 0.273159 0.166084 0.192342
O O7 0.246380 0.082115 0.122174
O O8 0.253910 0.149784 0.018639
O O9 0.500000 0.297202 0.945723
O O10 0.774453 0.301007 0.014234
O O11 0.734175 0.285793 0.835611
O O12 0.672729 0.226550 0.960254
O O13 0.500000 0.354321 0.230966
O O14 0.769399 0.344158 0.163518
O O15 0.741814 0.335519 0.336387
O O16 0.500000 0.722441 0.724623
O O17 0.750631 0.754916 0.673001
O O18 0.000000 0.707685 0.126997
O O19 0.500000 0.342881 0.426795
O O20 0.777933 0.500000 0.565919
O O21 0.000000 0.557108 0.540268
#
# Coordination Sequence:
#
# PCOD8177637 Si02
#       8
#     8   8   8   8   8   8   8   8
#     4   9  17  30  50  74  97 125 165 209 248 288
#     4  10  18  31  50  74  97 125 168 208 242 287
#     4  10  19  35  53  68  94 132 171 207 242 287
#     4  10  18  32  50  70  97 134 170 199 241 293
#     4  10  20  35  55  74  94 128 171 208 246 293
#     4  12  24  33  46  73 104 132 165 204 245 291
#     4   9  15  26  49  73  94 124 163 201 238 282
#     4  10  20  31  44  68 103 137 164 194 241 299
#
# _framework density 16.469059999999999
#
# number of rings (size 3 to 8) (size 9 to 14) (size 15 to 20)
#    0.000    2.000    3.750    1.500    0.000    2.250 
#    0.000    0.000    0.000    0.000    0.000    0.875 
#    0.000    3.000    0.000    0.000    0.000    0.000 
#
# Total GULP energy -396612.688152 kJ/mol
# GULP energy per Si atom -12394.146505 kJ/mol
# Density = 1.643158 g / cm^3
# Si number density = 16.469060 Si / 1000 Ang^3
#
#
#
# Elastic Constant Matrix: (Units=GPa)
#
#
# Indices 1 2 3 4 5 6 
#
# 1 52.9752 33.1763 34.5143 0.0000 0.0000 0.0000
# 2 33.1763 99.1479 44.5554 0.0000 0.0000 0.0000
# 3 34.5143 44.5554 92.6215 0.0000 0.0000 0.0000
# 4 0.0000 0.0000 0.0000 25.4167 0.0000 0.0000
# 5 0.0000 0.0000 0.0000 0.0000 11.7807 0.0000
# 6 0.0000 0.0000 0.0000 0.0000 0.0000 17.3169
#
#
#
# Elastic Compliance Matrix: (Units=1/GPa)
#
#
# Indices 1 2 3 4 5 6 
#
# 1 0.027338 -0.005830 -0.007383 0.000000 0.000000 0.000000
# 2 -0.005830 0.014111 -0.004616 0.000000 0.000000 0.000000
# 3 -0.007383 -0.004616 0.015768 0.000000 0.000000 0.000000
# 4 0.000000 0.000000 0.000000 0.039344 0.000000 0.000000
# 5 0.000000 0.000000 0.000000 0.000000 0.084884 0.000000
# 6 0.000000 0.000000 0.000000 0.000000 0.000000 0.057747
#
#
# Mechanical properties :
#
#
# Convention : Reuss Voigt Hill
#
# Bulk Modulus (GPa) = 46.38142 52.13742 49.25942
# Shear Modulus (GPa) = 17.72828 19.73611 18.73219
#
# Velocity S-wave (km/s) = 3.28450 3.46551 3.37622
# Velocity P-wave (km/s) = 6.52747 6.90938 6.72114
#
# Compressibility (1/GPa) = 0.02156036
#
# Stress axis : x y z
#
# Youngs Moduli (GPa) = 36.57946 70.86730 63.41976
#
# Poissons Ratio (x) = 0.41316 0.46820
# Poissons Ratio (y) = 0.21326 0.29272
# Poissons Ratio (z) = 0.27005 0.32709
#
# Static dielectric constant tensor:
#      x y z
#    x 2.908650 0.000000 0.000000 
#    y 0.000000 3.241950 0.000000 
#    z 0.000000 0.000000 3.065200 
# 
# 
# High freq. dielectric constant tensor:
#      x y z
#    x 1.614220 0.000000 0.000000 
#    y 0.000000 1.631380 0.000000 
#    z 0.000000 0.000000 1.610160 
# 
# From -- ./inp_files/13059.got.cif
#   From: 2010.03.12/outbox.cif.g09.slc.cpg/sg38_7_cif.got.tgz:13059.got - 2010.04.14 02:38:36.
