data_PCOD8177211
_publ_section_title
;
Structure prediction by ZEFSAII (Michael W. Deem and Ramdas Pophale) SiO2 
 PCOD8177211
Probable space group: A M M 2
;
_chemical_formula_sum "Si O2"
_cell_formula_units_Z 64
_cell_length_a 37.288699
_cell_length_b 14.800843
_cell_length_c 5.252079
_cell_angle_alpha 90.000000
_cell_angle_beta 90.000000
_cell_angle_gamma 90.000000
_cell_volume 2898.644352
_symmetry_space_group_name_H-M "A M M 2"
_symmetry_group_IT_number 38
_symmetry_cell_setting 'orthorhombic'
loop_
_space_group_symop_operation_xyz
x,y,z
-x,-y,z
-x,y,z
x,-y,z
x,1/2+y,1/2+z
-x,1/2-y,1/2+z
-x,1/2+y,1/2+z
x,1/2-y,1/2+z
loop_
_atom_site_type_symbol
_atom_site_label
_atom_site_fract_x
_atom_site_fract_y
_atom_site_fract_z
Si Si1 0.807266 0.355414 0.217710
Si Si2 0.347252 0.307587 0.248428
Si Si3 0.959869 0.107158 0.713117
Si Si4 0.082259 0.892473 0.213127
Si Si5 0.459215 0.107948 0.201994
Si Si6 0.837605 0.347529 0.717690
Si Si7 0.730267 0.306591 0.169995
Si Si8 0.420925 0.105130 0.702005
O O1 0.823725 0.401933 0.469286
O O2 0.818561 0.250002 0.218857
O O3 0.764348 0.371159 0.215586
O O4 0.824875 0.401698 0.969305
O O5 0.350666 0.270408 0.535482
O O6 0.308226 0.355843 0.213276
O O7 0.378354 0.380036 0.205122
O O8 0.939417 0.140339 0.460861
O O9 0.000000 0.147855 0.713188
O O10 0.962002 0.000000 0.713122
O O11 0.939398 0.140327 0.965310
O O12 0.119669 0.839394 0.212635
O O13 0.088955 0.000000 0.213229
O O14 0.500000 0.142242 0.207373
O O15 0.438531 0.147922 0.448210
O O16 0.457504 0.000000 0.201202
O O17 0.439793 0.148017 0.951046
O O18 0.732564 0.226680 0.378640
O O19 0.428926 0.000000 0.700660
#
# Coordination Sequence:
#
# PCOD8177211 Si02
#       8
#     8   8   8   8   8   8   8   8
#     4  10  17  30  48  72  87 117 160 199 224 265
#     4  10  21  33  53  77 103 137 171 219 262 306
#     4   9  17  30  47  66  90 121 160 197 227 272
#     4  10  19  30  45  70  98 123 149 186 243 292
#     4   9  17  30  52  78 101 133 178 218 251 302
#     4  10  18  28  47  70  96 118 148 198 233 270
#     4  10  16  30  49  74  92 116 163 208 242 268
#     4  10  19  33  53  77 106 135 170 218 266 310
#
# _framework density 22.079287000000001
#
# number of rings (size 3 to 8) (size 9 to 14) (size 15 to 20)
#    0.000    2.250    2.500    2.250    0.000    3.000 
#    0.000    0.000    0.000    9.000    0.000   35.000 
#    0.000    0.000    0.000    0.000    0.000    0.000 
#
# Total GULP energy -396620.263783 kJ/mol
# GULP energy per Si atom -12394.383243 kJ/mol
# Density = 2.202903 g / cm^3
# Si number density = 22.079287 Si / 1000 Ang^3
#
#
#
# Elastic Constant Matrix: (Units=GPa)
#
#
# Indices 1 2 3 4 5 6 
#
# 1 223.8323 5.7915 87.3836 0.0000 0.0000 0.0000
# 2 5.7915 13.0382 0.0538 0.0000 0.0000 0.0000
# 3 87.3836 0.0538 219.2139 0.0000 0.0000 0.0000
# 4 0.0000 0.0000 0.0000 -1.4077 0.0000 0.0000
# 5 0.0000 0.0000 0.0000 0.0000 43.5719 0.0000
# 6 0.0000 0.0000 0.0000 0.0000 0.0000 8.8228
#
#
#
# Elastic Compliance Matrix: (Units=1/GPa)
#
#
# Indices 1 2 3 4 5 6 
#
# 1 0.005363 -0.002374 -0.002137 0.000000 0.000000 0.000000
# 2 -0.002374 0.077748 0.000927 0.000000 0.000000 0.000000
# 3 -0.002137 0.000927 0.005414 0.000000 0.000000 0.000000
# 4 0.000000 0.000000 0.000000 -0.710364 0.000000 0.000000
# 5 0.000000 0.000000 0.000000 0.000000 0.022951 0.000000
# 6 0.000000 0.000000 0.000000 0.000000 0.000000 0.113343
#
#
# Mechanical properties :
#
#
# Convention : Reuss Voigt Hill
#
# Bulk Modulus (GPa) = 12.29143 71.39356 41.84250
# Shear Modulus (GPa) = -11.08012 34.38777 11.65383
#
# Velocity S-wave (km/s) = -2.24259 3.95076 2.29992
# Velocity P-wave (km/s) = 1.06141 7.29497 5.10343
#
# Compressibility (1/GPa) = 0.08135748
#
# Stress axis : x y z
#
# Youngs Moduli (GPa) = 186.44571 12.86202 184.72151
#
# Poissons Ratio (x) = 0.03053 0.39483
# Poissons Ratio (y) = 0.44255 -0.17126
# Poissons Ratio (z) = 0.39851 -0.01192
#
# Static dielectric constant tensor:
#      x y z
#    x 4.238870 0.000000 0.000000 
#    y 0.000000 3.079710 0.000000 
#    z 0.000000 0.000000 5.883980 
# 
# 
# High freq. dielectric constant tensor:
#      x y z
#    x 1.887640 0.000000 0.000000 
#    y 0.000000 1.793210 0.000000 
#    z 0.000000 0.000000 1.902140 
# 
# From -- ./inp_files/2318.got.cif
#   From: 2010.03.12/outbox.cif.g09.slc.cpg/sg38_2_cif.got.tgz:2318.got - 2010.04.14 02:38:36.
