data_PCOD8177563
_publ_section_title
;
Structure prediction by ZEFSAII (Michael W. Deem and Ramdas Pophale) SiO2 
 PCOD8177563
Probable space group: A M M 2
;
_chemical_formula_sum "Si O2"
_cell_formula_units_Z 48
_cell_length_a 10.355495
_cell_length_b 9.157099
_cell_length_c 27.973507
_cell_angle_alpha 90.000000
_cell_angle_beta 90.000000
_cell_angle_gamma 90.000000
_cell_volume 2652.623968
_symmetry_space_group_name_H-M "A M M 2"
_symmetry_group_IT_number 38
_symmetry_cell_setting 'orthorhombic'
loop_
_space_group_symop_operation_xyz
x,y,z
-x,-y,z
-x,y,z
x,-y,z
x,1/2+y,1/2+z
-x,1/2-y,1/2+z
-x,1/2+y,1/2+z
x,1/2-y,1/2+z
loop_
_atom_site_type_symbol
_atom_site_label
_atom_site_fract_x
_atom_site_fract_y
_atom_site_fract_z
Si Si1 0.349787 0.831847 0.139690
Si Si2 0.500000 0.673617 0.796433
Si Si3 0.000000 0.171727 0.895573
Si Si4 0.500000 0.832832 0.894157
Si Si5 0.000000 0.325878 0.793849
Si Si6 0.648498 0.171986 0.544017
Si Si7 0.254316 0.173261 0.240419
Si Si8 0.249487 0.830893 0.955718
O O1 0.500000 0.811022 0.152732
O O2 0.307300 0.734019 0.095074
O O3 0.266016 0.777813 0.185141
O O4 0.320867 0.000000 0.127032
O O5 0.500000 0.500000 0.795108
O O6 0.500000 0.723958 0.850471
O O7 0.373799 0.738137 0.770384
O O8 0.000000 0.257813 0.846176
O O9 0.875131 0.218617 0.925883
O O10 0.000000 0.000000 0.884252
O O11 0.374701 0.796478 0.924755
O O12 0.500000 0.000000 0.876446
O O13 0.876930 0.268337 0.764111
O O14 0.000000 0.500000 0.799172
O O15 0.500000 0.217896 0.533787
O O16 0.742547 0.238465 0.504180
O O17 0.665602 0.000000 0.544605
O O18 0.259644 0.000000 0.242538
O O19 0.241005 0.000000 0.970028
#
# Coordination Sequence:
#
# PCOD8177563 Si02
#       8
#     8   4   4   4   4   8   8   8
#     4   9  16  30  53  75 100 137 176 211 255 309
#     4  10  18  30  49  72  99 129 168 213 253 298
#     4  10  22  38  55  76 105 141 180 219 259 310
#     4  10  20  32  49  74 101 129 168 215 259 306
#     4  10  20  34  53  76 105 139 174 215 263 308
#     4  10  20  33  52  81 111 134 167 217 269 316
#     4   9  17  31  51  76 101 132 174 213 250 302
#     4  10  20  36  55  75 102 138 178 215 257 312
#
# _framework density 18.095288
#
# number of rings (size 3 to 8) (size 9 to 14) (size 15 to 20)
#    0.000    2.333    1.667    1.500    0.000    2.000 
#    0.000    2.500    0.000    3.000    0.000    0.000 
#    0.000    0.000    0.000    0.000    0.000    0.000 
#
# Total GULP energy -297636.062564 kJ/mol
# GULP energy per Si atom -12401.502607 kJ/mol
# Density = 1.805410 g / cm^3
# Si number density = 18.095288 Si / 1000 Ang^3
#
#
#
# Elastic Constant Matrix: (Units=GPa)
#
#
# Indices 1 2 3 4 5 6 
#
# 1 139.4843 33.2115 82.0201 0.0000 0.0000 0.0000
# 2 33.2115 45.3465 54.1660 0.0000 0.0000 0.0000
# 3 82.0201 54.1660 163.7600 0.0000 0.0000 0.0000
# 4 0.0000 0.0000 0.0000 34.4324 0.0000 0.0000
# 5 0.0000 0.0000 0.0000 0.0000 41.9002 0.0000
# 6 0.0000 0.0000 0.0000 0.0000 0.0000 26.4417
#
#
#
# Elastic Compliance Matrix: (Units=1/GPa)
#
#
# Indices 1 2 3 4 5 6 
#
# 1 0.010303 -0.002285 -0.004405 0.000000 0.000000 0.000000
# 2 -0.002285 0.036963 -0.011082 0.000000 0.000000 0.000000
# 3 -0.004405 -0.011082 0.011978 0.000000 0.000000 0.000000
# 4 0.000000 0.000000 0.000000 0.029042 0.000000 0.000000
# 5 0.000000 0.000000 0.000000 0.000000 0.023866 0.000000
# 6 0.000000 0.000000 0.000000 0.000000 0.000000 0.037819
#
#
# Mechanical properties :
#
#
# Convention : Reuss Voigt Hill
#
# Bulk Modulus (GPa) = 42.19071 76.37623 59.28347
# Shear Modulus (GPa) = 25.85119 32.50107 29.17613
#
# Velocity S-wave (km/s) = 3.78380 4.24265 4.01978
# Velocity P-wave (km/s) = 6.51583 8.14245 7.37413
#
# Compressibility (1/GPa) = 0.02370190
#
# Stress axis : x y z
#
# Youngs Moduli (GPa) = 97.05540 27.05436 83.48556
#
# Poissons Ratio (x) = 0.06181 0.36774
# Poissons Ratio (y) = 0.22173 0.92516
# Poissons Ratio (z) = 0.42751 0.29981
#
# Static dielectric constant tensor:
#      x y z
#    x 3.458710 0.000000 0.000000 
#    y 0.000000 3.063900 0.000000 
#    z 0.000000 0.000000 3.377320 
# 
# 
# High freq. dielectric constant tensor:
#      x y z
#    x 1.692270 0.000000 0.000000 
#    y 0.000000 1.676410 0.000000 
#    z 0.000000 0.000000 1.713520 
# 
# From -- ./inp_files/24483.got.cif
#   From: 2010.03.12/outbox.cif.g09.slc.cpg/sg38_13_cif.got.tgz:24483.got - 2010.04.14 02:38:36.
