data_PCOD8177602
_publ_section_title
;
Structure prediction by ZEFSAII (Michael W. Deem and Ramdas Pophale) SiO2 
 PCOD8177602
Probable space group: A M M 2
;
_chemical_formula_sum "Si O2"
_cell_formula_units_Z 64
_cell_length_a 19.936540
_cell_length_b 8.952347
_cell_length_c 19.980585
_cell_angle_alpha 90.000000
_cell_angle_beta 90.000000
_cell_angle_gamma 90.000000
_cell_volume 3566.111315
_symmetry_space_group_name_H-M "A M M 2"
_symmetry_group_IT_number 38
_symmetry_cell_setting 'orthorhombic'
loop_
_space_group_symop_operation_xyz
x,y,z
-x,-y,z
-x,y,z
x,-y,z
x,1/2+y,1/2+z
-x,1/2-y,1/2+z
-x,1/2+y,1/2+z
x,1/2-y,1/2+z
loop_
_atom_site_type_symbol
_atom_site_label
_atom_site_fract_x
_atom_site_fract_y
_atom_site_fract_z
Si Si1 0.811316 0.323068 0.509890
Si Si2 0.320305 0.176469 0.320561
Si Si3 0.823817 0.323557 0.873367
Si Si4 0.425624 0.323474 0.927418
Si Si5 0.847981 0.824395 0.642297
Si Si6 0.326689 0.173190 0.540232
Si Si7 0.299707 0.171098 0.687130
Si Si8 0.922975 0.828053 0.256220
O O1 0.815716 0.500000 0.511677
O O2 0.842911 0.261668 0.441266
O O3 0.854725 0.256901 0.570982
O O4 0.734302 0.272249 0.514136
O O5 0.248746 0.232561 0.347860
O O6 0.379193 0.241224 0.367899
O O7 0.332926 0.231975 0.245363
O O8 0.321971 0.000000 0.320196
O O9 0.824408 0.500000 0.886673
O O10 0.878648 0.274938 0.818790
O O11 0.500000 0.251692 0.923575
O O12 0.430840 0.500000 0.919927
O O13 0.392973 0.282365 0.999072
O O14 0.777111 0.780294 0.675664
O O15 0.906703 0.769432 0.690873
O O16 0.853454 0.000000 0.629943
O O17 0.341009 0.200658 0.618716
O O18 0.306426 0.000000 0.527841
O O19 0.303813 0.000000 0.709233
O O20 0.000000 0.803006 0.275763
O O21 0.907299 0.000000 0.239051
#
# Coordination Sequence:
#
# PCOD8177602 Si02
#       8
#     8   8   8   8   8   8   8   8
#     4  11  21  32  53  82 108 136 177 226 273 315
#     4  10  18  30  52  77 102 135 175 216 261 313
#     4  10  19  34  54  78 109 142 177 219 267 321
#     4   9  17  31  52  75 100 136 182 222 260 316
#     4  10  20  35  55  79 108 141 177 220 267 320
#     4   9  17  33  52  74 103 136 174 220 269 318
#     4   9  18  30  49  76 104 130 166 215 263 307
#     4  10  21  37  57  81 110 143 178 218 268 325
#
# _framework density 17.946719999999999
#
# number of rings (size 3 to 8) (size 9 to 14) (size 15 to 20)
#    0.000    2.250    2.500    2.250    0.000    3.250 
#    0.000    1.250    0.000    4.500    0.000    0.000 
#    0.000    0.000    0.000    0.000    0.000    0.000 
#
# Total GULP energy -396832.847423 kJ/mol
# GULP energy per Si atom -12401.026482 kJ/mol
# Density = 1.790587 g / cm^3
# Si number density = 17.946720 Si / 1000 Ang^3
#
#
#
# Elastic Constant Matrix: (Units=GPa)
#
#
# Indices 1 2 3 4 5 6 
#
# 1 103.4691 28.6706 63.9320 0.0000 0.0000 0.0000
# 2 28.6706 59.0325 47.4243 0.0000 0.0000 0.0000
# 3 63.9320 47.4243 154.3392 0.0000 0.0000 0.0000
# 4 0.0000 0.0000 0.0000 34.0349 0.0000 0.0000
# 5 0.0000 0.0000 0.0000 0.0000 27.5016 0.0000
# 6 0.0000 0.0000 0.0000 0.0000 0.0000 14.6315
#
#
#
# Elastic Compliance Matrix: (Units=1/GPa)
#
#
# Indices 1 2 3 4 5 6 
#
# 1 0.013306 -0.002701 -0.004682 0.000000 0.000000 0.000000
# 2 -0.002701 0.023040 -0.005961 0.000000 0.000000 0.000000
# 3 -0.004682 -0.005961 0.010250 0.000000 0.000000 0.000000
# 4 0.000000 0.000000 0.000000 0.029382 0.000000 0.000000
# 5 0.000000 0.000000 0.000000 0.000000 0.036362 0.000000
# 6 0.000000 0.000000 0.000000 0.000000 0.000000 0.068346
#
#
# Mechanical properties :
#
#
# Convention : Reuss Voigt Hill
#
# Bulk Modulus (GPa) = 50.22849 66.32164 58.27507
# Shear Modulus (GPa) = 23.36347 27.02119 25.19233
#
# Velocity S-wave (km/s) = 3.61199 3.88446 3.75070
# Velocity P-wave (km/s) = 6.74119 7.56000 7.16231
#
# Compressibility (1/GPa) = 0.01990902
#
# Stress axis : x y z
#
# Youngs Moduli (GPa) = 75.15415 43.40205 97.55975
#
# Poissons Ratio (x) = 0.11724 0.45675
# Poissons Ratio (y) = 0.20301 0.58153
# Poissons Ratio (z) = 0.35185 0.25871
#
# Static dielectric constant tensor:
#      x y z
#    x 3.238410 0.000000 0.000000 
#    y 0.000000 3.090480 0.000000 
#    z 0.000000 0.000000 3.492310 
# 
# 
# High freq. dielectric constant tensor:
#      x y z
#    x 1.666820 0.000000 0.000000 
#    y 0.000000 1.675810 0.000000 
#    z 0.000000 0.000000 1.709310 
# 
# From -- ./inp_files/21408.got.cif
#   From: 2010.03.12/outbox.cif.g09.slc.cpg/sg38_11_cif.got.tgz:21408.got - 2010.04.14 02:38:36.
