data_PCOD8177205
_publ_section_title
;
Structure prediction by ZEFSAII (Michael W. Deem and Ramdas Pophale) SiO2 
 PCOD8177205
Probable space group: A M M 2
;
_chemical_formula_sum "Si O2"
_cell_formula_units_Z 64
_cell_length_a 8.926856
_cell_length_b 23.392483
_cell_length_c 19.403583
_cell_angle_alpha 90.000000
_cell_angle_beta 90.000000
_cell_angle_gamma 90.000000
_cell_volume 4051.881955
_symmetry_space_group_name_H-M "A M M 2"
_symmetry_group_IT_number 38
_symmetry_cell_setting 'orthorhombic'
loop_
_space_group_symop_operation_xyz
x,y,z
-x,-y,z
-x,y,z
x,-y,z
x,1/2+y,1/2+z
-x,1/2-y,1/2+z
-x,1/2+y,1/2+z
x,1/2-y,1/2+z
loop_
_atom_site_type_symbol
_atom_site_label
_atom_site_fract_x
_atom_site_fract_y
_atom_site_fract_z
Si Si1 0.676318 0.655228 0.233150
Si Si2 0.677717 0.756743 0.961607
Si Si3 0.323259 0.276126 0.107025
Si Si4 0.822932 0.435476 0.322310
Si Si5 0.177676 0.120423 0.964693
Si Si6 0.677964 0.333611 0.685750
Si Si7 0.675075 0.934947 0.093468
Si Si8 0.677037 0.231583 0.313185
O O1 0.500000 0.644439 0.236745
O O2 0.730757 0.671147 0.155084
O O3 0.758670 0.597948 0.256494
O O4 0.725623 0.707163 0.282900
O O5 0.500000 0.766194 0.958298
O O6 0.751157 0.817783 0.973267
O O7 0.738837 0.726762 0.891558
O O8 0.722955 0.716528 0.026766
O O9 0.500000 0.272764 0.114972
O O10 0.258965 0.215829 0.135185
O O11 0.761505 0.500000 0.319624
O O12 0.766830 0.406512 0.392835
O O13 0.000000 0.434422 0.318042
O O14 0.000000 0.125233 0.967873
O O15 0.233252 0.078889 0.024939
O O16 0.500000 0.331778 0.687432
O O17 0.732021 0.394907 0.656880
O O18 0.738343 0.319633 0.763608
O O19 0.500000 0.924162 0.078349
O O20 0.706479 0.000000 0.115632
O O21 0.500000 0.227898 0.314755
#
# Coordination Sequence:
#
# PCOD8177205 Si02
#       8
#     8   8   8   8   8   8   8   8
#     4   9  16  28  45  66  84 106 145 184 214 249
#     4  10  16  27  47  67  86 115 149 175 203 255
#     4   8  14  24  43  65  87 109 134 177 223 252
#     4  10  21  34  44  57  84 121 150 174 214 257
#     4  11  21  31  42  60  90 121 144 174 213 250
#     4   8  13  24  40  62  88 109 135 179 219 242
#     4  10  19  30  46  64  83 115 155 183 204 243
#     4   8  14  23  42  66  86 109 141 176 211 251
#
# _framework density 15.795128999999999
#
# number of rings (size 3 to 8) (size 9 to 14) (size 15 to 20)
#    0.000    2.750    2.500    2.250    0.000    1.500 
#    0.000    0.625    0.000    0.750    0.000    0.875 
#    0.000    5.000    0.000    0.625    0.000    1.000 
#
# Total GULP energy -396514.342936 kJ/mol
# GULP energy per Si atom -12391.073217 kJ/mol
# Density = 1.575918 g / cm^3
# Si number density = 15.795129 Si / 1000 Ang^3
#
#
#
# Elastic Constant Matrix: (Units=GPa)
#
#
# Indices 1 2 3 4 5 6 
#
# 1 16.2942 15.0626 18.0473 0.0000 0.0000 0.0000
# 2 15.0626 80.4689 60.0842 0.0000 0.0000 0.0000
# 3 18.0473 60.0842 137.5467 0.0000 0.0000 0.0000
# 4 0.0000 0.0000 0.0000 25.3427 0.0000 0.0000
# 5 0.0000 0.0000 0.0000 0.0000 11.8445 0.0000
# 6 0.0000 0.0000 0.0000 0.0000 0.0000 11.6473
#
#
#
# Elastic Compliance Matrix: (Units=1/GPa)
#
#
# Indices 1 2 3 4 5 6 
#
# 1 0.077067 -0.010204 -0.005655 0.000000 0.000000 0.000000
# 2 -0.010204 0.019794 -0.007308 0.000000 0.000000 0.000000
# 3 -0.005655 -0.007308 0.011204 0.000000 0.000000 0.000000
# 4 0.000000 0.000000 0.000000 0.039459 0.000000 0.000000
# 5 0.000000 0.000000 0.000000 0.000000 0.084428 0.000000
# 6 0.000000 0.000000 0.000000 0.000000 0.000000 0.085857
#
#
# Mechanical properties :
#
#
# Convention : Reuss Voigt Hill
#
# Bulk Modulus (GPa) = 16.19876 46.74425 31.47150
# Shear Modulus (GPa) = 12.99654 19.17460 16.08557
#
# Velocity S-wave (km/s) = 2.87159 3.48797 3.19468
# Velocity P-wave (km/s) = 4.61222 6.77345 5.79448
#
# Compressibility (1/GPa) = 0.06173313
#
# Stress axis : x y z
#
# Youngs Moduli (GPa) = 12.97573 50.52157 89.25121
#
# Poissons Ratio (x) = 0.51551 0.50468
# Poissons Ratio (y) = 0.13240 0.65221
# Poissons Ratio (z) = 0.07337 0.36919
#
# Static dielectric constant tensor:
#      x y z
#    x 2.649360 0.000000 0.000000 
#    y 0.000000 2.989240 0.000000 
#    z 0.000000 0.000000 3.560760 
# 
# 
# High freq. dielectric constant tensor:
#      x y z
#    x 1.571010 0.000000 0.000000 
#    y 0.000000 1.580050 0.000000 
#    z 0.000000 0.000000 1.611700 
# 
# From -- ./inp_files/20205.got.cif
#   From: 2010.03.12/outbox.cif.g09.slc.cpg/sg38_11_cif.got.tgz:20205.got - 2010.04.14 02:38:36.
