data_PCOD8177554
_publ_section_title
;
Structure prediction by ZEFSAII (Michael W. Deem and Ramdas Pophale) SiO2 
 PCOD8177554
Probable space group: A M M 2
;
_chemical_formula_sum "Si O2"
_cell_formula_units_Z 64
_cell_length_a 8.965875
_cell_length_b 27.561323
_cell_length_c 14.834431
_cell_angle_alpha 90.000000
_cell_angle_beta 90.000000
_cell_angle_gamma 90.000000
_cell_volume 3665.756669
_symmetry_space_group_name_H-M "A M M 2"
_symmetry_group_IT_number 38
_symmetry_cell_setting 'orthorhombic'
loop_
_space_group_symop_operation_xyz
x,y,z
-x,-y,z
-x,y,z
x,-y,z
x,1/2+y,1/2+z
-x,1/2-y,1/2+z
-x,1/2+y,1/2+z
x,1/2-y,1/2+z
loop_
_atom_site_type_symbol
_atom_site_label
_atom_site_fract_x
_atom_site_fract_y
_atom_site_fract_z
Si Si1 0.675211 0.825666 0.334740
Si Si2 0.323579 0.139602 0.521120
Si Si3 0.324166 0.177951 0.137086
Si Si4 0.325336 0.554825 0.150512
Si Si5 0.674633 0.283295 0.324662
Si Si6 0.176867 0.219703 0.640289
Si Si7 0.825498 0.944343 0.833778
Si Si8 0.672815 0.869377 0.955704
O O1 0.500000 0.826727 0.334043
O O2 0.728870 0.860943 0.415728
O O3 0.729933 0.842534 0.235037
O O4 0.727843 0.770437 0.353905
O O5 0.500000 0.149526 0.530823
O O6 0.279318 0.088337 0.566072
O O7 0.233681 0.182899 0.565529
O O8 0.500000 0.189981 0.136685
O O9 0.239244 0.227496 0.115829
O O10 0.286470 0.138136 0.060945
O O11 0.500000 0.557270 0.169068
O O12 0.273267 0.500000 0.127977
O O13 0.247278 0.574528 0.240934
O O14 0.500000 0.284291 0.300907
O O15 0.763974 0.299472 0.236203
O O16 0.714991 0.319836 0.404610
O O17 0.000000 0.221205 0.641071
O O18 0.767761 0.913997 0.918660
O O19 0.000000 0.937265 0.824388
O O20 0.780634 0.000000 0.851012
O O21 0.500000 0.882135 0.942490
#
# Coordination Sequence:
#
# PCOD8177554 Si02
#       8
#     8   8   8   8   8   8   8   8
#     4   8  15  29  49  68  89 122 159 190 222 271
#     4  10  18  30  49  69  92 125 160 192 233 283
#     4   9  18  34  51  67  92 126 161 193 230 276
#     4   9  18  32  50  72  96 122 155 195 237 283
#     4   9  17  30  46  66  93 124 157 191 231 280
#     4  11  21  30  43  68  99 127 157 194 233 273
#     4  10  21  35  50  70  98 128 154 187 236 288
#     4  10  19  31  52  75  93 121 161 200 236 279
#
# _framework density 17.458877999999999
#
# number of rings (size 3 to 8) (size 9 to 14) (size 15 to 20)
#    0.000    2.500    0.000    3.750    0.000    7.250 
#    0.000    5.000    0.000    0.750    0.000    3.500 
#    0.000    2.000    0.000    0.000    0.000    0.000 
#
# Total GULP energy -396703.769240 kJ/mol
# GULP energy per Si atom -12396.992789 kJ/mol
# Density = 1.741914 g / cm^3
# Si number density = 17.458878 Si / 1000 Ang^3
#
#
#
# Elastic Constant Matrix: (Units=GPa)
#
#
# Indices 1 2 3 4 5 6 
#
# 1 45.0094 23.6368 39.0562 0.0000 0.0000 0.0000
# 2 23.6368 72.0332 75.2739 0.0000 0.0000 0.0000
# 3 39.0562 75.2739 151.4805 0.0000 0.0000 0.0000
# 4 0.0000 0.0000 0.0000 28.1230 0.0000 0.0000
# 5 0.0000 0.0000 0.0000 0.0000 3.0976 0.0000
# 6 0.0000 0.0000 0.0000 0.0000 0.0000 16.9770
#
#
#
# Elastic Compliance Matrix: (Units=1/GPa)
#
#
# Indices 1 2 3 4 5 6 
#
# 1 0.029050 -0.003548 -0.005727 0.000000 0.000000 0.000000
# 2 -0.003548 0.029312 -0.013651 0.000000 0.000000 0.000000
# 3 -0.005727 -0.013651 0.014862 0.000000 0.000000 0.000000
# 4 0.000000 0.000000 0.000000 0.035558 0.000000 0.000000
# 5 0.000000 0.000000 0.000000 0.000000 0.322829 0.000000
# 6 0.000000 0.000000 0.000000 0.000000 0.000000 0.058903
#
#
# Mechanical properties :
#
#
# Convention : Reuss Voigt Hill
#
# Bulk Modulus (GPa) = 36.53362 60.49521 48.51442
# Shear Modulus (GPa) = 9.16609 18.34328 13.75468
#
# Velocity S-wave (km/s) = 2.29380 3.24490 2.80988
# Velocity P-wave (km/s) = 5.29021 6.98316 6.19479
#
# Compressibility (1/GPa) = 0.02737205
#
# Stress axis : x y z
#
# Youngs Moduli (GPa) = 34.42310 34.11619 67.28787
#
# Poissons Ratio (x) = 0.12104 0.38536
# Poissons Ratio (y) = 0.12212 0.91854
# Poissons Ratio (z) = 0.19714 0.46571
#
# Static dielectric constant tensor:
#      x y z
#    x 3.047120 0.000000 0.000000 
#    y 0.000000 3.201310 0.000000 
#    z 0.000000 0.000000 3.701330 
# 
# 
# High freq. dielectric constant tensor:
#      x y z
#    x 1.655000 0.000000 0.000000 
#    y 0.000000 1.651820 0.000000 
#    z 0.000000 0.000000 1.680370 
# 
# From -- ./inp_files/12823.got.cif
#   From: 2010.03.12/outbox.cif.g09.slc.cpg/sg38_7_cif.got.tgz:12823.got - 2010.04.14 02:38:36.
