data_PCOD8177300
_publ_section_title
;
Structure prediction by ZEFSAII (Michael W. Deem and Ramdas Pophale) SiO2 
 PCOD8177300
Probable space group: A M M 2
;
_chemical_formula_sum "Si O2"
_cell_formula_units_Z 56
_cell_length_a 15.501395
_cell_length_b 8.543162
_cell_length_c 20.352037
_cell_angle_alpha 90.000000
_cell_angle_beta 90.000000
_cell_angle_gamma 90.000000
_cell_volume 2695.239161
_symmetry_space_group_name_H-M "A M M 2"
_symmetry_group_IT_number 38
_symmetry_cell_setting 'orthorhombic'
loop_
_space_group_symop_operation_xyz
x,y,z
-x,-y,z
-x,y,z
x,-y,z
x,1/2+y,1/2+z
-x,1/2-y,1/2+z
-x,1/2+y,1/2+z
x,1/2-y,1/2+z
loop_
_atom_site_type_symbol
_atom_site_label
_atom_site_fract_x
_atom_site_fract_y
_atom_site_fract_z
Si Si1 0.369496 0.317924 0.868040
Si Si2 0.405921 0.680403 0.501156
Si Si3 0.406265 0.814475 0.223316
Si Si4 0.227292 0.181656 0.533420
Si Si5 0.097039 0.319207 0.272668
Si Si6 0.806114 0.819957 0.899801
Si Si7 0.773213 0.683871 0.669582
O O1 0.391144 0.500000 0.879085
O O2 0.415095 0.215789 0.923936
O O3 0.403467 0.256176 0.798380
O O4 0.267252 0.292726 0.871242
O O5 0.500000 0.716010 0.533591
O O6 0.381245 0.500000 0.512766
O O7 0.330125 0.783996 0.532213
O O8 0.500000 0.762625 0.193434
O O9 0.323677 0.748047 0.183709
O O10 0.397891 0.000000 0.223116
O O11 0.175108 0.270353 0.475268
O O12 0.190435 0.235945 0.603635
O O13 0.210644 0.000000 0.523882
O O14 0.109026 0.500000 0.253286
O O15 0.113046 0.296436 0.351018
O O16 0.163511 0.219363 0.229843
O O17 0.000000 0.261907 0.258068
O O18 0.775068 0.000000 0.899725
O O19 0.769804 0.500000 0.658162
#
# Coordination Sequence:
#
# PCOD8177300 Si02
#       7
#     8   8   8   8   8   8   8
#     4  10  17  29  51  79 112 149 192 241 295 350
#     4  10  20  33  50  76 111 152 200 251 300 351
#     4   9  18  31  50  79 115 155 197 241 291 345
#     4  11  23  38  58  82 115 158 202 246 300 356
#     4  10  22  41  66  94 123 154 190 239 300 362
#     4  10  19  35  60  87 116 149 191 241 296 353
#     4  11  22  39  61  87 122 161 204 248 295 353
#
# _framework density 20.777377999999999
#
# number of rings (size 3 to 8) (size 9 to 14) (size 15 to 20)
#    0.000    1.857    1.429    5.143    0.000    3.143 
#    0.000    2.143    0.000    6.429    0.000    0.000 
#    0.000    0.000    0.000    0.000    0.000    0.000 
#
# Total GULP energy -347055.292559 kJ/mol
# GULP energy per Si atom -12394.831877 kJ/mol
# Density = 2.073009 g / cm^3
# Si number density = 20.777378 Si / 1000 Ang^3
#
#
#
# Elastic Constant Matrix: (Units=GPa)
#
#
# Indices 1 2 3 4 5 6 
#
# 1 86.2062 12.8918 32.5814 0.0000 0.0000 0.0000
# 2 12.8918 59.6329 23.4529 0.0000 0.0000 0.0000
# 3 32.5814 23.4529 119.9561 0.0000 0.0000 0.0000
# 4 0.0000 0.0000 0.0000 29.6035 0.0000 0.0000
# 5 0.0000 0.0000 0.0000 0.0000 1.5732 0.0000
# 6 0.0000 0.0000 0.0000 0.0000 0.0000 21.5989
#
#
#
# Elastic Compliance Matrix: (Units=1/GPa)
#
#
# Indices 1 2 3 4 5 6 
#
# 1 0.013058 -0.001547 -0.003244 0.000000 0.000000 0.000000
# 2 -0.001547 0.018349 -0.003167 0.000000 0.000000 0.000000
# 3 -0.003244 -0.003167 0.009837 0.000000 0.000000 0.000000
# 4 0.000000 0.000000 0.000000 0.033780 0.000000 0.000000
# 5 0.000000 0.000000 0.000000 0.000000 0.635664 0.000000
# 6 0.000000 0.000000 0.000000 0.000000 0.000000 0.046299
#
#
# Mechanical properties :
#
#
# Convention : Reuss Voigt Hill
#
# Bulk Modulus (GPa) = 39.48386 44.84970 42.16678
# Shear Modulus (GPa) = 6.39922 23.67972 15.03947
#
# Velocity S-wave (km/s) = 1.75687 3.37959 2.69334
# Velocity P-wave (km/s) = 4.81248 6.07137 5.47821
#
# Compressibility (1/GPa) = 0.02532681
#
# Stress axis : x y z
#
# Youngs Moduli (GPa) = 76.58407 54.49771 101.65937
#
# Poissons Ratio (x) = 0.08431 0.32979
# Poissons Ratio (y) = 0.11847 0.32199
# Poissons Ratio (z) = 0.24845 0.17261
#
# Static dielectric constant tensor:
#      x y z
#    x 3.629820 0.000000 0.000000 
#    y 0.000000 3.562660 0.000000 
#    z 0.000000 0.000000 3.874040 
# 
# 
# High freq. dielectric constant tensor:
#      x y z
#    x 1.790550 0.000000 0.000000 
#    y 0.000000 1.798300 0.000000 
#    z 0.000000 0.000000 1.816690 
# 
# From -- ./inp_files/21026.got.cif
#   From: 2010.03.12/outbox.cif.g09.slc.cpg/sg38_11_cif.got.tgz:21026.got - 2010.04.14 02:38:36.
