data_PCOD8177046
_publ_section_title
;
Structure prediction by ZEFSAII (Michael W. Deem and Ramdas Pophale) SiO2 
 PCOD8177046
Probable space group: C C C 2
;
_chemical_formula_sum "Si O2"
_cell_formula_units_Z 60
_cell_length_a 27.013925
_cell_length_b 11.091454
_cell_length_c 8.762702
_cell_angle_alpha 90.000000
_cell_angle_beta 90.000000
_cell_angle_gamma 90.000000
_cell_volume 2625.513252
_symmetry_space_group_name_H-M "C C C 2"
_symmetry_group_IT_number 37
_symmetry_cell_setting 'orthorhombic'
loop_
_space_group_symop_operation_xyz
x,y,z
-x,-y,z
-x,y,1/2+z
x,-y,1/2+z
1/2+x,1/2+y,z
1/2-x,1/2-y,z
1/2-x,1/2+y,1/2+z
1/2+x,1/2-y,1/2+z
loop_
_atom_site_type_symbol
_atom_site_label
_atom_site_fract_x
_atom_site_fract_y
_atom_site_fract_z
Si Si1 0.639082 0.713782 0.157640
Si Si2 0.208708 0.655380 0.848827
Si Si3 0.536983 0.830775 0.072788
Si Si4 0.035227 0.894198 0.048242
Si Si5 0.598375 0.506809 0.801160
Si Si6 0.500000 0.000000 0.827814
Si Si7 0.218721 0.594295 0.201373
Si Si8 0.682599 0.307776 0.359026
O O1 0.655885 0.779343 0.315770
O O2 0.589731 0.768234 0.082752
O O3 0.629180 0.572457 0.181589
O O4 0.685575 0.725072 0.039007
O O5 0.250000 0.750000 0.799694
O O6 0.207737 0.543208 0.734193
O O7 0.219379 0.612838 0.020273
O O8 0.492446 0.734225 0.047332
O O9 0.530053 0.904438 0.228229
O O10 0.538018 0.924884 0.933241
O O11 0.053628 0.922211 0.219298
O O12 0.080047 0.907580 0.926281
O O13 0.000000 0.000000 0.992877
O O14 0.634024 0.610298 0.860558
O O15 0.270094 0.626277 0.286804
O O16 0.175840 0.682428 0.266483
#
# Coordination Sequence:
#
# PCOD8177046 Si02
#       8
#     8   8   8   8   8   4   8   8
#     4  12  27  44  74 110 148 194 260 314 379 452
#     4  12  27  49  77 109 149 202 253 316 384 463
#     4  11  25  49  71 108 149 204 252 316 375 462
#     4  12  25  43  73 109 156 192 245 311 397 445
#     4  12  25  43  73 114 148 195 246 317 377 464
#     4  10  26  48  76  96 150 212 254 296 380 452
#     4  11  27  49  76 104 152 203 245 313 395 453
#     4  11  25  47  70 108 150 195 254 310 383 460
#
# _framework density 22.852674
#
# number of rings (size 3 to 8) (size 9 to 14) (size 15 to 20)
#    0.000    0.533    4.000    2.800   11.200    2.133 
#    2.400    0.000    0.000    0.000    0.000    0.000 
#    0.000    0.000    0.000    0.000    0.000    0.000 
#
# Total GULP energy -371829.295598 kJ/mol
# GULP energy per Si atom -12394.309853 kJ/mol
# Density = 2.280066 g / cm^3
# Si number density = 22.852674 Si / 1000 Ang^3
#
#
#
# Elastic Constant Matrix: (Units=GPa)
#
#
# Indices 1 2 3 4 5 6 
#
# 1 99.3693 50.5351 52.4806 0.0000 0.0000 0.0000
# 2 50.5351 158.5705 46.6515 0.0000 0.0000 0.0000
# 3 52.4806 46.6515 122.2705 0.0000 0.0000 0.0000
# 4 0.0000 0.0000 0.0000 30.8525 0.0000 0.0000
# 5 0.0000 0.0000 0.0000 0.0000 34.4936 0.0000
# 6 0.0000 0.0000 0.0000 0.0000 0.0000 24.1195
#
#
#
# Elastic Compliance Matrix: (Units=1/GPa)
#
#
# Indices 1 2 3 4 5 6 
#
# 1 0.014239 -0.003086 -0.004934 0.000000 0.000000 0.000000
# 2 -0.003086 0.007773 -0.001641 0.000000 0.000000 0.000000
# 3 -0.004934 -0.001641 0.010922 0.000000 0.000000 0.000000
# 4 0.000000 0.000000 0.000000 0.032412 0.000000 0.000000
# 5 0.000000 0.000000 0.000000 0.000000 0.028991 0.000000
# 6 0.000000 0.000000 0.000000 0.000000 0.000000 0.041460
#
#
# Mechanical properties :
#
#
# Convention : Reuss Voigt Hill
#
# Bulk Modulus (GPa) = 73.46694 75.50497 74.48596
# Shear Modulus (GPa) = 31.31716 33.26267 32.28991
#
# Velocity S-wave (km/s) = 3.70590 3.81927 3.76301
# Velocity P-wave (km/s) = 7.10841 7.24988 7.17949
#
# Compressibility (1/GPa) = 0.01361156
#
# Stress axis : x y z
#
# Youngs Moduli (GPa) = 70.23050 128.65610 91.55454
#
# Poissons Ratio (x) = 0.39706 0.45173
# Poissons Ratio (y) = 0.21675 0.15024
# Poissons Ratio (z) = 0.34652 0.21112
#
# Static dielectric constant tensor:
#      x y z
#    x 4.093090 0.000000 0.000000 
#    y 0.000000 4.369240 0.000000 
#    z 0.000000 0.000000 4.298380 
# 
# 
# High freq. dielectric constant tensor:
#      x y z
#    x 1.885480 0.000000 0.000000 
#    y 0.000000 1.918970 0.000000 
#    z 0.000000 0.000000 1.921280 
# 
# From -- ./inp_files/4802.got.cif
#   From: 2010.03.12/outbox.cif.g09.slc.cpg/sg37_3_cif.got.tgz:4802.got - 2010.04.14 02:25:27.
