data_PCOD8177343
_publ_section_title
;
Structure prediction by ZEFSAII (Michael W. Deem and Ramdas Pophale) SiO2 
 PCOD8177343
Probable space group: A M M 2
;
_chemical_formula_sum "Si O2"
_cell_formula_units_Z 56
_cell_length_a 8.965788
_cell_length_b 31.750721
_cell_length_c 13.921576
_cell_angle_alpha 90.000000
_cell_angle_beta 90.000000
_cell_angle_gamma 90.000000
_cell_volume 3963.058288
_symmetry_space_group_name_H-M "A M M 2"
_symmetry_group_IT_number 38
_symmetry_cell_setting 'orthorhombic'
loop_
_space_group_symop_operation_xyz
x,y,z
-x,-y,z
-x,y,z
x,-y,z
x,1/2+y,1/2+z
-x,1/2-y,1/2+z
-x,1/2+y,1/2+z
x,1/2-y,1/2+z
loop_
_atom_site_type_symbol
_atom_site_label
_atom_site_fract_x
_atom_site_fract_y
_atom_site_fract_z
Si Si1 0.170440 0.315952 0.393840
Si Si2 0.829348 0.547094 0.191314
Si Si3 0.675594 0.379611 0.271982
Si Si4 0.323753 0.312301 0.956638
Si Si5 0.826178 0.230712 0.287764
Si Si6 0.170708 0.125797 0.583579
Si Si7 0.826732 0.738473 0.570196
O O1 0.274901 0.355633 0.368779
O O2 0.212918 0.277181 0.324854
O O3 0.200452 0.302490 0.503883
O O4 0.000000 0.329674 0.378385
O O5 0.766619 0.500000 0.174435
O O6 0.732509 0.571548 0.272940
O O7 0.818618 0.574435 0.091767
O O8 0.000000 0.545568 0.226803
O O9 0.500000 0.378365 0.260706
O O10 0.753272 0.355698 0.181250
O O11 0.500000 0.314052 0.955511
O O12 0.265420 0.303295 0.849442
O O13 0.259107 0.357464 0.990807
O O14 0.269105 0.277404 0.032267
O O15 0.776692 0.226466 0.177353
O O16 0.000000 0.220972 0.302557
O O17 0.000000 0.141255 0.579069
O O18 0.000000 0.752127 0.566379
#
# Coordination Sequence:
#
# PCOD8177343 Si02
#       7
#     8   8   8   8   8   8   8
#     4   9  16  27  42  60  81 110 146 178 211 253
#     4   8  16  30  46  63  84 113 143 172 209 253
#     4  10  18  26  40  63  87 112 138 170 211 254
#     4  11  20  28  41  62  85 109 140 176 217 258
#     4   9  18  31  45  58  77 108 146 184 216 247
#     4   9  17  29  44  59  81 112 142 172 202 248
#     4   9  18  31  46  59  77 110 149 184 214 246
#
# _framework density 14.1305
#
# number of rings (size 3 to 8) (size 9 to 14) (size 15 to 20)
#    0.857    1.857    0.000    4.286    0.000    4.286 
#    0.000    0.000    0.000    0.000    0.000    0.000 
#    0.000    1.143    0.000    9.143    0.000    4.143 
#
# Total GULP energy -346972.328523 kJ/mol
# GULP energy per Si atom -12391.868876 kJ/mol
# Density = 1.409834 g / cm^3
# Si number density = 14.130500 Si / 1000 Ang^3
#
#
#
# Elastic Constant Matrix: (Units=GPa)
#
#
# Indices 1 2 3 4 5 6 
#
# 1 86.5909 39.2805 37.7601 0.0000 0.0000 0.0000
# 2 39.2805 82.5145 43.1399 0.0000 0.0000 0.0000
# 3 37.7601 43.1399 96.9048 0.0000 0.0000 0.0000
# 4 0.0000 0.0000 0.0000 16.9176 0.0000 0.0000
# 5 0.0000 0.0000 0.0000 0.0000 15.7687 0.0000
# 6 0.0000 0.0000 0.0000 0.0000 0.0000 14.7066
#
#
#
# Elastic Compliance Matrix: (Units=1/GPa)
#
#
# Indices 1 2 3 4 5 6 
#
# 1 0.015649 -0.005554 -0.003625 0.000000 0.000000 0.000000
# 2 -0.005554 0.017767 -0.005745 0.000000 0.000000 0.000000
# 3 -0.003625 -0.005745 0.014290 0.000000 0.000000 0.000000
# 4 0.000000 0.000000 0.000000 0.059110 0.000000 0.000000
# 5 0.000000 0.000000 0.000000 0.000000 0.063417 0.000000
# 6 0.000000 0.000000 0.000000 0.000000 0.000000 0.067997
#
#
# Mechanical properties :
#
#
# Convention : Reuss Voigt Hill
#
# Bulk Modulus (GPa) = 56.00275 56.26346 56.13310
# Shear Modulus (GPa) = 18.24617 19.20056 18.72337
#
# Velocity S-wave (km/s) = 3.59731 3.69019 3.64405
# Velocity P-wave (km/s) = 7.54803 7.61972 7.58396
#
# Compressibility (1/GPa) = 0.01785627
#
# Stress axis : x y z
#
# Youngs Moduli (GPa) = 63.90175 56.28481 69.98102
#
# Poissons Ratio (x) = 0.31262 0.25369
# Poissons Ratio (y) = 0.35493 0.40205
# Poissons Ratio (z) = 0.23165 0.32336
#
# Static dielectric constant tensor:
#      x y z
#    x 2.713490 0.000000 0.000000 
#    y 0.000000 2.632230 0.000000 
#    z 0.000000 0.000000 2.720060 
# 
# 
# High freq. dielectric constant tensor:
#      x y z
#    x 1.543980 0.000000 0.000000 
#    y 0.000000 1.511200 0.000000 
#    z 0.000000 0.000000 1.515630 
# 
# From -- ./inp_files/12995.got.cif
#   From: 2010.03.12/outbox.cif.g09.slc.cpg/sg38_7_cif.got.tgz:12995.got - 2010.04.14 02:38:36.
