data_PCOD8177799
_publ_section_title
;
Structure prediction by ZEFSAII (Michael W. Deem and Ramdas Pophale) SiO2 
 PCOD8177799
Probable space group: A M M 2
;
_chemical_formula_sum "Si O2"
_cell_formula_units_Z 48
_cell_length_a 8.720267
_cell_length_b 14.560615
_cell_length_c 20.300052
_cell_angle_alpha 90.000000
_cell_angle_beta 90.000000
_cell_angle_gamma 90.000000
_cell_volume 2577.547347
_symmetry_space_group_name_H-M "A M M 2"
_symmetry_group_IT_number 38
_symmetry_cell_setting 'orthorhombic'
loop_
_space_group_symop_operation_xyz
x,y,z
-x,-y,z
-x,y,z
x,-y,z
x,1/2+y,1/2+z
-x,1/2-y,1/2+z
-x,1/2+y,1/2+z
x,1/2-y,1/2+z
loop_
_atom_site_type_symbol
_atom_site_label
_atom_site_fract_x
_atom_site_fract_y
_atom_site_fract_z
Si Si1 0.679970 0.309699 0.453900
Si Si2 0.681105 0.187915 0.201552
Si Si3 0.180437 0.500000 0.663254
Si Si4 0.317765 0.695231 0.078264
Si Si5 0.823488 0.000000 0.757643
Si Si6 0.821969 0.695099 0.315157
Si Si7 0.680646 0.000000 0.617542
Si Si8 0.678157 0.000000 0.020410
O O1 0.500000 0.299983 0.439382
O O2 0.736540 0.239111 0.509909
O O3 0.774889 0.283663 0.389637
O O4 0.721141 0.412006 0.477162
O O5 0.500000 0.176607 0.197042
O O6 0.755566 0.088040 0.201361
O O7 0.746298 0.245412 0.139356
O O8 0.724159 0.239602 0.268290
O O9 0.226692 0.500000 0.587081
O O10 0.000000 0.500000 0.668724
O O11 0.500000 0.695117 0.082738
O O12 0.251170 0.591552 0.083253
O O13 0.783483 0.088861 0.800916
O O14 0.716682 0.000000 0.694366
O O15 0.000000 0.000000 0.734816
O O16 0.000000 0.716919 0.304693
O O17 0.500000 0.000000 0.609340
O O18 0.500000 0.000000 0.040829
#
# Coordination Sequence:
#
# PCOD8177799 Si02
#       8
#     8   8   4   8   4   8   4   4
#     4  10  20  36  56  82 114 154 197 241 290 344
#     4  11  21  39  63  85 112 153 201 246 287 342
#     4  12  24  37  58  91 123 151 187 239 302 361
#     4   9  18  33  58  86 113 143 191 246 285 332
#     4  10  21  35  53  81 121 153 182 231 290 350
#     4  11  23  38  55  84 122 158 194 239 296 356
#     4  10  18  33  58  89 113 141 189 239 282 334
#     4  10  19  35  59  85 117 153 200 249 288 347
#
# _framework density 18.622354000000001
#
# number of rings (size 3 to 8) (size 9 to 14) (size 15 to 20)
#    0.000    1.667    3.333    2.250    0.000    1.333 
#    0.000    1.667    0.000    2.000    0.000    0.000 
#    0.000    0.000    0.000    0.000    0.000    0.000 
#
# Total GULP energy -297679.806488 kJ/mol
# GULP energy per Si atom -12403.325270 kJ/mol
# Density = 1.857997 g / cm^3
# Si number density = 18.622354 Si / 1000 Ang^3
#
#
#
# Elastic Constant Matrix: (Units=GPa)
#
#
# Indices 1 2 3 4 5 6 
#
# 1 55.5684 35.8132 25.0592 0.0000 0.0000 0.0000
# 2 35.8132 153.6369 67.4289 0.0000 0.0000 0.0000
# 3 25.0592 67.4289 123.3404 0.0000 0.0000 0.0000
# 4 0.0000 0.0000 0.0000 29.1824 0.0000 0.0000
# 5 0.0000 0.0000 0.0000 0.0000 23.3928 0.0000
# 6 0.0000 0.0000 0.0000 0.0000 0.0000 20.8211
#
#
#
# Elastic Compliance Matrix: (Units=1/GPa)
#
#
# Indices 1 2 3 4 5 6 
#
# 1 0.021603 -0.004091 -0.002153 0.000000 0.000000 0.000000
# 2 -0.004091 0.009338 -0.004274 0.000000 0.000000 0.000000
# 3 -0.002153 -0.004274 0.010882 0.000000 0.000000 0.000000
# 4 0.000000 0.000000 0.000000 0.034267 0.000000 0.000000
# 5 0.000000 0.000000 0.000000 0.000000 0.042748 0.000000
# 6 0.000000 0.000000 0.000000 0.000000 0.000000 0.048028
#
#
# Mechanical properties :
#
#
# Convention : Reuss Voigt Hill
#
# Bulk Modulus (GPa) = 48.10517 65.46093 56.78305
# Shear Modulus (GPa) = 25.66326 28.29556 26.97941
#
# Velocity S-wave (km/s) = 3.71629 3.90223 3.81039
# Velocity P-wave (km/s) = 6.65601 7.45193 7.06519
#
# Compressibility (1/GPa) = 0.02078779
#
# Stress axis : x y z
#
# Youngs Moduli (GPa) = 46.28942 107.08650 91.89894
#
# Poissons Ratio (x) = 0.43809 0.19783
# Poissons Ratio (y) = 0.18937 0.39277
# Poissons Ratio (z) = 0.09964 0.45768
#
# Static dielectric constant tensor:
#      x y z
#    x 3.210330 0.000000 0.000000 
#    y 0.000000 3.810710 0.000000 
#    z 0.000000 0.000000 3.326090 
# 
# 
# High freq. dielectric constant tensor:
#      x y z
#    x 1.705990 0.000000 0.000000 
#    y 0.000000 1.732930 0.000000 
#    z 0.000000 0.000000 1.719130 
# 
# From -- ./inp_files/16708.got.cif
#   From: 2010.03.12/outbox.cif.g09.slc.cpg/sg38_9_cif.got.tgz:16708.got - 2010.04.14 02:38:36.
