data_PCOD8177629
_publ_section_title
;
Structure prediction by ZEFSAII (Michael W. Deem and Ramdas Pophale) SiO2 
 PCOD8177629
Probable space group: A M M 2
;
_chemical_formula_sum "Si O2"
_cell_formula_units_Z 64
_cell_length_a 19.496596
_cell_length_b 19.989094
_cell_length_c 9.022137
_cell_angle_alpha 90.000000
_cell_angle_beta 90.000000
_cell_angle_gamma 90.000000
_cell_volume 3516.100827
_symmetry_space_group_name_H-M "A M M 2"
_symmetry_group_IT_number 38
_symmetry_cell_setting 'orthorhombic'
loop_
_space_group_symop_operation_xyz
x,y,z
-x,-y,z
-x,y,z
x,-y,z
x,1/2+y,1/2+z
-x,1/2-y,1/2+z
-x,1/2+y,1/2+z
x,1/2-y,1/2+z
loop_
_atom_site_type_symbol
_atom_site_label
_atom_site_fract_x
_atom_site_fract_y
_atom_site_fract_z
Si Si1 0.839828 0.769724 0.719560
Si Si2 0.695653 0.687049 0.221813
Si Si3 0.677907 0.172482 0.071590
Si Si4 0.076349 0.696478 0.478258
Si Si5 0.675502 0.422782 0.997543
Si Si6 0.579437 0.076478 0.225147
Si Si7 0.210357 0.366840 0.789263
Si Si8 0.075437 0.575104 0.678194
O O1 0.777072 0.819513 0.687743
O O2 0.871443 0.742475 0.568696
O O3 0.900082 0.806244 0.808528
O O4 0.809411 0.709812 0.822772
O O5 0.667117 0.756647 0.155160
O O6 0.681721 0.684059 0.396607
O O7 0.660953 0.623398 0.141056
O O8 0.612720 0.125623 0.104317
O O9 0.746243 0.134703 0.133909
O O10 0.079236 0.620851 0.533729
O O11 0.000000 0.726727 0.488414
O O12 0.682251 0.500000 0.047233
O O13 0.612355 0.412325 0.886441
O O14 0.745346 0.399171 0.918805
O O15 0.500000 0.094439 0.238416
O O16 0.591081 0.000000 0.172968
O O17 0.139333 0.408421 0.784227
O O18 0.082478 0.500000 0.621002
O O19 0.000000 0.586076 0.756442
#
# Coordination Sequence:
#
# PCOD8177629 Si02
#       8
#     8   8   8   8   8   8   8   8
#     4  10  18  31  49  69  96 130 164 213 266 305
#     4  11  20  35  53  78 109 138 177 218 262 310
#     4  10  20  34  56  79 106 141 174 214 258 308
#     4  10  19  30  46  68  93 125 168 213 261 316
#     4  10  20  34  55  80 107 139 174 215 260 311
#     4   9  19  38  61  84 111 141 172 208 255 309
#     4   9  17  32  52  73  96 129 172 213 258 312
#     4   9  17  28  43  66  95 126 163 208 254 303
#
# _framework density 18.201981
#
# number of rings (size 3 to 8) (size 9 to 14) (size 15 to 20)
#    0.000    2.250    0.000    6.000    0.000    1.500 
#    0.000    5.000    0.000    1.500    0.000    0.000 
#    0.000    7.000    0.000    0.000    0.000    0.000 
#
# Total GULP energy -396623.208556 kJ/mol
# GULP energy per Si atom -12394.475267 kJ/mol
# Density = 1.816055 g / cm^3
# Si number density = 18.201981 Si / 1000 Ang^3
#
#
#
# Elastic Constant Matrix: (Units=GPa)
#
#
# Indices 1 2 3 4 5 6 
#
# 1 116.4484 45.4112 34.9832 0.0000 0.0000 0.0000
# 2 45.4112 79.3287 46.7053 0.0000 0.0000 0.0000
# 3 34.9832 46.7053 94.5097 0.0000 0.0000 0.0000
# 4 0.0000 0.0000 0.0000 23.3659 0.0000 0.0000
# 5 0.0000 0.0000 0.0000 0.0000 17.2308 0.0000
# 6 0.0000 0.0000 0.0000 0.0000 0.0000 27.0677
#
#
#
# Elastic Compliance Matrix: (Units=1/GPa)
#
#
# Indices 1 2 3 4 5 6 
#
# 1 0.011181 -0.005590 -0.001376 0.000000 0.000000 0.000000
# 2 -0.005590 0.020574 -0.008098 0.000000 0.000000 0.000000
# 3 -0.001376 -0.008098 0.015092 0.000000 0.000000 0.000000
# 4 0.000000 0.000000 0.000000 0.042797 0.000000 0.000000
# 5 0.000000 0.000000 0.000000 0.000000 0.058036 0.000000
# 6 0.000000 0.000000 0.000000 0.000000 0.000000 0.036944
#
#
# Mechanical properties :
#
#
# Convention : Reuss Voigt Hill
#
# Bulk Modulus (GPa) = 59.81503 60.49847 60.15675
# Shear Modulus (GPa) = 22.69370 24.41200 23.55285
#
# Velocity S-wave (km/s) = 3.53479 3.66618 3.60108
# Velocity P-wave (km/s) = 7.04222 7.15755 7.10012
#
# Compressibility (1/GPa) = 0.01671820
#
# Stress axis : x y z
#
# Youngs Moduli (GPa) = 89.43807 48.60595 66.25961
#
# Poissons Ratio (x) = 0.27172 0.09118
# Poissons Ratio (y) = 0.49999 0.53656
# Poissons Ratio (z) = 0.12307 0.39361
#
# Static dielectric constant tensor:
#      x y z
#    x 3.530770 0.000000 0.000000 
#    y 0.000000 3.427910 0.000000 
#    z 0.000000 0.000000 3.068400 
# 
# 
# High freq. dielectric constant tensor:
#      x y z
#    x 1.707900 0.000000 0.000000 
#    y 0.000000 1.701870 0.000000 
#    z 0.000000 0.000000 1.683260 
# 
# From -- ./inp_files/6870.got.cif
#   From: 2010.03.12/outbox.cif.g09.slc.cpg/sg38_4_cif.got.tgz:6870.got - 2010.04.14 02:38:36.
