data_PCOD8177262
_publ_section_title
;
Structure prediction by ZEFSAII (Michael W. Deem and Ramdas Pophale) SiO2 
 PCOD8177262
Probable space group: A M M 2
;
_chemical_formula_sum "Si O2"
_cell_formula_units_Z 64
_cell_length_a 14.188019
_cell_length_b 9.230981
_cell_length_c 31.676056
_cell_angle_alpha 90.000000
_cell_angle_beta 90.000000
_cell_angle_gamma 90.000000
_cell_volume 4148.591952
_symmetry_space_group_name_H-M "A M M 2"
_symmetry_group_IT_number 38
_symmetry_cell_setting 'orthorhombic'
loop_
_space_group_symop_operation_xyz
x,y,z
-x,-y,z
-x,y,z
x,-y,z
x,1/2+y,1/2+z
-x,1/2-y,1/2+z
-x,1/2+y,1/2+z
x,1/2-y,1/2+z
loop_
_atom_site_type_symbol
_atom_site_label
_atom_site_fract_x
_atom_site_fract_y
_atom_site_fract_z
Si Si1 0.395160 0.671518 0.214520
Si Si2 0.607106 0.672141 0.123660
Si Si3 0.892205 0.168356 0.009322
Si Si4 0.707709 0.331956 0.880643
Si Si5 0.389986 0.829735 0.805855
Si Si6 0.605523 0.827976 0.464775
Si Si7 0.894615 0.665286 0.923898
Si Si8 0.274631 0.172406 0.544833
O O1 0.500000 0.735073 0.213372
O O2 0.400044 0.500000 0.215783
O O3 0.348716 0.720450 0.169672
O O4 0.350335 0.721428 0.259353
O O5 0.500000 0.730749 0.117972
O O6 0.604040 0.500000 0.120516
O O7 0.673768 0.732294 0.086762
O O8 0.827383 0.252279 0.042953
O O9 0.000000 0.194244 0.023061
O O10 0.866081 0.000000 0.008783
O O11 0.873596 0.230488 0.962827
O O12 0.685054 0.500000 0.873836
O O13 0.674418 0.248551 0.839652
O O14 0.653206 0.271805 0.921757
O O15 0.819544 0.303644 0.886865
O O16 0.500000 0.786978 0.811091
O O17 0.377403 0.000000 0.812041
O O18 0.500000 0.764212 0.467638
O O19 0.664719 0.773455 0.504826
O O20 0.603092 0.000000 0.465153
O O21 0.881826 0.500000 0.940218
O O22 0.000000 0.690685 0.905797
O O23 0.261869 0.000000 0.545446
#
# Coordination Sequence:
#
# PCOD8177262 Si02
#       8
#     8   8   8   8   8   8   8   8
#     4   7  11  22  39  60  86 112 139 175 215 247
#     4   8  13  22  41  68  91 111 140 177 212 249
#     4  10  20  32  45  61  83 112 143 177 217 256
#     4  10  18  28  42  62  86 113 142 174 214 253
#     4   9  17  28  42  61  87 118 148 176 207 247
#     4   9  16  25  37  57  87 116 138 164 201 244
#     4   9  17  31  49  65  81 104 139 183 223 254
#     4  10  17  27  44  66  87 111 144 177 208 246
#
# _framework density 15.426921
#
# number of rings (size 3 to 8) (size 9 to 14) (size 15 to 20)
#    0.000    3.000    1.250    2.625    0.000    3.500 
#    0.000    0.000    0.000    2.250    0.000    2.625 
#    0.000    5.000    0.000    0.000    0.000    0.000 
#
# Total GULP energy -396468.582927 kJ/mol
# GULP energy per Si atom -12389.643216 kJ/mol
# Density = 1.539181 g / cm^3
# Si number density = 15.426921 Si / 1000 Ang^3
#
#
#
# Elastic Constant Matrix: (Units=GPa)
#
#
# Indices 1 2 3 4 5 6 
#
# 1 96.7375 32.3631 64.2451 0.0000 0.0000 0.0000
# 2 32.3631 34.2588 34.7837 0.0000 0.0000 0.0000
# 3 64.2451 34.7837 148.2793 0.0000 0.0000 0.0000
# 4 0.0000 0.0000 0.0000 16.5087 0.0000 0.0000
# 5 0.0000 0.0000 0.0000 0.0000 14.0544 0.0000
# 6 0.0000 0.0000 0.0000 0.0000 0.0000 16.8952
#
#
#
# Elastic Compliance Matrix: (Units=1/GPa)
#
#
# Indices 1 2 3 4 5 6 
#
# 1 0.017408 -0.011534 -0.004837 0.000000 0.000000 0.000000
# 2 -0.011534 0.045957 -0.005783 0.000000 0.000000 0.000000
# 3 -0.004837 -0.005783 0.010196 0.000000 0.000000 0.000000
# 4 0.000000 0.000000 0.000000 0.060574 0.000000 0.000000
# 5 0.000000 0.000000 0.000000 0.000000 0.071152 0.000000
# 6 0.000000 0.000000 0.000000 0.000000 0.000000 0.059188
#
#
# Mechanical properties :
#
#
# Convention : Reuss Voigt Hill
#
# Bulk Modulus (GPa) = 34.18401 60.22883 47.20642
# Shear Modulus (GPa) = 15.69681 19.35056 17.52368
#
# Velocity S-wave (km/s) = 3.19328 3.54550 3.37399
# Velocity P-wave (km/s) = 5.98355 7.47576 6.77088
#
# Compressibility (1/GPa) = 0.02925345
#
# Stress axis : x y z
#
# Youngs Moduli (GPa) = 57.44475 21.75934 98.07433
#
# Poissons Ratio (x) = 0.25097 0.47436
# Poissons Ratio (y) = 0.66256 0.56721
# Poissons Ratio (z) = 0.27785 0.12584
#
# Static dielectric constant tensor:
#      x y z
#    x 3.001170 0.000000 0.000000 
#    y 0.000000 2.629150 0.000000 
#    z 0.000000 0.000000 3.177440 
# 
# 
# High freq. dielectric constant tensor:
#      x y z
#    x 1.575200 0.000000 0.000000 
#    y 0.000000 1.556220 0.000000 
#    z 0.000000 0.000000 1.587680 
# 
# From -- ./inp_files/25070.got.cif
#   From: 2010.03.12/outbox.cif.g09.slc.cpg/sg38_13_cif.got.tgz:25070.got - 2010.04.14 02:38:36.
