data_PCOD8177001
_publ_section_title
;
Structure prediction by ZEFSAII (Michael W. Deem and Ramdas Pophale) SiO2 
 PCOD8177001
Probable space group: C C C 2
;
_chemical_formula_sum "Si O2"
_cell_formula_units_Z 52
_cell_length_a 12.087345
_cell_length_b 22.607682
_cell_length_c 8.755620
_cell_angle_alpha 90.000000
_cell_angle_beta 90.000000
_cell_angle_gamma 90.000000
_cell_volume 2392.620715
_symmetry_space_group_name_H-M "C C C 2"
_symmetry_group_IT_number 37
_symmetry_cell_setting 'orthorhombic'
loop_
_space_group_symop_operation_xyz
x,y,z
-x,-y,z
-x,y,1/2+z
x,-y,1/2+z
1/2+x,1/2+y,z
1/2-x,1/2-y,z
1/2-x,1/2+y,1/2+z
1/2+x,1/2-y,1/2+z
loop_
_atom_site_type_symbol
_atom_site_label
_atom_site_fract_x
_atom_site_fract_y
_atom_site_fract_z
Si Si1 0.587873 0.205187 0.565210
Si Si2 0.750000 0.750000 0.816866
Si Si3 0.109658 0.799638 0.067157
Si Si4 0.113746 0.573010 0.516538
Si Si5 0.572292 0.433107 0.105392
Si Si6 0.146485 0.963206 0.448507
Si Si7 0.000000 0.500000 0.762769
Si Si8 0.750000 0.250000 0.810443
O O1 0.654866 0.219468 0.413268
O O2 0.481108 0.247214 0.578578
O O3 0.557583 0.136144 0.553994
O O4 0.666174 0.211620 0.710897
O O5 0.807653 0.798606 0.710563
O O6 0.059543 0.864074 0.069097
O O7 0.178857 0.794569 0.912160
O O8 0.245125 0.574885 0.487711
O O9 0.093824 0.529351 0.657996
O O10 0.057123 0.550082 0.363070
O O11 0.606382 0.447248 0.279410
O O12 0.445297 0.451020 0.078345
O O13 0.657364 0.465442 0.983412
#
# Coordination Sequence:
#
# PCOD8177001 Si02
#       8
#     8   4   8   8   8   8   4   4
#     4  11  25  43  70 100 137 180 224 282 339 405
#     4  10  24  44  64 102 130 178 228 264 354 378
#     4  11  25  44  67 102 138 177 226 284 334 410
#     4  11  25  46  71  98 138 177 230 283 335 407
#     4  11  25  42  70 101 139 174 227 280 343 413
#     4  11  24  44  67 104 133 182 220 278 347 395
#     4  10  26  46  68 102 126 182 232 274 344 388
#     4  10  26  42  66 106 126 182 224 264 358 384
#
# _framework density 21.733491000000001
#
# number of rings (size 3 to 8) (size 9 to 14) (size 15 to 20)
#    0.000    1.231    0.000    4.615   12.923    2.462 
#    5.538    0.000    0.000    0.000    0.000    0.000 
#    0.000    0.000    0.000    0.000    0.000    0.000 
#
# Total GULP energy -322300.829816 kJ/mol
# GULP energy per Si atom -12396.185762 kJ/mol
# Density = 2.168402 g / cm^3
# Si number density = 21.733491 Si / 1000 Ang^3
#
#
#
# Elastic Constant Matrix: (Units=GPa)
#
#
# Indices 1 2 3 4 5 6 
#
# 1 94.9586 29.5207 48.6618 0.0000 0.0000 0.0000
# 2 29.5207 143.4802 49.0964 0.0000 0.0000 0.0000
# 3 48.6618 49.0964 155.0883 0.0000 0.0000 0.0000
# 4 0.0000 0.0000 0.0000 18.0045 0.0000 0.0000
# 5 0.0000 0.0000 0.0000 0.0000 61.9963 0.0000
# 6 0.0000 0.0000 0.0000 0.0000 0.0000 29.8912
#
#
#
# Elastic Compliance Matrix: (Units=1/GPa)
#
#
# Indices 1 2 3 4 5 6 
#
# 1 0.012799 -0.001412 -0.003569 0.000000 0.000000 0.000000
# 2 -0.001412 0.007972 -0.002081 0.000000 0.000000 0.000000
# 3 -0.003569 -0.002081 0.008226 0.000000 0.000000 0.000000
# 4 0.000000 0.000000 0.000000 0.055542 0.000000 0.000000
# 5 0.000000 0.000000 0.000000 0.000000 0.016130 0.000000
# 6 0.000000 0.000000 0.000000 0.000000 0.000000 0.033455
#
#
# Mechanical properties :
#
#
# Convention : Reuss Voigt Hill
#
# Bulk Modulus (GPa) = 67.23107 72.00943 69.62025
# Shear Modulus (GPa) = 32.63607 39.72828 36.18218
#
# Velocity S-wave (km/s) = 3.87932 4.28012 4.08464
# Velocity P-wave (km/s) = 7.14611 7.59149 7.37217
#
# Compressibility (1/GPa) = 0.01487407
#
# Stress axis : x y z
#
# Youngs Moduli (GPa) = 78.13266 125.43730 121.56002
#
# Poissons Ratio (x) = 0.17713 0.43382
# Poissons Ratio (y) = 0.11033 0.25292
# Poissons Ratio (z) = 0.27884 0.26099
#
# Static dielectric constant tensor:
#      x y z
#    x 3.252180 0.000000 0.000000 
#    y 0.000000 4.084200 0.000000 
#    z 0.000000 0.000000 4.215830 
# 
# 
# High freq. dielectric constant tensor:
#      x y z
#    x 1.853030 0.000000 0.000000 
#    y 0.000000 1.855930 0.000000 
#    z 0.000000 0.000000 1.874130 
# 
# From -- ./inp_files/3034.got.cif
#   From: 2010.03.12/outbox.cif.g09.slc.cpg/sg37_2_cif.got.tgz:3034.got - 2010.04.14 02:25:27.
