data_PCOD8177287
_publ_section_title
;
Structure prediction by ZEFSAII (Michael W. Deem and Ramdas Pophale) SiO2 
 PCOD8177287
Probable space group: A M M 2
;
_chemical_formula_sum "Si O2"
_cell_formula_units_Z 64
_cell_length_a 14.794424
_cell_length_b 8.423801
_cell_length_c 25.029473
_cell_angle_alpha 90.000000
_cell_angle_beta 90.000000
_cell_angle_gamma 90.000000
_cell_volume 3119.305173
_symmetry_space_group_name_H-M "A M M 2"
_symmetry_group_IT_number 38
_symmetry_cell_setting 'orthorhombic'
loop_
_space_group_symop_operation_xyz
x,y,z
-x,-y,z
-x,y,z
x,-y,z
x,1/2+y,1/2+z
-x,1/2-y,1/2+z
-x,1/2+y,1/2+z
x,1/2-y,1/2+z
loop_
_atom_site_type_symbol
_atom_site_label
_atom_site_fract_x
_atom_site_fract_y
_atom_site_fract_z
Si Si1 0.135720 0.815287 0.002670
Si Si2 0.719125 0.816902 0.165297
Si Si3 0.681257 0.317307 0.972854
Si Si4 0.098273 0.811783 0.120619
Si Si5 0.400152 0.179969 0.579682
Si Si6 0.098966 0.315843 0.891094
Si Si7 0.602738 0.687308 0.762273
Si Si8 0.709793 0.314567 0.361986
O O1 0.101247 0.748641 0.059592
O O2 0.112145 0.000000 0.995330
O O3 0.241996 0.787094 0.000643
O O4 0.090870 0.719619 0.954110
O O5 0.820396 0.741841 0.157606
O O6 0.668058 0.797651 0.109089
O O7 0.660252 0.736885 0.212796
O O8 0.730080 0.000000 0.179398
O O9 0.711629 0.500000 0.964382
O O10 0.658336 0.242685 0.915501
O O11 0.599742 0.302440 0.015057
O O12 0.000000 0.765288 0.145152
O O13 0.111222 0.000000 0.117721
O O14 0.500000 0.221978 0.599797
O O15 0.373291 0.000000 0.595060
O O16 0.119063 0.500000 0.881963
O O17 0.182324 0.221982 0.863896
O O18 0.000000 0.271057 0.865947
O O19 0.500000 0.758245 0.763715
O O20 0.595142 0.500000 0.755486
O O21 0.659032 0.725136 0.814906
O O22 0.696457 0.500000 0.354145
#
# Coordination Sequence:
#
# PCOD8177287 Si02
#       8
#     8   8   8   8   8   8   8   8
#     4  10  17  28  49  77 113 154 193 232 276 326
#     4  10  20  37  60  84 112 146 191 239 280 331
#     4  10  19  33  53  78 114 153 188 228 280 341
#     4   9  17  29  49  80 116 150 184 225 275 329
#     4  10  21  35  53  80 114 150 183 223 284 347
#     4  10  20  34  54  82 117 156 196 234 277 336
#     4  10  22  41  63  84 108 144 190 242 298 352
#     4  11  23  38  59  85 114 147 189 243 294 341
#
# _framework density 20.517391
#
# number of rings (size 3 to 8) (size 9 to 14) (size 15 to 20)
#    0.000    2.000    1.250    4.500    0.000    4.000 
#    0.000    1.875    0.000    3.375    0.000    0.000 
#    0.000    0.000    0.000    0.000    0.000    0.000 
#
# Total GULP energy -396516.084588 kJ/mol
# GULP energy per Si atom -12391.127643 kJ/mol
# Density = 2.047069 g / cm^3
# Si number density = 20.517391 Si / 1000 Ang^3
#
#
#
# Elastic Constant Matrix: (Units=GPa)
#
#
# Indices 1 2 3 4 5 6 
#
# 1 145.3892 5.9504 64.9298 0.0000 0.0000 0.0000
# 2 5.9504 27.1287 3.2537 0.0000 0.0000 0.0000
# 3 64.9298 3.2537 97.9373 0.0000 0.0000 0.0000
# 4 0.0000 0.0000 0.0000 22.1957 0.0000 0.0000
# 5 0.0000 0.0000 0.0000 0.0000 17.2482 0.0000
# 6 0.0000 0.0000 0.0000 0.0000 0.0000 19.3014
#
#
#
# Elastic Compliance Matrix: (Units=1/GPa)
#
#
# Indices 1 2 3 4 5 6 
#
# 1 0.009822 -0.001379 -0.006466 0.000000 0.000000 0.000000
# 2 -0.001379 0.037202 -0.000322 0.000000 0.000000 0.000000
# 3 -0.006466 -0.000322 0.014508 0.000000 0.000000 0.000000
# 4 0.000000 0.000000 0.000000 0.045054 0.000000 0.000000
# 5 0.000000 0.000000 0.000000 0.000000 0.057977 0.000000
# 6 0.000000 0.000000 0.000000 0.000000 0.000000 0.051810
#
#
# Mechanical properties :
#
#
# Convention : Reuss Voigt Hill
#
# Bulk Modulus (GPa) = 22.12423 46.52477 34.32450
# Shear Modulus (GPa) = 20.17973 24.83714 22.50843
#
# Velocity S-wave (km/s) = 3.13955 3.48306 3.31576
# Velocity P-wave (km/s) = 4.89377 6.23703 5.60578
#
# Compressibility (1/GPa) = 0.04519932
#
# Stress axis : x y z
#
# Youngs Moduli (GPa) = 101.80996 26.87997 68.92686
#
# Poissons Ratio (x) = 0.03706 0.44569
# Poissons Ratio (y) = 0.14038 0.02218
# Poissons Ratio (z) = 0.65831 0.00865
#
# Static dielectric constant tensor:
#      x y z
#    x 4.017920 0.000000 0.000000 
#    y 0.000000 3.459010 0.000000 
#    z 0.000000 0.000000 3.639690 
# 
# 
# High freq. dielectric constant tensor:
#      x y z
#    x 1.812840 0.000000 0.000000 
#    y 0.000000 1.778150 0.000000 
#    z 0.000000 0.000000 1.782380 
# 
# From -- ./inp_files/22948.got.cif
#   From: 2010.03.12/outbox.cif.g09.slc.cpg/sg38_12_cif.got.tgz:22948.got - 2010.04.14 02:38:36.
