data_PCOD8177711
_publ_section_title
;
Structure prediction by ZEFSAII (Michael W. Deem and Ramdas Pophale) SiO2 
 PCOD8177711
Probable space group: A M M 2
;
_chemical_formula_sum "Si O2"
_cell_formula_units_Z 64
_cell_length_a 17.528714
_cell_length_b 19.040544
_cell_length_c 9.708492
_cell_angle_alpha 90.000000
_cell_angle_beta 90.000000
_cell_angle_gamma 90.000000
_cell_volume 3240.269885
_symmetry_space_group_name_H-M "A M M 2"
_symmetry_group_IT_number 38
_symmetry_cell_setting 'orthorhombic'
loop_
_space_group_symop_operation_xyz
x,y,z
-x,-y,z
-x,y,z
x,-y,z
x,1/2+y,1/2+z
-x,1/2-y,1/2+z
-x,1/2+y,1/2+z
x,1/2-y,1/2+z
loop_
_atom_site_type_symbol
_atom_site_label
_atom_site_fract_x
_atom_site_fract_y
_atom_site_fract_z
Si Si1 0.584584 0.835279 0.747560
Si Si2 0.169450 0.082856 0.031427
Si Si3 0.328648 0.847684 0.005804
Si Si4 0.089676 0.811424 0.217503
Si Si5 0.913424 0.079582 0.757578
Si Si6 0.308922 0.816277 0.499391
Si Si7 0.583383 0.670961 0.768868
Si Si8 0.862189 0.182865 0.534177
O O1 0.500000 0.868156 0.727610
O O2 0.631195 0.874845 0.867102
O O3 0.634083 0.845046 0.612940
O O4 0.575731 0.754132 0.785046
O O5 0.257799 0.103263 0.043129
O O6 0.138000 0.109810 0.882879
O O7 0.159004 0.000000 0.044391
O O8 0.121724 0.115393 0.158505
O O9 0.300568 0.767674 0.992636
O O10 0.395652 0.854003 0.117168
O O11 0.104776 0.804151 0.381179
O O12 0.000000 0.804933 0.190844
O O13 0.132992 0.752070 0.128962
O O14 0.906505 0.122210 0.615498
O O15 0.000000 0.084722 0.809964
O O16 0.889851 0.000000 0.723930
O O17 0.345459 0.851299 0.363632
O O18 0.224301 0.844784 0.521962
O O19 0.500000 0.638675 0.808167
#
# Coordination Sequence:
#
# PCOD8177711 Si02
#       8
#     8   8   8   8   8   8   8   8
#     4   9  17  28  48  78 109 146 184 226 280 337
#     4  11  23  40  62  86 117 158 205 249 300 363
#     4  10  18  32  51  77 112 147 185 238 285 338
#     4  12  25  40  60  87 118 155 199 249 308 364
#     4  10  22  41  62  84 114 154 199 248 301 358
#     4  10  19  30  52  77 116 145 183 234 287 342
#     4   9  17  29  48  76 109 147 184 226 281 337
#     4  12  24  39  61  89 121 156 194 248 301 366
#
# _framework density 19.751441
#
# number of rings (size 3 to 8) (size 9 to 14) (size 15 to 20)
#    0.000    1.625    1.250    4.500    3.500    4.250 
#    0.000    0.000    0.000    1.500    0.000    0.000 
#    0.000    5.000    0.000    0.000    0.000    0.000 
#
# Total GULP energy -396715.152936 kJ/mol
# GULP energy per Si atom -12397.348529 kJ/mol
# Density = 1.970649 g / cm^3
# Si number density = 19.751441 Si / 1000 Ang^3
#
#
#
# Elastic Constant Matrix: (Units=GPa)
#
#
# Indices 1 2 3 4 5 6 
#
# 1 103.2121 10.1224 4.9141 0.0000 0.0000 0.0000
# 2 10.1224 50.6714 31.6755 0.0000 0.0000 0.0000
# 3 4.9141 31.6755 92.5400 0.0000 0.0000 0.0000
# 4 0.0000 0.0000 0.0000 21.1976 0.0000 0.0000
# 5 0.0000 0.0000 0.0000 0.0000 -5.1596 0.0000
# 6 0.0000 0.0000 0.0000 0.0000 0.0000 13.6382
#
#
#
# Elastic Compliance Matrix: (Units=1/GPa)
#
#
# Indices 1 2 3 4 5 6 
#
# 1 0.009885 -0.002095 0.000192 0.000000 0.000000 0.000000
# 2 -0.002095 0.025551 -0.008635 0.000000 0.000000 0.000000
# 3 0.000192 -0.008635 0.013751 0.000000 0.000000 0.000000
# 4 0.000000 0.000000 0.000000 0.047175 0.000000 0.000000
# 5 0.000000 0.000000 0.000000 0.000000 -0.193814 0.000000
# 6 0.000000 0.000000 0.000000 0.000000 0.000000 0.073323
#
#
# Mechanical properties :
#
#
# Convention : Reuss Voigt Hill
#
# Bulk Modulus (GPa) = 35.57070 37.76082 36.66576
# Shear Modulus (GPa) = 791.43861 19.24935 405.34398
#
# Velocity S-wave (km/s) = 20.03919 3.12521 14.34113
# Velocity P-wave (km/s) = 23.52602 5.67293 17.11221
#
# Compressibility (1/GPa) = 0.02811303
#
# Stress axis : x y z
#
# Youngs Moduli (GPa) = 101.16254 39.13729 72.71946
#
# Poissons Ratio (x) = 0.08198 -0.01397
# Poissons Ratio (y) = 0.21191 0.62791
# Poissons Ratio (z) = -0.01943 0.33794
#
# Static dielectric constant tensor:
#      x y z
#    x 3.895100 0.000000 0.000000 
#    y 0.000000 3.167130 0.000000 
#    z 0.000000 0.000000 3.727180 
# 
# 
# High freq. dielectric constant tensor:
#      x y z
#    x 1.792290 0.000000 0.000000 
#    y 0.000000 1.712060 0.000000 
#    z 0.000000 0.000000 1.782140 
# 
# From -- ./inp_files/6493.got.cif
#   From: 2010.03.12/outbox.cif.g09.slc.cpg/sg38_4_cif.got.tgz:6493.got - 2010.04.14 02:38:36.
