data_PCOD8177817
_publ_section_title
;
Structure prediction by ZEFSAII (Michael W. Deem and Ramdas Pophale) SiO2 
 PCOD8177817
Probable space group: A M M 2
;
_chemical_formula_sum "Si O2"
_cell_formula_units_Z 64
_cell_length_a 19.785054
_cell_length_b 8.778447
_cell_length_c 20.127742
_cell_angle_alpha 90.000000
_cell_angle_beta 90.000000
_cell_angle_gamma 90.000000
_cell_volume 3495.827451
_symmetry_space_group_name_H-M "A M M 2"
_symmetry_group_IT_number 38
_symmetry_cell_setting 'orthorhombic'
loop_
_space_group_symop_operation_xyz
x,y,z
-x,-y,z
-x,y,z
x,-y,z
x,1/2+y,1/2+z
-x,1/2-y,1/2+z
-x,1/2+y,1/2+z
x,1/2-y,1/2+z
loop_
_atom_site_type_symbol
_atom_site_label
_atom_site_fract_x
_atom_site_fract_y
_atom_site_fract_z
Si Si1 0.184420 0.819731 0.943120
Si Si2 0.200023 0.179071 0.798312
Si Si3 0.323706 0.320736 0.989467
Si Si4 0.831487 0.319851 0.156115
Si Si5 0.311741 0.679852 0.624617
Si Si6 0.076993 0.677995 0.551271
Si Si7 0.346637 0.177409 0.756338
Si Si8 0.422238 0.676452 0.385483
O O1 0.170454 0.758170 0.867965
O O2 0.249621 0.737921 0.971792
O O3 0.198035 0.000000 0.944859
O O4 0.119382 0.774329 0.986374
O O5 0.157969 0.232001 0.733248
O O6 0.277357 0.233136 0.790875
O O7 0.197848 0.000000 0.802735
O O8 0.321439 0.500000 0.998350
O O9 0.377398 0.279329 0.933099
O O10 0.347351 0.244919 0.058629
O O11 0.821742 0.500000 0.150621
O O12 0.764454 0.242799 0.127221
O O13 0.896795 0.267275 0.115725
O O14 0.308880 0.500000 0.620627
O O15 0.356613 0.730550 0.687929
O O16 0.084121 0.500000 0.566033
O O17 0.000000 0.725931 0.538003
O O18 0.406387 0.213578 0.808165
O O19 0.342967 0.000000 0.737552
O O20 0.500000 0.714847 0.398818
O O21 0.405216 0.500000 0.399665
#
# Coordination Sequence:
#
# PCOD8177817 Si02
#       8
#     8   8   8   8   8   8   8   8
#     4  10  18  34  57  79 108 148 188 233 282 336
#     4   8  15  29  52  79 106 135 175 224 274 322
#     4  12  23  35  55  85 117 149 190 241 284 331
#     4  10  19  33  53  80 109 141 179 230 286 336
#     4  11  21  34  55  82 111 146 187 235 285 333
#     4  10  21  35  53  79 111 150 192 234 284 344
#     4   9  17  33  55  82 113 143 180 230 279 333
#     4  10  21  39  62  85 114 154 192 227 280 347
#
# _framework density 18.307539999999999
#
# number of rings (size 3 to 8) (size 9 to 14) (size 15 to 20)
#    0.000    2.000    2.500    3.375    0.000    1.000 
#    0.000    1.875    0.000    4.500    0.000    0.000 
#    0.000    0.000    0.000    0.000    0.000    0.000 
#
# Total GULP energy -396752.359762 kJ/mol
# GULP energy per Si atom -12398.511243 kJ/mol
# Density = 1.826587 g / cm^3
# Si number density = 18.307540 Si / 1000 Ang^3
#
#
#
# Elastic Constant Matrix: (Units=GPa)
#
#
# Indices 1 2 3 4 5 6 
#
# 1 78.9836 41.3559 45.8712 0.0000 0.0000 0.0000
# 2 41.3559 85.6996 53.3564 0.0000 0.0000 0.0000
# 3 45.8712 53.3564 145.8856 0.0000 0.0000 0.0000
# 4 0.0000 0.0000 0.0000 29.8836 0.0000 0.0000
# 5 0.0000 0.0000 0.0000 0.0000 25.6687 0.0000
# 6 0.0000 0.0000 0.0000 0.0000 0.0000 18.4558
#
#
#
# Elastic Compliance Matrix: (Units=1/GPa)
#
#
# Indices 1 2 3 4 5 6 
#
# 1 0.018040 -0.006699 -0.003222 0.000000 0.000000 0.000000
# 2 -0.006699 0.017597 -0.004329 0.000000 0.000000 0.000000
# 3 -0.003222 -0.004329 0.009451 0.000000 0.000000 0.000000
# 4 0.000000 0.000000 0.000000 0.033463 0.000000 0.000000
# 5 0.000000 0.000000 0.000000 0.000000 0.038958 0.000000
# 6 0.000000 0.000000 0.000000 0.000000 0.000000 0.054184
#
#
# Mechanical properties :
#
#
# Convention : Reuss Voigt Hill
#
# Bulk Modulus (GPa) = 60.29048 65.74842 63.01945
# Shear Modulus (GPa) = 24.30441 26.13397 25.21919
#
# Velocity S-wave (km/s) = 3.64753 3.78232 3.71554
# Velocity P-wave (km/s) = 7.12340 7.42064 7.27354
#
# Compressibility (1/GPa) = 0.01658637
#
# Stress axis : x y z
#
# Youngs Moduli (GPa) = 55.43244 56.82746 105.80572
#
# Poissons Ratio (x) = 0.38071 0.34092
# Poissons Ratio (y) = 0.37137 0.45808
# Poissons Ratio (z) = 0.17861 0.24603
#
# Static dielectric constant tensor:
#      x y z
#    x 3.167830 0.000000 0.000000 
#    y 0.000000 3.224320 0.000000 
#    z 0.000000 0.000000 3.929230 
# 
# 
# High freq. dielectric constant tensor:
#      x y z
#    x 1.676610 0.000000 0.000000 
#    y 0.000000 1.696710 0.000000 
#    z 0.000000 0.000000 1.730720 
# 
# From -- ./inp_files/21348.got.cif
#   From: 2010.03.12/outbox.cif.g09.slc.cpg/sg38_11_cif.got.tgz:21348.got - 2010.04.14 02:38:36.
