data_PCOD8177416
_publ_section_title
;
Structure prediction by ZEFSAII (Michael W. Deem and Ramdas Pophale) SiO2 
 PCOD8177416
Probable space group: A M M 2
;
_chemical_formula_sum "Si O2"
_cell_formula_units_Z 64
_cell_length_a 14.130973
_cell_length_b 8.902034
_cell_length_c 31.624085
_cell_angle_alpha 90.000000
_cell_angle_beta 90.000000
_cell_angle_gamma 90.000000
_cell_volume 3978.132865
_symmetry_space_group_name_H-M "A M M 2"
_symmetry_group_IT_number 38
_symmetry_cell_setting 'orthorhombic'
loop_
_space_group_symop_operation_xyz
x,y,z
-x,-y,z
-x,y,z
x,-y,z
x,1/2+y,1/2+z
-x,1/2-y,1/2+z
-x,1/2+y,1/2+z
x,1/2-y,1/2+z
loop_
_atom_site_type_symbol
_atom_site_label
_atom_site_fract_x
_atom_site_fract_y
_atom_site_fract_z
Si Si1 0.889767 0.824815 0.907280
Si Si2 0.607003 0.824462 0.857522
Si Si3 0.892777 0.179080 0.570535
Si Si4 0.795914 0.175385 0.486460
Si Si5 0.785375 0.823229 0.328981
Si Si6 0.605244 0.171955 0.445265
Si Si7 0.109059 0.324249 0.161002
Si Si8 0.112624 0.826415 0.752292
O O1 0.856281 0.764541 0.952281
O O2 0.835237 0.742453 0.870099
O O3 0.000000 0.791006 0.901900
O O4 0.867025 0.000000 0.904156
O O5 0.500000 0.781852 0.844512
O O6 0.677827 0.737113 0.826441
O O7 0.627005 0.778261 0.905800
O O8 0.625919 0.000000 0.853277
O O9 0.825781 0.236387 0.532687
O O10 0.848975 0.236835 0.616052
O O11 0.000000 0.238822 0.563289
O O12 0.895210 0.000000 0.571917
O O13 0.683459 0.205215 0.481140
O O14 0.820376 0.000000 0.481570
O O15 0.839612 0.777010 0.286941
O O16 0.784708 0.000000 0.333011
O O17 0.500000 0.203803 0.463801
O O18 0.613369 0.000000 0.429475
O O19 0.124373 0.500000 0.164086
O O20 0.148524 0.263223 0.206079
O O21 0.000000 0.283077 0.158154
O O22 0.000000 0.811129 0.755714
O O23 0.141961 0.000000 0.759480
#
# Coordination Sequence:
#
# PCOD8177416 Si02
#       8
#     8   8   8   8   8   8   8   8
#     4  11  23  35  45  60  89 127 161 191 224 267
#     4  10  20  34  52  70  88 115 152 193 233 273
#     4   8  13  22  39  65  93 117 149 192 231 272
#     4  10  18  28  45  68  91 121 156 191 231 274
#     4  12  23  33  47  68  93 122 153 188 232 279
#     4   9  17  29  44  64  91 121 153 191 233 271
#     4   7  11  22  41  64  88 115 149 192 236 271
#     4   9  17  30  48  68  91 121 158 197 235 275
#
# _framework density 16.087949999999999
#
# number of rings (size 3 to 8) (size 9 to 14) (size 15 to 20)
#    0.000    2.500    1.250    4.125    0.000    4.000 
#    0.000    0.000    0.000    0.750    0.000    2.625 
#    0.000    5.000    0.000    0.000    0.000    1.125 
#
# Total GULP energy -396513.282387 kJ/mol
# GULP energy per Si atom -12391.040075 kJ/mol
# Density = 1.605133 g / cm^3
# Si number density = 16.087950 Si / 1000 Ang^3
#
#
#
# Elastic Constant Matrix: (Units=GPa)
#
#
# Indices 1 2 3 4 5 6 
#
# 1 74.5767 39.0784 44.9348 0.0000 0.0000 0.0000
# 2 39.0784 63.0744 38.1110 0.0000 0.0000 0.0000
# 3 44.9348 38.1110 124.0698 0.0000 0.0000 0.0000
# 4 0.0000 0.0000 0.0000 16.3806 0.0000 0.0000
# 5 0.0000 0.0000 0.0000 0.0000 7.4880 0.0000
# 6 0.0000 0.0000 0.0000 0.0000 0.0000 18.7879
#
#
#
# Elastic Compliance Matrix: (Units=1/GPa)
#
#
# Indices 1 2 3 4 5 6 
#
# 1 0.021803 -0.010728 -0.004601 0.000000 0.000000 0.000000
# 2 -0.010728 0.024746 -0.003716 0.000000 0.000000 0.000000
# 3 -0.004601 -0.003716 0.010868 0.000000 0.000000 0.000000
# 4 0.000000 0.000000 0.000000 0.061048 0.000000 0.000000
# 5 0.000000 0.000000 0.000000 0.000000 0.133547 0.000000
# 6 0.000000 0.000000 0.000000 0.000000 0.000000 0.053226
#
#
# Mechanical properties :
#
#
# Convention : Reuss Voigt Hill
#
# Bulk Modulus (GPa) = 51.74187 56.21879 53.98033
# Shear Modulus (GPa) = 14.29511 17.83776 16.06643
#
# Velocity S-wave (km/s) = 2.98411 3.33343 3.16359
# Velocity P-wave (km/s) = 6.64115 7.05947 6.85350
#
# Compressibility (1/GPa) = 0.01932671
#
# Stress axis : x y z
#
# Youngs Moduli (GPa) = 45.86561 40.41010 92.01507
#
# Poissons Ratio (x) = 0.43352 0.42336
# Poissons Ratio (y) = 0.49205 0.34192
# Poissons Ratio (z) = 0.21103 0.15016
#
# Static dielectric constant tensor:
#      x y z
#    x 3.121040 0.000000 0.000000 
#    y 0.000000 2.887180 0.000000 
#    z 0.000000 0.000000 3.351770 
# 
# 
# High freq. dielectric constant tensor:
#      x y z
#    x 1.601170 0.000000 0.000000 
#    y 0.000000 1.600070 0.000000 
#    z 0.000000 0.000000 1.614380 
# 
# From -- ./inp_files/25129.got.cif
#   From: 2010.03.12/outbox.cif.g09.slc.cpg/sg38_13_cif.got.tgz:25129.got - 2010.04.14 02:38:36.
