data_PCOD8177868
_publ_section_title
;
Structure prediction by ZEFSAII (Michael W. Deem and Ramdas Pophale) SiO2 
 PCOD8177868
Probable space group: A M M 2
;
_chemical_formula_sum "Si O2"
_cell_formula_units_Z 56
_cell_length_a 9.230863
_cell_length_b 21.411572
_cell_length_c 18.137960
_cell_angle_alpha 90.000000
_cell_angle_beta 90.000000
_cell_angle_gamma 90.000000
_cell_volume 3584.918599
_symmetry_space_group_name_H-M "A M M 2"
_symmetry_group_IT_number 38
_symmetry_cell_setting 'orthorhombic'
loop_
_space_group_symop_operation_xyz
x,y,z
-x,-y,z
-x,y,z
x,-y,z
x,1/2+y,1/2+z
-x,1/2-y,1/2+z
-x,1/2+y,1/2+z
x,1/2-y,1/2+z
loop_
_atom_site_type_symbol
_atom_site_label
_atom_site_fract_x
_atom_site_fract_y
_atom_site_fract_z
Si Si1 0.337204 0.701428 0.708130
Si Si2 0.672495 0.500000 0.073743
Si Si3 0.830792 0.744165 0.914230
Si Si4 0.832922 0.187961 0.771726
Si Si5 0.331003 0.375619 0.152212
Si Si6 0.333395 0.128537 0.344258
Si Si7 0.327538 0.500000 0.907325
Si Si8 0.663744 0.251693 0.059636
O O1 0.500000 0.729500 0.723200
O O2 0.212553 0.747002 0.735453
O O3 0.319912 0.637510 0.755067
O O4 0.320131 0.695093 0.619604
O O5 0.500000 0.500000 0.071684
O O6 0.731228 0.561668 0.114868
O O7 0.732810 0.500000 0.990522
O O8 0.802331 0.803095 0.859262
O O9 0.750781 0.681836 0.888069
O O10 0.000000 0.728934 0.918718
O O11 0.772592 0.763789 0.994015
O O12 0.743285 0.132427 0.732719
O O13 0.000000 0.175119 0.755736
O O14 0.500000 0.382033 0.166917
O O15 0.295749 0.317230 0.099012
O O16 0.500000 0.132936 0.370015
O O17 0.267940 0.061180 0.365100
O O18 0.500000 0.500000 0.905924
O O19 0.500000 0.254881 0.028843
#
# Coordination Sequence:
#
# PCOD8177868 Si02
#       8
#     8   4   8   8   8   8   4   8
#     4   8  15  27  42  60  81 106 138 171 204 245
#     4   9  16  26  41  63  88 111 138 168 195 233
#     4  10  19  28  40  61  86 110 137 171 210 247
#     4   9  17  28  41  58  81 107 137 173 210 246
#     4   9  17  29  44  61  83 112 142 169 199 240
#     4   9  16  28  45  62  83 112 142 169 199 240
#     4   9  16  26  43  65  86 111 140 166 195 235
#     4   9  16  26  41  61  84 109 137 170 207 245
#
# _framework density 15.620996
#
# number of rings (size 3 to 8) (size 9 to 14) (size 15 to 20)
#    0.000    3.000    0.000    2.571    0.000    6.286 
#    0.000    0.714    0.000    0.857    0.000    1.000 
#    0.000    3.429    0.000    0.000    0.000    0.000 
#
# Total GULP energy -346924.714186 kJ/mol
# GULP energy per Si atom -12390.168364 kJ/mol
# Density = 1.558544 g / cm^3
# Si number density = 15.620996 Si / 1000 Ang^3
#
#
#
# Elastic Constant Matrix: (Units=GPa)
#
#
# Indices 1 2 3 4 5 6 
#
# 1 49.3425 22.4322 46.4349 0.0000 0.0000 0.0000
# 2 22.4322 79.9351 62.7706 0.0000 0.0000 0.0000
# 3 46.4349 62.7706 126.4750 0.0000 0.0000 0.0000
# 4 0.0000 0.0000 0.0000 27.4233 0.0000 0.0000
# 5 0.0000 0.0000 0.0000 0.0000 22.7199 0.0000
# 6 0.0000 0.0000 0.0000 0.0000 0.0000 9.4396
#
#
#
# Elastic Compliance Matrix: (Units=1/GPa)
#
#
# Indices 1 2 3 4 5 6 
#
# 1 0.030973 0.000390 -0.011565 0.000000 0.000000 0.000000
# 2 0.000390 0.020504 -0.010320 0.000000 0.000000 0.000000
# 3 -0.011565 -0.010320 0.017274 0.000000 0.000000 0.000000
# 4 0.000000 0.000000 0.000000 0.036465 0.000000 0.000000
# 5 0.000000 0.000000 0.000000 0.000000 0.044014 0.000000
# 6 0.000000 0.000000 0.000000 0.000000 0.000000 0.105937
#
#
# Mechanical properties :
#
#
# Convention : Reuss Voigt Hill
#
# Bulk Modulus (GPa) = 38.81693 57.66980 48.24337
# Shear Modulus (GPa) = 16.30014 20.19087 18.24551
#
# Velocity S-wave (km/s) = 3.23379 3.59910 3.42133
# Velocity P-wave (km/s) = 6.23269 7.36679 6.82334
#
# Compressibility (1/GPa) = 0.02576195
#
# Stress axis : x y z
#
# Youngs Moduli (GPa) = 32.28634 48.76989 57.88885
#
# Poissons Ratio (x) = -0.01901 0.66949
# Poissons Ratio (y) = -0.01258 0.59739
# Poissons Ratio (z) = 0.37339 0.50329
#
# Static dielectric constant tensor:
#      x y z
#    x 2.869530 0.000000 0.000000 
#    y 0.000000 2.883090 0.000000 
#    z 0.000000 0.000000 3.248270 
# 
# 
# High freq. dielectric constant tensor:
#      x y z
#    x 1.588810 0.000000 0.000000 
#    y 0.000000 1.558770 0.000000 
#    z 0.000000 0.000000 1.603050 
# 
# From -- ./inp_files/20193.got.cif
#   From: 2010.03.12/outbox.cif.g09.slc.cpg/sg38_11_cif.got.tgz:20193.got - 2010.04.14 02:38:36.
