data_PCOD8177012
_publ_section_title
;
Structure prediction by ZEFSAII (Michael W. Deem and Ramdas Pophale) SiO2 
 PCOD8177012
Probable space group: C C C 2
;
_chemical_formula_sum "Si O2"
_cell_formula_units_Z 60
_cell_length_a 11.839411
_cell_length_b 19.662719
_cell_length_c 10.701923
_cell_angle_alpha 90.000000
_cell_angle_beta 90.000000
_cell_angle_gamma 90.000000
_cell_volume 2491.354289
_symmetry_space_group_name_H-M "C C C 2"
_symmetry_group_IT_number 37
_symmetry_cell_setting 'orthorhombic'
loop_
_space_group_symop_operation_xyz
x,y,z
-x,-y,z
-x,y,1/2+z
x,-y,1/2+z
1/2+x,1/2+y,z
1/2-x,1/2-y,z
1/2-x,1/2+y,1/2+z
1/2+x,1/2-y,1/2+z
loop_
_atom_site_type_symbol
_atom_site_label
_atom_site_fract_x
_atom_site_fract_y
_atom_site_fract_z
Si Si1 0.250000 0.250000 0.633121
Si Si2 0.344708 0.300774 0.241087
Si Si3 0.235045 0.528354 0.523764
Si Si4 0.436236 0.068967 0.208800
Si Si5 0.697038 0.379952 0.973248
Si Si6 0.545146 0.118078 0.448424
Si Si7 0.931600 0.244337 0.338955
Si Si8 0.435722 0.622853 0.508435
O O1 0.253623 0.317670 0.551481
O O2 0.136664 0.255532 0.712908
O O3 0.250000 0.250000 0.186454
O O4 0.288931 0.358517 0.328797
O O5 0.433553 0.255502 0.318648
O O6 0.414499 0.337912 0.135590
O O7 0.192892 0.551790 0.663742
O O8 0.230901 0.447507 0.503060
O O9 0.146452 0.562943 0.425934
O O10 0.361675 0.554582 0.500182
O O11 0.447490 0.108154 0.341952
O O12 0.500000 0.000000 0.226719
O O13 0.496962 0.110276 0.092827
O O14 0.566627 0.396444 0.003838
O O15 0.594683 0.194132 0.434552
O O16 0.895917 0.172096 0.396787
#
# Coordination Sequence:
#
# PCOD8177012 Si02
#       8
#     4   8   8   8   8   8   8   8
#     4  12  24  48  74 106 148 194 244 314 378 454
#     4  11  26  43  75 106 148 191 251 316 372 445
#     4  10  26  47  77 104 152 202 244 317 376 463
#     4  10  24  45  66 109 151 196 254 298 381 443
#     4  11  25  52  75 110 146 194 254 312 380 452
#     4  10  25  43  71 111 148 206 244 315 366 456
#     4  11  26  44  74 105 150 197 250 309 375 449
#     4  11  25  51  70 114 141 200 252 307 377 447
#
# _framework density 24.083289000000001
#
# number of rings (size 3 to 8) (size 9 to 14) (size 15 to 20)
#    0.800    0.533    2.000    1.600    8.400    2.133 
#    2.400    1.333    0.000    0.000    0.000    0.000 
#    0.000    0.000    0.000    0.000    0.000    0.000 
#
# Total GULP energy -371848.659958 kJ/mol
# GULP energy per Si atom -12394.955332 kJ/mol
# Density = 2.402847 g / cm^3
# Si number density = 24.083289 Si / 1000 Ang^3
#
#
#
# Elastic Constant Matrix: (Units=GPa)
#
#
# Indices 1 2 3 4 5 6 
#
# 1 72.9710 27.0249 1.1393 0.0000 0.0000 0.0000
# 2 27.0249 129.3842 5.4400 0.0000 0.0000 0.0000
# 3 1.1393 5.4400 72.2451 0.0000 0.0000 0.0000
# 4 0.0000 0.0000 0.0000 -8.2449 0.0000 0.0000
# 5 0.0000 0.0000 0.0000 0.0000 16.0004 0.0000
# 6 0.0000 0.0000 0.0000 0.0000 0.0000 40.0600
#
#
#
# Elastic Compliance Matrix: (Units=1/GPa)
#
#
# Indices 1 2 3 4 5 6 
#
# 1 0.014853 -0.003102 -0.000001 0.000000 0.000000 0.000000
# 2 -0.003102 0.008401 -0.000584 0.000000 0.000000 0.000000
# 3 -0.000001 -0.000584 0.013886 0.000000 0.000000 0.000000
# 4 0.000000 0.000000 0.000000 -0.121288 0.000000 0.000000
# 5 0.000000 0.000000 0.000000 0.000000 0.062498 0.000000
# 6 0.000000 0.000000 0.000000 0.000000 0.000000 0.024963
#
#
# Mechanical properties :
#
#
# Convention : Reuss Voigt Hill
#
# Bulk Modulus (GPa) = 33.59444 37.97876 35.78660
# Shear Modulus (GPa) = 242.60750 25.62951 134.11850
#
# Velocity S-wave (km/s) = 10.04766 3.26575 7.47063
# Velocity P-wave (km/s) = 12.18963 5.47943 9.45016
#
# Compressibility (1/GPa) = 0.02976683
#
# Stress axis : x y z
#
# Youngs Moduli (GPa) = 67.32617 119.02686 72.01636
#
# Poissons Ratio (x) = 0.36927 0.00005
# Poissons Ratio (y) = 0.20887 0.04204
# Poissons Ratio (z) = 0.00004 0.06948
#
# Static dielectric constant tensor:
#      x y z
#    x 4.277880 0.000000 0.000000 
#    y 0.000000 4.495130 0.000000 
#    z 0.000000 0.000000 4.389460 
# 
# 
# High freq. dielectric constant tensor:
#      x y z
#    x 1.956100 0.000000 0.000000 
#    y 0.000000 1.961460 0.000000 
#    z 0.000000 0.000000 1.949450 
# 
# From -- ./inp_files/7332.got.cif
#   From: 2010.03.12/outbox.cif.g09.slc.cpg/sg37_4_cif.got.tgz:7332.got - 2010.04.14 02:25:27.
