data_PCOD8177658
_publ_section_title
;
Structure prediction by ZEFSAII (Michael W. Deem and Ramdas Pophale) SiO2 
 PCOD8177658
Probable space group: A M M 2
;
_chemical_formula_sum "Si O2"
_cell_formula_units_Z 48
_cell_length_a 16.783606
_cell_length_b 9.471179
_cell_length_c 16.000266
_cell_angle_alpha 90.000000
_cell_angle_beta 90.000000
_cell_angle_gamma 90.000000
_cell_volume 2543.410871
_symmetry_space_group_name_H-M "A M M 2"
_symmetry_group_IT_number 38
_symmetry_cell_setting 'orthorhombic'
loop_
_space_group_symop_operation_xyz
x,y,z
-x,-y,z
-x,y,z
x,-y,z
x,1/2+y,1/2+z
-x,1/2-y,1/2+z
-x,1/2+y,1/2+z
x,1/2-y,1/2+z
loop_
_atom_site_type_symbol
_atom_site_label
_atom_site_fract_x
_atom_site_fract_y
_atom_site_fract_z
Si Si1 0.162663 0.163117 0.956190
Si Si2 0.676051 0.663239 0.375602
Si Si3 0.671328 0.336799 0.191206
Si Si4 0.000000 0.331937 0.193049
Si Si5 0.593763 0.663840 0.541947
Si Si6 0.000000 0.668341 0.378567
Si Si7 0.163482 0.661326 0.114373
O O1 0.229013 0.185159 0.885028
O O2 0.078386 0.224837 0.925273
O O3 0.154794 0.000000 0.981171
O O4 0.192054 0.247735 0.036300
O O5 0.653677 0.500000 0.374278
O O6 0.650353 0.723555 0.284396
O O7 0.629453 0.729408 0.455359
O O8 0.644884 0.500000 0.181351
O O9 0.626070 0.246337 0.122133
O O10 0.767149 0.325469 0.183017
O O11 0.000000 0.268143 0.285846
O O12 0.920260 0.276662 0.147877
O O13 0.000000 0.500000 0.197441
O O14 0.500000 0.683203 0.538121
O O15 0.618856 0.500000 0.551476
O O16 0.000000 0.500000 0.374849
O O17 0.151991 0.500000 0.086018
#
# Coordination Sequence:
#
# PCOD8177658 Si02
#       7
#     8   8   8   4   8   4   8
#     4  10  18  31  52  75 102 137 178 220 260 307
#     4   9  18  34  56  79 105 141 179 214 258 316
#     4  10  20  35  57  83 108 139 182 223 261 313
#     4   9  17  30  47  71 106 141 176 219 261 302
#     4  10  21  38  58  80 108 140 173 215 273 331
#     4   9  17  28  47  75 100 131 180 225 255 298
#     4  10  19  31  50  76 106 140 176 216 264 312
#
# _framework density 18.872294
#
# number of rings (size 3 to 8) (size 9 to 14) (size 15 to 20)
#    0.000    2.333    1.667    1.500    0.000    5.000 
#    0.000    3.333    0.000    4.000    0.000    0.000 
#    0.000    0.000    0.000    0.000    0.000    0.000 
#
# Total GULP energy -297507.208166 kJ/mol
# GULP energy per Si atom -12396.133674 kJ/mol
# Density = 1.882934 g / cm^3
# Si number density = 18.872294 Si / 1000 Ang^3
#
#
#
# Elastic Constant Matrix: (Units=GPa)
#
#
# Indices 1 2 3 4 5 6 
#
# 1 93.7347 27.3380 50.6836 0.0000 0.0000 0.0000
# 2 27.3380 40.6397 45.3858 0.0000 0.0000 0.0000
# 3 50.6836 45.3858 171.6798 0.0000 0.0000 0.0000
# 4 0.0000 0.0000 0.0000 25.3725 0.0000 0.0000
# 5 0.0000 0.0000 0.0000 0.0000 22.3660 0.0000
# 6 0.0000 0.0000 0.0000 0.0000 0.0000 20.9163
#
#
#
# Elastic Compliance Matrix: (Units=1/GPa)
#
#
# Indices 1 2 3 4 5 6 
#
# 1 0.013891 -0.006761 -0.002314 0.000000 0.000000 0.000000
# 2 -0.006761 0.038205 -0.008104 0.000000 0.000000 0.000000
# 3 -0.002314 -0.008104 0.008650 0.000000 0.000000 0.000000
# 4 0.000000 0.000000 0.000000 0.039413 0.000000 0.000000
# 5 0.000000 0.000000 0.000000 0.000000 0.044711 0.000000
# 6 0.000000 0.000000 0.000000 0.000000 0.000000 0.047810
#
#
# Mechanical properties :
#
#
# Convention : Reuss Voigt Hill
#
# Bulk Modulus (GPa) = 37.89381 61.42988 49.66184
# Shear Modulus (GPa) = 21.20149 25.90742 23.55445
#
# Velocity S-wave (km/s) = 3.35538 3.70912 3.53667
# Velocity P-wave (km/s) = 5.92740 7.13893 6.56119
#
# Compressibility (1/GPa) = 0.02638954
#
# Stress axis : x y z
#
# Youngs Moduli (GPa) = 71.98791 26.17474 115.60325
#
# Poissons Ratio (x) = 0.17696 0.26748
# Poissons Ratio (y) = 0.48668 0.93685
# Poissons Ratio (z) = 0.16656 0.21212
#
# Static dielectric constant tensor:
#      x y z
#    x 3.559410 0.000000 0.000000 
#    y 0.000000 3.050750 0.000000 
#    z 0.000000 0.000000 3.636150 
# 
# 
# High freq. dielectric constant tensor:
#      x y z
#    x 1.742180 0.000000 0.000000 
#    y 0.000000 1.683510 0.000000 
#    z 0.000000 0.000000 1.743430 
# 
# From -- ./inp_files/15013.got.cif
#   From: 2010.03.12/outbox.cif.g09.slc.cpg/sg38_8_cif.got.tgz:15013.got - 2010.04.14 02:38:36.
