data_PCOD8177568
_publ_section_title
;
Structure prediction by ZEFSAII (Michael W. Deem and Ramdas Pophale) SiO2 
 PCOD8177568
Probable space group: A M M 2
;
_chemical_formula_sum "Si O2"
_cell_formula_units_Z 64
_cell_length_a 9.046747
_cell_length_b 20.765347
_cell_length_c 19.430972
_cell_angle_alpha 90.000000
_cell_angle_beta 90.000000
_cell_angle_gamma 90.000000
_cell_volume 3650.279873
_symmetry_space_group_name_H-M "A M M 2"
_symmetry_group_IT_number 38
_symmetry_cell_setting 'orthorhombic'
loop_
_space_group_symop_operation_xyz
x,y,z
-x,-y,z
-x,y,z
x,-y,z
x,1/2+y,1/2+z
-x,1/2-y,1/2+z
-x,1/2+y,1/2+z
x,1/2-y,1/2+z
loop_
_atom_site_type_symbol
_atom_site_label
_atom_site_fract_x
_atom_site_fract_y
_atom_site_fract_z
Si Si1 0.174999 0.815302 0.595000
Si Si2 0.330770 0.270071 0.378895
Si Si3 0.670454 0.878086 0.369253
Si Si4 0.326845 0.734081 0.224150
Si Si5 0.172144 0.869290 0.234974
Si Si6 0.824786 0.190846 0.009854
Si Si7 0.173206 0.429855 0.593133
Si Si8 0.330001 0.073310 0.516107
O O1 0.248922 0.813263 0.670183
O O2 0.231217 0.754533 0.549962
O O3 0.223292 0.881535 0.559748
O O4 0.000000 0.814564 0.603608
O O5 0.500000 0.281600 0.399264
O O6 0.288817 0.195330 0.386765
O O7 0.299043 0.293527 0.301021
O O8 0.230818 0.310217 0.431489
O O9 0.500000 0.883770 0.346942
O O10 0.769753 0.901769 0.305366
O O11 0.707856 0.921337 0.435191
O O12 0.500000 0.738597 0.208319
O O13 0.258991 0.804580 0.217285
O O14 0.203527 0.918864 0.173738
O O15 0.000000 0.852223 0.241664
O O16 0.757576 0.127569 0.047311
O O17 0.000000 0.189714 0.010196
O O18 0.240820 0.500000 0.573223
O O19 0.000000 0.430537 0.578953
O O20 0.500000 0.094117 0.528364
O O21 0.302681 0.000000 0.539339
#
# Coordination Sequence:
#
# PCOD8177568 Si02
#       8
#     8   8   8   8   8   8   8   8
#     4  11  21  34  54  82 108 133 175 227 270 311
#     4   9  18  32  51  76 103 133 170 212 258 307
#     4   9  18  32  48  72 104 140 178 212 252 308
#     4  10  20  34  53  77 105 138 174 215 265 319
#     4  10  18  30  49  75 105 139 178 217 257 306
#     4  10  19  32  52  78 102 132 173 216 261 307
#     4   9  18  33  50  71 104 141 173 208 255 312
#     4  10  21  37  55  75 105 147 185 216 262 323
#
# _framework density 17.532903000000001
#
# number of rings (size 3 to 8) (size 9 to 14) (size 15 to 20)
#    0.000    2.250    2.500    1.875    0.000    4.250 
#    0.000    0.000    0.000    3.750    0.000    3.500 
#    0.000    0.000    0.000    0.000    0.000    0.000 
#
# Total GULP energy -396787.257678 kJ/mol
# GULP energy per Si atom -12399.601802 kJ/mol
# Density = 1.749300 g / cm^3
# Si number density = 17.532903 Si / 1000 Ang^3
#
#
#
# Elastic Constant Matrix: (Units=GPa)
#
#
# Indices 1 2 3 4 5 6 
#
# 1 62.8313 33.6996 44.4200 0.0000 0.0000 0.0000
# 2 33.6996 95.2375 53.7330 0.0000 0.0000 0.0000
# 3 44.4200 53.7330 102.8785 0.0000 0.0000 0.0000
# 4 0.0000 0.0000 0.0000 20.3614 0.0000 0.0000
# 5 0.0000 0.0000 0.0000 0.0000 32.7889 0.0000
# 6 0.0000 0.0000 0.0000 0.0000 0.0000 18.5272
#
#
#
# Elastic Compliance Matrix: (Units=1/GPa)
#
#
# Indices 1 2 3 4 5 6 
#
# 1 0.023803 -0.003720 -0.008334 0.000000 0.000000 0.000000
# 2 -0.003720 0.015468 -0.006473 0.000000 0.000000 0.000000
# 3 -0.008334 -0.006473 0.016699 0.000000 0.000000 0.000000
# 4 0.000000 0.000000 0.000000 0.049112 0.000000 0.000000
# 5 0.000000 0.000000 0.000000 0.000000 0.030498 0.000000
# 6 0.000000 0.000000 0.000000 0.000000 0.000000 0.053975
#
#
# Mechanical properties :
#
#
# Convention : Reuss Voigt Hill
#
# Bulk Modulus (GPa) = 52.86530 58.29474 55.58002
# Shear Modulus (GPa) = 21.46687 22.94182 22.20434
#
# Velocity S-wave (km/s) = 3.50290 3.62124 3.56257
# Velocity P-wave (km/s) = 6.82481 7.12780 6.97795
#
# Compressibility (1/GPa) = 0.01891600
#
# Stress axis : x y z
#
# Youngs Moduli (GPa) = 42.01093 64.64767 59.88224
#
# Poissons Ratio (x) = 0.24052 0.49908
# Poissons Ratio (y) = 0.15630 0.38760
# Poissons Ratio (z) = 0.35014 0.41845
#
# Static dielectric constant tensor:
#      x y z
#    x 3.158870 0.000000 0.000000 
#    y 0.000000 3.157590 0.000000 
#    z 0.000000 0.000000 3.377970 
# 
# 
# High freq. dielectric constant tensor:
#      x y z
#    x 1.668630 0.000000 0.000000 
#    y 0.000000 1.652240 0.000000 
#    z 0.000000 0.000000 1.681030 
# 
# From -- ./inp_files/17227.got.cif
#   From: 2010.03.12/outbox.cif.g09.slc.cpg/sg38_9_cif.got.tgz:17227.got - 2010.04.14 02:38:36.
