data_PCOD8177585
_publ_section_title
;
Structure prediction by ZEFSAII (Michael W. Deem and Ramdas Pophale) SiO2 
 PCOD8177585
Probable space group: A M M 2
;
_chemical_formula_sum "Si O2"
_cell_formula_units_Z 40
_cell_length_a 9.006991
_cell_length_b 18.590860
_cell_length_c 13.617132
_cell_angle_alpha 90.000000
_cell_angle_beta 90.000000
_cell_angle_gamma 90.000000
_cell_volume 2280.157552
_symmetry_space_group_name_H-M "A M M 2"
_symmetry_group_IT_number 38
_symmetry_cell_setting 'orthorhombic'
loop_
_space_group_symop_operation_xyz
x,y,z
-x,-y,z
-x,y,z
x,-y,z
x,1/2+y,1/2+z
-x,1/2-y,1/2+z
-x,1/2+y,1/2+z
x,1/2-y,1/2+z
loop_
_atom_site_type_symbol
_atom_site_label
_atom_site_fract_x
_atom_site_fract_y
_atom_site_fract_z
Si Si1 0.174577 0.208338 0.362660
Si Si2 0.673711 0.648052 0.043908
Si Si3 0.174299 0.856790 0.951903
Si Si4 0.822669 0.000000 0.855149
Si Si5 0.825478 0.279841 0.642743
Si Si6 0.671666 0.500000 0.147740
O O1 0.258570 0.153609 0.434493
O O2 0.227164 0.289644 0.386025
O O3 0.218884 0.191639 0.250385
O O4 0.000000 0.199574 0.381547
O O5 0.500000 0.662625 0.037700
O O6 0.743622 0.705699 0.118275
O O7 0.711611 0.569164 0.083003
O O8 0.000000 0.865273 0.943422
O O9 0.245629 0.930350 0.911149
O O10 0.220507 0.841880 0.065096
O O11 0.772080 0.000000 0.743566
O O12 0.000000 0.000000 0.856975
O O13 0.000000 0.262874 0.636568
O O14 0.500000 0.500000 0.179590
#
# Coordination Sequence:
#
# PCOD8177585 Si02
#       6
#     8   8   8   4   8   4
#     4   9  17  31  50  70  94 126 162 201 241 279
#     4  10  20  33  49  70  97 128 162 199 239 286
#     4   8  15  27  45  71  97 120 153 194 233 275
#     4  10  18  30  51  74  96 126 159 190 233 290
#     4   9  17  32  52  73  99 127 157 198 242 281
#     4  10  22  36  47  66  98 128 155 198 247 280
#
# _framework density 17.542648
#
# number of rings (size 3 to 8) (size 9 to 14) (size 15 to 20)
#    0.000    2.800    0.000    3.000    0.000    4.000 
#    0.000    7.000    0.000    2.400    0.000    0.000 
#    0.000    0.000    0.000    0.000    0.000    0.000 
#
# Total GULP energy -247947.480462 kJ/mol
# GULP energy per Si atom -12397.374023 kJ/mol
# Density = 1.750272 g / cm^3
# Si number density = 17.542648 Si / 1000 Ang^3
#
#
#
# Elastic Constant Matrix: (Units=GPa)
#
#
# Indices 1 2 3 4 5 6 
#
# 1 45.3221 35.6960 44.4052 0.0000 0.0000 0.0000
# 2 35.6960 123.0673 72.3725 0.0000 0.0000 0.0000
# 3 44.4052 72.3725 165.7944 0.0000 0.0000 0.0000
# 4 0.0000 0.0000 0.0000 19.0756 0.0000 0.0000
# 5 0.0000 0.0000 0.0000 0.0000 16.1635 0.0000
# 6 0.0000 0.0000 0.0000 0.0000 0.0000 21.4929
#
#
#
# Elastic Compliance Matrix: (Units=1/GPa)
#
#
# Indices 1 2 3 4 5 6 
#
# 1 0.032765 -0.005843 -0.006225 0.000000 0.000000 0.000000
# 2 -0.005843 0.011974 -0.003662 0.000000 0.000000 0.000000
# 3 -0.006225 -0.003662 0.009297 0.000000 0.000000 0.000000
# 4 0.000000 0.000000 0.000000 0.052423 0.000000 0.000000
# 5 0.000000 0.000000 0.000000 0.000000 0.061868 0.000000
# 6 0.000000 0.000000 0.000000 0.000000 0.000000 0.046527
#
#
# Mechanical properties :
#
#
# Convention : Reuss Voigt Hill
#
# Bulk Modulus (GPa) = 44.29329 71.01460 57.65394
# Shear Modulus (GPa) = 19.69747 23.46040 21.57894
#
# Velocity S-wave (km/s) = 3.35451 3.66093 3.51106
# Velocity P-wave (km/s) = 6.34881 7.64453 7.02660
#
# Compressibility (1/GPa) = 0.02257678
#
# Stress axis : x y z
#
# Youngs Moduli (GPa) = 30.52002 83.51539 107.55755
#
# Poissons Ratio (x) = 0.48797 0.66956
# Poissons Ratio (y) = 0.17832 0.39387
# Poissons Ratio (z) = 0.18999 0.30583
#
# Static dielectric constant tensor:
#      x y z
#    x 3.027220 0.000000 0.000000 
#    y 0.000000 3.371870 0.000000 
#    z 0.000000 0.000000 3.483320 
# 
# 
# High freq. dielectric constant tensor:
#      x y z
#    x 1.654230 0.000000 0.000000 
#    y 0.000000 1.667110 0.000000 
#    z 0.000000 0.000000 1.689140 
# 
# From -- ./inp_files/11848.got.cif
#   From: 2010.03.12/outbox.cif.g09.slc.cpg/sg38_6_cif.got.tgz:11848.got - 2010.04.14 02:38:36.
