data_PCOD8177349
_publ_section_title
;
Structure prediction by ZEFSAII (Michael W. Deem and Ramdas Pophale) SiO2 
 PCOD8177349
Probable space group: A M M 2
;
_chemical_formula_sum "Si O2"
_cell_formula_units_Z 48
_cell_length_a 14.317011
_cell_length_b 17.466263
_cell_length_c 10.009432
_cell_angle_alpha 90.000000
_cell_angle_beta 90.000000
_cell_angle_gamma 90.000000
_cell_volume 2503.005405
_symmetry_space_group_name_H-M "A M M 2"
_symmetry_group_IT_number 38
_symmetry_cell_setting 'orthorhombic'
loop_
_space_group_symop_operation_xyz
x,y,z
-x,-y,z
-x,y,z
x,-y,z
x,1/2+y,1/2+z
-x,1/2-y,1/2+z
-x,1/2+y,1/2+z
x,1/2-y,1/2+z
loop_
_atom_site_type_symbol
_atom_site_label
_atom_site_fract_x
_atom_site_fract_y
_atom_site_fract_z
Si Si1 0.500000 0.179736 0.317091
Si Si2 0.182372 0.664099 0.676788
Si Si3 0.500000 0.168339 0.994038
Si Si4 0.000000 0.590947 0.767192
Si Si5 0.699531 0.653950 0.429458
Si Si6 0.692810 0.664185 0.915563
Si Si7 0.194730 0.345805 0.167742
Si Si8 0.000000 0.409856 0.072443
O O1 0.500000 0.259990 0.393965
O O2 0.591029 0.133406 0.369192
O O3 0.500000 0.190638 0.154062
O O4 0.235665 0.629266 0.551069
O O5 0.234212 0.635238 0.807820
O O6 0.175873 0.755579 0.670759
O O7 0.083061 0.625200 0.681096
O O8 0.594396 0.120772 0.956431
O O9 0.000000 0.500000 0.763920
O O10 0.000000 0.622132 0.920192
O O11 0.689065 0.744711 0.421960
O O12 0.752518 0.622735 0.298881
O O13 0.730449 0.630498 0.054329
O O14 0.093282 0.383430 0.149384
O O15 0.000000 0.500000 0.069152
#
# Coordination Sequence:
#
# PCOD8177349 Si02
#       8
#     4   8   4   4   8   8   8   4
#     4  10  18  26  44  76 115 150 174 219 269 317
#     4  10  18  35  53  78 109 142 179 220 266 320
#     4  10  18  28  44  76 117 146 174 215 273 323
#     4  11  23  37  57  81 106 141 184 230 278 325
#     4   9  19  29  50  77 110 143 175 220 267 317
#     4   9  17  29  49  74 110 144 178 214 261 318
#     4  10  20  35  54  80 108 145 182 220 270 323
#     4  11  23  39  57  79 106 141 184 230 278 327
#
# _framework density 19.176946999999998
#
# number of rings (size 3 to 8) (size 9 to 14) (size 15 to 20)
#    0.000    2.167    3.333    0.500    7.000    0.667 
#    0.000    1.667    0.000    0.000    0.000    7.000 
#    0.000    0.000    0.000    0.000    0.000    0.000 
#
# Total GULP energy -297364.444835 kJ/mol
# GULP energy per Si atom -12390.185201 kJ/mol
# Density = 1.913330 g / cm^3
# Si number density = 19.176947 Si / 1000 Ang^3
#
#
#
# Elastic Constant Matrix: (Units=GPa)
#
#
# Indices 1 2 3 4 5 6 
#
# 1 196.9976 24.1189 74.4225 0.0000 0.0000 0.0000
# 2 24.1189 21.4166 19.5076 0.0000 0.0000 0.0000
# 3 74.4225 19.5076 144.1763 0.0000 0.0000 0.0000
# 4 0.0000 0.0000 0.0000 9.5386 0.0000 0.0000
# 5 0.0000 0.0000 0.0000 0.0000 52.8966 0.0000
# 6 0.0000 0.0000 0.0000 0.0000 0.0000 -5.1434
#
#
#
# Elastic Compliance Matrix: (Units=1/GPa)
#
#
# Indices 1 2 3 4 5 6 
#
# 1 0.006754 -0.005053 -0.002802 0.000000 0.000000 0.000000
# 2 -0.005053 0.057037 -0.005109 0.000000 0.000000 0.000000
# 3 -0.002802 -0.005109 0.009074 0.000000 0.000000 0.000000
# 4 0.000000 0.000000 0.000000 0.104837 0.000000 0.000000
# 5 0.000000 0.000000 0.000000 0.000000 0.018905 0.000000
# 6 0.000000 0.000000 0.000000 0.000000 0.000000 -0.194424
#
#
# Mechanical properties :
#
#
# Convention : Reuss Voigt Hill
#
# Bulk Modulus (GPa) = 21.30589 66.52095 43.91342
# Shear Modulus (GPa) = 114.26846 27.76113 71.01479
#
# Velocity S-wave (km/s) = 7.72759 3.80890 6.09194
# Velocity P-wave (km/s) = 9.52655 7.35574 8.51065
#
# Compressibility (1/GPa) = 0.04693537
#
# Stress axis : x y z
#
# Youngs Moduli (GPa) = 148.06959 17.53250 110.20732
#
# Poissons Ratio (x) = 0.08859 0.30885
# Poissons Ratio (y) = 0.74821 0.56304
# Poissons Ratio (z) = 0.41496 0.08957
#
# Static dielectric constant tensor:
#      x y z
#    x 3.918350 0.000000 0.000000 
#    y 0.000000 2.801530 0.000000 
#    z 0.000000 0.000000 3.845980 
# 
# 
# High freq. dielectric constant tensor:
#      x y z
#    x 1.774700 0.000000 0.000000 
#    y 0.000000 1.670190 0.000000 
#    z 0.000000 0.000000 1.761520 
# 
# From -- ./inp_files/5524.got.cif
#   From: 2010.03.12/outbox.cif.g09.slc.cpg/sg38_3_cif.got.tgz:5524.got - 2010.04.14 02:38:36.
