data_PCOD8177308
_publ_section_title
;
Structure prediction by ZEFSAII (Michael W. Deem and Ramdas Pophale) SiO2 
 PCOD8177308
Probable space group: A M M 2
;
_chemical_formula_sum "Si O2"
_cell_formula_units_Z 64
_cell_length_a 9.147720
_cell_length_b 20.649008
_cell_length_c 19.695564
_cell_angle_alpha 90.000000
_cell_angle_beta 90.000000
_cell_angle_gamma 90.000000
_cell_volume 3720.321544
_symmetry_space_group_name_H-M "A M M 2"
_symmetry_group_IT_number 38
_symmetry_cell_setting 'orthorhombic'
loop_
_space_group_symop_operation_xyz
x,y,z
-x,-y,z
-x,y,z
x,-y,z
x,1/2+y,1/2+z
-x,1/2-y,1/2+z
-x,1/2+y,1/2+z
x,1/2-y,1/2+z
loop_
_atom_site_type_symbol
_atom_site_label
_atom_site_fract_x
_atom_site_fract_y
_atom_site_fract_z
Si Si1 0.173307 0.428122 0.072050
Si Si2 0.328831 0.272835 0.295816
Si Si3 0.172962 0.809973 0.076372
Si Si4 0.167164 0.273555 0.430497
Si Si5 0.329405 0.377858 0.795636
Si Si6 0.831465 0.427000 0.667250
Si Si7 0.166748 0.121028 0.429652
Si Si8 0.825801 0.311379 0.163928
O O1 0.224176 0.500000 0.094295
O O2 0.230997 0.376005 0.126207
O O3 0.000000 0.422232 0.068766
O O4 0.232596 0.413054 0.996591
O O5 0.500000 0.287107 0.293782
O O6 0.266311 0.296849 0.367938
O O7 0.292385 0.197437 0.284760
O O8 0.248381 0.312816 0.237368
O O9 0.224838 0.877718 0.109264
O O10 0.232542 0.750563 0.121693
O O11 0.000000 0.803520 0.073095
O O12 0.231038 0.806593 0.999042
O O13 0.178182 0.197237 0.441683
O O14 0.000000 0.294304 0.416027
O O15 0.500000 0.391481 0.797477
O O16 0.260550 0.418868 0.735239
O O17 0.261908 0.402583 0.866134
O O18 0.811249 0.500000 0.639736
O O19 0.000000 0.411885 0.684659
O O20 0.000000 0.100061 0.415814
O O21 0.000000 0.309688 0.172859
#
# Coordination Sequence:
#
# PCOD8177308 Si02
#       8
#     8   8   8   8   8   8   8   8
#     4   9  17  29  48  76 103 125 158 203 245 286
#     4  10  20  32  47  73 103 129 162 204 244 284
#     4   9  16  29  51  75  95 120 162 205 240 284
#     4   9  16  29  50  73  95 125 163 201 244 292
#     4  10  20  32  46  68 100 135 166 199 238 282
#     4  10  20  33  50  72  98 129 163 201 243 287
#     4   9  16  28  47  70  97 130 164 197 236 286
#     4  10  17  30  53  75  96 128 163 200 244 287
#
# _framework density 17.202814
#
# number of rings (size 3 to 8) (size 9 to 14) (size 15 to 20)
#    0.000    2.500    2.500    0.750    0.000    1.750 
#    0.000    3.125    0.000    1.875    0.000    3.500 
#    0.000    0.000    0.000    0.000    0.000    0.000 
#
# Total GULP energy -396793.541133 kJ/mol
# GULP energy per Si atom -12399.798160 kJ/mol
# Density = 1.716366 g / cm^3
# Si number density = 17.202814 Si / 1000 Ang^3
#
#
#
# Elastic Constant Matrix: (Units=GPa)
#
#
# Indices 1 2 3 4 5 6 
#
# 1 49.5995 29.7270 40.9298 0.0000 0.0000 0.0000
# 2 29.7270 96.3037 67.6526 0.0000 0.0000 0.0000
# 3 40.9298 67.6526 145.2309 0.0000 0.0000 0.0000
# 4 0.0000 0.0000 0.0000 24.7093 0.0000 0.0000
# 5 0.0000 0.0000 0.0000 0.0000 1.7609 0.0000
# 6 0.0000 0.0000 0.0000 0.0000 0.0000 11.7997
#
#
#
# Elastic Compliance Matrix: (Units=1/GPa)
#
#
# Indices 1 2 3 4 5 6 
#
# 1 0.027540 -0.004532 -0.005651 0.000000 0.000000 0.000000
# 2 -0.004532 0.016180 -0.006260 0.000000 0.000000 0.000000
# 3 -0.005651 -0.006260 0.011394 0.000000 0.000000 0.000000
# 4 0.000000 0.000000 0.000000 0.040471 0.000000 0.000000
# 5 0.000000 0.000000 0.000000 0.000000 0.567888 0.000000
# 6 0.000000 0.000000 0.000000 0.000000 0.000000 0.084748
#
#
# Mechanical properties :
#
#
# Convention : Reuss Voigt Hill
#
# Bulk Modulus (GPa) = 44.98389 63.08367 54.03378
# Shear Modulus (GPa) = 6.34102 17.84230 12.09166
#
# Velocity S-wave (km/s) = 1.92199 3.22401 2.65408
# Velocity P-wave (km/s) = 5.57954 7.11401 6.39298
#
# Compressibility (1/GPa) = 0.02223018
#
# Stress axis : x y z
#
# Youngs Moduli (GPa) = 36.31026 61.80343 87.76378
#
# Poissons Ratio (x) = 0.28007 0.49592
# Poissons Ratio (y) = 0.16455 0.54941
# Poissons Ratio (z) = 0.20518 0.38690
#
# Static dielectric constant tensor:
#      x y z
#    x 2.925630 0.000000 0.000000 
#    y 0.000000 3.121940 0.000000 
#    z 0.000000 0.000000 3.326960 
# 
# 
# High freq. dielectric constant tensor:
#      x y z
#    x 1.634370 0.000000 0.000000 
#    y 0.000000 1.641630 0.000000 
#    z 0.000000 0.000000 1.670340 
# 
# From -- ./inp_files/20202.got.cif
#   From: 2010.03.12/outbox.cif.g09.slc.cpg/sg38_11_cif.got.tgz:20202.got - 2010.04.14 02:38:36.
