data_PCOD8177887
_publ_section_title
;
Structure prediction by ZEFSAII (Michael W. Deem and Ramdas Pophale) SiO2 
 PCOD8177887
Probable space group: A M M 2
;
_chemical_formula_sum "Si O2"
_cell_formula_units_Z 64
_cell_length_a 9.087122
_cell_length_b 18.550374
_cell_length_c 25.987932
_cell_angle_alpha 90.000000
_cell_angle_beta 90.000000
_cell_angle_gamma 90.000000
_cell_volume 4380.773007
_symmetry_space_group_name_H-M "A M M 2"
_symmetry_group_IT_number 38
_symmetry_cell_setting 'orthorhombic'
loop_
_space_group_symop_operation_xyz
x,y,z
-x,-y,z
-x,y,z
x,-y,z
x,1/2+y,1/2+z
-x,1/2-y,1/2+z
-x,1/2+y,1/2+z
x,1/2-y,1/2+z
loop_
_atom_site_type_symbol
_atom_site_label
_atom_site_fract_x
_atom_site_fract_y
_atom_site_fract_z
Si Si1 0.672626 0.155002 0.055470
Si Si2 0.330665 0.705300 0.111954
Si Si3 0.831350 0.419817 0.649179
Si Si4 0.172664 0.416800 0.461578
Si Si5 0.670616 0.082873 0.856568
Si Si6 0.165882 0.719757 0.699989
Si Si7 0.166932 0.653845 0.265151
Si Si8 0.828179 0.419391 0.156505
O O1 0.500000 0.139091 0.050910
O O2 0.702881 0.240639 0.064365
O O3 0.733731 0.106858 0.101919
O O4 0.752584 0.134181 0.003200
O O5 0.500000 0.684388 0.114223
O O6 0.288626 0.749092 0.162705
O O7 0.241527 0.630088 0.111218
O O8 0.781728 0.500000 0.665849
O O9 0.813782 0.367227 0.699328
O O10 0.000000 0.419832 0.630013
O O11 0.208862 0.500000 0.474430
O O12 0.237782 0.394894 0.406549
O O13 0.000000 0.402180 0.460822
O O14 0.500000 0.097146 0.867753
O O15 0.721502 0.132129 0.809477
O O16 0.700823 0.000000 0.841815
O O17 0.184419 0.759334 0.755241
O O18 0.000000 0.739115 0.679635
O O19 0.209119 0.612177 0.212761
O O20 0.000000 0.634501 0.281713
O O21 0.762469 0.500000 0.152750
O O22 0.000000 0.420519 0.146640
#
# Coordination Sequence:
#
# PCOD8177887 Si02
#       8
#     8   8   8   8   8   8   8   8
#     4  10  19  29  41  58  82 110 137 166 202 241
#     4   9  17  27  39  57  80 106 135 166 199 236
#     4   9  16  26  41  60  81 107 140 172 200 235
#     4  10  20  32  45  60  78 103 136 170 201 236
#     4  10  20  31  42  58  80 104 131 166 204 237
#     4   8  15  27  40  55  78 107 136 167 201 236
#     4   9  16  27  42  57  77 107 138 165 196 236
#     4   9  17  28  42  60  82 109 139 169 201 236
#
# _framework density 14.609294999999999
#
# number of rings (size 3 to 8) (size 9 to 14) (size 15 to 20)
#    0.000    2.750    0.000    3.000    0.000    7.500 
#    0.000    0.000    0.000    0.000    0.000    0.000 
#    0.000    1.000    0.000    5.250    0.000    2.625 
#
# Total GULP energy -396551.096530 kJ/mol
# GULP energy per Si atom -12392.221767 kJ/mol
# Density = 1.457604 g / cm^3
# Si number density = 14.609295 Si / 1000 Ang^3
#
#
#
# Elastic Constant Matrix: (Units=GPa)
#
#
# Indices 1 2 3 4 5 6 
#
# 1 66.0007 42.7807 41.7296 0.0000 0.0000 0.0000
# 2 42.7807 115.2106 50.9969 0.0000 0.0000 0.0000
# 3 41.7296 50.9969 69.6000 0.0000 0.0000 0.0000
# 4 0.0000 0.0000 0.0000 23.4179 0.0000 0.0000
# 5 0.0000 0.0000 0.0000 0.0000 19.4624 0.0000
# 6 0.0000 0.0000 0.0000 0.0000 0.0000 20.0494
#
#
#
# Elastic Compliance Matrix: (Units=1/GPa)
#
#
# Indices 1 2 3 4 5 6 
#
# 1 0.025597 -0.004013 -0.012406 0.000000 0.000000 0.000000
# 2 -0.004013 0.013475 -0.007467 0.000000 0.000000 0.000000
# 3 -0.012406 -0.007467 0.027278 0.000000 0.000000 0.000000
# 4 0.000000 0.000000 0.000000 0.042702 0.000000 0.000000
# 5 0.000000 0.000000 0.000000 0.000000 0.051381 0.000000
# 6 0.000000 0.000000 0.000000 0.000000 0.000000 0.049877
#
#
# Mechanical properties :
#
#
# Convention : Reuss Voigt Hill
#
# Bulk Modulus (GPa) = 53.83330 57.98064 55.90697
# Shear Modulus (GPa) = 18.91962 20.27286 19.59624
#
# Velocity S-wave (km/s) = 3.60257 3.72918 3.66642
# Velocity P-wave (km/s) = 7.36433 7.63650 7.50165
#
# Compressibility (1/GPa) = 0.01857586
#
# Stress axis : x y z
#
# Youngs Moduli (GPa) = 39.06762 74.20960 36.66002
#
# Poissons Ratio (x) = 0.29782 0.45481
# Poissons Ratio (y) = 0.15679 0.27376
# Poissons Ratio (z) = 0.48468 0.55416
#
# Static dielectric constant tensor:
#      x y z
#    x 2.904760 0.000000 0.000000 
#    y 0.000000 3.135520 0.000000 
#    z 0.000000 0.000000 2.603170 
# 
# 
# High freq. dielectric constant tensor:
#      x y z
#    x 1.569420 0.000000 0.000000 
#    y 0.000000 1.554410 0.000000 
#    z 0.000000 0.000000 1.517140 
# 
# From -- ./inp_files/22255.got.cif
#   From: 2010.03.12/outbox.cif.g09.slc.cpg/sg38_12_cif.got.tgz:22255.got - 2010.04.14 02:38:36.
