data_PCOD8177041
_publ_section_title
;
Structure prediction by ZEFSAII (Michael W. Deem and Ramdas Pophale) SiO2 
 PCOD8177041
Probable space group: C C C 2
;
_chemical_formula_sum "Si O2"
_cell_formula_units_Z 56
_cell_length_a 9.309843
_cell_length_b 20.675272
_cell_length_c 12.772018
_cell_angle_alpha 90.000000
_cell_angle_beta 90.000000
_cell_angle_gamma 90.000000
_cell_volume 2458.403190
_symmetry_space_group_name_H-M "C C C 2"
_symmetry_group_IT_number 37
_symmetry_cell_setting 'orthorhombic'
loop_
_space_group_symop_operation_xyz
x,y,z
-x,-y,z
-x,y,1/2+z
x,-y,1/2+z
1/2+x,1/2+y,z
1/2-x,1/2-y,z
1/2-x,1/2+y,1/2+z
1/2+x,1/2-y,1/2+z
loop_
_atom_site_type_symbol
_atom_site_label
_atom_site_fract_x
_atom_site_fract_y
_atom_site_fract_z
Si Si1 0.707453 0.924119 0.026670
Si Si2 0.155691 0.630401 0.182291
Si Si3 0.367711 0.539996 0.053869
Si Si4 0.114414 0.846991 0.899852
Si Si5 0.696534 0.322326 0.378786
Si Si6 0.500000 0.000000 0.906301
Si Si7 0.250000 0.750000 0.049661
Si Si8 0.845226 0.410559 0.755085
O O1 0.738582 0.932024 0.151049
O O2 0.789141 0.986952 0.980935
O O3 0.771963 0.855614 0.990917
O O4 0.547466 0.938794 0.980027
O O5 0.249164 0.573275 0.129700
O O6 0.212818 0.636031 0.298704
O O7 0.166532 0.698143 0.120668
O O8 0.987222 0.618049 0.198115
O O9 0.500000 0.500000 0.109786
O O10 0.426548 0.592175 0.971969
O O11 0.247359 0.859120 0.820054
O O12 0.968563 0.827079 0.840032
O O13 0.139298 0.786362 0.975300
O O14 0.750000 0.250000 0.385141
O O15 0.378227 0.971144 0.829367
#
# Coordination Sequence:
#
# PCOD8177041 Si02
#       8
#     8   8   8   8   8   4   4   8
#     4  12  26  45  73 109 154 190 251 316 384 461
#     4  11  25  47  75 106 147 198 252 316 382 458
#     4  11  23  46  74 111 149 192 246 312 392 454
#     4  11  27  47  75 109 146 199 253 316 383 459
#     4  12  28  49  73 105 152 197 251 316 373 455
#     4  12  22  44  74 112 154 194 246 318 384 466
#     4  10  26  46  76 100 148 196 258 316 380 452
#     4  12  27  44  74 113 145 203 253 313 391 463
#
# _framework density 22.779014
#
# number of rings (size 3 to 8) (size 9 to 14) (size 15 to 20)
#    0.000    0.571    5.000    2.143    8.000    0.000 
#    1.286    0.000    0.000    0.000    0.000    0.000 
#    0.000    0.000    0.000    0.000    0.000    0.000 
#
# Total GULP energy -346904.029464 kJ/mol
# GULP energy per Si atom -12389.429624 kJ/mol
# Density = 2.272717 g / cm^3
# Si number density = 22.779014 Si / 1000 Ang^3
#
#
#
# Elastic Constant Matrix: (Units=GPa)
#
#
# Indices 1 2 3 4 5 6 
#
# 1 110.9147 60.7756 32.8442 0.0000 0.0000 0.0000
# 2 60.7756 121.1835 32.8204 0.0000 0.0000 0.0000
# 3 32.8442 32.8204 101.5492 0.0000 0.0000 0.0000
# 4 0.0000 0.0000 0.0000 32.8220 0.0000 0.0000
# 5 0.0000 0.0000 0.0000 0.0000 25.6245 0.0000
# 6 0.0000 0.0000 0.0000 0.0000 0.0000 34.4171
#
#
#
# Elastic Compliance Matrix: (Units=1/GPa)
#
#
# Indices 1 2 3 4 5 6 
#
# 1 0.012897 -0.005850 -0.002280 0.000000 0.000000 0.000000
# 2 -0.005850 0.011697 -0.001888 0.000000 0.000000 0.000000
# 3 -0.002280 -0.001888 0.011195 0.000000 0.000000 0.000000
# 4 0.000000 0.000000 0.000000 0.030467 0.000000 0.000000
# 5 0.000000 0.000000 0.000000 0.000000 0.039025 0.000000
# 6 0.000000 0.000000 0.000000 0.000000 0.000000 0.029055
#
#
# Mechanical properties :
#
#
# Convention : Reuss Voigt Hill
#
# Bulk Modulus (GPa) = 63.48696 65.16976 64.32836
# Shear Modulus (GPa) = 31.32311 32.38654 31.85483
#
# Velocity S-wave (km/s) = 3.71224 3.77473 3.74361
# Velocity P-wave (km/s) = 6.80482 6.90433 6.85476
#
# Compressibility (1/GPa) = 0.01575127
#
# Stress axis : x y z
#
# Youngs Moduli (GPa) = 77.53757 85.48850 89.32304
#
# Poissons Ratio (x) = 0.50015 0.20370
# Poissons Ratio (y) = 0.45363 0.16868
# Poissons Ratio (z) = 0.17682 0.16143
#
# Static dielectric constant tensor:
#      x y z
#    x 4.156520 0.000000 0.000000 
#    y 0.000000 4.075640 0.000000 
#    z 0.000000 0.000000 4.145620 
# 
# 
# High freq. dielectric constant tensor:
#      x y z
#    x 1.906560 0.000000 0.000000 
#    y 0.000000 1.905170 0.000000 
#    z 0.000000 0.000000 1.896210 
# 
# From -- ./inp_files/10846.got.cif
#   From: 2010.03.12/outbox.cif.g09.slc.cpg/sg37_6_cif.got.tgz:10846.got - 2010.04.14 02:25:27.
