data_PCOD8177582
_publ_section_title
;
Structure prediction by ZEFSAII (Michael W. Deem and Ramdas Pophale) SiO2 
 PCOD8177582
Probable space group: A M M 2
;
_chemical_formula_sum "Si O2"
_cell_formula_units_Z 56
_cell_length_a 15.439324
_cell_length_b 8.911913
_cell_length_c 20.223154
_cell_angle_alpha 90.000000
_cell_angle_beta 90.000000
_cell_angle_gamma 90.000000
_cell_volume 2782.582877
_symmetry_space_group_name_H-M "A M M 2"
_symmetry_group_IT_number 38
_symmetry_cell_setting 'orthorhombic'
loop_
_space_group_symop_operation_xyz
x,y,z
-x,-y,z
-x,y,z
x,-y,z
x,1/2+y,1/2+z
-x,1/2-y,1/2+z
-x,1/2+y,1/2+z
x,1/2-y,1/2+z
loop_
_atom_site_type_symbol
_atom_site_label
_atom_site_fract_x
_atom_site_fract_y
_atom_site_fract_z
Si Si1 0.347774 0.169585 0.545360
Si Si2 0.096831 0.673406 0.970536
Si Si3 0.223252 0.176981 0.719010
Si Si4 0.175967 0.176740 0.089025
Si Si5 0.595117 0.828231 0.918890
Si Si6 0.779068 0.826781 0.866682
Si Si7 0.408526 0.670632 0.187720
O O1 0.266214 0.277941 0.555600
O O2 0.401842 0.223449 0.482776
O O3 0.409661 0.176864 0.608385
O O4 0.313943 0.000000 0.533915
O O5 0.115266 0.500000 0.984311
O O6 0.166730 0.728402 0.917346
O O7 0.000000 0.699326 0.942336
O O8 0.102302 0.760550 0.040288
O O9 0.164610 0.255090 0.663015
O O10 0.187728 0.209644 0.792372
O O11 0.321039 0.246740 0.715336
O O12 0.226184 0.000000 0.702982
O O13 0.167631 0.000000 0.094670
O O14 0.500000 0.801295 0.884803
O O15 0.675839 0.789940 0.870489
O O16 0.602929 0.000000 0.942121
O O17 0.796312 0.000000 0.883867
O O18 0.500000 0.746866 0.211226
O O19 0.409020 0.500000 0.213318
#
# Coordination Sequence:
#
# PCOD8177582 Si02
#       7
#     8   8   8   8   8   8   8
#     4  10  18  30  50  77 111 152 197 246 296 345
#     4  11  24  42  66  93 118 148 190 244 302 358
#     4   9  19  35  56  82 116 159 201 240 289 347
#     4  11  21  36  60  88 116 148 189 241 302 355
#     4  10  20  32  49  80 121 161 201 246 293 342
#     4  10  21  38  59  86 123 164 200 240 293 350
#     4   8  14  25  44  72 105 144 195 245 283 328
#
# _framework density 20.125185999999999
#
# number of rings (size 3 to 8) (size 9 to 14) (size 15 to 20)
#    0.000    2.143    1.429    3.429    0.000    3.143 
#    0.000    3.571    0.000    4.714    0.000    4.000 
#    0.000    0.000    0.000    0.000    0.000    0.000 
#
# Total GULP energy -346997.993476 kJ/mol
# GULP energy per Si atom -12392.785481 kJ/mol
# Density = 2.007938 g / cm^3
# Si number density = 20.125186 Si / 1000 Ang^3
#
#
#
# Elastic Constant Matrix: (Units=GPa)
#
#
# Indices 1 2 3 4 5 6 
#
# 1 86.5487 33.3462 33.7707 0.0000 0.0000 0.0000
# 2 33.3462 97.2863 50.9187 0.0000 0.0000 0.0000
# 3 33.7707 50.9187 109.4247 0.0000 0.0000 0.0000
# 4 0.0000 0.0000 0.0000 29.0820 0.0000 0.0000
# 5 0.0000 0.0000 0.0000 0.0000 8.4360 0.0000
# 6 0.0000 0.0000 0.0000 0.0000 0.0000 20.1794
#
#
#
# Elastic Compliance Matrix: (Units=1/GPa)
#
#
# Indices 1 2 3 4 5 6 
#
# 1 0.013908 -0.003332 -0.002742 0.000000 0.000000 0.000000
# 2 -0.003332 0.014387 -0.005666 0.000000 0.000000 0.000000
# 3 -0.002742 -0.005666 0.012622 0.000000 0.000000 0.000000
# 4 0.000000 0.000000 0.000000 0.034386 0.000000 0.000000
# 5 0.000000 0.000000 0.000000 0.000000 0.118540 0.000000
# 6 0.000000 0.000000 0.000000 0.000000 0.000000 0.049555
#
#
# Mechanical properties :
#
#
# Convention : Reuss Voigt Hill
#
# Bulk Modulus (GPa) = 57.35273 58.81457 58.08365
# Shear Modulus (GPa) = 18.33589 23.22108 20.77848
#
# Velocity S-wave (km/s) = 3.02170 3.40050 3.21668
# Velocity P-wave (km/s) = 6.38233 6.68623 6.53604
#
# Compressibility (1/GPa) = 0.01743596
#
# Stress axis : x y z
#
# Youngs Moduli (GPa) = 71.90210 69.50856 79.22973
#
# Poissons Ratio (x) = 0.23161 0.21722
# Poissons Ratio (y) = 0.23959 0.44893
# Poissons Ratio (z) = 0.19713 0.39385
#
# Static dielectric constant tensor:
#      x y z
#    x 3.624160 0.000000 0.000000 
#    y 0.000000 3.425690 0.000000 
#    z 0.000000 0.000000 3.623020 
# 
# 
# High freq. dielectric constant tensor:
#      x y z
#    x 1.774660 0.000000 0.000000 
#    y 0.000000 1.761880 0.000000 
#    z 0.000000 0.000000 1.779620 
# 
# From -- ./inp_files/21075.got.cif
#   From: 2010.03.12/outbox.cif.g09.slc.cpg/sg38_11_cif.got.tgz:21075.got - 2010.04.14 02:38:36.
