data_PCOD8177172
_publ_section_title
;
Structure prediction by ZEFSAII (Michael W. Deem and Ramdas Pophale) SiO2 
 PCOD8177172
Probable space group: C C C 2
;
_chemical_formula_sum "Si O2"
_cell_formula_units_Z 56
_cell_length_a 11.844180
_cell_length_b 16.368869
_cell_length_c 12.859778
_cell_angle_alpha 90.000000
_cell_angle_beta 90.000000
_cell_angle_gamma 90.000000
_cell_volume 2493.200144
_symmetry_space_group_name_H-M "C C C 2"
_symmetry_group_IT_number 37
_symmetry_cell_setting 'orthorhombic'
loop_
_space_group_symop_operation_xyz
x,y,z
-x,-y,z
-x,y,1/2+z
x,-y,1/2+z
1/2+x,1/2+y,z
1/2-x,1/2-y,z
1/2-x,1/2+y,1/2+z
1/2+x,1/2-y,1/2+z
loop_
_atom_site_type_symbol
_atom_site_label
_atom_site_fract_x
_atom_site_fract_y
_atom_site_fract_z
Si Si1 0.483691 0.173522 0.827130
Si Si2 0.250000 0.250000 0.761172
Si Si3 0.489034 0.287797 0.992384
Si Si4 0.275835 0.027674 0.025759
Si Si5 0.000000 0.500000 0.923709
Si Si6 0.143459 0.890704 0.146214
Si Si7 0.408981 0.436012 0.869042
Si Si8 0.657068 0.809290 0.143222
O O1 0.362592 0.221814 0.823947
O O2 0.552760 0.218487 0.921879
O O3 0.553308 0.177026 0.720975
O O4 0.471068 0.078029 0.852960
O O5 0.235198 0.171568 0.688825
O O6 0.440990 0.347597 0.906696
O O7 0.559253 0.337066 0.077075
O O8 0.386035 0.240756 0.044988
O O9 0.290073 0.105488 0.102271
O O10 0.199061 0.961769 0.081296
O O11 0.215213 0.047206 0.915843
O O12 0.394393 0.985385 0.999684
O O13 0.084838 0.935065 0.244069
O O14 0.500000 0.500000 0.912196
O O15 0.750000 0.750000 0.197462
#
# Coordination Sequence:
#
# PCOD8177172 Si02
#       8
#     8   4   8   8   4   8   8   8
#     4  12  29  49  78 110 152 201 259 321 387 465
#     4  12  26  50  74 108 144 206 256 308 388 464
#     4  12  24  52  74 109 149 201 255 313 382 452
#     4  12  29  48  75 112 159 205 251 322 396 461
#     4  12  30  50  74 112 160 204 252 322 394 470
#     4  12  29  46  77 111 153 200 260 320 381 463
#     4  12  26  48  79 114 152 198 262 322 388 455
#     4  12  27  48  78 109 152 204 258 313 386 466
#
# _framework density 22.461093000000002
#
# number of rings (size 3 to 8) (size 9 to 14) (size 15 to 20)
#    0.000    0.000    7.143    0.857   11.000    2.286 
#    0.000    0.000    0.000    0.000    0.000    0.000 
#    0.000    0.000    0.000    0.000    0.000    0.000 
#
# Total GULP energy -346998.385331 kJ/mol
# GULP energy per Si atom -12392.799476 kJ/mol
# Density = 2.240997 g / cm^3
# Si number density = 22.461093 Si / 1000 Ang^3
#
#
#
# Elastic Constant Matrix: (Units=GPa)
#
#
# Indices 1 2 3 4 5 6 
#
# 1 92.0950 40.7257 36.9629 0.0000 0.0000 0.0000
# 2 40.7257 146.5871 43.5424 0.0000 0.0000 0.0000
# 3 36.9629 43.5424 110.6159 0.0000 0.0000 0.0000
# 4 0.0000 0.0000 0.0000 32.1718 0.0000 0.0000
# 5 0.0000 0.0000 0.0000 0.0000 36.6810 0.0000
# 6 0.0000 0.0000 0.0000 0.0000 0.0000 41.6472
#
#
#
# Elastic Compliance Matrix: (Units=1/GPa)
#
#
# Indices 1 2 3 4 5 6 
#
# 1 0.013432 -0.002716 -0.003419 0.000000 0.000000 0.000000
# 2 -0.002716 0.008274 -0.002350 0.000000 0.000000 0.000000
# 3 -0.003419 -0.002350 0.011108 0.000000 0.000000 0.000000
# 4 0.000000 0.000000 0.000000 0.031083 0.000000 0.000000
# 5 0.000000 0.000000 0.000000 0.000000 0.027262 0.000000
# 6 0.000000 0.000000 0.000000 0.000000 0.000000 0.024011
#
#
# Mechanical properties :
#
#
# Convention : Reuss Voigt Hill
#
# Bulk Modulus (GPa) = 63.11399 65.75113 64.43256
# Shear Modulus (GPa) = 36.38453 37.30446 36.84450
#
# Velocity S-wave (km/s) = 4.02915 4.07977 4.05454
# Velocity P-wave (km/s) = 7.05731 7.17841 7.11812
#
# Compressibility (1/GPa) = 0.01584435
#
# Stress axis : x y z
#
# Youngs Moduli (GPa) = 74.45060 120.85508 90.02788
#
# Poissons Ratio (x) = 0.32825 0.30782
# Poissons Ratio (y) = 0.20221 0.21152
# Poissons Ratio (z) = 0.25456 0.28395
#
# Static dielectric constant tensor:
#      x y z
#    x 3.354220 0.000000 0.000000 
#    y 0.000000 4.221970 0.000000 
#    z 0.000000 0.000000 4.183260 
# 
# 
# High freq. dielectric constant tensor:
#      x y z
#    x 1.877360 0.000000 0.000000 
#    y 0.000000 1.914530 0.000000 
#    z 0.000000 0.000000 1.894310 
# 
# From -- ./inp_files/11653.got.cif
#   From: 2010.03.12/outbox.cif.g09.slc.cpg/sg37_6_cif.got.tgz:11653.got - 2010.04.14 02:25:27.
