data_PCOD8177409
_publ_section_title
;
Structure prediction by ZEFSAII (Michael W. Deem and Ramdas Pophale) SiO2 
 PCOD8177409
Probable space group: A M M 2
;
_chemical_formula_sum "Si O2"
_cell_formula_units_Z 56
_cell_length_a 8.865787
_cell_length_b 18.554554
_cell_length_c 20.636472
_cell_angle_alpha 90.000000
_cell_angle_beta 90.000000
_cell_angle_gamma 90.000000
_cell_volume 3394.714577
_symmetry_space_group_name_H-M "A M M 2"
_symmetry_group_IT_number 38
_symmetry_cell_setting 'orthorhombic'
loop_
_space_group_symop_operation_xyz
x,y,z
-x,-y,z
-x,y,z
x,-y,z
x,1/2+y,1/2+z
-x,1/2-y,1/2+z
-x,1/2+y,1/2+z
x,1/2-y,1/2+z
loop_
_atom_site_type_symbol
_atom_site_label
_atom_site_fract_x
_atom_site_fract_y
_atom_site_fract_z
Si Si1 0.676109 0.918731 0.967620
Si Si2 0.326634 0.778589 0.402857
Si Si3 0.823986 0.788449 0.023644
Si Si4 0.824361 0.416604 0.205064
Si Si5 0.675993 0.078461 0.457328
Si Si6 0.328323 0.146024 0.827390
Si Si7 0.321825 0.160112 0.585096
O O1 0.500000 0.913281 0.981708
O O2 0.711372 0.892689 0.894781
O O3 0.735819 0.000000 0.975306
O O4 0.759978 0.869908 0.021344
O O5 0.500000 0.767686 0.428155
O O6 0.211669 0.747383 0.454864
O O7 0.292354 0.864816 0.398040
O O8 0.306802 0.733314 0.336428
O O9 0.747482 0.740519 0.080113
O O10 0.000000 0.791097 0.037064
O O11 0.777393 0.500000 0.206034
O O12 0.786928 0.381784 0.274164
O O13 0.729102 0.376466 0.150987
O O14 0.000000 0.406590 0.190654
O O15 0.500000 0.066130 0.465179
O O16 0.737444 0.111714 0.524763
O O17 0.752518 0.000000 0.443658
O O18 0.500000 0.128487 0.806242
O O19 0.500000 0.167343 0.584858
#
# Coordination Sequence:
#
# PCOD8177409 Si02
#       7
#     8   8   8   8   8   8   8
#     4   9  17  30  48  69  93 121 154 191 227 266
#     4   8  15  28  44  63  88 118 153 188 222 267
#     4  10  18  28  44  66  92 119 148 185 231 275
#     4  11  23  34  44  64  93 120 149 189 233 273
#     4   8  13  23  43  69  90 109 139 181 224 262
#     4   9  17  30  46  63  87 122 159 189 219 263
#     4  10  19  32  48  64  87 121 158 188 217 265
#
# _framework density 16.496233
#
# number of rings (size 3 to 8) (size 9 to 14) (size 15 to 20)
#    0.000    2.714    0.000    4.714    0.000    4.857 
#    0.000    0.000    0.000    3.857    0.000    1.000 
#    0.000    5.714    0.000    0.000    0.000    0.000 
#
# Total GULP energy -346964.975487 kJ/mol
# GULP energy per Si atom -12391.606267 kJ/mol
# Density = 1.645869 g / cm^3
# Si number density = 16.496233 Si / 1000 Ang^3
#
#
#
# Elastic Constant Matrix: (Units=GPa)
#
#
# Indices 1 2 3 4 5 6 
#
# 1 61.8533 41.3648 26.6143 0.0000 0.0000 0.0000
# 2 41.3648 160.2751 48.9176 0.0000 0.0000 0.0000
# 3 26.6143 48.9176 52.2321 0.0000 0.0000 0.0000
# 4 0.0000 0.0000 0.0000 25.7977 0.0000 0.0000
# 5 0.0000 0.0000 0.0000 0.0000 19.0022 0.0000
# 6 0.0000 0.0000 0.0000 0.0000 0.0000 20.0722
#
#
#
# Elastic Compliance Matrix: (Units=1/GPa)
#
#
# Indices 1 2 3 4 5 6 
#
# 1 0.021772 -0.003127 -0.008165 0.000000 0.000000 0.000000
# 2 -0.003127 0.009186 -0.007009 0.000000 0.000000 0.000000
# 3 -0.008165 -0.007009 0.029870 0.000000 0.000000 0.000000
# 4 0.000000 0.000000 0.000000 0.038763 0.000000 0.000000
# 5 0.000000 0.000000 0.000000 0.000000 0.052625 0.000000
# 6 0.000000 0.000000 0.000000 0.000000 0.000000 0.049820
#
#
# Mechanical properties :
#
#
# Convention : Reuss Voigt Hill
#
# Bulk Modulus (GPa) = 41.27985 56.46154 48.87069
# Shear Modulus (GPa) = 20.26636 23.47201 21.86918
#
# Velocity S-wave (km/s) = 3.50886 3.77619 3.64498
# Velocity P-wave (km/s) = 6.44161 7.30165 6.88507
#
# Compressibility (1/GPa) = 0.02422490
#
# Stress axis : x y z
#
# Youngs Moduli (GPa) = 45.93117 108.86546 33.47798
#
# Poissons Ratio (x) = 0.34042 0.27335
# Poissons Ratio (y) = 0.14362 0.23466
# Poissons Ratio (z) = 0.37503 0.76309
#
# Static dielectric constant tensor:
#      x y z
#    x 2.923390 0.000000 0.000000 
#    y 0.000000 3.655090 0.000000 
#    z 0.000000 0.000000 2.783440 
# 
# 
# High freq. dielectric constant tensor:
#      x y z
#    x 1.624110 0.000000 0.000000 
#    y 0.000000 1.648880 0.000000 
#    z 0.000000 0.000000 1.586060 
# 
# From -- ./inp_files/19992.got.cif
#   From: 2010.03.12/outbox.cif.g09.slc.cpg/sg38_10_cif.got.tgz:19992.got - 2010.04.14 02:38:36.
