data_PCOD8177187
_publ_section_title
;
Structure prediction by ZEFSAII (Michael W. Deem and Ramdas Pophale) SiO2 
 PCOD8177187
Probable space group: A M M 2
;
_chemical_formula_sum "Si O2"
_cell_formula_units_Z 30
_cell_length_a 10.897004
_cell_length_b 15.558838
_cell_length_c 9.648087
_cell_angle_alpha 90.000000
_cell_angle_beta 90.000000
_cell_angle_gamma 90.000000
_cell_volume 1635.782208
_symmetry_space_group_name_H-M "A M M 2"
_symmetry_group_IT_number 38
_symmetry_cell_setting 'orthorhombic'
loop_
_space_group_symop_operation_xyz
x,y,z
-x,-y,z
-x,y,z
x,-y,z
x,1/2+y,1/2+z
-x,1/2-y,1/2+z
-x,1/2+y,1/2+z
x,1/2-y,1/2+z
loop_
_atom_site_type_symbol
_atom_site_label
_atom_site_fract_x
_atom_site_fract_y
_atom_site_fract_z
Si Si1 0.000000 0.903266 0.857030
Si Si2 0.643293 0.318881 0.076201
Si Si3 0.740689 0.329007 0.384555
Si Si4 0.000000 0.000000 0.594356
Si Si5 0.639029 0.000000 0.856127
Si Si6 0.733063 0.000000 0.558351
O O1 0.116026 0.847486 0.904047
O O2 0.000000 0.913990 0.689779
O O3 0.000000 0.000000 0.924876
O O4 0.500000 0.299380 0.088527
O O5 0.704564 0.310483 0.226162
O O6 0.663734 0.413814 0.009444
O O7 0.707118 0.251998 0.975649
O O8 0.665457 0.412916 0.441227
O O9 0.874694 0.000000 0.503902
O O10 0.500000 0.000000 0.798868
O O11 0.735168 0.000000 0.727413
#
# Coordination Sequence:
#
# PCOD8177187 Si02
#       6
#     4   8   8   2   4   4
#     4  10  16  35  58  83 110 138 194 232 267 325
#     4  11  21  36  54  84 113 147 190 228 274 331
#     4  11  21  34  58  82 111 146 182 235 276 323
#     4  10  14  32  58  82 104 134 200 232 258 328
#     4  10  16  30  51  76 100 141 186 220 259 318
#     4  10  18  32  57  74 108 147 185 223 271 317
#
# _framework density 18.339849999999998
#
# number of rings (size 3 to 8) (size 9 to 14) (size 15 to 20)
#    0.400    1.067    6.667    5.200    0.000    2.133 
#    0.000    1.333    0.000    0.000    0.000    0.000 
#    0.000    0.000    0.000    0.000    0.000    0.000 
#
# Total GULP energy -185908.241545 kJ/mol
# GULP energy per Si atom -12393.882770 kJ/mol
# Density = 1.829811 g / cm^3
# Si number density = 18.339850 Si / 1000 Ang^3
#
#
#
# Elastic Constant Matrix: (Units=GPa)
#
#
# Indices 1 2 3 4 5 6 
#
# 1 162.0974 55.9100 31.9370 0.0000 0.0000 0.0000
# 2 55.9100 171.8641 59.6728 0.0000 0.0000 0.0000
# 3 31.9370 59.6728 47.0354 0.0000 0.0000 0.0000
# 4 0.0000 0.0000 0.0000 22.4006 0.0000 0.0000
# 5 0.0000 0.0000 0.0000 0.0000 16.5979 0.0000
# 6 0.0000 0.0000 0.0000 0.0000 0.0000 35.5832
#
#
#
# Elastic Compliance Matrix: (Units=1/GPa)
#
#
# Indices 1 2 3 4 5 6 
#
# 1 0.007249 -0.001160 -0.003450 0.000000 0.000000 0.000000
# 2 -0.001160 0.010585 -0.012641 0.000000 0.000000 0.000000
# 3 -0.003450 -0.012641 0.039641 0.000000 0.000000 0.000000
# 4 0.000000 0.000000 0.000000 0.044642 0.000000 0.000000
# 5 0.000000 0.000000 0.000000 0.000000 0.060249 0.000000
# 6 0.000000 0.000000 0.000000 0.000000 0.000000 0.028103
#
#
# Mechanical properties :
#
#
# Convention : Reuss Voigt Hill
#
# Bulk Modulus (GPa) = 43.53163 75.11518 59.32340
# Shear Modulus (GPa) = 21.49341 30.48148 25.98744
#
# Velocity S-wave (km/s) = 3.42709 4.08123 3.76838
# Velocity P-wave (km/s) = 6.28073 7.95329 7.16598
#
# Compressibility (1/GPa) = 0.02297180
#
# Stress axis : x y z
#
# Youngs Moduli (GPa) = 137.94844 94.47121 25.22648
#
# Poissons Ratio (x) = 0.10962 0.08703
# Poissons Ratio (y) = 0.16007 0.31890
# Poissons Ratio (z) = 0.47592 1.19424
#
# Static dielectric constant tensor:
#      x y z
#    x 3.518550 0.000000 0.000000 
#    y 0.000000 3.725390 0.000000 
#    z 0.000000 0.000000 2.755370 
# 
# 
# High freq. dielectric constant tensor:
#      x y z
#    x 1.736050 0.000000 0.000000 
#    y 0.000000 1.724920 0.000000 
#    z 0.000000 0.000000 1.635410 
# 
# From -- ./inp_files/9000.got.cif
#   From: 2010.03.12/outbox.cif.g09.slc.cpg/sg38_5_cif.got.tgz:9000.got - 2010.04.14 02:38:36.
