data_PCOD8177797
_publ_section_title
;
Structure prediction by ZEFSAII (Michael W. Deem and Ramdas Pophale) SiO2 
 PCOD8177797
Probable space group: A M M 2
;
_chemical_formula_sum "Si O2"
_cell_formula_units_Z 48
_cell_length_a 7.554871
_cell_length_b 31.243889
_cell_length_c 9.829800
_cell_angle_alpha 90.000000
_cell_angle_beta 90.000000
_cell_angle_gamma 90.000000
_cell_volume 2320.260897
_symmetry_space_group_name_H-M "A M M 2"
_symmetry_group_IT_number 38
_symmetry_cell_setting 'orthorhombic'
loop_
_space_group_symop_operation_xyz
x,y,z
-x,-y,z
-x,y,z
x,-y,z
x,1/2+y,1/2+z
-x,1/2-y,1/2+z
-x,1/2+y,1/2+z
x,1/2-y,1/2+z
loop_
_atom_site_type_symbol
_atom_site_label
_atom_site_fract_x
_atom_site_fract_y
_atom_site_fract_z
Si Si1 0.000000 0.785375 0.495090
Si Si2 0.706653 0.091726 0.810207
Si Si3 0.701883 0.413434 0.833537
Si Si4 0.302324 0.500000 0.929855
Si Si5 0.000000 0.798626 0.171087
Si Si6 0.804237 0.000000 0.724273
Si Si7 0.295185 0.637166 0.577496
Si Si8 0.291739 0.350169 0.054234
O O1 0.000000 0.738873 0.560678
O O2 0.823815 0.807337 0.557368
O O3 0.000000 0.783125 0.329220
O O4 0.500000 0.087694 0.830310
O O5 0.779103 0.043152 0.812641
O O6 0.757944 0.117244 0.674864
O O7 0.781646 0.120227 0.934501
O O8 0.500000 0.417386 0.884307
O O9 0.798871 0.457851 0.873497
O O10 0.720006 0.404301 0.674678
O O11 0.777773 0.373459 0.917706
O O12 0.500000 0.500000 0.867844
O O13 0.321798 0.500000 0.093224
O O14 0.177553 0.825118 0.139153
O O15 0.000000 0.000000 0.663922
O O16 0.500000 0.653091 0.568984
O O17 0.500000 0.337798 0.055941
#
# Coordination Sequence:
#
# PCOD8177797 Si02
#       8
#     4   8   8   4   4   4   8   8
#     4  12  28  44  68  97 126 166 201 266 331 385
#     4  10  22  40  65  92 127 177 217 259 314 371
#     4   9  17  34  61  89 120 163 208 254 303 357
#     4  10  18  33  58  86 123 167 219 263 299 359
#     4  12  28  46  68  97 126 160 203 264 329 389
#     4  12  24  33  52  94 135 169 211 271 309 357
#     4  10  23  44  68  93 128 170 210 257 320 382
#     4  10  21  40  66  93 125 168 214 255 309 380
#
# _framework density 20.687331
#
# number of rings (size 3 to 8) (size 9 to 14) (size 15 to 20)
#    0.000    1.667    3.333    0.750    4.667    1.333 
#    1.500    2.500    0.000    0.000    0.000    0.000 
#    0.000    0.000    0.000    0.000    0.000    0.000 
#
# Total GULP energy -297467.476471 kJ/mol
# GULP energy per Si atom -12394.478186 kJ/mol
# Density = 2.064025 g / cm^3
# Si number density = 20.687331 Si / 1000 Ang^3
#
#
#
# Elastic Constant Matrix: (Units=GPa)
#
#
# Indices 1 2 3 4 5 6 
#
# 1 77.3548 43.7825 29.5494 0.0000 0.0000 0.0000
# 2 43.7825 128.2753 45.1048 0.0000 0.0000 0.0000
# 3 29.5494 45.1048 112.4917 0.0000 0.0000 0.0000
# 4 0.0000 0.0000 0.0000 37.3284 0.0000 0.0000
# 5 0.0000 0.0000 0.0000 0.0000 15.8198 0.0000
# 6 0.0000 0.0000 0.0000 0.0000 0.0000 19.7269
#
#
#
# Elastic Compliance Matrix: (Units=1/GPa)
#
#
# Indices 1 2 3 4 5 6 
#
# 1 0.016573 -0.004803 -0.002428 0.000000 0.000000 0.000000
# 2 -0.004803 0.010467 -0.002935 0.000000 0.000000 0.000000
# 3 -0.002428 -0.002935 0.010704 0.000000 0.000000 0.000000
# 4 0.000000 0.000000 0.000000 0.026789 0.000000 0.000000
# 5 0.000000 0.000000 0.000000 0.000000 0.063212 0.000000
# 6 0.000000 0.000000 0.000000 0.000000 0.000000 0.050692
#
#
# Mechanical properties :
#
#
# Convention : Reuss Voigt Hill
#
# Bulk Modulus (GPa) = 57.42938 61.66613 59.54776
# Shear Modulus (GPa) = 24.44102 27.88737 26.16419
#
# Velocity S-wave (km/s) = 3.44095 3.67555 3.56018
# Velocity P-wave (km/s) = 6.60362 6.91999 6.76365
#
# Compressibility (1/GPa) = 0.01741269
#
# Stress axis : x y z
#
# Youngs Moduli (GPa) = 60.33777 95.53620 93.42156
#
# Poissons Ratio (x) = 0.45887 0.22679
# Poissons Ratio (y) = 0.28981 0.27422
# Poissons Ratio (z) = 0.14648 0.28042
#
# Static dielectric constant tensor:
#      x y z
#    x 3.629270 0.000000 0.000000 
#    y 0.000000 3.735580 0.000000 
#    z 0.000000 0.000000 3.805550 
# 
# 
# High freq. dielectric constant tensor:
#      x y z
#    x 1.803110 0.000000 0.000000 
#    y 0.000000 1.802990 0.000000 
#    z 0.000000 0.000000 1.811430 
# 
# From -- ./inp_files/3880.got.cif
#   From: 2010.03.12/outbox.cif.g09.slc.cpg/sg38_2_cif.got.tgz:3880.got - 2010.04.14 02:38:36.
