data_PCOD8177242
_publ_section_title
;
Structure prediction by ZEFSAII (Michael W. Deem and Ramdas Pophale) SiO2 
 PCOD8177242
Probable space group: A M M 2
;
_chemical_formula_sum "Si O2"
_cell_formula_units_Z 64
_cell_length_a 14.476014
_cell_length_b 9.234113
_cell_length_c 30.931694
_cell_angle_alpha 90.000000
_cell_angle_beta 90.000000
_cell_angle_gamma 90.000000
_cell_volume 4134.736943
_symmetry_space_group_name_H-M "A M M 2"
_symmetry_group_IT_number 38
_symmetry_cell_setting 'orthorhombic'
loop_
_space_group_symop_operation_xyz
x,y,z
-x,-y,z
-x,y,z
x,-y,z
x,1/2+y,1/2+z
-x,1/2-y,1/2+z
-x,1/2+y,1/2+z
x,1/2-y,1/2+z
loop_
_atom_site_type_symbol
_atom_site_label
_atom_site_fract_x
_atom_site_fract_y
_atom_site_fract_z
Si Si1 0.898993 0.328250 0.848970
Si Si2 0.390634 0.840323 0.057241
Si Si3 0.394416 0.329521 0.461038
Si Si4 0.289266 0.328085 0.886540
Si Si5 0.396514 0.171873 0.302008
Si Si6 0.391979 0.331267 0.139835
Si Si7 0.899038 0.171686 0.252121
Si Si8 0.708870 0.671807 0.716601
O O1 0.894975 0.500000 0.846067
O O2 0.817027 0.275673 0.880444
O O3 0.883592 0.266263 0.800527
O O4 0.000000 0.277799 0.866559
O O5 0.500000 0.851539 0.056552
O O6 0.357536 0.726344 0.093232
O O7 0.349930 0.000000 0.068060
O O8 0.359449 0.790104 0.009429
O O9 0.500000 0.277994 0.453736
O O10 0.386528 0.500000 0.452886
O O11 0.327441 0.245039 0.429269
O O12 0.297488 0.500000 0.891552
O O13 0.346218 0.271711 0.845045
O O14 0.500000 0.235537 0.301225
O O15 0.343523 0.226393 0.259506
O O16 0.397593 0.000000 0.302277
O O17 0.500000 0.297697 0.147020
O O18 0.370540 0.500000 0.142075
O O19 0.333955 0.250004 0.175807
O O20 0.816089 0.222020 0.220784
O O21 0.000000 0.222898 0.234412
O O22 0.896156 0.000000 0.255166
O O23 0.698591 0.500000 0.710416
#
# Coordination Sequence:
#
# PCOD8177242 Si02
#       8
#     8   8   8   8   8   8   8   8
#     4   8  13  23  40  62  87 112 143 187 228 254
#     4   8  15  30  49  64  80 108 146 182 215 256
#     4   9  18  31  45  63  89 118 145 175 215 261
#     4  10  17  26  42  65  88 115 150 183 216 252
#     4   9  16  24  35  56  86 116 148 181 204 233
#     4  10  20  31  43  63  91 117 142 177 219 259
#     4   8  13  23  41  64  86 108 143 191 227 248
#     4  10  17  27  44  64  85 116 152 180 213 256
#
# _framework density 15.478614
#
# number of rings (size 3 to 8) (size 9 to 14) (size 15 to 20)
#    0.000    3.000    1.250    2.625    0.000    2.500 
#    0.000    1.875    0.000    3.000    0.000    2.625 
#    0.000    1.000    0.000    0.000    0.000    0.000 
#
# Total GULP energy -396565.236934 kJ/mol
# GULP energy per Si atom -12392.663654 kJ/mol
# Density = 1.544338 g / cm^3
# Si number density = 15.478614 Si / 1000 Ang^3
#
#
#
# Elastic Constant Matrix: (Units=GPa)
#
#
# Indices 1 2 3 4 5 6 
#
# 1 120.7521 35.9777 67.9901 0.0000 0.0000 0.0000
# 2 35.9777 37.4160 42.8141 0.0000 0.0000 0.0000
# 3 67.9901 42.8141 124.3949 0.0000 0.0000 0.0000
# 4 0.0000 0.0000 0.0000 22.2493 0.0000 0.0000
# 5 0.0000 0.0000 0.0000 0.0000 11.4178 0.0000
# 6 0.0000 0.0000 0.0000 0.0000 0.0000 11.1648
#
#
#
# Elastic Compliance Matrix: (Units=1/GPa)
#
#
# Indices 1 2 3 4 5 6 
#
# 1 0.013052 -0.007238 -0.004643 0.000000 0.000000 0.000000
# 2 -0.007238 0.048105 -0.012601 0.000000 0.000000 0.000000
# 3 -0.004643 -0.012601 0.014913 0.000000 0.000000 0.000000
# 4 0.000000 0.000000 0.000000 0.044945 0.000000 0.000000
# 5 0.000000 0.000000 0.000000 0.000000 0.087582 0.000000
# 6 0.000000 0.000000 0.000000 0.000000 0.000000 0.089567
#
#
# Mechanical properties :
#
#
# Convention : Reuss Voigt Hill
#
# Bulk Modulus (GPa) = 36.88986 64.01411 50.45198
# Shear Modulus (GPa) = 14.03852 18.01846 16.02849
#
# Velocity S-wave (km/s) = 3.01485 3.41557 3.22145
# Velocity P-wave (km/s) = 6.00030 7.54991 6.81926
#
# Compressibility (1/GPa) = 0.02710772
#
# Stress axis : x y z
#
# Youngs Moduli (GPa) = 76.61669 20.78800 67.05390
#
# Poissons Ratio (x) = 0.15046 0.31131
# Poissons Ratio (y) = 0.55453 0.84493
# Poissons Ratio (z) = 0.35571 0.26194
#
# Static dielectric constant tensor:
#      x y z
#    x 3.184290 0.000000 0.000000 
#    y 0.000000 2.627900 0.000000 
#    z 0.000000 0.000000 3.016580 
# 
# 
# High freq. dielectric constant tensor:
#      x y z
#    x 1.583120 0.000000 0.000000 
#    y 0.000000 1.557060 0.000000 
#    z 0.000000 0.000000 1.584440 
# 
# From -- ./inp_files/25090.got.cif
#   From: 2010.03.12/outbox.cif.g09.slc.cpg/sg38_13_cif.got.tgz:25090.got - 2010.04.14 02:38:36.
