data_PCOD8177044
_publ_section_title
;
Structure prediction by ZEFSAII (Michael W. Deem and Ramdas Pophale) SiO2 
 PCOD8177044
Probable space group: C C C 2
;
_chemical_formula_sum "Si O2"
_cell_formula_units_Z 44
_cell_length_a 23.851388
_cell_length_b 5.004920
_cell_length_c 16.444318
_cell_angle_alpha 90.000000
_cell_angle_beta 90.000000
_cell_angle_gamma 90.000000
_cell_volume 1963.028767
_symmetry_space_group_name_H-M "C C C 2"
_symmetry_group_IT_number 37
_symmetry_cell_setting 'orthorhombic'
loop_
_space_group_symop_operation_xyz
x,y,z
-x,-y,z
-x,y,1/2+z
x,-y,1/2+z
1/2+x,1/2+y,z
1/2-x,1/2-y,z
1/2-x,1/2+y,1/2+z
1/2+x,1/2-y,1/2+z
loop_
_atom_site_type_symbol
_atom_site_label
_atom_site_fract_x
_atom_site_fract_y
_atom_site_fract_z
Si Si1 0.000000 0.000000 0.320110
Si Si2 0.000000 0.500000 0.211061
Si Si3 0.627598 0.974256 0.171798
Si Si4 0.750000 0.250000 0.462196
Si Si5 0.342228 0.518584 0.074368
Si Si6 0.104306 0.976458 0.417279
Si Si7 0.340977 0.977053 0.856717
O O1 0.048595 0.094997 0.379367
O O2 0.984320 0.245579 0.264070
O O3 0.940886 0.533719 0.162572
O O4 0.658057 0.183217 0.111087
O O5 0.653443 0.026577 0.260466
O O6 0.649406 0.682342 0.148450
O O7 0.712073 0.439949 0.520190
O O8 0.716386 0.063118 0.399703
O O9 0.396070 0.505400 0.014623
O O10 0.152530 0.164844 0.378200
O O11 0.111053 0.664982 0.395781
#
# Coordination Sequence:
#
# PCOD8177044 Si02
#       7
#     4   4   8   4   8   8   8
#     4  12  20  40  70  98 132 184 230 272 340 412
#     4  12  24  40  72 100 142 176 220 290 346 414
#     4  12  24  44  68 105 137 178 225 286 353 414
#     4  10  26  48  70  96 140 194 238 292 348 392
#     4  11  26  43  67  99 145 173 228 292 349 402
#     4  11  22  41  66  99 132 181 226 280 334 419
#     4  11  23  43  69  97 129 181 239 278 333 416
#
# _framework density 22.414342999999999
#
# number of rings (size 3 to 8) (size 9 to 14) (size 15 to 20)
#    0.000    0.727    3.636    4.364    0.000    9.455 
#    0.000    0.000    0.000    0.000    0.000    0.000 
#    0.000    0.000    0.000    0.000    0.000    0.000 
#
# Total GULP energy -272602.215737 kJ/mol
# GULP energy per Si atom -12391.009806 kJ/mol
# Density = 2.236333 g / cm^3
# Si number density = 22.414343 Si / 1000 Ang^3
#
#
#
# Elastic Constant Matrix: (Units=GPa)
#
#
# Indices 1 2 3 4 5 6 
#
# 1 118.8970 8.4576 26.3461 0.0000 0.0000 0.0000
# 2 8.4576 90.3909 15.2418 0.0000 0.0000 0.0000
# 3 26.3461 15.2418 111.2862 0.0000 0.0000 0.0000
# 4 0.0000 0.0000 0.0000 48.1818 0.0000 0.0000
# 5 0.0000 0.0000 0.0000 0.0000 51.0310 0.0000
# 6 0.0000 0.0000 0.0000 0.0000 0.0000 23.5434
#
#
#
# Elastic Compliance Matrix: (Units=1/GPa)
#
#
# Indices 1 2 3 4 5 6 
#
# 1 0.008897 -0.000489 -0.002039 0.000000 0.000000 0.000000
# 2 -0.000489 0.011351 -0.001439 0.000000 0.000000 0.000000
# 3 -0.002039 -0.001439 0.009666 0.000000 0.000000 0.000000
# 4 0.000000 0.000000 0.000000 0.020755 0.000000 0.000000
# 5 0.000000 0.000000 0.000000 0.000000 0.019596 0.000000
# 6 0.000000 0.000000 0.000000 0.000000 0.000000 0.042475
#
#
# Mechanical properties :
#
#
# Convention : Reuss Voigt Hill
#
# Bulk Modulus (GPa) = 45.49518 46.74056 46.11787
# Shear Modulus (GPa) = 39.06225 42.58648 40.82437
#
# Velocity S-wave (km/s) = 4.17914 4.36359 4.27236
# Velocity P-wave (km/s) = 6.60517 6.80339 6.70501
#
# Compressibility (1/GPa) = 0.02198035
#
# Stress axis : x y z
#
# Youngs Moduli (GPa) = 112.39344 88.09463 103.45803
#
# Poissons Ratio (x) = 0.04304 0.21100
# Poissons Ratio (y) = 0.05492 0.14888
# Poissons Ratio (z) = 0.22922 0.12677
#
# Static dielectric constant tensor:
#      x y z
#    x 4.012060 0.000000 0.000000 
#    y 0.000000 3.555370 0.000000 
#    z 0.000000 0.000000 4.114070 
# 
# 
# High freq. dielectric constant tensor:
#      x y z
#    x 1.873450 0.000000 0.000000 
#    y 0.000000 1.901730 0.000000 
#    z 0.000000 0.000000 1.888710 
# 
# From -- ./inp_files/9719.got.cif
#   From: 2010.03.12/outbox.cif.g09.slc.cpg/sg37_5_cif.got.tgz:9719.got - 2010.04.14 02:25:27.
