data_PCOD8177592
_publ_section_title
;
Structure prediction by ZEFSAII (Michael W. Deem and Ramdas Pophale) SiO2 
 PCOD8177592
Probable space group: A M M 2
;
_chemical_formula_sum "Si O2"
_cell_formula_units_Z 40
_cell_length_a 12.529502
_cell_length_b 8.952032
_cell_length_c 19.577745
_cell_angle_alpha 90.000000
_cell_angle_beta 90.000000
_cell_angle_gamma 90.000000
_cell_volume 2195.928035
_symmetry_space_group_name_H-M "A M M 2"
_symmetry_group_IT_number 38
_symmetry_cell_setting 'orthorhombic'
loop_
_space_group_symop_operation_xyz
x,y,z
-x,-y,z
-x,y,z
x,-y,z
x,1/2+y,1/2+z
-x,1/2-y,1/2+z
-x,1/2+y,1/2+z
x,1/2-y,1/2+z
loop_
_atom_site_type_symbol
_atom_site_label
_atom_site_fract_x
_atom_site_fract_y
_atom_site_fract_z
Si Si1 0.000000 0.824940 0.516760
Si Si2 0.000000 0.330754 0.377567
Si Si3 0.377552 0.326905 0.758468
Si Si4 0.785413 0.826250 0.021614
Si Si5 0.230897 0.168234 0.861248
Si Si6 0.375462 0.326549 0.119718
O O1 0.000000 0.792808 0.436245
O O2 0.893281 0.752701 0.549039
O O3 0.000000 0.000000 0.531514
O O4 0.108490 0.311929 0.333570
O O5 0.000000 0.500000 0.410449
O O6 0.500000 0.289532 0.776107
O O7 0.361557 0.500000 0.741983
O O8 0.307495 0.283558 0.823756
O O9 0.337892 0.234156 0.693172
O O10 0.684160 0.758800 0.059696
O O11 0.794401 0.000000 0.038179
O O12 0.768139 0.796072 0.941521
O O13 0.271443 0.000000 0.847152
O O14 0.500000 0.294512 0.109088
O O15 0.347456 0.500000 0.116037
#
# Coordination Sequence:
#
# PCOD8177592 Si02
#       6
#     4   4   8   8   8   8
#     4  10  18  30  51  78 107 138 173 213 259 307
#     4   8  16  32  51  74 105 138 169 207 259 311
#     4  10  21  36  53  74 103 138 174 214 261 312
#     4  10  20  35  55  79 108 140 175 214 258 311
#     4   9  18  33  54  78 104 135 171 211 254 304
#     4  10  21  37  56  77 103 136 175 219 266 315
#
# _framework density 18.215534000000002
#
# number of rings (size 3 to 8) (size 9 to 14) (size 15 to 20)
#    0.000    2.400    0.000    3.900    0.000    7.200 
#    0.000    5.000    0.000    1.200    0.000    0.000 
#    0.000    0.000    0.000    0.000    0.000    0.000 
#
# Total GULP energy -247990.876921 kJ/mol
# GULP energy per Si atom -12399.543846 kJ/mol
# Density = 1.817407 g / cm^3
# Si number density = 18.215534 Si / 1000 Ang^3
#
#
#
# Elastic Constant Matrix: (Units=GPa)
#
#
# Indices 1 2 3 4 5 6 
#
# 1 99.3175 58.8987 52.5889 0.0000 0.0000 0.0000
# 2 58.8987 117.5787 45.6642 0.0000 0.0000 0.0000
# 3 52.5889 45.6642 64.5909 0.0000 0.0000 0.0000
# 4 0.0000 0.0000 0.0000 32.4068 0.0000 0.0000
# 5 0.0000 0.0000 0.0000 0.0000 8.0761 0.0000
# 6 0.0000 0.0000 0.0000 0.0000 0.0000 35.5689
#
#
#
# Elastic Compliance Matrix: (Units=1/GPa)
#
#
# Indices 1 2 3 4 5 6 
#
# 1 0.019619 -0.004996 -0.012442 0.000000 0.000000 0.000000
# 2 -0.004996 0.012996 -0.005120 0.000000 0.000000 0.000000
# 3 -0.012442 -0.005120 0.029232 0.000000 0.000000 0.000000
# 4 0.000000 0.000000 0.000000 0.030858 0.000000 0.000000
# 5 0.000000 0.000000 0.000000 0.000000 0.123822 0.000000
# 6 0.000000 0.000000 0.000000 0.000000 0.000000 0.028114
#
#
# Mechanical properties :
#
#
# Convention : Reuss Voigt Hill
#
# Bulk Modulus (GPa) = 59.76817 66.19897 62.98357
# Shear Modulus (GPa) = 16.92993 23.49939 20.21466
#
# Velocity S-wave (km/s) = 3.05195 3.59566 3.33490
# Velocity P-wave (km/s) = 6.73068 7.32525 7.03425
#
# Compressibility (1/GPa) = 0.01673131
#
# Stress axis : x y z
#
# Youngs Moduli (GPa) = 50.96972 76.94587 34.20910
#
# Poissons Ratio (x) = 0.38442 0.42563
# Poissons Ratio (y) = 0.25464 0.17516
# Poissons Ratio (z) = 0.63416 0.39399
#
# Static dielectric constant tensor:
#      x y z
#    x 3.560690 0.000000 0.000000 
#    y 0.000000 3.372880 0.000000 
#    z 0.000000 0.000000 3.037810 
# 
# 
# High freq. dielectric constant tensor:
#      x y z
#    x 1.716630 0.000000 0.000000 
#    y 0.000000 1.716490 0.000000 
#    z 0.000000 0.000000 1.673700 
# 
# From -- ./inp_files/17472.got.cif
#   From: 2010.03.12/outbox.cif.g09.slc.cpg/sg38_9_cif.got.tgz:17472.got - 2010.04.14 02:38:36.
