data_PCOD8177192
_publ_section_title
;
Structure prediction by ZEFSAII (Michael W. Deem and Ramdas Pophale) SiO2 
 PCOD8177192
Probable space group: A M M 2
;
_chemical_formula_sum "Si O2"
_cell_formula_units_Z 64
_cell_length_a 28.576569
_cell_length_b 26.887918
_cell_length_c 5.323982
_cell_angle_alpha 90.000000
_cell_angle_beta 90.000000
_cell_angle_gamma 90.000000
_cell_volume 4090.758469
_symmetry_space_group_name_H-M "A M M 2"
_symmetry_group_IT_number 38
_symmetry_cell_setting 'orthorhombic'
loop_
_space_group_symop_operation_xyz
x,y,z
-x,-y,z
-x,y,z
x,-y,z
x,1/2+y,1/2+z
-x,1/2-y,1/2+z
-x,1/2+y,1/2+z
x,1/2-y,1/2+z
loop_
_atom_site_type_symbol
_atom_site_label
_atom_site_fract_x
_atom_site_fract_y
_atom_site_fract_z
Si Si1 0.688229 0.300441 0.975710
Si Si2 0.793766 0.311587 0.976329
Si Si3 0.650139 0.190336 0.975743
Si Si4 0.881186 0.735415 0.476310
Si Si5 0.106412 0.058811 0.976254
Si Si6 0.448927 0.782050 0.993579
Si Si7 0.052260 0.558838 0.976254
Si Si8 0.825143 0.357643 0.476320
O O1 0.742981 0.286247 0.976299
O O2 0.658781 0.249757 0.977441
O O3 0.674150 0.332220 0.727224
O O4 0.673962 0.332238 0.224016
O O5 0.832267 0.267580 0.976355
O O6 0.796525 0.346533 0.730037
O O7 0.796502 0.346518 0.222688
O O8 0.594291 0.179234 0.975451
O O9 0.910168 0.749994 0.726320
O O10 0.871304 0.677190 0.476276
O O11 0.078641 0.076545 0.727804
O O12 0.156868 0.085615 0.976264
O O13 0.115380 0.000000 0.976255
O O14 0.078638 0.076544 0.224694
O O15 0.500000 0.808998 0.979406
O O16 0.444527 0.755361 0.261190
O O17 0.048859 0.500000 0.976257
O O18 0.000000 0.581732 0.976263
#
# Coordination Sequence:
#
# PCOD8177192 Si02
#       8
#     8   8   8   8   8   8   8   8
#     4  10  18  23  36  48  72  91 124 162 208 248
#     4  10  19  28  40  57  79 108 134 172 209 240
#     4  10  17  24  33  51  65  91 130 160 207 259
#     4   8  16  25  37  52  75  98 132 157 195 226
#     4  10  19  31  47  67  92 115 132 161 192 225
#     4  10  16  25  33  43  63  89 121 168 211 242
#     4   9  17  30  49  70  90 110 130 154 196 242
#     4  10  19  29  41  59  84 108 140 157 193 244
#
# _framework density 15.645021
#
# number of rings (size 3 to 8) (size 9 to 14) (size 15 to 20)
#    0.000    2.375    2.500    1.875   10.500    1.500 
#    0.000    0.000    0.000    0.000    0.000    0.000 
#    0.000   90.000    0.000    0.000    0.000    0.000 
#
# Total GULP energy -396420.434874 kJ/mol
# GULP energy per Si atom -12388.138590 kJ/mol
# Density = 1.560941 g / cm^3
# Si number density = 15.645021 Si / 1000 Ang^3
#
#
#
# Elastic Constant Matrix: (Units=GPa)
#
#
# Indices 1 2 3 4 5 6 
#
# 1 58.8908 17.2643 20.0530 0.0000 0.0000 0.0000
# 2 17.2643 27.2339 13.5695 0.0000 0.0000 0.0000
# 3 20.0530 13.5695 156.4625 0.0000 0.0000 0.0000
# 4 0.0000 0.0000 0.0000 9.3058 0.0000 0.0000
# 5 0.0000 0.0000 0.0000 0.0000 22.4997 0.0000
# 6 0.0000 0.0000 0.0000 0.0000 0.0000 4.7667
#
#
#
# Elastic Compliance Matrix: (Units=1/GPa)
#
#
# Indices 1 2 3 4 5 6 
#
# 1 0.021245 -0.012658 -0.001625 0.000000 0.000000 0.000000
# 2 -0.012658 0.045919 -0.002360 0.000000 0.000000 0.000000
# 3 -0.001625 -0.002360 0.006804 0.000000 0.000000 0.000000
# 4 0.000000 0.000000 0.000000 0.107460 0.000000 0.000000
# 5 0.000000 0.000000 0.000000 0.000000 0.044445 0.000000
# 6 0.000000 0.000000 0.000000 0.000000 0.000000 0.209788
#
#
# Mechanical properties :
#
#
# Convention : Reuss Voigt Hill
#
# Bulk Modulus (GPa) = 24.58097 38.26231 31.42164
# Shear Modulus (GPa) = 10.36254 20.09448 15.22851
#
# Velocity S-wave (km/s) = 2.57642 3.58774 3.12328
# Velocity P-wave (km/s) = 4.95947 6.45540 5.75624
#
# Compressibility (1/GPa) = 0.04068188
#
# Stress axis : x y z
#
# Youngs Moduli (GPa) = 47.07056 21.77746 146.96667
#
# Poissons Ratio (x) = 0.27566 0.23883
# Poissons Ratio (y) = 0.59581 0.34686
# Poissons Ratio (z) = 0.07649 0.05140
#
# Static dielectric constant tensor:
#      x y z
#    x 2.885930 0.000000 0.000000 
#    y 0.000000 2.370790 0.000000 
#    z 0.000000 0.000000 4.297210 
# 
# 
# High freq. dielectric constant tensor:
#      x y z
#    x 1.580050 0.000000 0.000000 
#    y 0.000000 1.512040 0.000000 
#    z 0.000000 0.000000 1.647470 
# 
# From -- ./inp_files/2260.got.cif
#   From: 2010.03.12/outbox.cif.g09.slc.cpg/sg38_2_cif.got.tgz:2260.got - 2010.04.14 02:38:36.
