data_PCOD8177655
_publ_section_title
;
Structure prediction by ZEFSAII (Michael W. Deem and Ramdas Pophale) SiO2 
 PCOD8177655
Probable space group: A M M 2
;
_chemical_formula_sum "Si O2"
_cell_formula_units_Z 64
_cell_length_a 8.938171
_cell_length_b 23.098159
_cell_length_c 19.118638
_cell_angle_alpha 90.000000
_cell_angle_beta 90.000000
_cell_angle_gamma 90.000000
_cell_volume 3947.144047
_symmetry_space_group_name_H-M "A M M 2"
_symmetry_group_IT_number 38
_symmetry_cell_setting 'orthorhombic'
loop_
_space_group_symop_operation_xyz
x,y,z
-x,-y,z
-x,y,z
x,-y,z
x,1/2+y,1/2+z
-x,1/2-y,1/2+z
-x,1/2+y,1/2+z
x,1/2-y,1/2+z
loop_
_atom_site_type_symbol
_atom_site_label
_atom_site_fract_x
_atom_site_fract_y
_atom_site_fract_z
Si Si1 0.676933 0.882025 0.135150
Si Si2 0.173763 0.067462 0.271751
Si Si3 0.828406 0.735962 0.282171
Si Si4 0.323402 0.838807 0.359703
Si Si5 0.676671 0.435341 0.489821
Si Si6 0.828143 0.260516 0.629272
Si Si7 0.827620 0.222046 0.481247
Si Si8 0.828787 0.659374 0.405476
O O1 0.500000 0.887619 0.144256
O O2 0.754077 0.914967 0.198510
O O3 0.720317 0.815105 0.133141
O O4 0.735285 0.911497 0.063934
O O5 0.250895 0.100851 0.336020
O O6 0.000000 0.084037 0.269128
O O7 0.199514 0.000000 0.285353
O O8 0.725718 0.789357 0.305193
O O9 0.806241 0.723142 0.200028
O O10 0.787709 0.678258 0.325955
O O11 0.000000 0.753460 0.299557
O O12 0.500000 0.844942 0.357953
O O13 0.271630 0.823813 0.438588
O O14 0.500000 0.435122 0.489355
O O15 0.739719 0.500000 0.478799
O O16 0.730750 0.395597 0.426058
O O17 0.786240 0.219525 0.563576
O O18 0.000000 0.281915 0.621649
O O19 0.791499 0.286978 0.456084
O O20 0.000000 0.206458 0.467408
O O21 0.000000 0.640585 0.412480
#
# Coordination Sequence:
#
# PCOD8177655 Si02
#       8
#     8   8   8   8   8   8   8   8
#     4  11  21  32  47  70 101 132 165 206 243 285
#     4  11  23  37  52  69  94 132 173 208 243 290
#     4   9  18  32  50  71  98 127 159 201 246 291
#     4  11  21  32  49  73  98 128 162 202 249 292
#     4  10  21  34  46  64  95 133 167 201 243 285
#     4  10  18  31  52  73  98 133 165 196 240 293
#     4   9  18  32  50  71  97 128 162 199 241 292
#     4   9  17  30  47  70  94 122 162 203 239 279
#
# _framework density 16.214254
#
# number of rings (size 3 to 8) (size 9 to 14) (size 15 to 20)
#    0.000    2.000    2.500    3.000    0.000    4.750 
#    0.000    0.000    0.000    0.000    0.000    0.875 
#    0.000    3.000    0.000    0.000    0.000    0.000 
#
# Total GULP energy -396808.777717 kJ/mol
# GULP energy per Si atom -12400.274304 kJ/mol
# Density = 1.617735 g / cm^3
# Si number density = 16.214254 Si / 1000 Ang^3
#
#
#
# Elastic Constant Matrix: (Units=GPa)
#
#
# Indices 1 2 3 4 5 6 
#
# 1 74.8850 41.1474 41.9834 0.0000 0.0000 0.0000
# 2 41.1474 86.4764 59.7242 0.0000 0.0000 0.0000
# 3 41.9834 59.7242 136.0874 0.0000 0.0000 0.0000
# 4 0.0000 0.0000 0.0000 21.7749 0.0000 0.0000
# 5 0.0000 0.0000 0.0000 0.0000 22.2318 0.0000
# 6 0.0000 0.0000 0.0000 0.0000 0.0000 20.8754
#
#
#
# Elastic Compliance Matrix: (Units=1/GPa)
#
#
# Indices 1 2 3 4 5 6 
#
# 1 0.018739 -0.007065 -0.002680 0.000000 0.000000 0.000000
# 2 -0.007065 0.019257 -0.006272 0.000000 0.000000 0.000000
# 3 -0.002680 -0.006272 0.010928 0.000000 0.000000 0.000000
# 4 0.000000 0.000000 0.000000 0.045924 0.000000 0.000000
# 5 0.000000 0.000000 0.000000 0.000000 0.044981 0.000000
# 6 0.000000 0.000000 0.000000 0.000000 0.000000 0.047903
#
#
# Mechanical properties :
#
#
# Convention : Reuss Voigt Hill
#
# Bulk Modulus (GPa) = 59.21000 64.79543 62.00272
# Shear Modulus (GPa) = 22.18326 23.28268 22.73297
#
# Velocity S-wave (km/s) = 3.70284 3.79349 3.74844
# Velocity P-wave (km/s) = 7.40796 7.69650 7.55361
#
# Compressibility (1/GPa) = 0.01688904
#
# Stress axis : x y z
#
# Youngs Moduli (GPa) = 53.36585 51.92895 91.51208
#
# Poissons Ratio (x) = 0.36688 0.24528
# Poissons Ratio (y) = 0.37704 0.57393
# Poissons Ratio (z) = 0.14303 0.32568
#
# Static dielectric constant tensor:
#      x y z
#    x 3.050390 0.000000 0.000000 
#    y 0.000000 2.909770 0.000000 
#    z 0.000000 0.000000 3.293140 
# 
# 
# High freq. dielectric constant tensor:
#      x y z
#    x 1.625980 0.000000 0.000000 
#    y 0.000000 1.591660 0.000000 
#    z 0.000000 0.000000 1.625550 
# 
# From -- ./inp_files/20214.got.cif
#   From: 2010.03.12/outbox.cif.g09.slc.cpg/sg38_11_cif.got.tgz:20214.got - 2010.04.14 02:38:36.
