data_PCOD8177427
_publ_section_title
;
Structure prediction by ZEFSAII (Michael W. Deem and Ramdas Pophale) SiO2 
 PCOD8177427
Probable space group: A M M 2
;
_chemical_formula_sum "Si O2"
_cell_formula_units_Z 64
_cell_length_a 20.844784
_cell_length_b 9.020648
_cell_length_c 18.928334
_cell_angle_alpha 90.000000
_cell_angle_beta 90.000000
_cell_angle_gamma 90.000000
_cell_volume 3559.160117
_symmetry_space_group_name_H-M "A M M 2"
_symmetry_group_IT_number 38
_symmetry_cell_setting 'orthorhombic'
loop_
_space_group_symop_operation_xyz
x,y,z
-x,-y,z
-x,y,z
x,-y,z
x,1/2+y,1/2+z
-x,1/2-y,1/2+z
-x,1/2+y,1/2+z
x,1/2-y,1/2+z
loop_
_atom_site_type_symbol
_atom_site_label
_atom_site_fract_x
_atom_site_fract_y
_atom_site_fract_z
Si Si1 0.204290 0.177849 0.095690
Si Si2 0.932439 0.665755 0.584137
Si Si3 0.679488 0.175748 0.998965
Si Si4 0.070254 0.334033 0.752001
Si Si5 0.429041 0.676627 0.245355
Si Si6 0.803764 0.674824 0.245427
Si Si7 0.425679 0.830210 0.586460
Si Si8 0.685531 0.824229 0.840401
O O1 0.136100 0.236296 0.061286
O O2 0.215234 0.247505 0.172326
O O3 0.202401 0.000000 0.103732
O O4 0.260349 0.233930 0.044542
O O5 0.935988 0.500000 0.553697
O O6 0.930153 0.662067 0.668129
O O7 0.000000 0.747304 0.560340
O O8 0.685931 0.239548 0.919743
O O9 0.678520 0.000000 0.998285
O O10 0.613526 0.231669 0.031834
O O11 0.083098 0.500000 0.780934
O O12 0.127370 0.225884 0.776891
O O13 0.000000 0.277951 0.779158
O O14 0.500000 0.734110 0.267768
O O15 0.429047 0.500000 0.245699
O O16 0.412866 0.729307 0.165796
O O17 0.375962 0.742264 0.298630
O O18 0.804932 0.500000 0.233034
O O19 0.750797 0.724251 0.302216
O O20 0.500000 0.813501 0.566755
O O21 0.403329 0.000000 0.579667
O O22 0.679725 0.000000 0.841614
#
# Coordination Sequence:
#
# PCOD8177427 Si02
#       8
#     8   8   8   8   8   8   8   8
#     4   9  17  29  45  66  92 120 154 197 239 277
#     4   7  10  19  37  59  81 107 141 180 220 262
#     4  10  20  32  47  68  95 126 158 194 231 270
#     4   8  14  26  44  66  93 122 152 190 236 284
#     4   8  14  27  48  69  88 116 154 190 224 271
#     4  10  18  28  46  69  94 124 157 196 235 274
#     4   9  18  33  52  72  93 117 148 189 236 284
#     4   9  18  30  43  65  96 125 154 190 231 270
#
# _framework density 17.981769
#
# number of rings (size 3 to 8) (size 9 to 14) (size 15 to 20)
#    0.000    3.250    0.000    3.375    0.000    2.500 
#    0.000    2.500    0.000    1.500    0.000    3.500 
#    0.000    0.000    0.000    0.000    0.000    0.000 
#
# Total GULP energy -396438.349019 kJ/mol
# GULP energy per Si atom -12388.698407 kJ/mol
# Density = 1.794084 g / cm^3
# Si number density = 17.981769 Si / 1000 Ang^3
#
#
#
# Elastic Constant Matrix: (Units=GPa)
#
#
# Indices 1 2 3 4 5 6 
#
# 1 157.1826 27.1993 75.8555 0.0000 0.0000 0.0000
# 2 27.1993 24.4199 20.1911 0.0000 0.0000 0.0000
# 3 75.8555 20.1911 100.0914 0.0000 0.0000 0.0000
# 4 0.0000 0.0000 0.0000 13.8936 0.0000 0.0000
# 5 0.0000 0.0000 0.0000 0.0000 6.8791 0.0000
# 6 0.0000 0.0000 0.0000 0.0000 0.0000 25.2861
#
#
#
# Elastic Compliance Matrix: (Units=1/GPa)
#
#
# Indices 1 2 3 4 5 6 
#
# 1 0.010783 -0.006305 -0.006900 0.000000 0.000000 0.000000
# 2 -0.006305 0.052834 -0.005880 0.000000 0.000000 0.000000
# 3 -0.006900 -0.005880 0.016406 0.000000 0.000000 0.000000
# 4 0.000000 0.000000 0.000000 0.071976 0.000000 0.000000
# 5 0.000000 0.000000 0.000000 0.000000 0.145368 0.000000
# 6 0.000000 0.000000 0.000000 0.000000 0.000000 0.039547
#
#
# Mechanical properties :
#
#
# Convention : Reuss Voigt Hill
#
# Bulk Modulus (GPa) = 23.89265 58.68730 41.28997
# Shear Modulus (GPa) = 12.85227 19.77496 16.31361
#
# Velocity S-wave (km/s) = 2.67636 3.31980 3.01529
# Velocity P-wave (km/s) = 4.78190 6.88497 5.92745
#
# Compressibility (1/GPa) = 0.04185388
#
# Stress axis : x y z
#
# Youngs Moduli (GPa) = 92.73802 18.92705 60.95203
#
# Poissons Ratio (x) = 0.11934 0.42058
# Poissons Ratio (y) = 0.58472 0.35838
# Poissons Ratio (z) = 0.63991 0.11129
#
# Static dielectric constant tensor:
#      x y z
#    x 3.998560 0.000000 0.000000 
#    y 0.000000 2.912240 0.000000 
#    z 0.000000 0.000000 3.144090 
# 
# 
# High freq. dielectric constant tensor:
#      x y z
#    x 1.724180 0.000000 0.000000 
#    y 0.000000 1.649470 0.000000 
#    z 0.000000 0.000000 1.659980 
# 
# From -- ./inp_files/21547.got.cif
#   From: 2010.03.12/outbox.cif.g09.slc.cpg/sg38_11_cif.got.tgz:21547.got - 2010.04.14 02:38:36.
