data_PCOD8177493
_publ_section_title
;
Structure prediction by ZEFSAII (Michael W. Deem and Ramdas Pophale) SiO2 
 PCOD8177493
Probable space group: A M M 2
;
_chemical_formula_sum "Si O2"
_cell_formula_units_Z 64
_cell_length_a 9.004286
_cell_length_b 14.262937
_cell_length_c 28.559064
_cell_angle_alpha 90.000000
_cell_angle_beta 90.000000
_cell_angle_gamma 90.000000
_cell_volume 3667.771018
_symmetry_space_group_name_H-M "A M M 2"
_symmetry_group_IT_number 38
_symmetry_cell_setting 'orthorhombic'
loop_
_space_group_symop_operation_xyz
x,y,z
-x,-y,z
-x,y,z
x,-y,z
x,1/2+y,1/2+z
-x,1/2-y,1/2+z
-x,1/2+y,1/2+z
x,1/2-y,1/2+z
loop_
_atom_site_type_symbol
_atom_site_label
_atom_site_fract_x
_atom_site_fract_y
_atom_site_fract_z
Si Si1 0.171656 0.604204 0.031930
Si Si2 0.174493 0.608333 0.397441
Si Si3 0.826849 0.789001 0.078362
Si Si4 0.824004 0.103509 0.167741
Si Si5 0.173637 0.108927 0.272631
Si Si6 0.323960 0.728500 0.851027
Si Si7 0.670233 0.890121 0.993396
Si Si8 0.325268 0.893952 0.438199
O O1 0.228571 0.500000 0.046516
O O2 0.200158 0.676868 0.074359
O O3 0.000000 0.600503 0.018505
O O4 0.255946 0.643606 0.986409
O O5 0.212201 0.500000 0.387101
O O6 0.248819 0.669273 0.355993
O O7 0.242597 0.640939 0.446929
O O8 0.000000 0.626503 0.398818
O O9 0.766676 0.822291 0.129069
O O10 0.737451 0.841099 0.038383
O O11 0.000000 0.814315 0.072358
O O12 0.773103 0.132676 0.219763
O O13 0.000000 0.099106 0.167851
O O14 0.761330 0.000000 0.155156
O O15 0.269816 0.177111 0.304559
O O16 0.000000 0.130259 0.279784
O O17 0.207240 0.000000 0.284169
O O18 0.500000 0.739570 0.849011
O O19 0.268609 0.667667 0.895151
O O20 0.500000 0.859069 0.986763
O O21 0.685871 0.000000 0.001690
O O22 0.500000 0.887757 0.443393
O O23 0.271578 0.000000 0.429001
#
# Coordination Sequence:
#
# PCOD8177493 Si02
#       8
#     8   8   8   8   8   8   8   8
#     4   9  18  30  43  64  94 124 156 195 235 273
#     4  10  21  36  52  70  95 129 168 205 238 281
#     4  10  18  29  49  71  92 126 168 205 242 287
#     4   8  15  29  49  72  95 120 156 202 247 289
#     4   9  18  33  52  73  98 128 161 199 244 295
#     4  11  21  32  50  74  99 127 159 199 247 297
#     4  10  20  32  46  69 102 132 157 193 243 294
#     4   9  18  31  45  64  93 127 159 189 226 277
#
# _framework density 17.449290000000001
#
# number of rings (size 3 to 8) (size 9 to 14) (size 15 to 20)
#    0.000    2.500    0.000    3.375    0.000    6.250 
#    0.000    1.875    0.000    1.500    0.000    3.500 
#    0.000    0.000    0.000    0.000    0.000    0.000 
#
# Total GULP energy -396760.736970 kJ/mol
# GULP energy per Si atom -12398.773030 kJ/mol
# Density = 1.740957 g / cm^3
# Si number density = 17.449290 Si / 1000 Ang^3
#
#
#
# Elastic Constant Matrix: (Units=GPa)
#
#
# Indices 1 2 3 4 5 6 
#
# 1 57.3997 40.3349 38.6676 0.0000 0.0000 0.0000
# 2 40.3349 90.3345 79.8203 0.0000 0.0000 0.0000
# 3 38.6676 79.8203 120.5310 0.0000 0.0000 0.0000
# 4 0.0000 0.0000 0.0000 30.6131 0.0000 0.0000
# 5 0.0000 0.0000 0.0000 0.0000 3.9295 0.0000
# 6 0.0000 0.0000 0.0000 0.0000 0.0000 22.9297
#
#
#
# Elastic Compliance Matrix: (Units=1/GPa)
#
#
# Indices 1 2 3 4 5 6 
#
# 1 0.025506 -0.010024 -0.001544 0.000000 0.000000 0.000000
# 2 -0.010024 0.030624 -0.017065 0.000000 0.000000 0.000000
# 3 -0.001544 -0.017065 0.020093 0.000000 0.000000 0.000000
# 4 0.000000 0.000000 0.000000 0.032666 0.000000 0.000000
# 5 0.000000 0.000000 0.000000 0.000000 0.254483 0.000000
# 6 0.000000 0.000000 0.000000 0.000000 0.000000 0.043612
#
#
# Mechanical properties :
#
#
# Convention : Reuss Voigt Hill
#
# Bulk Modulus (GPa) = 52.75077 65.10119 58.92598
# Shear Modulus (GPa) = 10.62542 18.79061 14.70802
#
# Velocity S-wave (km/s) = 2.47033 3.28513 2.90642
# Velocity P-wave (km/s) = 6.19945 7.19578 6.71612
#
# Compressibility (1/GPa) = 0.01895707
#
# Stress axis : x y z
#
# Youngs Moduli (GPa) = 39.20664 32.65369 49.76844
#
# Poissons Ratio (x) = 0.32732 0.07686
# Poissons Ratio (y) = 0.39301 0.84929
# Poissons Ratio (z) = 0.06055 0.55723
#
# Static dielectric constant tensor:
#      x y z
#    x 3.109880 0.000000 0.000000 
#    y 0.000000 3.493540 0.000000 
#    z 0.000000 0.000000 3.269850 
# 
# 
# High freq. dielectric constant tensor:
#      x y z
#    x 1.664170 0.000000 0.000000 
#    y 0.000000 1.678120 0.000000 
#    z 0.000000 0.000000 1.655880 
# 
# From -- ./inp_files/24724.got.cif
#   From: 2010.03.12/outbox.cif.g09.slc.cpg/sg38_13_cif.got.tgz:24724.got - 2010.04.14 02:38:36.
