data_PCOD8177292
_publ_section_title
;
Structure prediction by ZEFSAII (Michael W. Deem and Ramdas Pophale) SiO2 
 PCOD8177292
Probable space group: A M M 2
;
_chemical_formula_sum "Si O2"
_cell_formula_units_Z 64
_cell_length_a 18.645642
_cell_length_b 8.898303
_cell_length_c 25.736628
_cell_angle_alpha 90.000000
_cell_angle_beta 90.000000
_cell_angle_gamma 90.000000
_cell_volume 4270.081623
_symmetry_space_group_name_H-M "A M M 2"
_symmetry_group_IT_number 38
_symmetry_cell_setting 'orthorhombic'
loop_
_space_group_symop_operation_xyz
x,y,z
-x,-y,z
-x,y,z
x,-y,z
x,1/2+y,1/2+z
-x,1/2-y,1/2+z
-x,1/2+y,1/2+z
x,1/2-y,1/2+z
loop_
_atom_site_type_symbol
_atom_site_label
_atom_site_fract_x
_atom_site_fract_y
_atom_site_fract_z
Si Si1 0.843330 0.673740 0.423520
Si Si2 0.420593 0.672367 0.308387
Si Si3 0.917759 0.674299 0.017576
Si Si4 0.919801 0.822218 0.816871
Si Si5 0.295353 0.824567 0.260821
Si Si6 0.833449 0.322288 0.216877
Si Si7 0.083595 0.674184 0.624462
Si Si8 0.285317 0.670432 0.361058
O O1 0.859960 0.500000 0.437094
O O2 0.867769 0.778765 0.469955
O O3 0.882050 0.725137 0.370586
O O4 0.757140 0.702307 0.414645
O O5 0.500000 0.742451 0.316798
O O6 0.427656 0.500000 0.291521
O O7 0.377074 0.758356 0.262397
O O8 0.372973 0.686248 0.362296
O O9 0.905829 0.500000 0.030284
O O10 0.894677 0.771206 0.067152
O O11 0.000000 0.707808 0.002244
O O12 0.877727 0.760131 0.766548
O O13 0.000000 0.753587 0.816472
O O14 0.923346 0.000000 0.813011
O O15 0.246592 0.749090 0.216340
O O16 0.257056 0.781914 0.315819
O O17 0.299256 0.000000 0.251270
O O18 0.826427 0.500000 0.217173
O O19 0.872622 0.271808 0.164969
O O20 0.103575 0.500000 0.630086
O O21 0.000000 0.704002 0.634398
O O22 0.264797 0.500000 0.343384
#
# Coordination Sequence:
#
# PCOD8177292 Si02
#       8
#     8   8   8   8   8   8   8   8
#     4  10  17  29  47  63  87 118 150 187 225 269
#     4   8  14  27  45  63  89 125 158 185 216 263
#     4  10  21  35  48  64  86 114 152 196 239 281
#     4   9  16  25  40  62  84 110 145 180 219 268
#     4  10  18  27  41  63  92 122 150 183 221 262
#     4  11  19  31  47  64  90 121 153 187 227 276
#     4  10  21  36  51  67  86 112 151 197 243 285
#     4   8  15  28  42  62  88 119 152 180 217 265
#
# _framework density 14.988004
#
# number of rings (size 3 to 8) (size 9 to 14) (size 15 to 20)
#    0.750    1.750    1.250    2.625    0.000    3.250 
#    0.000    0.000    0.000    2.250    0.000    0.000 
#    0.000    1.000    0.000    5.000    0.000    3.375 
#
# Total GULP energy -396427.954324 kJ/mol
# GULP energy per Si atom -12388.373573 kJ/mol
# Density = 1.495389 g / cm^3
# Si number density = 14.988004 Si / 1000 Ang^3
#
#
#
# Elastic Constant Matrix: (Units=GPa)
#
#
# Indices 1 2 3 4 5 6 
#
# 1 109.9710 34.6445 41.5500 0.0000 0.0000 0.0000
# 2 34.6445 61.2087 22.2966 0.0000 0.0000 0.0000
# 3 41.5500 22.2966 65.1802 0.0000 0.0000 0.0000
# 4 0.0000 0.0000 0.0000 23.4730 0.0000 0.0000
# 5 0.0000 0.0000 0.0000 0.0000 15.5863 0.0000
# 6 0.0000 0.0000 0.0000 0.0000 0.0000 17.1328
#
#
#
# Elastic Compliance Matrix: (Units=1/GPa)
#
#
# Indices 1 2 3 4 5 6 
#
# 1 0.013211 -0.005038 -0.006698 0.000000 0.000000 0.000000
# 2 -0.005038 0.020584 -0.003830 0.000000 0.000000 0.000000
# 3 -0.006698 -0.003830 0.020922 0.000000 0.000000 0.000000
# 4 0.000000 0.000000 0.000000 0.042602 0.000000 0.000000
# 5 0.000000 0.000000 0.000000 0.000000 0.064159 0.000000
# 6 0.000000 0.000000 0.000000 0.000000 0.000000 0.058368
#
#
# Mechanical properties :
#
#
# Convention : Reuss Voigt Hill
#
# Bulk Modulus (GPa) = 42.39911 48.14913 45.27412
# Shear Modulus (GPa) = 19.31698 20.42967 19.87332
#
# Velocity S-wave (km/s) = 3.59392 3.69598 3.64531
# Velocity P-wave (km/s) = 6.75069 7.09990 6.92749
#
# Compressibility (1/GPa) = 0.02358540
#
# Stress axis : x y z
#
# Youngs Moduli (GPa) = 75.69374 48.58139 47.79610
#
# Poissons Ratio (x) = 0.24473 0.32016
# Poissons Ratio (y) = 0.38131 0.18306
# Poissons Ratio (z) = 0.50703 0.18607
#
# Static dielectric constant tensor:
#      x y z
#    x 3.044160 0.000000 0.000000 
#    y 0.000000 2.766100 0.000000 
#    z 0.000000 0.000000 2.648000 
# 
# 
# High freq. dielectric constant tensor:
#      x y z
#    x 1.563920 0.000000 0.000000 
#    y 0.000000 1.570240 0.000000 
#    z 0.000000 0.000000 1.538910 
# 
# From -- ./inp_files/23134.got.cif
#   From: 2010.03.12/outbox.cif.g09.slc.cpg/sg38_12_cif.got.tgz:23134.got - 2010.04.14 02:38:36.
