data_PCOD8177490
_publ_section_title
;
Structure prediction by ZEFSAII (Michael W. Deem and Ramdas Pophale) SiO2 
 PCOD8177490
Probable space group: A M M 2
;
_chemical_formula_sum "Si O2"
_cell_formula_units_Z 56
_cell_length_a 19.633579
_cell_length_b 20.093971
_cell_length_c 8.063072
_cell_angle_alpha 90.000000
_cell_angle_beta 90.000000
_cell_angle_gamma 90.000000
_cell_volume 3181.015485
_symmetry_space_group_name_H-M "A M M 2"
_symmetry_group_IT_number 38
_symmetry_cell_setting 'orthorhombic'
loop_
_space_group_symop_operation_xyz
x,y,z
-x,-y,z
-x,y,z
x,-y,z
x,1/2+y,1/2+z
-x,1/2-y,1/2+z
-x,1/2+y,1/2+z
x,1/2-y,1/2+z
loop_
_atom_site_type_symbol
_atom_site_label
_atom_site_fract_x
_atom_site_fract_y
_atom_site_fract_z
Si Si1 0.660365 0.579225 0.803440
Si Si2 0.201372 0.152453 0.342624
Si Si3 0.158789 0.725660 0.142403
Si Si4 0.576846 0.420960 0.487640
Si Si5 0.077225 0.922815 0.211811
Si Si6 0.423092 0.920953 0.619184
Si Si7 0.076729 0.821387 0.932106
O O1 0.660294 0.500000 0.803713
O O2 0.737440 0.603722 0.800183
O O3 0.623664 0.607108 0.636823
O O4 0.623547 0.607318 0.969790
O O5 0.203453 0.214250 0.216254
O O6 0.207869 0.181282 0.527925
O O7 0.130155 0.112094 0.335612
O O8 0.128528 0.675970 0.279186
O O9 0.095365 0.757076 0.042531
O O10 0.500000 0.394877 0.516267
O O11 0.577217 0.500000 0.494621
O O12 0.602612 0.397845 0.303430
O O13 0.000000 0.911860 0.278667
O O14 0.094954 0.000000 0.194162
O O15 0.085201 0.890287 0.030572
O O16 0.500000 0.895076 0.590709
O O17 0.422367 0.000000 0.611747
O O18 0.000000 0.811838 0.868887
#
# Coordination Sequence:
#
# PCOD8177490 Si02
#       7
#     8   8   8   8   8   8   8
#     4  10  18  29  48  76 105 133 161 196 255 313
#     4  10  20  35  50  69  96 129 169 212 246 293
#     4   9  19  33  48  68  93 122 167 212 248 280
#     4   8  14  26  45  72 104 133 161 195 241 299
#     4   9  18  33  51  72 100 132 159 192 249 308
#     4   8  14  26  44  71 105 132 159 197 240 296
#     4   9  16  29  52  74  91 116 156 208 252 293
#
# _framework density 17.604441999999999
#
# number of rings (size 3 to 8) (size 9 to 14) (size 15 to 20)
#    0.000    3.000    0.000    2.143    0.000    5.714 
#    7.714    1.429    0.000    1.714    0.000    4.000 
#    0.000    0.000    0.000    0.000    0.000    0.000 
#
# Total GULP energy -347029.298628 kJ/mol
# GULP energy per Si atom -12393.903522 kJ/mol
# Density = 1.756437 g / cm^3
# Si number density = 17.604442 Si / 1000 Ang^3
#
#
#
# Elastic Constant Matrix: (Units=GPa)
#
#
# Indices 1 2 3 4 5 6 
#
# 1 90.6021 19.6242 55.8503 0.0000 0.0000 0.0000
# 2 19.6242 43.6968 24.8771 0.0000 0.0000 0.0000
# 3 55.8503 24.8771 126.0533 0.0000 0.0000 0.0000
# 4 0.0000 0.0000 0.0000 13.6251 0.0000 0.0000
# 5 0.0000 0.0000 0.0000 0.0000 19.5002 0.0000
# 6 0.0000 0.0000 0.0000 0.0000 0.0000 11.4760
#
#
#
# Elastic Compliance Matrix: (Units=1/GPa)
#
#
# Indices 1 2 3 4 5 6 
#
# 1 0.015637 -0.003468 -0.006244 0.000000 0.000000 0.000000
# 2 -0.003468 0.026551 -0.003703 0.000000 0.000000 0.000000
# 3 -0.006244 -0.003703 0.011431 0.000000 0.000000 0.000000
# 4 0.000000 0.000000 0.000000 0.073394 0.000000 0.000000
# 5 0.000000 0.000000 0.000000 0.000000 0.051282 0.000000
# 6 0.000000 0.000000 0.000000 0.000000 0.000000 0.087138
#
#
# Mechanical properties :
#
#
# Convention : Reuss Voigt Hill
#
# Bulk Modulus (GPa) = 37.33004 51.22838 44.27921
# Shear Modulus (GPa) = 16.60067 19.58697 18.09382
#
# Velocity S-wave (km/s) = 3.07413 3.33921 3.20941
# Velocity P-wave (km/s) = 5.81819 6.63551 6.24024
#
# Compressibility (1/GPa) = 0.02678808
#
# Stress axis : x y z
#
# Youngs Moduli (GPa) = 63.94892 37.66368 87.48468
#
# Poissons Ratio (x) = 0.13062 0.54626
# Poissons Ratio (y) = 0.22177 0.32399
# Poissons Ratio (z) = 0.39930 0.13948
#
# Static dielectric constant tensor:
#      x y z
#    x 3.172950 0.000000 0.000000 
#    y 0.000000 2.907020 0.000000 
#    z 0.000000 0.000000 3.609380 
# 
# 
# High freq. dielectric constant tensor:
#      x y z
#    x 1.670630 0.000000 0.000000 
#    y 0.000000 1.639200 0.000000 
#    z 0.000000 0.000000 1.688330 
# 
# From -- ./inp_files/5682.got.cif
#   From: 2010.03.12/outbox.cif.g09.slc.cpg/sg38_3_cif.got.tgz:5682.got - 2010.04.14 02:38:36.
