data_PCOD8177870
_publ_section_title
;
Structure prediction by ZEFSAII (Michael W. Deem and Ramdas Pophale) SiO2 
 PCOD8177870
Probable space group: A M M 2
;
_chemical_formula_sum "Si O2"
_cell_formula_units_Z 64
_cell_length_a 9.449024
_cell_length_b 18.522755
_cell_length_c 21.418166
_cell_angle_alpha 90.000000
_cell_angle_beta 90.000000
_cell_angle_gamma 90.000000
_cell_volume 3748.649319
_symmetry_space_group_name_H-M "A M M 2"
_symmetry_group_IT_number 38
_symmetry_cell_setting 'orthorhombic'
loop_
_space_group_symop_operation_xyz
x,y,z
-x,-y,z
-x,y,z
x,-y,z
x,1/2+y,1/2+z
-x,1/2-y,1/2+z
-x,1/2+y,1/2+z
x,1/2-y,1/2+z
loop_
_atom_site_type_symbol
_atom_site_label
_atom_site_fract_x
_atom_site_fract_y
_atom_site_fract_z
Si Si1 0.665788 0.835133 0.076500
Si Si2 0.844419 0.079939 0.981726
Si Si3 0.165657 0.918658 0.442753
Si Si4 0.834914 0.917991 0.176099
Si Si5 0.336823 0.210789 0.485686
Si Si6 0.341139 0.077604 0.863743
Si Si7 0.660229 0.265614 0.350149
Si Si8 0.162914 0.639444 0.809692
O O1 0.500000 0.848484 0.086909
O O2 0.747714 0.855857 0.139891
O O3 0.723779 0.886342 0.023371
O O4 0.694808 0.754260 0.050059
O O5 0.785209 0.077560 0.912450
O O6 0.000000 0.119038 0.983453
O O7 0.867270 0.000000 0.007788
O O8 0.246618 0.862690 0.487431
O O9 0.208843 0.905819 0.370578
O O10 0.000000 0.906435 0.452551
O O11 0.209802 0.000000 0.460953
O O12 0.803302 0.908376 0.249315
O O13 0.000000 0.906233 0.160744
O O14 0.789346 0.000000 0.158158
O O15 0.500000 0.188675 0.482738
O O16 0.296983 0.258712 0.424038
O O17 0.500000 0.082500 0.893953
O O18 0.319448 0.151762 0.824959
O O19 0.330764 0.000000 0.826417
O O20 0.500000 0.239833 0.341220
O O21 0.754527 0.215031 0.306655
O O22 0.000000 0.660546 0.812878
#
# Coordination Sequence:
#
# PCOD8177870 Si02
#       8
#     8   8   8   8   8   8   8   8
#     4  11  21  33  47  65  93 128 164 199 235 280
#     4  10  19  28  40  61  89 122 159 195 230 271
#     4   9  17  30  50  75  98 122 154 192 237 289
#     4  10  21  36  51  69  96 129 166 205 241 281
#     4   9  18  31  45  66  95 125 156 193 239 285
#     4   9  16  27  43  63  91 126 158 190 233 281
#     4   9  16  29  46  67  94 123 158 200 241 283
#     4   9  18  32  50  70  94 127 161 197 241 286
#
# _framework density 17.072814999999999
#
# number of rings (size 3 to 8) (size 9 to 14) (size 15 to 20)
#    0.000    2.500    1.250    1.500    0.000    6.250 
#    0.000    0.000    0.000    2.250    0.000    0.875 
#    0.000    3.000    0.000    0.000    0.000    0.125 
#
# Total GULP energy -396442.446931 kJ/mol
# GULP energy per Si atom -12388.826467 kJ/mol
# Density = 1.703396 g / cm^3
# Si number density = 17.072815 Si / 1000 Ang^3
#
#
#
# Elastic Constant Matrix: (Units=GPa)
#
#
# Indices 1 2 3 4 5 6 
#
# 1 69.1499 56.0211 32.3087 0.0000 0.0000 0.0000
# 2 56.0211 125.9207 29.9796 0.0000 0.0000 0.0000
# 3 32.3087 29.9796 46.2462 0.0000 0.0000 0.0000
# 4 0.0000 0.0000 0.0000 22.0292 0.0000 0.0000
# 5 0.0000 0.0000 0.0000 0.0000 22.1794 0.0000
# 6 0.0000 0.0000 0.0000 0.0000 0.0000 29.1749
#
#
#
# Elastic Compliance Matrix: (Units=1/GPa)
#
#
# Indices 1 2 3 4 5 6 
#
# 1 0.028552 -0.009405 -0.013850 0.000000 0.000000 0.000000
# 2 -0.009405 0.012489 -0.001525 0.000000 0.000000 0.000000
# 3 -0.013850 -0.001525 0.032288 0.000000 0.000000 0.000000
# 4 0.000000 0.000000 0.000000 0.045394 0.000000 0.000000
# 5 0.000000 0.000000 0.000000 0.000000 0.045087 0.000000
# 6 0.000000 0.000000 0.000000 0.000000 0.000000 0.034276
#
#
# Mechanical properties :
#
#
# Convention : Reuss Voigt Hill
#
# Bulk Modulus (GPa) = 42.07363 53.10396 47.58880
# Shear Modulus (GPa) = 19.56409 22.87720 21.22064
#
# Velocity S-wave (km/s) = 3.38882 3.66454 3.52937
# Velocity P-wave (km/s) = 6.32529 7.00550 6.67407
#
# Compressibility (1/GPa) = 0.02376786
#
# Stress axis : x y z
#
# Youngs Moduli (GPa) = 35.02392 80.07090 30.97092
#
# Poissons Ratio (x) = 0.75307 0.42895
# Poissons Ratio (y) = 0.32940 0.04725
# Poissons Ratio (z) = 0.48509 0.12215
#
# Static dielectric constant tensor:
#      x y z
#    x 3.378020 0.000000 0.000000 
#    y 0.000000 3.419250 0.000000 
#    z 0.000000 0.000000 2.878090 
# 
# 
# High freq. dielectric constant tensor:
#      x y z
#    x 1.666020 0.000000 0.000000 
#    y 0.000000 1.661210 0.000000 
#    z 0.000000 0.000000 1.603160 
# 
# From -- ./inp_files/22264.got.cif
#   From: 2010.03.12/outbox.cif.g09.slc.cpg/sg38_12_cif.got.tgz:22264.got - 2010.04.14 02:38:36.
