data_PCOD8177977
_publ_section_title
;
Structure prediction by ZEFSAII (Michael W. Deem and Ramdas Pophale) SiO2 
 PCOD8177977
Probable space group: A M M 2
;
_chemical_formula_sum "Si O2"
_cell_formula_units_Z 64
_cell_length_a 8.841180
_cell_length_b 13.724570
_cell_length_c 29.650305
_cell_angle_alpha 90.000000
_cell_angle_beta 90.000000
_cell_angle_gamma 90.000000
_cell_volume 3597.809335
_symmetry_space_group_name_H-M "A M M 2"
_symmetry_group_IT_number 38
_symmetry_cell_setting 'orthorhombic'
loop_
_space_group_symop_operation_xyz
x,y,z
-x,-y,z
-x,y,z
x,-y,z
x,1/2+y,1/2+z
-x,1/2-y,1/2+z
-x,1/2+y,1/2+z
x,1/2-y,1/2+z
loop_
_atom_site_type_symbol
_atom_site_label
_atom_site_fract_x
_atom_site_fract_y
_atom_site_fract_z
Si Si1 0.678074 0.297192 0.600930
Si Si2 0.179699 0.611287 0.341299
Si Si3 0.321581 0.610090 0.696451
Si Si4 0.174534 0.746274 0.260906
Si Si5 0.668286 0.393400 0.199737
Si Si6 0.331168 0.884469 0.933940
Si Si7 0.174159 0.605165 0.106802
Si Si8 0.833122 0.612580 0.521249
O O1 0.500000 0.283139 0.597947
O O2 0.727446 0.327145 0.652078
O O3 0.764046 0.200595 0.581343
O O4 0.731320 0.379368 0.566134
O O5 0.235699 0.500000 0.329928
O O6 0.239775 0.693596 0.306019
O O7 0.240008 0.646395 0.389459
O O8 0.000000 0.611954 0.341562
O O9 0.500000 0.606129 0.699504
O O10 0.257055 0.500000 0.692043
O O11 0.260295 0.656820 0.743355
O O12 0.198796 0.666573 0.222483
O O13 0.000000 0.772992 0.266522
O O14 0.500000 0.344263 0.203924
O O15 0.662698 0.500000 0.222021
O O16 0.711603 0.401241 0.148195
O O17 0.500000 0.840769 0.931197
O O18 0.338641 0.000000 0.937900
O O19 0.248639 0.838937 0.977819
O O20 0.188686 0.500000 0.080695
O O21 0.000000 0.620815 0.121198
O O22 0.852773 0.500000 0.510589
O O23 0.000000 0.659833 0.527776
#
# Coordination Sequence:
#
# PCOD8177977 Si02
#       8
#     8   8   8   8   8   8   8   8
#     4  11  21  34  53  75 100 133 174 214 254 301
#     4   9  18  32  49  72 104 137 166 200 247 303
#     4  10  22  38  52  68  96 134 173 215 260 300
#     4  11  21  32  49  72  98 131 170 209 250 298
#     4  10  19  30  45  66  94 128 164 200 240 288
#     4   9  17  30  49  74 103 133 166 205 250 300
#     4  10  20  33  49  70  97 129 165 205 249 296
#     4  10  20  33  51  75 104 138 173 210 253 302
#
# _framework density 17.788601
#
# number of rings (size 3 to 8) (size 9 to 14) (size 15 to 20)
#    0.000    2.000    1.250    3.000    0.000    6.500 
#    0.000    1.250    0.000    0.000    0.000    0.875 
#    0.000    3.000    0.000    0.000    0.000    0.000 
#
# Total GULP energy -396443.447652 kJ/mol
# GULP energy per Si atom -12388.857739 kJ/mol
# Density = 1.774811 g / cm^3
# Si number density = 17.788601 Si / 1000 Ang^3
#
#
#
# Elastic Constant Matrix: (Units=GPa)
#
#
# Indices 1 2 3 4 5 6 
#
# 1 59.6677 29.7159 29.7326 0.0000 0.0000 0.0000
# 2 29.7159 75.4326 23.8588 0.0000 0.0000 0.0000
# 3 29.7326 23.8588 94.1467 0.0000 0.0000 0.0000
# 4 0.0000 0.0000 0.0000 18.6891 0.0000 0.0000
# 5 0.0000 0.0000 0.0000 0.0000 27.7687 0.0000
# 6 0.0000 0.0000 0.0000 0.0000 0.0000 23.4168
#
#
#
# Elastic Compliance Matrix: (Units=1/GPa)
#
#
# Indices 1 2 3 4 5 6 
#
# 1 0.023155 -0.007402 -0.005437 0.000000 0.000000 0.000000
# 2 -0.007402 0.016778 -0.001914 0.000000 0.000000 0.000000
# 3 -0.005437 -0.001914 0.012824 0.000000 0.000000 0.000000
# 4 0.000000 0.000000 0.000000 0.053507 0.000000 0.000000
# 5 0.000000 0.000000 0.000000 0.000000 0.036012 0.000000
# 6 0.000000 0.000000 0.000000 0.000000 0.000000 0.042704
#
#
# Mechanical properties :
#
#
# Convention : Reuss Voigt Hill
#
# Bulk Modulus (GPa) = 43.00920 43.98464 43.49692
# Shear Modulus (GPa) = 22.49848 23.70422 23.10135
#
# Velocity S-wave (km/s) = 3.56022 3.65437 3.60760
# Velocity P-wave (km/s) = 6.41332 6.52579 6.46980
#
# Compressibility (1/GPa) = 0.02325084
#
# Stress axis : x y z
#
# Youngs Moduli (GPa) = 43.18715 59.60076 77.97962
#
# Poissons Ratio (x) = 0.44117 0.42396
# Poissons Ratio (y) = 0.31967 0.14928
# Poissons Ratio (z) = 0.23480 0.11410
#
# Static dielectric constant tensor:
#      x y z
#    x 3.374400 0.000000 0.000000 
#    y 0.000000 3.588960 0.000000 
#    z 0.000000 0.000000 3.181980 
# 
# 
# High freq. dielectric constant tensor:
#      x y z
#    x 1.698190 0.000000 0.000000 
#    y 0.000000 1.664140 0.000000 
#    z 0.000000 0.000000 1.660940 
# 
# From -- ./inp_files/24725.got.cif
#   From: 2010.03.12/outbox.cif.g09.slc.cpg/sg38_13_cif.got.tgz:24725.got - 2010.04.14 02:38:36.
