data_PCOD8177000
_publ_section_title
;
Structure prediction by ZEFSAII (Michael W. Deem and Ramdas Pophale) SiO2 
 PCOD8177000
Probable space group: C C C 2
;
_chemical_formula_sum "Si O2"
_cell_formula_units_Z 56
_cell_length_a 5.625530
_cell_length_b 14.363938
_cell_length_c 28.434865
_cell_angle_alpha 90.000000
_cell_angle_beta 90.000000
_cell_angle_gamma 90.000000
_cell_volume 2297.672560
_symmetry_space_group_name_H-M "C C C 2"
_symmetry_group_IT_number 37
_symmetry_cell_setting 'orthorhombic'
loop_
_space_group_symop_operation_xyz
x,y,z
-x,-y,z
-x,y,1/2+z
x,-y,1/2+z
1/2+x,1/2+y,z
1/2-x,1/2-y,z
1/2-x,1/2+y,1/2+z
1/2+x,1/2-y,1/2+z
loop_
_atom_site_type_symbol
_atom_site_label
_atom_site_fract_x
_atom_site_fract_y
_atom_site_fract_z
Si Si1 0.214928 0.856899 0.957070
Si Si2 0.031300 0.108813 0.627203
Si Si3 0.900825 0.899001 0.356496
Si Si4 0.468177 0.896635 0.665670
Si Si5 0.000000 0.500000 0.015529
Si Si6 0.854972 0.146519 0.532258
Si Si7 0.880458 0.655303 0.268145
Si Si8 0.750000 0.250000 0.327054
O O1 0.250000 0.750000 0.969824
O O2 0.257289 0.877087 0.901998
O O3 0.957180 0.879877 0.980408
O O4 0.407777 0.918163 0.982593
O O5 0.774494 0.152323 0.645393
O O6 0.058832 0.137995 0.572407
O O7 0.273561 0.150568 0.652122
O O8 0.000000 0.000000 0.638123
O O9 0.771763 0.902327 0.306266
O O10 0.082098 0.812336 0.359558
O O11 0.000000 0.000000 0.365765
O O12 0.435993 0.903182 0.721998
O O13 0.500000 0.000000 0.645374
O O14 0.181661 0.440030 0.047436
O O15 0.750000 0.250000 0.532698
O O16 0.750000 0.750000 0.253606
O O17 0.125620 0.675833 0.293611
#
# Coordination Sequence:
#
# PCOD8177000 Si02
#       8
#     8   8   8   8   4   8   8   4
#     4  12  26  47  74 111 152 199 258 309 391 465
#     4  10  24  45  73 107 149 197 251 314 386 462
#     4  11  26  43  72 106 145 195 251 312 384 462
#     4  10  24  43  75 105 145 194 248 313 386 464
#     4  12  26  48  78 102 162 200 244 328 380 460
#     4  12  27  47  76 111 147 203 257 318 388 467
#     4  10  24  44  66 103 139 192 243 311 382 457
#     4  10  24  44  68  94 146 186 242 314 378 454
#
# _framework density 24.372491
#
# number of rings (size 3 to 8) (size 9 to 14) (size 15 to 20)
#    0.000    1.143    1.429    3.429   12.000    4.571 
#    0.000    0.000    0.000    0.000    0.000    0.000 
#    0.000    0.000    0.000    0.000    0.000    0.000 
#
# Total GULP energy -346896.427162 kJ/mol
# GULP energy per Si atom -12389.158113 kJ/mol
# Density = 2.431702 g / cm^3
# Si number density = 24.372491 Si / 1000 Ang^3
#
#
#
# Elastic Constant Matrix: (Units=GPa)
#
#
# Indices 1 2 3 4 5 6 
#
# 1 128.5978 11.6548 38.7355 0.0000 0.0000 0.0000
# 2 11.6548 94.2569 16.4782 0.0000 0.0000 0.0000
# 3 38.7355 16.4782 128.3669 0.0000 0.0000 0.0000
# 4 0.0000 0.0000 0.0000 35.6564 0.0000 0.0000
# 5 0.0000 0.0000 0.0000 0.0000 -48.8230 0.0000
# 6 0.0000 0.0000 0.0000 0.0000 0.0000 15.3936
#
#
#
# Elastic Compliance Matrix: (Units=1/GPa)
#
#
# Indices 1 2 3 4 5 6 
#
# 1 0.008589 -0.000623 -0.002512 0.000000 0.000000 0.000000
# 2 -0.000623 0.010898 -0.001211 0.000000 0.000000 0.000000
# 3 -0.002512 -0.001211 0.008704 0.000000 0.000000 0.000000
# 4 0.000000 0.000000 0.000000 0.028045 0.000000 0.000000
# 5 0.000000 0.000000 0.000000 0.000000 -0.020482 0.000000
# 6 0.000000 0.000000 0.000000 0.000000 0.000000 0.064962
#
#
# Mechanical properties :
#
#
# Convention : Reuss Voigt Hill
#
# Bulk Modulus (GPa) = 51.28395 53.88429 52.58412
# Shear Modulus (GPa) = 43.13781 19.40229 31.27005
#
# Velocity S-wave (km/s) = 4.21163 2.82454 3.58579
# Velocity P-wave (km/s) = 6.68863 5.72660 6.22623
#
# Compressibility (1/GPa) = 0.01949928
#
# Stress axis : x y z
#
# Youngs Moduli (GPa) = 116.42446 91.75970 114.89494
#
# Poissons Ratio (x) = 0.05716 0.28860
# Poissons Ratio (y) = 0.07252 0.13914
# Poissons Ratio (z) = 0.29245 0.11112
#
# Static dielectric constant tensor:
#      x y z
#    x 4.766750 0.000000 0.000000 
#    y 0.000000 4.176590 0.000000 
#    z 0.000000 0.000000 4.232060 
# 
# 
# High freq. dielectric constant tensor:
#      x y z
#    x 1.970050 0.000000 0.000000 
#    y 0.000000 1.970370 0.000000 
#    z 0.000000 0.000000 1.971880 
# 
# From -- ./inp_files/20190.got.cif
#   From: 2010.03.12/outbox.cif.g09.slc.cpg/sg37_11_cif.got.tgz:20190.got - 2010.04.14 02:25:27.
