data_PCOD8177538
_publ_section_title
;
Structure prediction by ZEFSAII (Michael W. Deem and Ramdas Pophale) SiO2 
 PCOD8177538
Probable space group: A M M 2
;
_chemical_formula_sum "Si O2"
_cell_formula_units_Z 64
_cell_length_a 14.288228
_cell_length_b 9.173030
_cell_length_c 31.007505
_cell_angle_alpha 90.000000
_cell_angle_beta 90.000000
_cell_angle_gamma 90.000000
_cell_volume 4064.040320
_symmetry_space_group_name_H-M "A M M 2"
_symmetry_group_IT_number 38
_symmetry_cell_setting 'orthorhombic'
loop_
_space_group_symop_operation_xyz
x,y,z
-x,-y,z
-x,y,z
x,-y,z
x,1/2+y,1/2+z
-x,1/2-y,1/2+z
-x,1/2+y,1/2+z
x,1/2-y,1/2+z
loop_
_atom_site_type_symbol
_atom_site_label
_atom_site_fract_x
_atom_site_fract_y
_atom_site_fract_z
Si Si1 0.391550 0.329212 0.723370
Si Si2 0.106023 0.668969 0.010368
Si Si3 0.388734 0.837850 0.806681
Si Si4 0.604131 0.826637 0.900784
Si Si5 0.706289 0.670698 0.145658
Si Si6 0.608966 0.831300 0.556245
Si Si7 0.279661 0.826708 0.981963
Si Si8 0.101729 0.827060 0.608085
O O1 0.500000 0.287399 0.716724
O O2 0.375448 0.500000 0.723013
O O3 0.353479 0.268700 0.768989
O O4 0.332143 0.259213 0.685590
O O5 0.134834 0.500000 0.007161
O O6 0.117196 0.727057 0.059258
O O7 0.000000 0.692354 0.994112
O O8 0.174564 0.764442 0.980845
O O9 0.500000 0.844620 0.807825
O O10 0.355924 0.778276 0.853725
O O11 0.348463 0.000000 0.797779
O O12 0.500000 0.762041 0.908778
O O13 0.671524 0.768767 0.938339
O O14 0.598433 0.000000 0.901452
O O15 0.702815 0.500000 0.156636
O O16 0.643767 0.706398 0.104103
O O17 0.812980 0.726368 0.137916
O O18 0.500000 0.793446 0.553377
O O19 0.663889 0.731940 0.522841
O O20 0.629348 0.000000 0.545587
O O21 0.277400 0.000000 0.984224
O O22 0.000000 0.770667 0.625337
O O23 0.101077 0.000000 0.606506
#
# Coordination Sequence:
#
# PCOD8177538 Si02
#       8
#     8   8   8   8   8   8   8   8
#     4  10  20  31  43  64  95 122 146 183 231 276
#     4   9  17  32  51  66  86 119 157 196 234 271
#     4   8  14  28  49  66  82 112 155 193 222 261
#     4   8  15  28  45  66  92 122 154 185 220 267
#     4  10  18  30  48  66  86 117 158 192 218 260
#     4  10  20  32  44  61  90 127 165 195 216 255
#     4  11  20  29  45  69  97 124 151 188 234 279
#     4   8  14  27  48  68  84 108 147 194 232 259
#
# _framework density 15.747876
#
# number of rings (size 3 to 8) (size 9 to 14) (size 15 to 20)
#    0.000    2.750    1.250    3.000    0.000    2.750 
#    0.000    1.250    0.000    3.375    0.000    0.875 
#    0.000    3.000    0.000    0.000    0.000    0.000 
#
# Total GULP energy -396659.792990 kJ/mol
# GULP energy per Si atom -12395.618531 kJ/mol
# Density = 1.571203 g / cm^3
# Si number density = 15.747876 Si / 1000 Ang^3
#
#
#
# Elastic Constant Matrix: (Units=GPa)
#
#
# Indices 1 2 3 4 5 6 
#
# 1 100.9645 38.0274 57.1762 0.0000 0.0000 0.0000
# 2 38.0274 49.0837 43.0126 0.0000 0.0000 0.0000
# 3 57.1762 43.0126 113.8845 0.0000 0.0000 0.0000
# 4 0.0000 0.0000 0.0000 21.4496 0.0000 0.0000
# 5 0.0000 0.0000 0.0000 0.0000 9.1178 0.0000
# 6 0.0000 0.0000 0.0000 0.0000 0.0000 20.5751
#
#
#
# Elastic Compliance Matrix: (Units=1/GPa)
#
#
# Indices 1 2 3 4 5 6 
#
# 1 0.015616 -0.007815 -0.004889 0.000000 0.000000 0.000000
# 2 -0.007815 0.034363 -0.009055 0.000000 0.000000 0.000000
# 3 -0.004889 -0.009055 0.014655 0.000000 0.000000 0.000000
# 4 0.000000 0.000000 0.000000 0.046621 0.000000 0.000000
# 5 0.000000 0.000000 0.000000 0.000000 0.109676 0.000000
# 6 0.000000 0.000000 0.000000 0.000000 0.000000 0.048603
#
#
# Mechanical properties :
#
#
# Convention : Reuss Voigt Hill
#
# Bulk Modulus (GPa) = 47.35403 60.04057 53.69730
# Shear Modulus (GPa) = 15.62065 18.60958 17.11511
#
# Velocity S-wave (km/s) = 3.15289 3.44134 3.30027
# Velocity P-wave (km/s) = 6.58709 7.34843 6.97815
#
# Compressibility (1/GPa) = 0.02111753
#
# Stress axis : x y z
#
# Youngs Moduli (GPa) = 64.03584 29.10134 68.23517
#
# Poissons Ratio (x) = 0.22741 0.33359
# Poissons Ratio (y) = 0.50041 0.61787
# Poissons Ratio (z) = 0.31306 0.26351
#
# Static dielectric constant tensor:
#      x y z
#    x 3.214610 0.000000 0.000000 
#    y 0.000000 2.804430 0.000000 
#    z 0.000000 0.000000 3.126070 
# 
# 
# High freq. dielectric constant tensor:
#      x y z
#    x 1.591430 0.000000 0.000000 
#    y 0.000000 1.584340 0.000000 
#    z 0.000000 0.000000 1.595270 
# 
# From -- ./inp_files/25058.got.cif
#   From: 2010.03.12/outbox.cif.g09.slc.cpg/sg38_13_cif.got.tgz:25058.got - 2010.04.14 02:38:36.
