data_PCOD8177831
_publ_section_title
;
Structure prediction by ZEFSAII (Michael W. Deem and Ramdas Pophale) SiO2 
 PCOD8177831
Probable space group: A M M 2
;
_chemical_formula_sum "Si O2"
_cell_formula_units_Z 48
_cell_length_a 7.689762
_cell_length_b 16.288352
_cell_length_c 19.974801
_cell_angle_alpha 90.000000
_cell_angle_beta 90.000000
_cell_angle_gamma 90.000000
_cell_volume 2501.914741
_symmetry_space_group_name_H-M "A M M 2"
_symmetry_group_IT_number 38
_symmetry_cell_setting 'orthorhombic'
loop_
_space_group_symop_operation_xyz
x,y,z
-x,-y,z
-x,y,z
x,-y,z
x,1/2+y,1/2+z
-x,1/2-y,1/2+z
-x,1/2+y,1/2+z
x,1/2-y,1/2+z
loop_
_atom_site_type_symbol
_atom_site_label
_atom_site_fract_x
_atom_site_fract_y
_atom_site_fract_z
Si Si1 0.700445 0.166181 0.881460
Si Si2 0.000000 0.591279 0.176770
Si Si3 0.297610 0.202012 0.732543
Si Si4 0.705340 0.714848 0.001362
Si Si5 0.702667 0.326578 0.622973
Si Si6 0.000000 0.908424 0.518849
Si Si7 0.810040 0.000000 0.938642
Si Si8 0.695729 0.500000 0.584247
O O1 0.500000 0.144863 0.885324
O O2 0.748926 0.208420 0.810809
O O3 0.793345 0.079190 0.891174
O O4 0.754305 0.229127 0.938521
O O5 0.177365 0.633257 0.200508
O O6 0.000000 0.589191 0.097946
O O7 0.000000 0.500000 0.207008
O O8 0.500000 0.177913 0.720695
O O9 0.257635 0.289810 0.696709
O O10 0.500000 0.691848 0.003657
O O11 0.771355 0.762649 0.067534
O O12 0.822258 0.634086 0.993581
O O13 0.500000 0.336891 0.608715
O O14 0.789163 0.417017 0.612780
O O15 0.000000 0.000000 0.488739
O O16 0.684828 0.000000 0.003136
O O17 0.000000 0.000000 0.971068
O O18 0.500000 0.500000 0.611649
#
# Coordination Sequence:
#
# PCOD8177831 Si02
#       8
#     8   4   8   8   8   4   4   4
#     4  10  22  38  58  83 118 157 191 234 293 357
#     4  11  24  37  54  82 116 146 193 237 278 330
#     4  10  22  39  58  83 116 157 194 230 285 349
#     4  10  20  37  61  85 113 149 192 242 292 348
#     4   9  17  33  57  84 112 149 192 234 284 342
#     4  11  24  39  60  86 108 150 197 245 292 336
#     4  12  24  32  50  90 128 151 188 239 292 353
#     4  10  18  34  60  84 116 151 188 239 290 343
#
# _framework density 19.185305
#
# number of rings (size 3 to 8) (size 9 to 14) (size 15 to 20)
#    0.000    1.833    3.333    0.750    3.500    0.667 
#    1.500    1.667    1.833    0.000    0.000    0.000 
#    0.000    0.000    0.000    0.000    0.000    0.000 
#
# Total GULP energy -297515.193250 kJ/mol
# GULP energy per Si atom -12396.466385 kJ/mol
# Density = 1.914164 g / cm^3
# Si number density = 19.185305 Si / 1000 Ang^3
#
#
#
# Elastic Constant Matrix: (Units=GPa)
#
#
# Indices 1 2 3 4 5 6 
#
# 1 70.1936 51.3455 22.8044 0.0000 0.0000 0.0000
# 2 51.3455 164.8987 65.6540 0.0000 0.0000 0.0000
# 3 22.8044 65.6540 118.4383 0.0000 0.0000 0.0000
# 4 0.0000 0.0000 0.0000 28.2487 0.0000 0.0000
# 5 0.0000 0.0000 0.0000 0.0000 15.7722 0.0000
# 6 0.0000 0.0000 0.0000 0.0000 0.0000 41.5962
#
#
#
# Elastic Compliance Matrix: (Units=1/GPa)
#
#
# Indices 1 2 3 4 5 6 
#
# 1 0.018469 -0.005563 -0.000473 0.000000 0.000000 0.000000
# 2 -0.005563 0.009457 -0.004171 0.000000 0.000000 0.000000
# 3 -0.000473 -0.004171 0.010847 0.000000 0.000000 0.000000
# 4 0.000000 0.000000 0.000000 0.035400 0.000000 0.000000
# 5 0.000000 0.000000 0.000000 0.000000 0.063403 0.000000
# 6 0.000000 0.000000 0.000000 0.000000 0.000000 0.024041
#
#
# Mechanical properties :
#
#
# Convention : Reuss Voigt Hill
#
# Bulk Modulus (GPa) = 54.46768 70.34873 62.40820
# Shear Modulus (GPa) = 26.57474 31.37187 28.97330
#
# Velocity S-wave (km/s) = 3.72581 4.04815 3.89032
# Velocity P-wave (km/s) = 6.85280 7.65491 7.26493
#
# Compressibility (1/GPa) = 0.01835951
#
# Stress axis : x y z
#
# Youngs Moduli (GPa) = 54.14545 105.73927 92.19546
#
# Poissons Ratio (x) = 0.58819 0.04356
# Poissons Ratio (y) = 0.30119 0.38458
# Poissons Ratio (z) = 0.02558 0.44108
#
# Static dielectric constant tensor:
#      x y z
#    x 3.415280 0.000000 0.000000 
#    y 0.000000 3.718200 0.000000 
#    z 0.000000 0.000000 3.629430 
# 
# 
# High freq. dielectric constant tensor:
#      x y z
#    x 1.743950 0.000000 0.000000 
#    y 0.000000 1.739720 0.000000 
#    z 0.000000 0.000000 1.736380 
# 
# From -- ./inp_files/16761.got.cif
#   From: 2010.03.12/outbox.cif.g09.slc.cpg/sg38_9_cif.got.tgz:16761.got - 2010.04.14 02:38:36.
