data_PCOD8177280
_publ_section_title
;
Structure prediction by ZEFSAII (Michael W. Deem and Ramdas Pophale) SiO2 
 PCOD8177280
Probable space group: A M M 2
;
_chemical_formula_sum "Si O2"
_cell_formula_units_Z 64
_cell_length_a 8.379299
_cell_length_b 28.288295
_cell_length_c 14.892470
_cell_angle_alpha 90.000000
_cell_angle_beta 90.000000
_cell_angle_gamma 90.000000
_cell_volume 3530.052740
_symmetry_space_group_name_H-M "A M M 2"
_symmetry_group_IT_number 38
_symmetry_cell_setting 'orthorhombic'
loop_
_space_group_symop_operation_xyz
x,y,z
-x,-y,z
-x,y,z
x,-y,z
x,1/2+y,1/2+z
-x,1/2-y,1/2+z
-x,1/2+y,1/2+z
x,1/2-y,1/2+z
loop_
_atom_site_type_symbol
_atom_site_label
_atom_site_fract_x
_atom_site_fract_y
_atom_site_fract_z
Si Si1 0.311190 0.363200 0.196780
Si Si2 0.310895 0.178705 0.877916
Si Si3 0.309985 0.447249 0.877352
Si Si4 0.690095 0.552412 0.079096
Si Si5 0.313169 0.136107 0.256426
Si Si6 0.815145 0.717357 0.875101
Si Si7 0.689057 0.781526 0.566902
Si Si8 0.688833 0.675201 0.575690
O O1 0.500000 0.366467 0.190389
O O2 0.258007 0.358696 0.301085
O O3 0.237087 0.410006 0.150251
O O4 0.252504 0.316487 0.144923
O O5 0.500000 0.187517 0.876549
O O6 0.229327 0.228442 0.857185
O O7 0.256358 0.158725 0.975693
O O8 0.500000 0.444969 0.875980
O O9 0.252608 0.500000 0.849700
O O10 0.235253 0.408907 0.808021
O O11 0.250316 0.435280 0.978328
O O12 0.500000 0.554024 0.080508
O O13 0.749680 0.500000 0.106569
O O14 0.500000 0.127071 0.250249
O O15 0.284198 0.184757 0.308005
O O16 0.241309 0.141550 0.154750
O O17 0.000000 0.709095 0.856490
O O18 0.772105 0.701725 0.975656
O O19 0.500000 0.783350 0.551608
O O20 0.747292 0.728909 0.592230
O O21 0.500000 0.674011 0.582214
#
# Coordination Sequence:
#
# PCOD8177280 Si02
#       8
#     8   8   8   8   8   8   8   8
#     4   9  15  24  44  66  82 111 151 182 208 250
#     4   9  17  31  46  60  83 115 151 182 210 249
#     4   8  14  24  41  66  90 109 135 175 216 252
#     4   8  13  21  34  59  92 114 132 169 219 260
#     4  10  17  28  47  65  84 114 150 180 209 250
#     4  11  21  30  41  63  92 116 141 175 219 260
#     4   9  16  28  44  62  84 112 148 180 210 252
#     4   8  15  26  42  62  81 107 144 183 213 243
#
# _framework density 18.130040000000001
#
# number of rings (size 3 to 8) (size 9 to 14) (size 15 to 20)
#    0.000    3.000    0.000    4.125    0.000    4.000 
#    0.000    5.625    0.000    1.125    0.000    5.250 
#    0.000    1.500    0.000    0.375    0.000    2.375 
#
# Total GULP energy -396523.241282 kJ/mol
# GULP energy per Si atom -12391.351290 kJ/mol
# Density = 1.808878 g / cm^3
# Si number density = 18.130040 Si / 1000 Ang^3
#
#
#
# Elastic Constant Matrix: (Units=GPa)
#
#
# Indices 1 2 3 4 5 6 
#
# 1 10.2813 3.9697 1.0616 0.0000 0.0000 0.0000
# 2 3.9697 107.0463 99.7440 0.0000 0.0000 0.0000
# 3 1.0616 99.7440 172.0989 0.0000 0.0000 0.0000
# 4 0.0000 0.0000 0.0000 34.0288 0.0000 0.0000
# 5 0.0000 0.0000 0.0000 0.0000 2.7911 0.0000
# 6 0.0000 0.0000 0.0000 0.0000 0.0000 2.4265
#
#
#
# Elastic Compliance Matrix: (Units=1/GPa)
#
#
# Indices 1 2 3 4 5 6 
#
# 1 0.099540 -0.006781 0.003316 0.000000 0.000000 0.000000
# 2 -0.006781 0.020772 -0.011997 0.000000 0.000000 0.000000
# 3 0.003316 -0.011997 0.012743 0.000000 0.000000 0.000000
# 4 0.000000 0.000000 0.000000 0.029387 0.000000 0.000000
# 5 0.000000 0.000000 0.000000 0.000000 0.358283 0.000000
# 6 0.000000 0.000000 0.000000 0.000000 0.000000 0.412109
#
#
# Mechanical properties :
#
#
# Convention : Reuss Voigt Hill
#
# Bulk Modulus (GPa) = 9.79139 55.44189 32.61664
# Shear Modulus (GPa) = 5.01101 20.15937 12.58519
#
# Velocity S-wave (km/s) = 1.66431 3.33818 2.63755
# Velocity P-wave (km/s) = 3.01755 6.74570 5.22542
#
# Compressibility (1/GPa) = 0.10213057
#
# Stress axis : x y z
#
# Youngs Moduli (GPa) = 10.04625 48.14220 78.47274
#
# Poissons Ratio (x) = 0.32647 -0.26024
# Poissons Ratio (y) = 0.06813 0.94143
# Poissons Ratio (z) = -0.03332 0.57756
#
# Static dielectric constant tensor:
#      x y z
#    x 2.756310 0.000000 0.000000 
#    y 0.000000 3.501140 0.000000 
#    z 0.000000 0.000000 3.844820 
# 
# 
# High freq. dielectric constant tensor:
#      x y z
#    x 1.646500 0.000000 0.000000 
#    y 0.000000 1.681850 0.000000 
#    z 0.000000 0.000000 1.709260 
# 
# From -- ./inp_files/13100.got.cif
#   From: 2010.03.12/outbox.cif.g09.slc.cpg/sg38_7_cif.got.tgz:13100.got - 2010.04.14 02:38:36.
