data_PCOD8177176
_publ_section_title
;
Structure prediction by ZEFSAII (Michael W. Deem and Ramdas Pophale) SiO2 
 PCOD8177176
Probable space group: C C C 2
;
_chemical_formula_sum "Si O2"
_cell_formula_units_Z 32
_cell_length_a 31.649452
_cell_length_b 4.679300
_cell_length_c 8.250173
_cell_angle_alpha 90.000000
_cell_angle_beta 90.000000
_cell_angle_gamma 90.000000
_cell_volume 1221.828187
_symmetry_space_group_name_H-M "C C C 2"
_symmetry_group_IT_number 37
_symmetry_cell_setting 'orthorhombic'
loop_
_space_group_symop_operation_xyz
x,y,z
-x,-y,z
-x,y,1/2+z
x,-y,1/2+z
1/2+x,1/2+y,z
1/2-x,1/2-y,z
1/2-x,1/2+y,1/2+z
1/2+x,1/2-y,1/2+z
loop_
_atom_site_type_symbol
_atom_site_label
_atom_site_fract_x
_atom_site_fract_y
_atom_site_fract_z
Si Si1 0.330357 0.633340 0.819310
Si Si2 0.546549 0.097283 0.682445
Si Si3 0.922912 0.920664 0.868794
Si Si4 0.296296 0.844739 0.497349
O O1 0.378653 0.587319 0.869070
O O2 0.328718 0.756486 0.638884
O O3 0.306943 0.328585 0.832417
O O4 0.304740 0.828196 0.950073
O O5 0.543522 0.322794 0.832987
O O6 0.568771 0.269280 0.538448
O O7 0.500000 0.000000 0.632345
O O8 0.574695 0.821157 0.728364
O O9 0.250000 0.750000 0.557798
#
# Coordination Sequence:
#
# PCOD8177176 Si02
#       4
#     8   8   8   8
#     4  12  27  47  74 109 148 194 247 309 376 447
#     4  12  27  50  77 110 151 200 253 313 382 458
#     4  12  27  50  77 111 150 197 255 316 379 454
#     4  12  25  47  74 108 148 195 247 306 374 453
#
# _framework density 26.190263999999999
#
# number of rings (size 3 to 8) (size 9 to 14) (size 15 to 20)
#    0.000    0.000    0.000    9.750    0.000    6.000 
#    0.000    1.250    0.000    0.000    0.000    0.000 
#    0.000    0.000    0.000    0.000    0.000    0.000 
#
# Total GULP energy -198408.096175 kJ/mol
# GULP energy per Si atom -12400.506011 kJ/mol
# Density = 2.613065 g / cm^3
# Si number density = 26.190264 Si / 1000 Ang^3
#
#
#
# Elastic Constant Matrix: (Units=GPa)
#
#
# Indices 1 2 3 4 5 6 
#
# 1 129.9455 57.9773 36.4633 0.0000 0.0000 0.0000
# 2 57.9773 135.4502 19.2485 0.0000 0.0000 0.0000
# 3 36.4633 19.2485 68.9615 0.0000 0.0000 0.0000
# 4 0.0000 0.0000 0.0000 46.5393 0.0000 0.0000
# 5 0.0000 0.0000 0.0000 0.0000 37.7331 0.0000
# 6 0.0000 0.0000 0.0000 0.0000 0.0000 59.4443
#
#
#
# Elastic Compliance Matrix: (Units=1/GPa)
#
#
# Indices 1 2 3 4 5 6 
#
# 1 0.010741 -0.003947 -0.004578 0.000000 0.000000 0.000000
# 2 -0.003947 0.009138 -0.000464 0.000000 0.000000 0.000000
# 3 -0.004578 -0.000464 0.017051 0.000000 0.000000 0.000000
# 4 0.000000 0.000000 0.000000 0.021487 0.000000 0.000000
# 5 0.000000 0.000000 0.000000 0.000000 0.026502 0.000000
# 6 0.000000 0.000000 0.000000 0.000000 0.000000 0.016822
#
#
# Mechanical properties :
#
#
# Convention : Reuss Voigt Hill
#
# Bulk Modulus (GPa) = 52.76137 62.41506 57.58821
# Shear Modulus (GPa) = 39.67126 43.45457 41.56292
#
# Velocity S-wave (km/s) = 3.89618 4.07773 3.98799
# Velocity P-wave (km/s) = 6.35841 6.78628 6.57583
#
# Compressibility (1/GPa) = 0.01895326
#
# Stress axis : x y z
#
# Youngs Moduli (GPa) = 93.10061 109.43150 58.64874
#
# Poissons Ratio (x) = 0.43193 0.26847
# Poissons Ratio (y) = 0.36747 0.02719
# Poissons Ratio (z) = 0.42618 0.05074
#
# Static dielectric constant tensor:
#      x y z
#    x 4.539410 0.000000 0.000000 
#    y 0.000000 5.292370 0.000000 
#    z 0.000000 0.000000 4.729880 
# 
# 
# High freq. dielectric constant tensor:
#      x y z
#    x 2.042480 0.000000 0.000000 
#    y 0.000000 2.081340 0.000000 
#    z 0.000000 0.000000 2.051770 
# 
# From -- ./inp_files/4891.got.cif
#   From: 2010.03.12/outbox.cif.g09.slc.cpg/sg37_3_cif.got.tgz:4891.got - 2010.04.14 02:25:27.
