data_PCOD8177091
_publ_section_title
;
Structure prediction by ZEFSAII (Michael W. Deem and Ramdas Pophale) SiO2 
 PCOD8177091
Probable space group: C C C 2
;
_chemical_formula_sum "Si O2"
_cell_formula_units_Z 48
_cell_length_a 14.005355
_cell_length_b 13.930690
_cell_length_c 11.967048
_cell_angle_alpha 90.000000
_cell_angle_beta 90.000000
_cell_angle_gamma 90.000000
_cell_volume 2334.822031
_symmetry_space_group_name_H-M "C C C 2"
_symmetry_group_IT_number 37
_symmetry_cell_setting 'orthorhombic'
loop_
_space_group_symop_operation_xyz
x,y,z
-x,-y,z
-x,y,1/2+z
x,-y,1/2+z
1/2+x,1/2+y,z
1/2-x,1/2-y,z
1/2-x,1/2+y,1/2+z
1/2+x,1/2-y,1/2+z
loop_
_atom_site_type_symbol
_atom_site_label
_atom_site_fract_x
_atom_site_fract_y
_atom_site_fract_z
Si Si1 0.818953 0.838427 0.853580
Si Si2 0.772466 0.489253 0.497856
Si Si3 0.934943 0.416868 0.871339
Si Si4 0.524292 0.746798 0.997833
Si Si5 0.329613 0.172229 0.166948
Si Si6 0.671217 0.329948 0.091982
O O1 0.750000 0.750000 0.886075
O O2 0.844084 0.839613 0.723872
O O3 0.768084 0.938355 0.886067
O O4 0.915380 0.829003 0.925434
O O5 0.874029 0.538069 0.472726
O O6 0.782787 0.409953 0.592788
O O7 0.699286 0.568462 0.541025
O O8 0.863239 0.372979 0.782438
O O9 0.000000 0.500000 0.815410
O O10 0.006748 0.338543 0.920146
O O11 0.580521 0.778188 0.108187
O O12 0.426562 0.698507 0.033870
O O13 0.250000 0.250000 0.196721
O O14 0.750000 0.250000 0.063711
#
# Coordination Sequence:
#
# PCOD8177091 Si02
#       6
#     8   8   8   8   8   8
#     4  11  22  47  70  95 137 185 223 279 350 415
#     4  12  23  46  68 100 138 177 228 287 340 409
#     4  12  26  40  73 107 134 178 233 289 339 406
#     4  12  23  46  68 100 138 177 228 287 340 409
#     4  12  26  46  71  99 140 184 231 283 349 410
#     4  11  26  43  70 101 137 183 229 279 350 415
#
# _framework density 20.558311
#
# number of rings (size 3 to 8) (size 9 to 14) (size 15 to 20)
#    0.000    0.333    6.667    2.000    4.667    3.333 
#    0.000    1.667    0.000    0.000    0.000    0.000 
#    0.000    0.000    0.000    0.000    0.000    0.000 
#
# Total GULP energy -297796.265185 kJ/mol
# GULP energy per Si atom -12408.177716 kJ/mol
# Density = 2.051152 g / cm^3
# Si number density = 20.558311 Si / 1000 Ang^3
#
#
#
# Elastic Constant Matrix: (Units=GPa)
#
#
# Indices 1 2 3 4 5 6 
#
# 1 119.1019 43.8957 37.1834 0.0000 0.0000 0.0000
# 2 43.8957 100.4367 32.9048 0.0000 0.0000 0.0000
# 3 37.1834 32.9048 78.3153 0.0000 0.0000 0.0000
# 4 0.0000 0.0000 0.0000 40.8305 0.0000 0.0000
# 5 0.0000 0.0000 0.0000 0.0000 24.1576 0.0000
# 6 0.0000 0.0000 0.0000 0.0000 0.0000 36.5756
#
#
#
# Elastic Compliance Matrix: (Units=1/GPa)
#
#
# Indices 1 2 3 4 5 6 
#
# 1 0.010844 -0.003540 -0.003661 0.000000 0.000000 0.000000
# 2 -0.003540 0.012701 -0.003656 0.000000 0.000000 0.000000
# 3 -0.003661 -0.003656 0.016043 0.000000 0.000000 0.000000
# 4 0.000000 0.000000 0.000000 0.024492 0.000000 0.000000
# 5 0.000000 0.000000 0.000000 0.000000 0.041395 0.000000
# 6 0.000000 0.000000 0.000000 0.000000 0.000000 0.027341
#
#
# Mechanical properties :
#
#
# Convention : Reuss Voigt Hill
#
# Bulk Modulus (GPa) = 55.94559 58.42463 57.18511
# Shear Modulus (GPa) = 31.15506 32.57073 31.86289
#
# Velocity S-wave (km/s) = 3.89710 3.98466 3.94112
# Velocity P-wave (km/s) = 6.89362 7.04632 6.97039
#
# Compressibility (1/GPa) = 0.01787451
#
# Stress axis : x y z
#
# Youngs Moduli (GPa) = 92.21837 78.73209 62.33130
#
# Poissons Ratio (x) = 0.27869 0.22821
# Poissons Ratio (y) = 0.32643 0.22788
# Poissons Ratio (z) = 0.33764 0.28784
#
# Static dielectric constant tensor:
#      x y z
#    x 3.790300 0.000000 0.000000 
#    y 0.000000 3.620190 0.000000 
#    z 0.000000 0.000000 3.712870 
# 
# 
# High freq. dielectric constant tensor:
#      x y z
#    x 1.813830 0.000000 0.000000 
#    y 0.000000 1.813320 0.000000 
#    z 0.000000 0.000000 1.807140 
# 
# From -- ./inp_files/7791.got.cif
#   From: 2010.03.12/outbox.cif.g09.slc.cpg/sg37_4_cif.got.tgz:7791.got - 2010.04.14 02:25:27.
