data_PCOD8177273
_publ_section_title
;
Structure prediction by ZEFSAII (Michael W. Deem and Ramdas Pophale) SiO2 
 PCOD8177273
Probable space group: A M M 2
;
_chemical_formula_sum "Si O2"
_cell_formula_units_Z 64
_cell_length_a 8.846009
_cell_length_b 14.419923
_cell_length_c 28.466673
_cell_angle_alpha 90.000000
_cell_angle_beta 90.000000
_cell_angle_gamma 90.000000
_cell_volume 3631.173755
_symmetry_space_group_name_H-M "A M M 2"
_symmetry_group_IT_number 38
_symmetry_cell_setting 'orthorhombic'
loop_
_space_group_symop_operation_xyz
x,y,z
-x,-y,z
-x,y,z
x,-y,z
x,1/2+y,1/2+z
-x,1/2-y,1/2+z
-x,1/2+y,1/2+z
x,1/2-y,1/2+z
loop_
_atom_site_type_symbol
_atom_site_label
_atom_site_fract_x
_atom_site_fract_y
_atom_site_fract_z
Si Si1 0.172140 0.609130 0.688150
Si Si2 0.327342 0.392171 0.127275
Si Si3 0.320697 0.897356 0.362874
Si Si4 0.321377 0.605643 0.591021
Si Si5 0.323265 0.892376 0.468237
Si Si6 0.320329 0.287787 0.774197
Si Si7 0.822831 0.225460 0.548373
Si Si8 0.679240 0.100648 0.732884
O O1 0.182032 0.500000 0.694579
O O2 0.258102 0.640188 0.641091
O O3 0.252312 0.652433 0.732744
O O4 0.000000 0.643744 0.684746
O O5 0.500000 0.357310 0.121087
O O6 0.317092 0.500000 0.114073
O O7 0.219751 0.335526 0.093266
O O8 0.267152 0.374995 0.180123
O O9 0.500000 0.901800 0.360792
O O10 0.272443 0.866844 0.415149
O O11 0.258374 0.824965 0.324201
O O12 0.255884 0.000000 0.351532
O O13 0.500000 0.613734 0.592221
O O14 0.269909 0.500000 0.580204
O O15 0.255231 0.673269 0.551060
O O16 0.500000 0.873397 0.476298
O O17 0.228383 0.825922 0.501387
O O18 0.286724 0.000000 0.478865
O O19 0.500000 0.296265 0.771127
O O20 0.267056 0.180666 0.768673
O O21 0.000000 0.240683 0.546751
O O22 0.500000 0.093777 0.731401
O O23 0.745118 0.000000 0.748727
#
# Coordination Sequence:
#
# PCOD8177273 Si02
#       8
#     8   8   8   8   8   8   8   8
#     4  10  20  32  46  70 105 135 157 191 242 293
#     4   9  17  30  47  67  96 135 173 203 233 280
#     4   8  15  28  47  72  97 121 158 208 252 287
#     4  10  21  37  55  72  93 127 169 205 235 279
#     4   9  18  34  53  70  94 130 167 204 247 295
#     4  10  17  27  49  74  95 127 169 207 243 289
#     4  12  23  32  48  74 101 126 155 199 253 305
#     4   8  15  27  43  66  95 125 158 195 233 273
#
# _framework density 17.625153999999998
#
# number of rings (size 3 to 8) (size 9 to 14) (size 15 to 20)
#    0.000    2.500    0.000    4.875    0.000    5.000 
#    0.000    0.625    0.000    2.625    0.000    3.500 
#    0.000    0.000    0.000    0.000    0.000    0.000 
#
# Total GULP energy -396718.309572 kJ/mol
# GULP energy per Si atom -12397.447174 kJ/mol
# Density = 1.758504 g / cm^3
# Si number density = 17.625154 Si / 1000 Ang^3
#
#
#
# Elastic Constant Matrix: (Units=GPa)
#
#
# Indices 1 2 3 4 5 6 
#
# 1 51.3852 25.9352 29.7705 0.0000 0.0000 0.0000
# 2 25.9352 91.0997 77.8375 0.0000 0.0000 0.0000
# 3 29.7705 77.8375 114.3854 0.0000 0.0000 0.0000
# 4 0.0000 0.0000 0.0000 30.1282 0.0000 0.0000
# 5 0.0000 0.0000 0.0000 0.0000 -0.3591 0.0000
# 6 0.0000 0.0000 0.0000 0.0000 0.0000 17.3777
#
#
#
# Elastic Compliance Matrix: (Units=1/GPa)
#
#
# Indices 1 2 3 4 5 6 
#
# 1 0.023369 -0.003479 -0.003715 0.000000 0.000000 0.000000
# 2 -0.003479 0.026742 -0.017292 0.000000 0.000000 0.000000
# 3 -0.003715 -0.017292 0.021476 0.000000 0.000000 0.000000
# 4 0.000000 0.000000 0.000000 0.033191 0.000000 0.000000
# 5 0.000000 0.000000 0.000000 0.000000 -2.784983 0.000000
# 6 0.000000 0.000000 0.000000 0.000000 0.000000 0.057545
#
#
# Mechanical properties :
#
#
# Convention : Reuss Voigt Hill
#
# Bulk Modulus (GPa) = 44.21727 58.21743 51.21735
# Shear Modulus (GPa) = -1.94845 17.65117 7.85136
#
# Velocity S-wave (km/s) = -1.05256 3.16804 2.11289
# Velocity P-wave (km/s) = 4.86466 6.81796 5.92239
#
# Compressibility (1/GPa) = 0.02261560
#
# Stress axis : x y z
#
# Youngs Moduli (GPa) = 42.79191 37.39396 46.56293
#
# Poissons Ratio (x) = 0.13009 0.17297
# Poissons Ratio (y) = 0.14887 0.80518
# Poissons Ratio (z) = 0.15896 0.64663
#
# Static dielectric constant tensor:
#      x y z
#    x 3.011020 0.000000 0.000000 
#    y 0.000000 3.760970 0.000000 
#    z 0.000000 0.000000 3.333110 
# 
# 
# High freq. dielectric constant tensor:
#      x y z
#    x 1.656450 0.000000 0.000000 
#    y 0.000000 1.686670 0.000000 
#    z 0.000000 0.000000 1.665960 
# 
# From -- ./inp_files/24819.got.cif
#   From: 2010.03.12/outbox.cif.g09.slc.cpg/sg38_13_cif.got.tgz:24819.got - 2010.04.14 02:38:36.
