data_PCOD8177256
_publ_section_title
;
Structure prediction by ZEFSAII (Michael W. Deem and Ramdas Pophale) SiO2 
 PCOD8177256
Probable space group: A M M 2
;
_chemical_formula_sum "Si O2"
_cell_formula_units_Z 56
_cell_length_a 8.677860
_cell_length_b 22.304158
_cell_length_c 17.883318
_cell_angle_alpha 90.000000
_cell_angle_beta 90.000000
_cell_angle_gamma 90.000000
_cell_volume 3461.358413
_symmetry_space_group_name_H-M "A M M 2"
_symmetry_group_IT_number 38
_symmetry_cell_setting 'orthorhombic'
loop_
_space_group_symop_operation_xyz
x,y,z
-x,-y,z
-x,y,z
x,-y,z
x,1/2+y,1/2+z
-x,1/2-y,1/2+z
-x,1/2+y,1/2+z
x,1/2-y,1/2+z
loop_
_atom_site_type_symbol
_atom_site_label
_atom_site_fract_x
_atom_site_fract_y
_atom_site_fract_z
Si Si1 0.669224 0.179552 0.838330
Si Si2 0.671236 0.317219 0.792378
Si Si3 0.679558 0.931038 0.552105
Si Si4 0.315793 0.718451 0.491375
Si Si5 0.181553 0.217061 0.144895
Si Si6 0.180149 0.341899 0.941810
Si Si7 0.317359 0.843273 0.681951
O O1 0.500000 0.152350 0.850345
O O2 0.661036 0.247969 0.812439
O O3 0.750683 0.179415 0.920108
O O4 0.746003 0.144576 0.767616
O O5 0.500000 0.345356 0.789012
O O6 0.750699 0.323739 0.711405
O O7 0.769842 0.351304 0.855614
O O8 0.500000 0.922575 0.533196
O O9 0.779316 0.902453 0.485903
O O10 0.720474 0.900622 0.631631
O O11 0.726504 0.000000 0.559223
O O12 0.500000 0.715376 0.494537
O O13 0.242599 0.690696 0.566100
O O14 0.270555 0.787805 0.481411
O O15 0.233170 0.286022 0.147592
O O16 0.000000 0.213058 0.148347
O O17 0.000000 0.328239 0.945716
O O18 0.500000 0.829170 0.685171
#
# Coordination Sequence:
#
# PCOD8177256 Si02
#       7
#     8   8   8   8   8   8   8
#     4   7  13  24  40  59  76 105 145 178 211 258
#     4   9  17  30  45  60  82 115 148 176 216 272
#     4  10  20  32  47  65  86 119 161 196 227 269
#     4  10  17  27  42  60  86 119 151 178 215 272
#     4  11  19  26  40  65  91 114 145 182 222 264
#     4  11  20  30  44  63  87 114 147 191 234 266
#     4   9  16  29  45  58  81 116 152 187 224 266
#
# _framework density 16.178619999999999
#
# number of rings (size 3 to 8) (size 9 to 14) (size 15 to 20)
#    0.000    2.429    1.429    5.143    0.000    0.286 
#    0.000    0.714    0.000    0.000    0.000    0.000 
#    0.000    1.143    0.000    8.571    0.000    2.286 
#
# Total GULP energy -346948.233504 kJ/mol
# GULP energy per Si atom -12391.008339 kJ/mol
# Density = 1.614180 g / cm^3
# Si number density = 16.178620 Si / 1000 Ang^3
#
#
#
# Elastic Constant Matrix: (Units=GPa)
#
#
# Indices 1 2 3 4 5 6 
#
# 1 74.6860 12.3219 39.4347 0.0000 0.0000 0.0000
# 2 12.3219 39.9142 35.7852 0.0000 0.0000 0.0000
# 3 39.4347 35.7852 170.2480 0.0000 0.0000 0.0000
# 4 0.0000 0.0000 0.0000 15.4352 0.0000 0.0000
# 5 0.0000 0.0000 0.0000 0.0000 20.6934 0.0000
# 6 0.0000 0.0000 0.0000 0.0000 0.0000 8.8504
#
#
#
# Elastic Compliance Matrix: (Units=1/GPa)
#
#
# Indices 1 2 3 4 5 6 
#
# 1 0.015373 -0.001914 -0.003159 0.000000 0.000000 0.000000
# 2 -0.001914 0.031110 -0.006096 0.000000 0.000000 0.000000
# 3 -0.003159 -0.006096 0.007887 0.000000 0.000000 0.000000
# 4 0.000000 0.000000 0.000000 0.064787 0.000000 0.000000
# 5 0.000000 0.000000 0.000000 0.000000 0.048324 0.000000
# 6 0.000000 0.000000 0.000000 0.000000 0.000000 0.112989
#
#
# Mechanical properties :
#
#
# Convention : Reuss Voigt Hill
#
# Bulk Modulus (GPa) = 31.21798 51.10354 41.16076
# Shear Modulus (GPa) = 15.94980 22.14959 19.04970
#
# Velocity S-wave (km/s) = 3.14324 3.70410 3.43514
# Velocity P-wave (km/s) = 5.70184 7.06750 6.42108
#
# Compressibility (1/GPa) = 0.03203282
#
# Stress axis : x y z
#
# Youngs Moduli (GPa) = 65.04963 32.14427 126.79583
#
# Poissons Ratio (x) = 0.06152 0.40049
# Poissons Ratio (y) = 0.12450 0.77292
# Poissons Ratio (z) = 0.20546 0.19594
#
# Static dielectric constant tensor:
#      x y z
#    x 2.983890 0.000000 0.000000 
#    y 0.000000 2.517650 0.000000 
#    z 0.000000 0.000000 3.697320 
# 
# 
# High freq. dielectric constant tensor:
#      x y z
#    x 1.616040 0.000000 0.000000 
#    y 0.000000 1.540440 0.000000 
#    z 0.000000 0.000000 1.649910 
# 
# From -- ./inp_files/17116.got.cif
#   From: 2010.03.12/outbox.cif.g09.slc.cpg/sg38_9_cif.got.tgz:17116.got - 2010.04.14 02:38:36.
