data_PCOD8177039
_publ_section_title
;
Structure prediction by ZEFSAII (Michael W. Deem and Ramdas Pophale) SiO2 
 PCOD8177039
Probable space group: C C C 2
;
_chemical_formula_sum "Si O2"
_cell_formula_units_Z 40
_cell_length_a 14.377737
_cell_length_b 12.894016
_cell_length_c 8.414221
_cell_angle_alpha 90.000000
_cell_angle_beta 90.000000
_cell_angle_gamma 90.000000
_cell_volume 1559.885261
_symmetry_space_group_name_H-M "C C C 2"
_symmetry_group_IT_number 37
_symmetry_cell_setting 'orthorhombic'
loop_
_space_group_symop_operation_xyz
x,y,z
-x,-y,z
-x,y,1/2+z
x,-y,1/2+z
1/2+x,1/2+y,z
1/2-x,1/2-y,z
1/2-x,1/2+y,1/2+z
1/2+x,1/2-y,1/2+z
loop_
_atom_site_type_symbol
_atom_site_label
_atom_site_fract_x
_atom_site_fract_y
_atom_site_fract_z
Si Si1 0.950858 0.353960 0.809810
Si Si2 0.275589 0.898148 0.997689
Si Si3 0.000000 0.000000 0.092748
Si Si4 0.367651 0.108383 0.973628
Si Si5 0.406921 0.369582 0.335446
Si Si6 0.250000 0.250000 0.783507
O O1 0.879185 0.358272 0.958447
O O2 0.907020 0.396933 0.650207
O O3 0.964972 0.231453 0.783648
O O4 0.045805 0.416084 0.854055
O O5 0.203022 0.853964 0.867534
O O6 0.242699 0.852933 0.170571
O O7 0.284267 0.023344 0.978223
O O8 0.916496 0.954570 0.198249
O O9 0.046649 0.908769 0.996043
O O10 0.331403 0.220359 0.909758
#
# Coordination Sequence:
#
# PCOD8177039 Si02
#       6
#     8   8   4   8   8   4
#     4  12  26  51  77 115 160 211 265 339 407 489
#     4  12  27  49  78 116 164 208 270 341 412 496
#     4  10  26  44  74 106 148 208 266 322 396 484
#     4  12  30  48  85 117 164 214 277 337 420 489
#     4  11  25  46  74 109 157 204 263 332 401 482
#     4  12  28  50  78 118 164 222 266 348 414 504
#
# _framework density 25.642913
#
# number of rings (size 3 to 8) (size 9 to 14) (size 15 to 20)
#    0.000    0.400    2.000    4.200   11.200    3.200 
#    0.000    0.000    0.000    0.000    0.000    0.000 
#    0.000    0.000    0.000    0.000    0.000    0.000 
#
# Total GULP energy -247798.860948 kJ/mol
# GULP energy per Si atom -12389.943047 kJ/mol
# Density = 2.558455 g / cm^3
# Si number density = 25.642913 Si / 1000 Ang^3
#
#
#
# Elastic Constant Matrix: (Units=GPa)
#
#
# Indices 1 2 3 4 5 6 
#
# 1 92.1542 20.3847 14.2952 0.0000 0.0000 0.0000
# 2 20.3847 91.1351 34.2265 0.0000 0.0000 0.0000
# 3 14.2952 34.2265 103.3466 0.0000 0.0000 0.0000
# 4 0.0000 0.0000 0.0000 20.7665 0.0000 0.0000
# 5 0.0000 0.0000 0.0000 0.0000 36.9544 0.0000
# 6 0.0000 0.0000 0.0000 0.0000 0.0000 47.2429
#
#
#
# Elastic Compliance Matrix: (Units=1/GPa)
#
#
# Indices 1 2 3 4 5 6 
#
# 1 0.011480 -0.002251 -0.000842 0.000000 0.000000 0.000000
# 2 -0.002251 0.012973 -0.003985 0.000000 0.000000 0.000000
# 3 -0.000842 -0.003985 0.011112 0.000000 0.000000 0.000000
# 4 0.000000 0.000000 0.000000 0.048154 0.000000 0.000000
# 5 0.000000 0.000000 0.000000 0.000000 0.027060 0.000000
# 6 0.000000 0.000000 0.000000 0.000000 0.000000 0.021167
#
#
# Mechanical properties :
#
#
# Convention : Reuss Voigt Hill
#
# Bulk Modulus (GPa) = 46.71169 47.16097 46.93633
# Shear Modulus (GPa) = 32.62837 35.50806 34.06821
#
# Velocity S-wave (km/s) = 3.57096 3.72521 3.64890
# Velocity P-wave (km/s) = 5.93785 6.07736 6.00801
#
# Compressibility (1/GPa) = 0.02140792
#
# Stress axis : x y z
#
# Youngs Moduli (GPa) = 87.10746 77.08373 89.98929
#
# Poissons Ratio (x) = 0.17355 0.07580
# Poissons Ratio (y) = 0.19612 0.35860
# Poissons Ratio (z) = 0.07337 0.30718
#
# Static dielectric constant tensor:
#      x y z
#    x 4.758240 0.000000 0.000000 
#    y 0.000000 5.205050 0.000000 
#    z 0.000000 0.000000 4.658020 
# 
# 
# High freq. dielectric constant tensor:
#      x y z
#    x 2.017790 0.000000 0.000000 
#    y 0.000000 2.032520 0.000000 
#    z 0.000000 0.000000 2.030640 
# 
# From -- ./inp_files/2764.got.cif
#   From: 2010.03.12/outbox.cif.g09.slc.cpg/sg37_2_cif.got.tgz:2764.got - 2010.04.14 02:25:27.
