data_PCOD8177449
_publ_section_title
;
Structure prediction by ZEFSAII (Michael W. Deem and Ramdas Pophale) SiO2 
 PCOD8177449
Probable space group: A M M 2
;
_chemical_formula_sum "Si O2"
_cell_formula_units_Z 56
_cell_length_a 7.771368
_cell_length_b 13.684829
_cell_length_c 32.415634
_cell_angle_alpha 90.000000
_cell_angle_beta 90.000000
_cell_angle_gamma 90.000000
_cell_volume 3447.397560
_symmetry_space_group_name_H-M "A M M 2"
_symmetry_group_IT_number 38
_symmetry_cell_setting 'orthorhombic'
loop_
_space_group_symop_operation_xyz
x,y,z
-x,-y,z
-x,y,z
x,-y,z
x,1/2+y,1/2+z
-x,1/2-y,1/2+z
-x,1/2+y,1/2+z
x,1/2-y,1/2+z
loop_
_atom_site_type_symbol
_atom_site_label
_atom_site_fract_x
_atom_site_fract_y
_atom_site_fract_z
Si Si1 0.308245 0.112236 0.442780
Si Si2 0.301672 0.115166 0.650820
Si Si3 0.000000 0.615652 0.091381
Si Si4 0.698019 0.794905 0.734879
Si Si5 0.802646 0.205929 0.361312
Si Si6 0.704668 0.110030 0.817653
Si Si7 0.000000 0.383976 0.999497
Si Si8 0.203926 0.109267 0.277375
O O1 0.500000 0.121752 0.461802
O O2 0.304051 0.174906 0.401129
O O3 0.170924 0.152923 0.475806
O O4 0.264949 0.000000 0.431684
O O5 0.500000 0.144542 0.640312
O O6 0.175422 0.149678 0.614108
O O7 0.225927 0.169112 0.691439
O O8 0.288265 0.000000 0.658719
O O9 0.000000 0.500000 0.088555
O O10 0.000000 0.661554 0.045442
O O11 0.500000 0.822526 0.733239
O O12 0.780783 0.852972 0.773627
O O13 0.726667 0.678788 0.740867
O O14 0.780636 0.321888 0.353799
O O15 0.728360 0.148150 0.321547
O O16 0.000000 0.178421 0.369345
O O17 0.500000 0.117645 0.817844
O O18 0.768161 0.000000 0.825697
O O19 0.000000 0.500000 0.002465
O O20 0.000000 0.111518 0.276973
O O21 0.274737 0.000000 0.269858
#
# Coordination Sequence:
#
# PCOD8177449 Si02
#       8
#     8   8   4   8   8   8   4   8
#     4  10  19  30  47  68  90 120 153 184 222 267
#     4   9  17  29  45  66  92 119 149 184 218 260
#     4   9  18  30  46  67  89 119 149 175 220 272
#     4   9  17  28  43  62  85 118 154 188 223 257
#     4  10  18  29  44  62  89 121 154 192 225 261
#     4   9  17  29  43  60  87 121 156 193 227 259
#     4   9  18  32  46  65  93 117 145 183 220 266
#     4   9  18  29  41  59  86 120 153 189 228 258
#
# _framework density 16.244138
#
# number of rings (size 3 to 8) (size 9 to 14) (size 15 to 20)
#    0.000    2.714    0.714    1.286    1.000    4.000 
#    0.000    2.857    0.000    0.000    0.000    0.000 
#    0.000    2.286    0.000    4.000    0.000    0.286 
#
# Total GULP energy -347123.526362 kJ/mol
# GULP energy per Si atom -12397.268799 kJ/mol
# Density = 1.620717 g / cm^3
# Si number density = 16.244138 Si / 1000 Ang^3
#
#
#
# Elastic Constant Matrix: (Units=GPa)
#
#
# Indices 1 2 3 4 5 6 
#
# 1 72.6279 16.7072 44.6948 0.0000 0.0000 0.0000
# 2 16.7072 76.8296 38.2134 0.0000 0.0000 0.0000
# 3 44.6948 38.2134 118.9917 0.0000 0.0000 0.0000
# 4 0.0000 0.0000 0.0000 17.2216 0.0000 0.0000
# 5 0.0000 0.0000 0.0000 0.0000 19.1484 0.0000
# 6 0.0000 0.0000 0.0000 0.0000 0.0000 18.2852
#
#
#
# Elastic Compliance Matrix: (Units=1/GPa)
#
#
# Indices 1 2 3 4 5 6 
#
# 1 0.017936 -0.000654 -0.006527 0.000000 0.000000 0.000000
# 2 -0.000654 0.015514 -0.004737 0.000000 0.000000 0.000000
# 3 -0.006527 -0.004737 0.012377 0.000000 0.000000 0.000000
# 4 0.000000 0.000000 0.000000 0.058067 0.000000 0.000000
# 5 0.000000 0.000000 0.000000 0.000000 0.052224 0.000000
# 6 0.000000 0.000000 0.000000 0.000000 0.000000 0.054689
#
#
# Mechanical properties :
#
#
# Convention : Reuss Voigt Hill
#
# Bulk Modulus (GPa) = 45.47196 51.96443 48.71820
# Shear Modulus (GPa) = 20.66363 22.18663 21.42513
#
# Velocity S-wave (km/s) = 3.57047 3.69971 3.63567
# Velocity P-wave (km/s) = 6.71203 7.09293 6.90510
#
# Compressibility (1/GPa) = 0.02199157
#
# Stress axis : x y z
#
# Youngs Moduli (GPa) = 55.75419 64.45837 80.79723
#
# Poissons Ratio (x) = 0.04215 0.52736
# Poissons Ratio (y) = 0.03646 0.38270
# Poissons Ratio (z) = 0.36390 0.30531
#
# Static dielectric constant tensor:
#      x y z
#    x 3.085930 0.000000 0.000000 
#    y 0.000000 2.929780 0.000000 
#    z 0.000000 0.000000 3.057120 
# 
# 
# High freq. dielectric constant tensor:
#      x y z
#    x 1.632880 0.000000 0.000000 
#    y 0.000000 1.592040 0.000000 
#    z 0.000000 0.000000 1.600000 
# 
# From -- ./inp_files/24674.got.cif
#   From: 2010.03.12/outbox.cif.g09.slc.cpg/sg38_13_cif.got.tgz:24674.got - 2010.04.14 02:38:36.
