data_PCOD8177122
_publ_section_title
;
Structure prediction by ZEFSAII (Michael W. Deem and Ramdas Pophale) SiO2 
 PCOD8177122
Probable space group: C C C 2
;
_chemical_formula_sum "Si O2"
_cell_formula_units_Z 48
_cell_length_a 10.731026
_cell_length_b 23.905851
_cell_length_c 8.892491
_cell_angle_alpha 90.000000
_cell_angle_beta 90.000000
_cell_angle_gamma 90.000000
_cell_volume 2281.229031
_symmetry_space_group_name_H-M "C C C 2"
_symmetry_group_IT_number 37
_symmetry_cell_setting 'orthorhombic'
loop_
_space_group_symop_operation_xyz
x,y,z
-x,-y,z
-x,y,1/2+z
x,-y,1/2+z
1/2+x,1/2+y,z
1/2-x,1/2-y,z
1/2-x,1/2+y,1/2+z
1/2+x,1/2-y,1/2+z
loop_
_atom_site_type_symbol
_atom_site_label
_atom_site_fract_x
_atom_site_fract_y
_atom_site_fract_z
Si Si1 0.818158 0.940857 0.476930
Si Si2 0.479690 0.350970 0.365901
Si Si3 0.674200 0.306979 0.588266
Si Si4 0.641934 0.456324 0.309553
Si Si5 0.851485 0.405841 0.504591
Si Si6 0.941978 0.559738 0.318686
O O1 0.884159 0.879752 0.483384
O O2 0.804767 0.966434 0.643180
O O3 0.684792 0.930883 0.406517
O O4 0.904004 0.982623 0.371326
O O5 0.575388 0.309233 0.450244
O O6 0.403298 0.316738 0.241019
O O7 0.550659 0.403920 0.294737
O O8 0.750000 0.250000 0.594766
O O9 0.783161 0.351401 0.565608
O O10 0.751064 0.446483 0.429730
O O11 0.921054 0.435619 0.641959
O O12 0.958588 0.393647 0.379372
O O13 0.000000 0.500000 0.358892
#
# Coordination Sequence:
#
# PCOD8177122 Si02
#       6
#     8   8   8   8   8   8
#     4  12  23  39  65 101 144 192 220 270 336 410
#     4  11  24  46  72 100 134 176 227 291 344 419
#     4  11  26  50  74  99 131 173 240 301 360 405
#     4  11  24  38  65 102 142 182 230 266 339 416
#     4  11  24  41  64  99 138 188 230 283 335 406
#     4  12  23  37  62  99 147 186 227 265 331 411
#
# _framework density 21.04129
#
# number of rings (size 3 to 8) (size 9 to 14) (size 15 to 20)
#    0.000    0.667    5.000    3.000    2.333    2.667 
#    0.000    0.833    0.000    0.000    0.000    0.000 
#    0.000    0.000    0.000    0.000    0.000    0.000 
#
# Total GULP energy -297453.239641 kJ/mol
# GULP energy per Si atom -12393.884985 kJ/mol
# Density = 2.099340 g / cm^3
# Si number density = 21.041290 Si / 1000 Ang^3
#
#
#
# Elastic Constant Matrix: (Units=GPa)
#
#
# Indices 1 2 3 4 5 6 
#
# 1 120.3145 57.2748 43.2080 0.0000 0.0000 0.0000
# 2 57.2748 91.4046 52.0653 0.0000 0.0000 0.0000
# 3 43.2080 52.0653 135.3918 0.0000 0.0000 0.0000
# 4 0.0000 0.0000 0.0000 21.5081 0.0000 0.0000
# 5 0.0000 0.0000 0.0000 0.0000 16.7319 0.0000
# 6 0.0000 0.0000 0.0000 0.0000 0.0000 45.1857
#
#
#
# Elastic Compliance Matrix: (Units=1/GPa)
#
#
# Indices 1 2 3 4 5 6 
#
# 1 0.011995 -0.006832 -0.001201 0.000000 0.000000 0.000000
# 2 -0.006832 0.017901 -0.004703 0.000000 0.000000 0.000000
# 3 -0.001201 -0.004703 0.009578 0.000000 0.000000 0.000000
# 4 0.000000 0.000000 0.000000 0.046494 0.000000 0.000000
# 5 0.000000 0.000000 0.000000 0.000000 0.059766 0.000000
# 6 0.000000 0.000000 0.000000 0.000000 0.000000 0.022131
#
#
# Mechanical properties :
#
#
# Convention : Reuss Voigt Hill
#
# Bulk Modulus (GPa) = 71.42353 72.46747 71.94550
# Shear Modulus (GPa) = 25.25196 29.65599 27.45397
#
# Velocity S-wave (km/s) = 3.46803 3.75830 3.61607
# Velocity P-wave (km/s) = 7.07491 7.30400 7.19037
#
# Compressibility (1/GPa) = 0.01400099
#
# Stress axis : x y z
#
# Youngs Moduli (GPa) = 83.36633 55.86390 104.40800
#
# Poissons Ratio (x) = 0.38168 0.12536
# Poissons Ratio (y) = 0.56959 0.49106
# Poissons Ratio (z) = 0.10010 0.26274
#
# Static dielectric constant tensor:
#      x y z
#    x 4.169410 0.000000 0.000000 
#    y 0.000000 3.766160 0.000000 
#    z 0.000000 0.000000 3.847850 
# 
# 
# High freq. dielectric constant tensor:
#      x y z
#    x 1.851520 0.000000 0.000000 
#    y 0.000000 1.785290 0.000000 
#    z 0.000000 0.000000 1.836090 
# 
# From -- ./inp_files/2925.got.cif
#   From: 2010.03.12/outbox.cif.g09.slc.cpg/sg37_2_cif.got.tgz:2925.got - 2010.04.14 02:25:27.
