data_PCOD8177656
_publ_section_title
;
Structure prediction by ZEFSAII (Michael W. Deem and Ramdas Pophale) SiO2 
 PCOD8177656
Probable space group: A M M 2
;
_chemical_formula_sum "Si O2"
_cell_formula_units_Z 56
_cell_length_a 14.282136
_cell_length_b 9.138991
_cell_length_c 25.525035
_cell_angle_alpha 90.000000
_cell_angle_beta 90.000000
_cell_angle_gamma 90.000000
_cell_volume 3331.637641
_symmetry_space_group_name_H-M "A M M 2"
_symmetry_group_IT_number 38
_symmetry_cell_setting 'orthorhombic'
loop_
_space_group_symop_operation_xyz
x,y,z
-x,-y,z
-x,y,z
x,-y,z
x,1/2+y,1/2+z
-x,1/2-y,1/2+z
-x,1/2+y,1/2+z
x,1/2-y,1/2+z
loop_
_atom_site_type_symbol
_atom_site_label
_atom_site_fract_x
_atom_site_fract_y
_atom_site_fract_z
Si Si1 0.606000 0.670007 0.345250
Si Si2 0.780716 0.672914 0.812429
Si Si3 0.792681 0.671360 0.511340
Si Si4 0.107602 0.327826 0.105203
Si Si5 0.892073 0.330524 0.710066
Si Si6 0.398178 0.826435 0.963870
Si Si7 0.108411 0.330335 0.403237
O O1 0.500000 0.695740 0.325544
O O2 0.633252 0.500000 0.341449
O O3 0.675844 0.763177 0.309166
O O4 0.617631 0.728568 0.404631
O O5 0.777195 0.500000 0.817672
O O6 0.832867 0.722273 0.759750
O O7 0.834909 0.735004 0.862240
O O8 0.795998 0.500000 0.525012
O O9 0.828844 0.762377 0.559980
O O10 0.686317 0.726867 0.500703
O O11 0.856582 0.706802 0.461370
O O12 0.121441 0.500000 0.106921
O O13 0.141615 0.262368 0.160319
O O14 0.000000 0.283599 0.094615
O O15 0.874969 0.500000 0.697127
O O16 0.000000 0.299032 0.723404
O O17 0.500000 0.770291 0.984751
O O18 0.398481 0.000000 0.961545
O O19 0.126206 0.500000 0.390394
O O20 0.000000 0.288035 0.399650
#
# Coordination Sequence:
#
# PCOD8177656 Si02
#       7
#     8   8   8   8   8   8   8
#     4   9  17  32  53  74 100 135 173 209 246 296
#     4  11  21  32  50  76 106 134 164 209 259 303
#     4  10  18  31  52  74  99 132 169 205 243 295
#     4  10  21  35  51  73  99 128 166 212 257 297
#     4   9  19  36  54  71  95 132 174 208 245 298
#     4   8  14  27  49  74  98 127 166 206 239 283
#     4  10  20  32  47  71 103 138 173 204 241 300
#
# _framework density 16.808548999999999
#
# number of rings (size 3 to 8) (size 9 to 14) (size 15 to 20)
#    0.000    2.429    1.429    2.571    0.000    4.286 
#    0.000    1.429    0.000    1.286    0.000    2.000 
#    0.000    0.000    0.000    0.000    0.000    0.000 
#
# Total GULP energy -347191.182433 kJ/mol
# GULP energy per Si atom -12399.685087 kJ/mol
# Density = 1.677029 g / cm^3
# Si number density = 16.808549 Si / 1000 Ang^3
#
#
#
# Elastic Constant Matrix: (Units=GPa)
#
#
# Indices 1 2 3 4 5 6 
#
# 1 117.9071 42.0216 60.5152 0.0000 0.0000 0.0000
# 2 42.0216 54.3587 46.5772 0.0000 0.0000 0.0000
# 3 60.5152 46.5772 101.5896 0.0000 0.0000 0.0000
# 4 0.0000 0.0000 0.0000 27.8275 0.0000 0.0000
# 5 0.0000 0.0000 0.0000 0.0000 19.7694 0.0000
# 6 0.0000 0.0000 0.0000 0.0000 0.0000 25.1432
#
#
#
# Elastic Compliance Matrix: (Units=1/GPa)
#
#
# Indices 1 2 3 4 5 6 
#
# 1 0.013213 -0.005715 -0.005250 0.000000 0.000000 0.000000
# 2 -0.005715 0.032772 -0.011621 0.000000 0.000000 0.000000
# 3 -0.005250 -0.011621 0.018299 0.000000 0.000000 0.000000
# 4 0.000000 0.000000 0.000000 0.035936 0.000000 0.000000
# 5 0.000000 0.000000 0.000000 0.000000 0.050583 0.000000
# 6 0.000000 0.000000 0.000000 0.000000 0.000000 0.039772
#
#
# Mechanical properties :
#
#
# Convention : Reuss Voigt Hill
#
# Bulk Modulus (GPa) = 52.32662 63.56482 57.94572
# Shear Modulus (GPa) = 20.65111 22.86413 21.75762
#
# Velocity S-wave (km/s) = 3.50895 3.69218 3.60173
# Velocity P-wave (km/s) = 6.90040 7.48835 7.20038
#
# Compressibility (1/GPa) = 0.01911073
#
# Stress axis : x y z
#
# Youngs Moduli (GPa) = 75.68376 30.51404 54.64805
#
# Poissons Ratio (x) = 0.17440 0.28692
# Poissons Ratio (y) = 0.43257 0.63505
# Poissons Ratio (z) = 0.39736 0.35460
#
# Static dielectric constant tensor:
#      x y z
#    x 3.546660 0.000000 0.000000 
#    y 0.000000 2.992970 0.000000 
#    z 0.000000 0.000000 3.038190 
# 
# 
# High freq. dielectric constant tensor:
#      x y z
#    x 1.655280 0.000000 0.000000 
#    y 0.000000 1.633890 0.000000 
#    z 0.000000 0.000000 1.630950 
# 
# From -- ./inp_files/21014.got.cif
#   From: 2010.03.12/outbox.cif.g09.slc.cpg/sg38_11_cif.got.tgz:21014.got - 2010.04.14 02:38:36.
