data_PCOD8177185
_publ_section_title
;
Structure prediction by ZEFSAII (Michael W. Deem and Ramdas Pophale) SiO2 
 PCOD8177185
Probable space group: C C C 2
;
_chemical_formula_sum "Si O2"
_cell_formula_units_Z 32
_cell_length_a 15.000000
_cell_length_b 9.000000
_cell_length_c 24.000000
_cell_angle_alpha 90.000000
_cell_angle_beta 90.000000
_cell_angle_gamma 90.000000
_cell_volume 3240.000000
_symmetry_space_group_name_H-M "C C C 2"
_symmetry_group_IT_number 37
_symmetry_cell_setting 'orthorhombic'
loop_
_space_group_symop_operation_xyz
x,y,z
-x,-y,z
-x,y,1/2+z
x,-y,1/2+z
1/2+x,1/2+y,z
1/2-x,1/2-y,z
1/2-x,1/2+y,1/2+z
1/2+x,1/2-y,1/2+z
loop_
_atom_site_type_symbol
_atom_site_label
_atom_site_fract_x
_atom_site_fract_y
_atom_site_fract_z
Si Si1 0.935025 0.381396 0.990510
Si Si2 0.138756 0.975604 0.875937
Si Si3 0.760970 0.082831 0.988615
Si Si4 0.089086 0.906434 0.065755
Si Si5 0.740382 0.429290 0.765851
Si Si6 0.591536 0.411854 0.196272
Si Si7 0.984601 0.754211 0.877575
Si Si8 0.923588 0.393340 0.264878
O O1 0.841086 0.473169 0.982576
O O2 0.000000 0.500000 0.019217
O O3 0.980043 0.333866 0.931634
O O4 0.926038 0.246543 0.033041
O O5 0.190069 0.917814 0.929698
O O6 0.206870 0.987708 0.825360
O O7 0.065540 0.856288 0.855840
O O8 0.097332 0.135503 0.892027
O O9 0.750000 0.250000 0.008877
O O10 0.825377 0.009580 0.036405
O O11 0.108238 0.879506 0.130918
O O12 0.000000 0.000000 0.056868
O O13 0.750000 0.250000 0.762796
O O14 0.672573 0.486040 0.718220
O O15 0.834411 0.510482 0.759283
O O16 0.500000 0.500000 0.206128
O O17 0.586740 0.256838 0.229283
O O18 0.951206 0.644364 0.828814
O O19 0.000000 0.500000 0.239425
#
# Coordination Sequence:
#
# PCOD8177185 Si02
#       8
#     8   8   8   8   8   8   8   8
#     4  11  24  39  61  98 135 173 224 281 339 396
#     4  11  21  37  63  91 131 174 223 271 340 409
#     4  10  20  37  62  93 125 173 217 264 333 399
#     4  10  22  45  72  92 127 175 229 275 341 413
#     4  12  26  42  67 100 136 180 230 284 349 418
#     4  11  24  47  71 100 133 179 232 290 345 415
#     4  11  22  38  61  90 136 175 220 281 336 404
#     4  12  26  42  64  97 139 181 227 281 345 407
#
# _framework density 9.8765429999999999
#
# number of rings (size 3 to 8) (size 9 to 14) (size 15 to 20)
#    0.000    1.000    3.750    4.125    3.500    3.500 
#    0.000    4.375    0.000    0.000    0.000    0.000 
#    0.000    0.000    0.000    0.000    0.000    0.000 
#
# Total GULP energy -396623.237484 kJ/mol
# GULP energy per Si atom -12394.476171 kJ/mol
# Density = 0.985406 g / cm^3
# Si number density = 9.876543 Si / 1000 Ang^3
#
#
#
# Elastic Constant Matrix: (Units=GPa)
#
#
# Indices 1 2 3 4 5 6 
#
# 1 176.0092 65.0726 66.0881 0.0000 0.0000 0.0000
# 2 65.0726 103.5400 43.2964 0.0000 0.0000 0.0000
# 3 66.0881 43.2964 151.9485 0.0000 0.0000 0.0000
# 4 0.0000 0.0000 0.0000 23.6545 0.0000 0.0000
# 5 0.0000 0.0000 0.0000 0.0000 27.0872 0.0000
# 6 0.0000 0.0000 0.0000 0.0000 0.0000 40.9778
#
#
#
# Elastic Compliance Matrix: (Units=1/GPa)
#
#
# Indices 1 2 3 4 5 6 
#
# 1 0.008076 -0.004095 -0.002346 0.000000 0.000000 0.000000
# 2 -0.004095 0.013041 -0.001935 0.000000 0.000000 0.000000
# 3 -0.002346 -0.001935 0.008153 0.000000 0.000000 0.000000
# 4 0.000000 0.000000 0.000000 0.042275 0.000000 0.000000
# 5 0.000000 0.000000 0.000000 0.000000 0.036918 0.000000
# 6 0.000000 0.000000 0.000000 0.000000 0.000000 0.024403
#
#
# Mechanical properties :
#
#
# Convention : Reuss Voigt Hill
#
# Bulk Modulus (GPa) = 79.88065 86.71243 83.29654
# Shear Modulus (GPa) = 32.51184 35.47994 33.99589
#
# Velocity S-wave (km/s) = 4.06139 4.24272 4.15305
# Velocity P-wave (km/s) = 7.90699 8.24587 8.07821
#
# Compressibility (1/GPa) = 0.01251868
#
# Stress axis : x y z
#
# Youngs Moduli (GPa) = 123.81989 76.68326 122.65703
#
# Poissons Ratio (x) = 0.31400 0.28774
# Poissons Ratio (y) = 0.50702 0.23732
# Poissons Ratio (z) = 0.29047 0.14837
#
# Static dielectric constant tensor:
#      x y z
#    x 4.472020 0.000000 0.000000 
#    y 0.000000 3.743630 0.000000 
#    z 0.000000 0.000000 3.695800 
# 
# 
# High freq. dielectric constant tensor:
#      x y z
#    x 1.803900 0.000000 0.000000 
#    y 0.000000 1.773010 0.000000 
#    z 0.000000 0.000000 1.772640 
# 
# From -- ./inp_files/18469.got.cif
#   From: 2010.03.12/outbox.ucp.g09.slc.cvg/sg37_10_cif.got.tgz:18469.got - 2010.05.04 21:13:06.
