data_PCOD8177760
_publ_section_title
;
Structure prediction by ZEFSAII (Michael W. Deem and Ramdas Pophale) SiO2 
 PCOD8177760
Probable space group: A M M 2
;
_chemical_formula_sum "Si O2"
_cell_formula_units_Z 64
_cell_length_a 14.469318
_cell_length_b 9.573789
_cell_length_c 23.753004
_cell_angle_alpha 90.000000
_cell_angle_beta 90.000000
_cell_angle_gamma 90.000000
_cell_volume 3290.413323
_symmetry_space_group_name_H-M "A M M 2"
_symmetry_group_IT_number 38
_symmetry_cell_setting 'orthorhombic'
loop_
_space_group_symop_operation_xyz
x,y,z
-x,-y,z
-x,y,z
x,-y,z
x,1/2+y,1/2+z
-x,1/2-y,1/2+z
-x,1/2+y,1/2+z
x,1/2-y,1/2+z
loop_
_atom_site_type_symbol
_atom_site_label
_atom_site_fract_x
_atom_site_fract_y
_atom_site_fract_z
Si Si1 0.400066 0.840047 0.709590
Si Si2 0.892231 0.839004 0.222118
Si Si3 0.599137 0.840257 0.953899
Si Si4 0.200111 0.152413 0.336954
Si Si5 0.233521 0.162576 0.027895
Si Si6 0.104681 0.839489 0.927456
Si Si7 0.225155 0.168400 0.641057
Si Si8 0.397082 0.262242 0.832037
O O1 0.500000 0.769953 0.694012
O O2 0.316897 0.774386 0.673347
O O3 0.383521 0.830473 0.776372
O O4 0.404237 0.000000 0.692584
O O5 0.838789 0.790426 0.278078
O O6 0.862746 0.734701 0.172431
O O7 0.000000 0.819381 0.233070
O O8 0.868622 0.000000 0.206333
O O9 0.500000 0.768836 0.969646
O O10 0.614720 0.833281 0.886999
O O11 0.595520 0.000000 0.970989
O O12 0.681983 0.775633 0.990294
O O13 0.170926 0.255702 0.386057
O O14 0.311428 0.131038 0.333585
O O15 0.157185 0.000000 0.349187
O O16 0.225851 0.268069 0.079216
O O17 0.247046 0.000000 0.046481
O O18 0.140513 0.176373 0.991208
O O19 0.000000 0.782786 0.924694
O O20 0.109881 0.000000 0.908453
O O21 0.217178 0.000000 0.639473
O O22 0.500000 0.334231 0.831675
#
# Coordination Sequence:
#
# PCOD8177760 Si02
#       8
#     8   8   8   8   8   8   8   8
#     4   9  18  33  55  84 118 154 189 231 286 343
#     4  10  22  41  62  84 114 153 192 232 288 351
#     4   9  17  31  55  85 114 148 193 239 280 335
#     4  11  22  37  60  90 125 155 183 227 288 351
#     4  10  21  38  58  81 114 153 196 240 290 343
#     4  10  22  40  62  87 113 148 196 243 287 341
#     4  11  23  38  59  86 116 149 196 247 288 335
#     4  10  18  32  57  88 120 151 187 230 282 341
#
# _framework density 19.450444999999998
#
# number of rings (size 3 to 8) (size 9 to 14) (size 15 to 20)
#    0.000    2.000    2.500    1.125    0.000    5.250 
#    0.000    1.250    0.000    1.125    0.000    0.000 
#    0.000    0.000    0.000    0.000    0.000    0.000 
#
# Total GULP energy -396548.780201 kJ/mol
# GULP energy per Si atom -12392.149381 kJ/mol
# Density = 1.940617 g / cm^3
# Si number density = 19.450445 Si / 1000 Ang^3
#
#
#
# Elastic Constant Matrix: (Units=GPa)
#
#
# Indices 1 2 3 4 5 6 
#
# 1 137.3450 35.4232 51.8889 0.0000 0.0000 0.0000
# 2 35.4232 65.3976 44.8529 0.0000 0.0000 0.0000
# 3 51.8889 44.8529 116.0548 0.0000 0.0000 0.0000
# 4 0.0000 0.0000 0.0000 28.0347 0.0000 0.0000
# 5 0.0000 0.0000 0.0000 0.0000 23.3638 0.0000
# 6 0.0000 0.0000 0.0000 0.0000 0.0000 18.4138
#
#
#
# Elastic Compliance Matrix: (Units=1/GPa)
#
#
# Indices 1 2 3 4 5 6 
#
# 1 0.009155 -0.002928 -0.002962 0.000000 0.000000 0.000000
# 2 -0.002928 0.021742 -0.007094 0.000000 0.000000 0.000000
# 3 -0.002962 -0.007094 0.012683 0.000000 0.000000 0.000000
# 4 0.000000 0.000000 0.000000 0.035670 0.000000 0.000000
# 5 0.000000 0.000000 0.000000 0.000000 0.042801 0.000000
# 6 0.000000 0.000000 0.000000 0.000000 0.000000 0.054307
#
#
# Mechanical properties :
#
#
# Convention : Reuss Voigt Hill
#
# Bulk Modulus (GPa) = 56.77613 64.79193 60.78403
# Shear Modulus (GPa) = 24.01584 26.40462 25.21023
#
# Velocity S-wave (km/s) = 3.51767 3.68847 3.60408
# Velocity P-wave (km/s) = 6.76404 7.17798 6.97408
#
# Compressibility (1/GPa) = 0.01761304
#
# Stress axis : x y z
#
# Youngs Moduli (GPa) = 109.23042 45.99349 78.84838
#
# Poissons Ratio (x) = 0.13465 0.23354
# Poissons Ratio (y) = 0.31977 0.55935
# Poissons Ratio (z) = 0.32352 0.32628
#
# Static dielectric constant tensor:
#      x y z
#    x 4.016620 0.000000 0.000000 
#    y 0.000000 3.186240 0.000000 
#    z 0.000000 0.000000 3.412690 
# 
# 
# High freq. dielectric constant tensor:
#      x y z
#    x 1.777220 0.000000 0.000000 
#    y 0.000000 1.725440 0.000000 
#    z 0.000000 0.000000 1.750590 
# 
# From -- ./inp_files/22870.got.cif
#   From: 2010.03.12/outbox.cif.g09.slc.cpg/sg38_12_cif.got.tgz:22870.got - 2010.04.14 02:38:36.
