data_PCOD8177869
_publ_section_title
;
Structure prediction by ZEFSAII (Michael W. Deem and Ramdas Pophale) SiO2 
 PCOD8177869
Probable space group: A M M 2
;
_chemical_formula_sum "Si O2"
_cell_formula_units_Z 48
_cell_length_a 9.037890
_cell_length_b 15.129877
_cell_length_c 24.396284
_cell_angle_alpha 90.000000
_cell_angle_beta 90.000000
_cell_angle_gamma 90.000000
_cell_volume 3336.000669
_symmetry_space_group_name_H-M "A M M 2"
_symmetry_group_IT_number 38
_symmetry_cell_setting 'orthorhombic'
loop_
_space_group_symop_operation_xyz
x,y,z
-x,-y,z
-x,y,z
x,-y,z
x,1/2+y,1/2+z
-x,1/2-y,1/2+z
-x,1/2+y,1/2+z
x,1/2-y,1/2+z
loop_
_atom_site_type_symbol
_atom_site_label
_atom_site_fract_x
_atom_site_fract_y
_atom_site_fract_z
Si Si1 0.165829 0.597186 0.883650
Si Si2 0.674342 0.734039 0.395538
Si Si3 0.171131 0.895811 0.817409
Si Si4 0.667205 0.605086 0.208598
Si Si5 0.174794 0.101498 0.600043
Si Si6 0.165324 0.189443 0.489704
O O1 0.227912 0.500000 0.867385
O O2 0.271784 0.676942 0.862643
O O3 0.000000 0.609785 0.859424
O O4 0.158292 0.603320 0.950104
O O5 0.500000 0.725777 0.392764
O O6 0.747249 0.648520 0.368542
O O7 0.728982 0.738570 0.459310
O O8 0.243418 0.860132 0.761220
O O9 0.000000 0.868873 0.817307
O O10 0.193082 0.000000 0.823741
O O11 0.500000 0.641216 0.211484
O O12 0.670867 0.500000 0.208026
O O13 0.744955 0.640976 0.153574
O O14 0.229405 0.159674 0.548391
O O15 0.000000 0.109161 0.608530
O O16 0.221236 0.000000 0.590200
O O17 0.000000 0.229518 0.496561
#
# Coordination Sequence:
#
# PCOD8177869 Si02
#       6
#     8   8   8   8   8   8
#     4   8  14  26  41  56  79 112 144 170 199 239
#     4  10  19  28  40  61  86 110 139 177 219 259
#     4  10  19  32  48  61  77 108 148 184 216 254
#     4   9  17  27  39  58  83 108 136 172 213 253
#     4   9  15  24  39  58  81 112 146 173 199 240
#     4   8  15  26  39  56  81 113 146 172 199 238
#
# _framework density 14.388486
#
# number of rings (size 3 to 8) (size 9 to 14) (size 15 to 20)
#    1.000    2.000    0.000    2.500    0.000    6.000 
#    0.000    0.000    0.000    0.000    0.000    0.000 
#    0.000    1.333    0.000   11.667    0.000    6.667 
#
# Total GULP energy -297316.972218 kJ/mol
# GULP energy per Si atom -12388.207176 kJ/mol
# Density = 1.435574 g / cm^3
# Si number density = 14.388486 Si / 1000 Ang^3
#
#
#
# Elastic Constant Matrix: (Units=GPa)
#
#
# Indices 1 2 3 4 5 6 
#
# 1 101.8152 32.7093 51.7232 0.0000 0.0000 0.0000
# 2 32.7093 33.9258 31.6342 0.0000 0.0000 0.0000
# 3 51.7232 31.6342 91.8988 0.0000 0.0000 0.0000
# 4 0.0000 0.0000 0.0000 21.7532 0.0000 0.0000
# 5 0.0000 0.0000 0.0000 0.0000 18.1452 0.0000
# 6 0.0000 0.0000 0.0000 0.0000 0.0000 17.1303
#
#
#
# Elastic Compliance Matrix: (Units=1/GPa)
#
#
# Indices 1 2 3 4 5 6 
#
# 1 0.015858 -0.010260 -0.005393 0.000000 0.000000 0.000000
# 2 -0.010260 0.050048 -0.011453 0.000000 0.000000 0.000000
# 3 -0.005393 -0.011453 0.017860 0.000000 0.000000 0.000000
# 4 0.000000 0.000000 0.000000 0.045970 0.000000 0.000000
# 5 0.000000 0.000000 0.000000 0.000000 0.055111 0.000000
# 6 0.000000 0.000000 0.000000 0.000000 0.000000 0.058376
#
#
# Mechanical properties :
#
#
# Convention : Reuss Voigt Hill
#
# Bulk Modulus (GPa) = 33.83884 51.08590 42.46237
# Shear Modulus (GPa) = 16.27145 18.84395 17.55770
#
# Velocity S-wave (km/s) = 3.36648 3.62284 3.49701
# Velocity P-wave (km/s) = 6.21933 7.28572 6.77354
#
# Compressibility (1/GPa) = 0.02955184
#
# Stress axis : x y z
#
# Youngs Moduli (GPa) = 63.06044 19.98088 55.99224
#
# Poissons Ratio (x) = 0.20501 0.30199
# Poissons Ratio (y) = 0.64701 0.64129
# Poissons Ratio (z) = 0.34011 0.22885
#
# Static dielectric constant tensor:
#      x y z
#    x 2.816940 0.000000 0.000000 
#    y 0.000000 2.459890 0.000000 
#    z 0.000000 0.000000 2.720430 
# 
# 
# High freq. dielectric constant tensor:
#      x y z
#    x 1.555680 0.000000 0.000000 
#    y 0.000000 1.503780 0.000000 
#    z 0.000000 0.000000 1.531040 
# 
# From -- ./inp_files/19913.got.cif
#   From: 2010.03.12/outbox.cif.g09.slc.cpg/sg38_10_cif.got.tgz:19913.got - 2010.04.14 02:38:36.
