data_PCOD8177549
_publ_section_title
;
Structure prediction by ZEFSAII (Michael W. Deem and Ramdas Pophale) SiO2 
 PCOD8177549
Probable space group: A M M 2
;
_chemical_formula_sum "Si O2"
_cell_formula_units_Z 52
_cell_length_a 9.334548
_cell_length_b 12.130772
_cell_length_c 25.180277
_cell_angle_alpha 90.000000
_cell_angle_beta 90.000000
_cell_angle_gamma 90.000000
_cell_volume 2851.295553
_symmetry_space_group_name_H-M "A M M 2"
_symmetry_group_IT_number 38
_symmetry_cell_setting 'orthorhombic'
loop_
_space_group_symop_operation_xyz
x,y,z
-x,-y,z
-x,y,z
x,-y,z
x,1/2+y,1/2+z
-x,1/2-y,1/2+z
-x,1/2+y,1/2+z
x,1/2-y,1/2+z
loop_
_atom_site_type_symbol
_atom_site_label
_atom_site_fract_x
_atom_site_fract_y
_atom_site_fract_z
Si Si1 0.838873 0.738999 0.563160
Si Si2 0.662211 0.000000 0.171486
Si Si3 0.832044 0.806354 0.887818
Si Si4 0.658405 0.000000 0.938877
Si Si5 0.169242 0.876451 0.772862
Si Si6 0.830367 0.122711 0.466545
Si Si7 0.259185 0.000000 0.053156
Si Si8 0.828264 0.218374 0.179934
O O1 0.761607 0.811386 0.517109
O O2 0.838415 0.609012 0.550383
O O3 0.774759 0.760878 0.621987
O O4 0.000000 0.780672 0.564289
O O5 0.651185 0.000000 0.107506
O O6 0.748884 0.895239 0.193616
O O7 0.500000 0.000000 0.193807
O O8 0.784563 0.812406 0.826375
O O9 0.794085 0.686235 0.911655
O O10 0.000000 0.833816 0.894228
O O11 0.745029 0.893521 0.921664
O O12 0.500000 0.000000 0.913243
O O13 0.637333 0.000000 0.002444
O O14 0.225045 0.808494 0.722333
O O15 0.000000 0.885479 0.769903
O O16 0.235546 0.000000 0.772608
O O17 0.000000 0.116284 0.472985
O O18 0.763614 0.000000 0.463842
O O19 0.000000 0.198715 0.181196
#
# Coordination Sequence:
#
# PCOD8177549 Si02
#       8
#     8   4   8   4   8   8   4   8
#     4   9  16  26  46  74 103 131 164 208 255 301
#     4  10  20  35  52  73 104 141 173 206 252 309
#     4  10  19  34  54  75 102 136 169 205 253 312
#     4  12  22  31  50  81 106 129 165 216 264 299
#     4   9  17  31  53  78 101 128 167 212 256 302
#     4   9  17  28  45  74 105 132 165 204 247 300
#     4  10  18  30  48  72  99 136 171 210 255 302
#     4   9  18  32  51  77 103 131 169 213 256 298
#
# _framework density 18.237324000000001
#
# number of rings (size 3 to 8) (size 9 to 14) (size 15 to 20)
#    0.000    2.462    2.308    0.923    0.000    3.077 
#    1.385    3.846    0.000    0.462    0.000    0.000 
#    0.000    0.000    0.000    0.000    0.000    0.000 
#
# Total GULP energy -322206.648995 kJ/mol
# GULP energy per Si atom -12392.563423 kJ/mol
# Density = 1.819581 g / cm^3
# Si number density = 18.237324 Si / 1000 Ang^3
#
#
#
# Elastic Constant Matrix: (Units=GPa)
#
#
# Indices 1 2 3 4 5 6 
#
# 1 38.5101 19.2225 16.2161 0.0000 0.0000 0.0000
# 2 19.2225 160.5307 91.0732 0.0000 0.0000 0.0000
# 3 16.2161 91.0732 145.9745 0.0000 0.0000 0.0000
# 4 0.0000 0.0000 0.0000 29.9895 0.0000 0.0000
# 5 0.0000 0.0000 0.0000 0.0000 9.1812 0.0000
# 6 0.0000 0.0000 0.0000 0.0000 0.0000 1.0187
#
#
#
# Elastic Compliance Matrix: (Units=1/GPa)
#
#
# Indices 1 2 3 4 5 6 
#
# 1 0.027848 -0.002445 -0.001568 0.000000 0.000000 0.000000
# 2 -0.002445 0.009857 -0.005878 0.000000 0.000000 0.000000
# 3 -0.001568 -0.005878 0.010692 0.000000 0.000000 0.000000
# 4 0.000000 0.000000 0.000000 0.033345 0.000000 0.000000
# 5 0.000000 0.000000 0.000000 0.000000 0.108919 0.000000
# 6 0.000000 0.000000 0.000000 0.000000 0.000000 0.981598
#
#
# Mechanical properties :
#
#
# Convention : Reuss Voigt Hill
#
# Bulk Modulus (GPa) = 34.94739 66.44877 50.69808
# Shear Modulus (GPa) = 4.16119 22.60478 13.38298
#
# Velocity S-wave (km/s) = 1.51216 3.52444 2.71186
# Velocity P-wave (km/s) = 4.71731 7.28539 6.13718
#
# Compressibility (1/GPa) = 0.02861444
#
# Stress axis : x y z
#
# Youngs Moduli (GPa) = 35.90931 101.45172 93.52734
#
# Poissons Ratio (x) = 0.24804 0.14667
# Poissons Ratio (y) = 0.08780 0.54976
# Poissons Ratio (z) = 0.05631 0.59634
#
# Static dielectric constant tensor:
#      x y z
#    x 2.799960 0.000000 0.000000 
#    y 0.000000 3.740640 0.000000 
#    z 0.000000 0.000000 3.606970 
# 
# 
# High freq. dielectric constant tensor:
#      x y z
#    x 1.648090 0.000000 0.000000 
#    y 0.000000 1.705070 0.000000 
#    z 0.000000 0.000000 1.713790 
# 
# From -- ./inp_files/23432.got.cif
#   From: 2010.03.12/outbox.cif.g09.slc.cpg/sg38_12_cif.got.tgz:23432.got - 2010.04.14 02:38:36.
