data_PCOD8177738
_publ_section_title
;
Structure prediction by ZEFSAII (Michael W. Deem and Ramdas Pophale) SiO2 
 PCOD8177738
Probable space group: A M M 2
;
_chemical_formula_sum "Si O2"
_cell_formula_units_Z 64
_cell_length_a 15.563798
_cell_length_b 9.073172
_cell_length_c 24.076686
_cell_angle_alpha 90.000000
_cell_angle_beta 90.000000
_cell_angle_gamma 90.000000
_cell_volume 3399.941451
_symmetry_space_group_name_H-M "A M M 2"
_symmetry_group_IT_number 38
_symmetry_cell_setting 'orthorhombic'
loop_
_space_group_symop_operation_xyz
x,y,z
-x,-y,z
-x,y,z
x,-y,z
x,1/2+y,1/2+z
-x,1/2-y,1/2+z
-x,1/2+y,1/2+z
x,1/2-y,1/2+z
loop_
_atom_site_type_symbol
_atom_site_label
_atom_site_fract_x
_atom_site_fract_y
_atom_site_fract_z
Si Si1 0.153783 0.674075 0.926180
Si Si2 0.597925 0.670300 0.549919
Si Si3 0.094455 0.325107 0.045582
Si Si4 0.903796 0.330192 0.317962
Si Si5 0.667649 0.330041 0.430104
Si Si6 0.253960 0.175570 0.616184
Si Si7 0.406345 0.173518 0.813096
Si Si8 0.249396 0.675521 0.241565
O O1 0.150461 0.500000 0.920284
O O2 0.102898 0.742478 0.875039
O O3 0.251390 0.724511 0.927915
O O4 0.108505 0.728482 0.982631
O O5 0.500000 0.713149 0.564141
O O6 0.615988 0.500000 0.563238
O O7 0.613252 0.702933 0.485080
O O8 0.659717 0.768014 0.587574
O O9 0.098753 0.500000 0.048169
O O10 0.169583 0.260661 0.084866
O O11 0.000000 0.270008 0.065528
O O12 0.882702 0.500000 0.331034
O O13 0.836779 0.268449 0.272458
O O14 0.000000 0.311171 0.293866
O O15 0.698188 0.500000 0.427431
O O16 0.609230 0.289552 0.377497
O O17 0.250056 0.236100 0.678961
O O18 0.255808 0.000000 0.614280
O O19 0.500000 0.238703 0.796469
O O20 0.332045 0.241730 0.774012
O O21 0.406676 0.000000 0.803956
O O22 0.251275 0.500000 0.241257
#
# Coordination Sequence:
#
# PCOD8177738 Si02
#       8
#     8   8   8   8   8   8   8   8
#     4  11  20  32  53  79 108 140 174 212 266 322
#     4  10  21  36  55  80 109 141 176 217 270 326
#     4   9  18  32  50  74 105 138 172 212 261 314
#     4  10  20  35  55  80 108 138 174 218 266 314
#     4  10  18  32  55  78 103 135 175 217 262 315
#     4  10  20  35  55  78 105 140 183 224 262 309
#     4   9  16  28  50  77 102 128 163 211 261 306
#     4   9  18  32  51  78 106 133 173 221 260 301
#
# _framework density 18.823854000000001
#
# number of rings (size 3 to 8) (size 9 to 14) (size 15 to 20)
#    0.000    2.250    2.500    1.125    0.000    3.500 
#    0.000    4.375    0.000    2.250    0.000    0.000 
#    0.000    0.000    0.000    0.000    0.000    0.000 
#
# Total GULP energy -396749.518610 kJ/mol
# GULP energy per Si atom -12398.422457 kJ/mol
# Density = 1.878101 g / cm^3
# Si number density = 18.823854 Si / 1000 Ang^3
#
#
#
# Elastic Constant Matrix: (Units=GPa)
#
#
# Indices 1 2 3 4 5 6 
#
# 1 168.7624 22.4966 80.1088 0.0000 0.0000 0.0000
# 2 22.4966 25.9832 26.2305 0.0000 0.0000 0.0000
# 3 80.1088 26.2305 158.0753 0.0000 0.0000 0.0000
# 4 0.0000 0.0000 0.0000 20.6943 0.0000 0.0000
# 5 0.0000 0.0000 0.0000 0.0000 16.9352 0.0000
# 6 0.0000 0.0000 0.0000 0.0000 0.0000 21.2932
#
#
#
# Elastic Compliance Matrix: (Units=1/GPa)
#
#
# Indices 1 2 3 4 5 6 
#
# 1 0.008048 -0.003424 -0.003510 0.000000 0.000000 0.000000
# 2 -0.003424 0.047688 -0.006178 0.000000 0.000000 0.000000
# 3 -0.003510 -0.006178 0.009130 0.000000 0.000000 0.000000
# 4 0.000000 0.000000 0.000000 0.048322 0.000000 0.000000
# 5 0.000000 0.000000 0.000000 0.000000 0.059048 0.000000
# 6 0.000000 0.000000 0.000000 0.000000 0.000000 0.046963
#
#
# Mechanical properties :
#
#
# Convention : Reuss Voigt Hill
#
# Bulk Modulus (GPa) = 25.87919 67.83253 46.85586
# Shear Modulus (GPa) = 19.35686 26.71689 23.03687
#
# Velocity S-wave (km/s) = 3.21021 3.77146 3.50210
# Velocity P-wave (km/s) = 5.24581 7.42151 6.42641
#
# Compressibility (1/GPa) = 0.03864109
#
# Stress axis : x y z
#
# Youngs Moduli (GPa) = 124.24910 20.96970 109.52634
#
# Poissons Ratio (x) = 0.07181 0.38449
# Poissons Ratio (y) = 0.42549 0.67662
# Poissons Ratio (z) = 0.43617 0.12954
#
# Static dielectric constant tensor:
#      x y z
#    x 3.724300 0.000000 0.000000 
#    y 0.000000 3.020950 0.000000 
#    z 0.000000 0.000000 3.635740 
# 
# 
# High freq. dielectric constant tensor:
#      x y z
#    x 1.748580 0.000000 0.000000 
#    y 0.000000 1.681330 0.000000 
#    z 0.000000 0.000000 1.732580 
# 
# From -- ./inp_files/22880.got.cif
#   From: 2010.03.12/outbox.cif.g09.slc.cpg/sg38_12_cif.got.tgz:22880.got - 2010.04.14 02:38:36.
