data_PCOD8177539
_publ_section_title
;
Structure prediction by ZEFSAII (Michael W. Deem and Ramdas Pophale) SiO2 
 PCOD8177539
Probable space group: A M M 2
;
_chemical_formula_sum "Si O2"
_cell_formula_units_Z 64
_cell_length_a 14.371164
_cell_length_b 8.909539
_cell_length_c 31.141268
_cell_angle_alpha 90.000000
_cell_angle_beta 90.000000
_cell_angle_gamma 90.000000
_cell_volume 3987.341848
_symmetry_space_group_name_H-M "A M M 2"
_symmetry_group_IT_number 38
_symmetry_cell_setting 'orthorhombic'
loop_
_space_group_symop_operation_xyz
x,y,z
-x,-y,z
-x,y,z
x,-y,z
x,1/2+y,1/2+z
-x,1/2-y,1/2+z
-x,1/2+y,1/2+z
x,1/2-y,1/2+z
loop_
_atom_site_type_symbol
_atom_site_label
_atom_site_fract_x
_atom_site_fract_y
_atom_site_fract_z
Si Si1 0.898723 0.177936 0.778240
Si Si2 0.100907 0.177825 0.681917
Si Si3 0.390115 0.327083 0.731118
Si Si4 0.610556 0.830983 0.978027
Si Si5 0.392211 0.323704 0.891816
Si Si6 0.607006 0.824496 0.563532
Si Si7 0.294195 0.321891 0.311678
Si Si8 0.295521 0.322213 0.150494
O O1 0.883077 0.240773 0.730050
O O2 0.813686 0.231945 0.808067
O O3 0.000000 0.233705 0.795816
O O4 0.898017 0.000000 0.776097
O O5 0.187157 0.229484 0.652374
O O6 0.000000 0.236021 0.664310
O O7 0.098754 0.000000 0.683739
O O8 0.500000 0.309498 0.731830
O O9 0.359899 0.500000 0.735742
O O10 0.350133 0.233348 0.770515
O O11 0.353655 0.261835 0.686576
O O12 0.500000 0.825064 0.979351
O O13 0.646250 0.737458 0.937122
O O14 0.648110 0.000000 0.974132
O O15 0.648890 0.758788 0.021932
O O16 0.500000 0.280444 0.885292
O O17 0.377187 0.500000 0.890517
O O18 0.333516 0.248859 0.854570
O O19 0.500000 0.779998 0.572024
O O20 0.666378 0.771873 0.604374
O O21 0.616902 0.000000 0.554914
O O22 0.303478 0.500000 0.314184
O O23 0.307313 0.500000 0.157688
#
# Coordination Sequence:
#
# PCOD8177539 Si02
#       8
#     8   8   8   8   8   8   8   8
#     4   8  14  26  45  68  91 115 148 192 235 270
#     4   8  13  24  44  68  91 115 149 194 236 270
#     4  11  23  34  42  58  91 130 160 188 227 270
#     4   9  17  30  48  68  89 116 153 192 227 269
#     4  10  20  33  48  67  95 126 152 185 232 277
#     4   9  17  28  43  65  93 121 149 186 231 274
#     4  11  20  31  49  70  90 119 158 193 225 269
#     4  10  18  30  48  69  90 120 160 194 226 270
#
# _framework density 16.050792999999999
#
# number of rings (size 3 to 8) (size 9 to 14) (size 15 to 20)
#    0.000    2.500    1.250    3.000    0.000    5.750 
#    0.000    1.250    0.000    2.625    0.000    0.875 
#    0.000    3.000    0.000    0.000    0.000    0.000 
#
# Total GULP energy -396654.903363 kJ/mol
# GULP energy per Si atom -12395.465730 kJ/mol
# Density = 1.601426 g / cm^3
# Si number density = 16.050793 Si / 1000 Ang^3
#
#
#
# Elastic Constant Matrix: (Units=GPa)
#
#
# Indices 1 2 3 4 5 6 
#
# 1 101.7862 37.5372 69.0118 0.0000 0.0000 0.0000
# 2 37.5372 48.4740 45.3952 0.0000 0.0000 0.0000
# 3 69.0118 45.3952 137.9842 0.0000 0.0000 0.0000
# 4 0.0000 0.0000 0.0000 27.0342 0.0000 0.0000
# 5 0.0000 0.0000 0.0000 0.0000 -6.0378 0.0000
# 6 0.0000 0.0000 0.0000 0.0000 0.0000 9.7973
#
#
#
# Elastic Compliance Matrix: (Units=1/GPa)
#
#
# Indices 1 2 3 4 5 6 
#
# 1 0.016472 -0.007285 -0.005842 0.000000 0.000000 0.000000
# 2 -0.007285 0.033037 -0.007225 0.000000 0.000000 0.000000
# 3 -0.005842 -0.007225 0.012546 0.000000 0.000000 0.000000
# 4 0.000000 0.000000 0.000000 0.036990 0.000000 0.000000
# 5 0.000000 0.000000 0.000000 0.000000 -0.165623 0.000000
# 6 0.000000 0.000000 0.000000 0.000000 0.000000 0.102069
#
#
# Mechanical properties :
#
#
# Convention : Reuss Voigt Hill
#
# Bulk Modulus (GPa) = 46.83558 65.79254 56.31406
# Shear Modulus (GPa) = 60.01559 15.24542 37.63050
#
# Velocity S-wave (km/s) = 6.12146 3.08526 4.84722
# Velocity P-wave (km/s) = 8.89977 7.33287 8.15405
#
# Compressibility (1/GPa) = 0.02135129
#
# Stress axis : x y z
#
# Youngs Moduli (GPa) = 60.71029 30.26883 79.70708
#
# Poissons Ratio (x) = 0.22050 0.46562
# Poissons Ratio (y) = 0.44226 0.57592
# Poissons Ratio (z) = 0.35465 0.21871
#
# Static dielectric constant tensor:
#      x y z
#    x 3.311060 0.000000 0.000000 
#    y 0.000000 2.962680 0.000000 
#    z 0.000000 0.000000 3.120700 
# 
# 
# High freq. dielectric constant tensor:
#      x y z
#    x 1.602680 0.000000 0.000000 
#    y 0.000000 1.604990 0.000000 
#    z 0.000000 0.000000 1.607360 
# 
# From -- ./inp_files/25026.got.cif
#   From: 2010.03.12/outbox.cif.g09.slc.cpg/sg38_13_cif.got.tgz:25026.got - 2010.04.14 02:38:36.
