data_PCOD8177905
_publ_section_title
;
Structure prediction by ZEFSAII (Michael W. Deem and Ramdas Pophale) SiO2 
 PCOD8177905
Probable space group: A M M 2
;
_chemical_formula_sum "Si O2"
_cell_formula_units_Z 56
_cell_length_a 9.183218
_cell_length_b 13.675606
_cell_length_c 28.681377
_cell_angle_alpha 90.000000
_cell_angle_beta 90.000000
_cell_angle_gamma 90.000000
_cell_volume 3601.981453
_symmetry_space_group_name_H-M "A M M 2"
_symmetry_group_IT_number 38
_symmetry_cell_setting 'orthorhombic'
loop_
_space_group_symop_operation_xyz
x,y,z
-x,-y,z
-x,y,z
x,-y,z
x,1/2+y,1/2+z
-x,1/2-y,1/2+z
-x,1/2+y,1/2+z
x,1/2-y,1/2+z
loop_
_atom_site_type_symbol
_atom_site_label
_atom_site_fract_x
_atom_site_fract_y
_atom_site_fract_z
Si Si1 0.830994 0.889005 0.743250
Si Si2 0.164327 0.383767 0.516746
Si Si3 0.330901 0.887309 0.107173
Si Si4 0.329273 0.886738 0.925391
Si Si5 0.833513 0.704937 0.341170
Si Si6 0.167217 0.110248 0.284305
Si Si7 0.671394 0.212679 0.203065
O O1 0.799365 0.863271 0.796923
O O2 0.738025 0.820405 0.709269
O O3 0.000000 0.872135 0.731967
O O4 0.782884 0.000000 0.734008
O O5 0.168369 0.500000 0.517313
O O6 0.240793 0.344593 0.563586
O O7 0.251132 0.345797 0.471637
O O8 0.000000 0.343503 0.514688
O O9 0.500000 0.876395 0.094870
O O10 0.286469 0.824316 0.151897
O O11 0.291423 0.000000 0.117409
O O12 0.500000 0.871598 0.931782
O O13 0.274929 0.823600 0.882064
O O14 0.289615 0.000000 0.916606
O O15 0.801501 0.817678 0.327609
O O16 0.000000 0.690270 0.357756
O O17 0.265868 0.136352 0.240272
O O18 0.000000 0.123127 0.268346
O O19 0.201232 0.000000 0.300686
O O20 0.500000 0.217749 0.210419
#
# Coordination Sequence:
#
# PCOD8177905 Si02
#       7
#     8   8   8   8   8   8   8
#     4   9  18  32  47  63  87 119 152 186 221 256
#     4   9  17  28  43  63  85 111 144 179 213 252
#     4   9  17  29  43  61  89 120 145 173 213 259
#     4  10  19  29  42  62  89 118 144 173 213 260
#     4   9  17  29  45  64  85 112 147 182 216 254
#     4   9  18  32  47  63  87 119 152 185 219 256
#     4  10  19  29  44  67  92 118 148 181 220 263
#
# _framework density 15.546999
#
# number of rings (size 3 to 8) (size 9 to 14) (size 15 to 20)
#    0.000    2.714    0.000    3.000    0.000    7.714 
#    0.000    1.429    0.000    0.000    0.000    1.000 
#    0.000    5.714    0.000    0.000    0.000    0.000 
#
# Total GULP energy -347217.880665 kJ/mol
# GULP energy per Si atom -12400.638595 kJ/mol
# Density = 1.551161 g / cm^3
# Si number density = 15.546999 Si / 1000 Ang^3
#
#
#
# Elastic Constant Matrix: (Units=GPa)
#
#
# Indices 1 2 3 4 5 6 
#
# 1 86.2694 43.0451 68.6135 0.0000 0.0000 0.0000
# 2 43.0451 94.6360 53.6545 0.0000 0.0000 0.0000
# 3 68.6135 53.6545 119.8899 0.0000 0.0000 0.0000
# 4 0.0000 0.0000 0.0000 20.6660 0.0000 0.0000
# 5 0.0000 0.0000 0.0000 0.0000 31.9098 0.0000
# 6 0.0000 0.0000 0.0000 0.0000 0.0000 20.7934
#
#
#
# Elastic Compliance Matrix: (Units=1/GPa)
#
#
# Indices 1 2 3 4 5 6 
#
# 1 0.022299 -0.003896 -0.011018 0.000000 0.000000 0.000000
# 2 -0.003896 0.014840 -0.004412 0.000000 0.000000 0.000000
# 3 -0.011018 -0.004412 0.016621 0.000000 0.000000 0.000000
# 4 0.000000 0.000000 0.000000 0.048389 0.000000 0.000000
# 5 0.000000 0.000000 0.000000 0.000000 0.031338 0.000000
# 6 0.000000 0.000000 0.000000 0.000000 0.000000 0.048092
#
#
# Mechanical properties :
#
#
# Convention : Reuss Voigt Hill
#
# Bulk Modulus (GPa) = 66.18822 70.15793 68.17308
# Shear Modulus (GPa) = 22.19592 23.70598 22.95095
#
# Velocity S-wave (km/s) = 3.78255 3.90910 3.84634
# Velocity P-wave (km/s) = 7.85763 8.09932 7.97939
#
# Compressibility (1/GPa) = 0.01510843
#
# Stress axis : x y z
#
# Youngs Moduli (GPa) = 44.84597 67.38498 60.16422
#
# Poissons Ratio (x) = 0.26251 0.66290
# Poissons Ratio (y) = 0.17471 0.26544
# Poissons Ratio (z) = 0.49412 0.29730
#
# Static dielectric constant tensor:
#      x y z
#    x 3.018400 0.000000 0.000000 
#    y 0.000000 2.909020 0.000000 
#    z 0.000000 0.000000 2.908670 
# 
# 
# High freq. dielectric constant tensor:
#      x y z
#    x 1.605080 0.000000 0.000000 
#    y 0.000000 1.569140 0.000000 
#    z 0.000000 0.000000 1.588400 
# 
# From -- ./inp_files/24628.got.cif
#   From: 2010.03.12/outbox.cif.g09.slc.cpg/sg38_13_cif.got.tgz:24628.got - 2010.04.14 02:38:36.
