data_PCOD8177156
_publ_section_title
;
Structure prediction by ZEFSAII (Michael W. Deem and Ramdas Pophale) SiO2 
 PCOD8177156
Probable space group: C C C 2
;
_chemical_formula_sum "Si O2"
_cell_formula_units_Z 48
_cell_length_a 4.921022
_cell_length_b 26.114515
_cell_length_c 17.146510
_cell_angle_alpha 90.000000
_cell_angle_beta 90.000000
_cell_angle_gamma 90.000000
_cell_volume 2203.499763
_symmetry_space_group_name_H-M "C C C 2"
_symmetry_group_IT_number 37
_symmetry_cell_setting 'orthorhombic'
loop_
_space_group_symop_operation_xyz
x,y,z
-x,-y,z
-x,y,1/2+z
x,-y,1/2+z
1/2+x,1/2+y,z
1/2-x,1/2-y,z
1/2-x,1/2+y,1/2+z
1/2+x,1/2-y,1/2+z
loop_
_atom_site_type_symbol
_atom_site_label
_atom_site_fract_x
_atom_site_fract_y
_atom_site_fract_z
Si Si1 0.554871 0.395876 0.270760
Si Si2 0.750000 0.750000 0.663807
Si Si3 0.605239 0.893378 0.012663
Si Si4 0.435462 0.851646 0.850714
Si Si5 0.500000 0.500000 0.337159
Si Si6 0.878740 0.858428 0.602406
Si Si7 0.000000 0.500000 0.440459
Si Si8 0.750000 0.750000 0.278813
O O1 0.277754 0.392505 0.319119
O O2 0.629511 0.455514 0.282552
O O3 0.498574 0.380826 0.182010
O O4 0.785123 0.357884 0.303120
O O5 0.782925 0.799274 0.607786
O O6 0.497578 0.747321 0.720475
O O7 0.393378 0.889706 0.083304
O O8 0.895280 0.869160 0.036352
O O9 0.493822 0.859197 0.941574
O O10 0.625134 0.953243 0.990817
O O11 0.294502 0.797099 0.836735
O O12 0.251601 0.479087 0.389806
#
# Coordination Sequence:
#
# PCOD8177156 Si02
#       8
#     8   4   8   8   4   8   4   4
#     4  12  23  43  71 104 136 184 243 290 344 429
#     4  12  24  45  74  99 136 194 228 290 378 415
#     4  12  26  44  69 104 151 182 233 300 363 431
#     4  12  23  44  71 106 135 184 244 288 346 428
#     4  12  22  42  74 104 134 188 246 298 346 426
#     4  12  26  45  69 106 145 185 230 301 363 429
#     4  12  24  44  72 100 140 198 232 286 382 422
#     4  12  22  43  76 103 134 184 244 296 342 427
#
# _framework density 21.783528
#
# number of rings (size 3 to 8) (size 9 to 14) (size 15 to 20)
#    0.000    0.000    6.667    4.000    0.000    2.000 
#    0.000    1.667    0.000    0.000    0.000    0.000 
#    0.000    0.000    0.000    0.000    0.000    0.000 
#
# Total GULP energy -297587.086281 kJ/mol
# GULP energy per Si atom -12399.461928 kJ/mol
# Density = 2.173395 g / cm^3
# Si number density = 21.783528 Si / 1000 Ang^3
#
#
#
# Elastic Constant Matrix: (Units=GPa)
#
#
# Indices 1 2 3 4 5 6 
#
# 1 182.5620 91.6356 18.6490 0.0000 0.0000 0.0000
# 2 91.6356 224.5620 45.3880 0.0000 0.0000 0.0000
# 3 18.6490 45.3880 89.4974 0.0000 0.0000 0.0000
# 4 0.0000 0.0000 0.0000 48.4704 0.0000 0.0000
# 5 0.0000 0.0000 0.0000 0.0000 42.8837 0.0000
# 6 0.0000 0.0000 0.0000 0.0000 0.0000 47.7290
#
#
#
# Elastic Compliance Matrix: (Units=1/GPa)
#
#
# Indices 1 2 3 4 5 6 
#
# 1 0.006889 -0.002809 -0.000011 0.000000 0.000000 0.000000
# 2 -0.002809 0.006107 -0.002512 0.000000 0.000000 0.000000
# 3 -0.000011 -0.002512 0.012450 0.000000 0.000000 0.000000
# 4 0.000000 0.000000 0.000000 0.020631 0.000000 0.000000
# 5 0.000000 0.000000 0.000000 0.000000 0.023319 0.000000
# 6 0.000000 0.000000 0.000000 0.000000 0.000000 0.020952
#
#
# Mechanical properties :
#
#
# Convention : Reuss Voigt Hill
#
# Bulk Modulus (GPa) = 67.64952 89.77405 78.71178
# Shear Modulus (GPa) = 47.19776 50.54653 48.87215
#
# Velocity S-wave (km/s) = 4.65980 4.82228 4.74174
# Velocity P-wave (km/s) = 7.75077 8.50337 8.13577
#
# Compressibility (1/GPa) = 0.01478207
#
# Stress axis : x y z
#
# Youngs Moduli (GPa) = 145.16863 163.74793 80.32354
#
# Poissons Ratio (x) = 0.45993 0.00088
# Poissons Ratio (y) = 0.40774 0.20176
# Poissons Ratio (z) = 0.00159 0.41131
#
# Static dielectric constant tensor:
#      x y z
#    x 4.027110 0.000000 0.000000 
#    y 0.000000 4.029740 0.000000 
#    z 0.000000 0.000000 3.572440 
# 
# 
# High freq. dielectric constant tensor:
#      x y z
#    x 1.876820 0.000000 0.000000 
#    y 0.000000 1.864610 0.000000 
#    z 0.000000 0.000000 1.848210 
# 
# From -- ./inp_files/9819.got.cif
#   From: 2010.03.12/outbox.cif.g09.slc.cpg/sg37_5_cif.got.tgz:9819.got - 2010.04.14 02:25:27.
