data_PCOD8177764
_publ_section_title
;
Structure prediction by ZEFSAII (Michael W. Deem and Ramdas Pophale) SiO2 
 PCOD8177764
Probable space group: A M M 2
;
_chemical_formula_sum "Si O2"
_cell_formula_units_Z 64
_cell_length_a 15.363779
_cell_length_b 8.968117
_cell_length_c 23.883157
_cell_angle_alpha 90.000000
_cell_angle_beta 90.000000
_cell_angle_gamma 90.000000
_cell_volume 3290.720908
_symmetry_space_group_name_H-M "A M M 2"
_symmetry_group_IT_number 38
_symmetry_cell_setting 'orthorhombic'
loop_
_space_group_symop_operation_xyz
x,y,z
-x,-y,z
-x,y,z
x,-y,z
x,1/2+y,1/2+z
-x,1/2-y,1/2+z
-x,1/2+y,1/2+z
x,1/2-y,1/2+z
loop_
_atom_site_type_symbol
_atom_site_label
_atom_site_fract_x
_atom_site_fract_y
_atom_site_fract_z
Si Si1 0.400207 0.826573 0.778940
Si Si2 0.347133 0.324390 0.155788
Si Si3 0.832859 0.170757 0.157741
Si Si4 0.904338 0.676658 0.776254
Si Si5 0.746639 0.824285 0.477547
Si Si6 0.902147 0.169820 0.038079
Si Si7 0.745822 0.823394 0.349721
Si Si8 0.597605 0.670618 0.547461
O O1 0.500000 0.794134 0.794258
O O2 0.381350 0.770549 0.716067
O O3 0.341865 0.737900 0.822597
O O4 0.377371 0.000000 0.783910
O O5 0.358093 0.500000 0.148198
O O6 0.247581 0.279315 0.147553
O O7 0.403774 0.244288 0.108561
O O8 0.883520 0.224866 0.212815
O O9 0.896357 0.187105 0.105027
O O10 0.800174 0.000000 0.164762
O O11 0.906122 0.500000 0.781180
O O12 0.830831 0.742044 0.817801
O O13 0.000000 0.740710 0.792349
O O14 0.835848 0.778245 0.507146
O O15 0.750568 0.770174 0.413576
O O16 0.662963 0.751674 0.505808
O O17 0.736208 0.000000 0.482490
O O18 0.000000 0.213461 0.020036
O O19 0.880690 0.000000 0.020816
O O20 0.743460 0.000000 0.344619
O O21 0.500000 0.681879 0.522668
O O22 0.628100 0.500000 0.553302
#
# Coordination Sequence:
#
# PCOD8177764 Si02
#       8
#     8   8   8   8   8   8   8   8
#     4  10  22  39  59  85 118 154 188 228 286 350
#     4  11  21  35  59  89 122 154 184 228 292 353
#     4  10  18  32  58  87 117 151 189 233 285 344
#     4   9  17  32  57  86 115 149 188 231 281 336
#     4  11  24  40  59  85 118 155 196 248 301 342
#     4  10  21  37  59  88 120 155 196 240 289 348
#     4  10  22  39  59  85 114 149 197 245 286 333
#     4  11  24  41  62  87 114 150 196 243 292 352
#
# _framework density 19.448625
#
# number of rings (size 3 to 8) (size 9 to 14) (size 15 to 20)
#    0.000    1.750    2.500    1.875    0.000    6.000 
#    0.000    3.750    0.000    2.250    0.000    0.000 
#    0.000    0.000    0.000    0.000    0.000    0.000 
#
# Total GULP energy -396876.243627 kJ/mol
# GULP energy per Si atom -12402.382613 kJ/mol
# Density = 1.940436 g / cm^3
# Si number density = 19.448625 Si / 1000 Ang^3
#
#
#
# Elastic Constant Matrix: (Units=GPa)
#
#
# Indices 1 2 3 4 5 6 
#
# 1 129.8359 32.9268 59.0390 0.0000 0.0000 0.0000
# 2 32.9268 58.6310 44.0201 0.0000 0.0000 0.0000
# 3 59.0390 44.0201 143.1330 0.0000 0.0000 0.0000
# 4 0.0000 0.0000 0.0000 21.5277 0.0000 0.0000
# 5 0.0000 0.0000 0.0000 0.0000 8.5399 0.0000
# 6 0.0000 0.0000 0.0000 0.0000 0.0000 18.9581
#
#
#
# Elastic Compliance Matrix: (Units=1/GPa)
#
#
# Indices 1 2 3 4 5 6 
#
# 1 0.009936 -0.003254 -0.003097 0.000000 0.000000 0.000000
# 2 -0.003254 0.023242 -0.005806 0.000000 0.000000 0.000000
# 3 -0.003097 -0.005806 0.010050 0.000000 0.000000 0.000000
# 4 0.000000 0.000000 0.000000 0.046452 0.000000 0.000000
# 5 0.000000 0.000000 0.000000 0.000000 0.117097 0.000000
# 6 0.000000 0.000000 0.000000 0.000000 0.000000 0.052748
#
#
# Mechanical properties :
#
#
# Convention : Reuss Voigt Hill
#
# Bulk Modulus (GPa) = 52.87427 67.06353 59.96890
# Shear Modulus (GPa) = 17.23281 22.84607 20.03944
#
# Velocity S-wave (km/s) = 2.97992 3.43109 3.21343
# Velocity P-wave (km/s) = 6.25184 7.08899 6.68354
#
# Compressibility (1/GPa) = 0.01891279
#
# Stress axis : x y z
#
# Youngs Moduli (GPa) = 100.64611 43.02473 99.50564
#
# Poissons Ratio (x) = 0.14002 0.30821
# Poissons Ratio (y) = 0.32754 0.57771
# Poissons Ratio (z) = 0.31174 0.24979
#
# Static dielectric constant tensor:
#      x y z
#    x 3.657750 0.000000 0.000000 
#    y 0.000000 3.405870 0.000000 
#    z 0.000000 0.000000 3.661290 
# 
# 
# High freq. dielectric constant tensor:
#      x y z
#    x 1.769240 0.000000 0.000000 
#    y 0.000000 1.740050 0.000000 
#    z 0.000000 0.000000 1.758120 
# 
# From -- ./inp_files/22894.got.cif
#   From: 2010.03.12/outbox.cif.g09.slc.cpg/sg38_12_cif.got.tgz:22894.got - 2010.04.14 02:38:36.
