data_PCOD8177754
_publ_section_title
;
Structure prediction by ZEFSAII (Michael W. Deem and Ramdas Pophale) SiO2 
 PCOD8177754
Probable space group: A M M 2
;
_chemical_formula_sum "Si O2"
_cell_formula_units_Z 64
_cell_length_a 8.666314
_cell_length_b 28.807858
_cell_length_c 12.785393
_cell_angle_alpha 90.000000
_cell_angle_beta 90.000000
_cell_angle_gamma 90.000000
_cell_volume 3191.974918
_symmetry_space_group_name_H-M "A M M 2"
_symmetry_group_IT_number 38
_symmetry_cell_setting 'orthorhombic'
loop_
_space_group_symop_operation_xyz
x,y,z
-x,-y,z
-x,y,z
x,-y,z
x,1/2+y,1/2+z
-x,1/2-y,1/2+z
-x,1/2+y,1/2+z
x,1/2-y,1/2+z
loop_
_atom_site_type_symbol
_atom_site_label
_atom_site_fract_x
_atom_site_fract_y
_atom_site_fract_z
Si Si1 0.673148 0.705024 0.027560
Si Si2 0.320354 0.601275 0.963591
Si Si3 0.817782 0.612530 0.567111
Si Si4 0.182770 0.053416 0.262208
Si Si5 0.820577 0.949839 0.886672
Si Si6 0.178483 0.203714 0.957936
Si Si7 0.326646 0.171206 0.750016
Si Si8 0.178022 0.417755 0.173710
O O1 0.500000 0.716227 0.987357
O O2 0.674693 0.706690 0.153190
O O3 0.726529 0.655305 0.979638
O O4 0.793367 0.743953 0.993361
O O5 0.500000 0.596067 0.941204
O O6 0.229062 0.577352 0.870256
O O7 0.278596 0.573918 0.070070
O O8 0.749006 0.587173 0.670349
O O9 0.744611 0.587717 0.464115
O O10 0.776665 0.667134 0.551655
O O11 0.000000 0.604698 0.571041
O O12 0.000000 0.051756 0.256105
O O13 0.246121 0.000000 0.253437
O O14 0.758018 0.950456 0.767383
O O15 0.000000 0.937747 0.876555
O O16 0.791764 0.000000 0.938046
O O17 0.281881 0.196710 0.856046
O O18 0.000000 0.197115 0.928697
O O19 0.500000 0.150056 0.760062
O O20 0.199206 0.133064 0.723020
O O21 0.000000 0.426498 0.144256
#
# Coordination Sequence:
#
# PCOD8177754 Si02
#       8
#     8   8   8   8   8   8   8   8
#     4   9  21  39  56  79 110 152 199 240 291 356
#     4  10  22  40  59  80 114 157 198 241 300 363
#     4   9  18  34  54  83 117 147 187 239 293 349
#     4  10  21  38  62  88 116 156 204 251 299 356
#     4   9  16  28  51  82 113 142 174 223 285 342
#     4  11  21  34  57  88 116 147 193 247 300 349
#     4  10  20  36  56  77 111 154 189 227 287 355
#     4  10  18  32  56  85 112 141 188 241 287 339
#
# _framework density 20.050284000000001
#
# number of rings (size 3 to 8) (size 9 to 14) (size 15 to 20)
#    0.000    2.250    1.250    2.625    0.000    6.250 
#    0.000    5.000    0.000    1.125    0.000    0.000 
#    0.000    0.000    0.000    0.000    0.000    0.000 
#
# Total GULP energy -396518.056554 kJ/mol
# GULP energy per Si atom -12391.189267 kJ/mol
# Density = 2.000465 g / cm^3
# Si number density = 20.050284 Si / 1000 Ang^3
#
#
#
# Elastic Constant Matrix: (Units=GPa)
#
#
# Indices 1 2 3 4 5 6 
#
# 1 31.3538 18.4035 12.7861 0.0000 0.0000 0.0000
# 2 18.4035 92.4411 49.3956 0.0000 0.0000 0.0000
# 3 12.7861 49.3956 119.0177 0.0000 0.0000 0.0000
# 4 0.0000 0.0000 0.0000 25.7774 0.0000 0.0000
# 5 0.0000 0.0000 0.0000 0.0000 21.3574 0.0000
# 6 0.0000 0.0000 0.0000 0.0000 0.0000 14.9358
#
#
#
# Elastic Compliance Matrix: (Units=1/GPa)
#
#
# Indices 1 2 3 4 5 6 
#
# 1 0.036237 -0.006597 -0.001155 0.000000 0.000000 0.000000
# 2 -0.006597 0.015101 -0.005559 0.000000 0.000000 0.000000
# 3 -0.001155 -0.005559 0.010833 0.000000 0.000000 0.000000
# 4 0.000000 0.000000 0.000000 0.038794 0.000000 0.000000
# 5 0.000000 0.000000 0.000000 0.000000 0.046822 0.000000
# 6 0.000000 0.000000 0.000000 0.000000 0.000000 0.066953
#
#
# Mechanical properties :
#
#
# Convention : Reuss Voigt Hill
#
# Bulk Modulus (GPa) = 28.12923 44.88699 36.50811
# Shear Modulus (GPa) = 19.74626 23.22928 21.48777
#
# Velocity S-wave (km/s) = 3.14162 3.40744 3.27723
# Velocity P-wave (km/s) = 5.21723 6.15765 5.70685
#
# Compressibility (1/GPa) = 0.03555021
#
# Stress axis : x y z
#
# Youngs Moduli (GPa) = 27.59590 66.21913 92.30855
#
# Poissons Ratio (x) = 0.43685 0.10662
# Poissons Ratio (y) = 0.18205 0.51312
# Poissons Ratio (z) = 0.03187 0.36810
#
# Static dielectric constant tensor:
#      x y z
#    x 3.344460 0.000000 0.000000 
#    y 0.000000 3.620500 0.000000 
#    z 0.000000 0.000000 3.858090 
# 
# 
# High freq. dielectric constant tensor:
#      x y z
#    x 1.752960 0.000000 0.000000 
#    y 0.000000 1.777640 0.000000 
#    z 0.000000 0.000000 1.789750 
# 
# From -- ./inp_files/8612.got.cif
#   From: 2010.03.12/outbox.cif.g09.slc.cpg/sg38_5_cif.got.tgz:8612.got - 2010.04.14 02:38:36.
