data_PCOD8177045
_publ_section_title
;
Structure prediction by ZEFSAII (Michael W. Deem and Ramdas Pophale) SiO2 
 PCOD8177045
Probable space group: C C C 2
;
_chemical_formula_sum "Si O2"
_cell_formula_units_Z 40
_cell_length_a 10.268131
_cell_length_b 15.304796
_cell_length_c 10.359736
_cell_angle_alpha 90.000000
_cell_angle_beta 90.000000
_cell_angle_gamma 90.000000
_cell_volume 1628.049609
_symmetry_space_group_name_H-M "C C C 2"
_symmetry_group_IT_number 37
_symmetry_cell_setting 'orthorhombic'
loop_
_space_group_symop_operation_xyz
x,y,z
-x,-y,z
-x,y,1/2+z
x,-y,1/2+z
1/2+x,1/2+y,z
1/2-x,1/2-y,z
1/2-x,1/2+y,1/2+z
1/2+x,1/2-y,1/2+z
loop_
_atom_site_type_symbol
_atom_site_label
_atom_site_fract_x
_atom_site_fract_y
_atom_site_fract_z
Si Si1 0.250000 0.750000 0.453190
Si Si2 0.612147 0.173494 0.220031
Si Si3 0.233504 0.939427 0.848047
Si Si4 0.088282 0.175820 0.168601
Si Si5 0.500000 0.000000 0.790535
Si Si6 0.340107 0.576542 0.129552
O O1 0.355135 0.802138 0.367851
O O2 0.177861 0.820664 0.542179
O O3 0.496745 0.235858 0.172839
O O4 0.562124 0.074690 0.201571
O O5 0.752635 0.167079 0.143784
O O6 0.182432 0.844865 0.792538
O O7 0.389436 0.947714 0.872816
O O8 0.199068 0.009235 0.739268
O O9 0.168998 0.960750 0.985021
O O10 0.991221 0.095239 0.153967
#
# Coordination Sequence:
#
# PCOD8177045 Si02
#       6
#     4   8   8   8   4   8
#     4  12  26  44  76 106 152 208 256 316 396 462
#     4  11  25  50  73 110 151 205 253 327 379 466
#     4  11  27  46  78 112 151 205 252 319 386 464
#     4  12  25  47  77 110 156 198 264 315 396 466
#     4  10  26  48  76 104 154 190 264 300 388 444
#     4  11  26  47  76 110 155 200 255 323 392 457
#
# _framework density 24.569275999999999
#
# number of rings (size 3 to 8) (size 9 to 14) (size 15 to 20)
#    0.000    0.800    2.000    3.000    8.400    4.800 
#    7.200    0.000    0.000    0.000    0.000    0.000 
#    0.000    0.000    0.000    0.000    0.000    0.000 
#
# Total GULP energy -247831.213754 kJ/mol
# GULP energy per Si atom -12391.560688 kJ/mol
# Density = 2.451335 g / cm^3
# Si number density = 24.569276 Si / 1000 Ang^3
#
#
#
# Elastic Constant Matrix: (Units=GPa)
#
#
# Indices 1 2 3 4 5 6 
#
# 1 131.1873 24.6959 28.2891 0.0000 0.0000 0.0000
# 2 24.6959 76.9436 29.7243 0.0000 0.0000 0.0000
# 3 28.2891 29.7243 160.6359 0.0000 0.0000 0.0000
# 4 0.0000 0.0000 0.0000 33.8318 0.0000 0.0000
# 5 0.0000 0.0000 0.0000 0.0000 30.0947 0.0000
# 6 0.0000 0.0000 0.0000 0.0000 0.0000 44.7438
#
#
#
# Elastic Compliance Matrix: (Units=1/GPa)
#
#
# Indices 1 2 3 4 5 6 
#
# 1 0.008271 -0.002253 -0.001040 0.000000 0.000000 0.000000
# 2 -0.002253 0.014611 -0.002307 0.000000 0.000000 0.000000
# 3 -0.001040 -0.002307 0.006835 0.000000 0.000000 0.000000
# 4 0.000000 0.000000 0.000000 0.029558 0.000000 0.000000
# 5 0.000000 0.000000 0.000000 0.000000 0.033228 0.000000
# 6 0.000000 0.000000 0.000000 0.000000 0.000000 0.022349
#
#
# Mechanical properties :
#
#
# Convention : Reuss Voigt Hill
#
# Bulk Modulus (GPa) = 54.00162 59.35393 56.67778
# Shear Modulus (GPa) = 37.81442 40.80456 39.30949
#
# Velocity S-wave (km/s) = 3.92738 4.07971 4.00427
# Velocity P-wave (km/s) = 6.52632 6.81192 6.67065
#
# Compressibility (1/GPa) = 0.01851796
#
# Stress axis : x y z
#
# Youngs Moduli (GPa) = 120.90414 68.44243 146.30127
#
# Poissons Ratio (x) = 0.15420 0.15211
# Poissons Ratio (y) = 0.27240 0.33749
# Poissons Ratio (z) = 0.12570 0.15789
#
# Static dielectric constant tensor:
#      x y z
#    x 5.338770 0.000000 0.000000 
#    y 0.000000 4.518900 0.000000 
#    z 0.000000 0.000000 4.073570 
# 
# 
# High freq. dielectric constant tensor:
#      x y z
#    x 2.010890 0.000000 0.000000 
#    y 0.000000 1.981370 0.000000 
#    z 0.000000 0.000000 1.950400 
# 
# From -- ./inp_files/2752.got.cif
#   From: 2010.03.12/outbox.cif.g09.slc.cpg/sg37_2_cif.got.tgz:2752.got - 2010.04.14 02:25:27.
