data_PCOD8177367
_publ_section_title
;
Structure prediction by ZEFSAII (Michael W. Deem and Ramdas Pophale) SiO2 
 PCOD8177367
Probable space group: A M M 2
;
_chemical_formula_sum "Si O2"
_cell_formula_units_Z 44
_cell_length_a 7.529448
_cell_length_b 13.358007
_cell_length_c 28.035862
_cell_angle_alpha 90.000000
_cell_angle_beta 90.000000
_cell_angle_gamma 90.000000
_cell_volume 2819.802678
_symmetry_space_group_name_H-M "A M M 2"
_symmetry_group_IT_number 38
_symmetry_cell_setting 'orthorhombic'
loop_
_space_group_symop_operation_xyz
x,y,z
-x,-y,z
-x,y,z
x,-y,z
x,1/2+y,1/2+z
-x,1/2-y,1/2+z
-x,1/2+y,1/2+z
x,1/2-y,1/2+z
loop_
_atom_site_type_symbol
_atom_site_label
_atom_site_fract_x
_atom_site_fract_y
_atom_site_fract_z
Si Si1 0.000000 0.306385 0.785630
Si Si2 0.298013 0.112524 0.220805
Si Si3 0.302728 0.880954 0.461280
Si Si4 0.706118 0.698248 0.162618
Si Si5 0.000000 0.112831 0.727959
Si Si6 0.000000 0.381004 0.890181
Si Si7 0.290075 0.610849 0.064815
O O1 0.825383 0.360218 0.765241
O O2 0.000000 0.188819 0.772618
O O3 0.000000 0.318082 0.842027
O O4 0.500000 0.123744 0.238933
O O5 0.260452 0.185672 0.176111
O O6 0.258313 0.000000 0.203169
O O7 0.500000 0.837876 0.450630
O O8 0.172463 0.845758 0.419568
O O9 0.228894 0.845057 0.513343
O O10 0.309673 0.000000 0.463634
O O11 0.500000 0.667445 0.169420
O O12 0.823285 0.628420 0.196600
O O13 0.768928 0.683615 0.107907
O O14 0.000000 0.000000 0.747970
O O15 0.000000 0.500000 0.880174
O O16 0.500000 0.601688 0.062655
O O17 0.208864 0.500000 0.074065
#
# Coordination Sequence:
#
# PCOD8177367 Si02
#       7
#     4   8   8   8   4   4   8
#     4  10  20  32  44  61  83 107 140 177 211 247
#     4   9  17  29  44  62  86 114 141 171 206 242
#     4   8  15  26  38  56  82 107 132 164 201 242
#     4   9  17  28  43  64  88 114 142 167 197 243
#     4  10  20  31  44  63  84 108 139 173 208 245
#     4  10  18  27  42  60  77 103 135 166 205 248
#     4   8  13  23  39  58  83 112 135 160 199 242
#
# _framework density 15.603929000000001
#
# number of rings (size 3 to 8) (size 9 to 14) (size 15 to 20)
#    0.000    3.091    0.000    2.455    0.000    2.545 
#    0.000    3.636    0.000    0.000    0.000    1.273 
#    0.000    1.455    0.000    0.000    0.000    0.000 
#
# Total GULP energy -272653.514269 kJ/mol
# GULP energy per Si atom -12393.341558 kJ/mol
# Density = 1.556841 g / cm^3
# Si number density = 15.603929 Si / 1000 Ang^3
#
#
#
# Elastic Constant Matrix: (Units=GPa)
#
#
# Indices 1 2 3 4 5 6 
#
# 1 78.0761 32.7420 51.6728 0.0000 0.0000 0.0000
# 2 32.7420 84.9490 52.6019 0.0000 0.0000 0.0000
# 3 51.6728 52.6019 148.1211 0.0000 0.0000 0.0000
# 4 0.0000 0.0000 0.0000 20.8234 0.0000 0.0000
# 5 0.0000 0.0000 0.0000 0.0000 21.0069 0.0000
# 6 0.0000 0.0000 0.0000 0.0000 0.0000 12.3760
#
#
#
# Elastic Compliance Matrix: (Units=1/GPa)
#
#
# Indices 1 2 3 4 5 6 
#
# 1 0.017567 -0.003815 -0.004774 0.000000 0.000000 0.000000
# 2 -0.003815 0.015919 -0.004322 0.000000 0.000000 0.000000
# 3 -0.004774 -0.004322 0.009951 0.000000 0.000000 0.000000
# 4 0.000000 0.000000 0.000000 0.048023 0.000000 0.000000
# 5 0.000000 0.000000 0.000000 0.000000 0.047603 0.000000
# 6 0.000000 0.000000 0.000000 0.000000 0.000000 0.080801
#
#
# Mechanical properties :
#
#
# Convention : Reuss Voigt Hill
#
# Bulk Modulus (GPa) = 56.76814 65.01998 60.89406
# Shear Modulus (GPa) = 19.87609 22.44990 21.16299
#
# Velocity S-wave (km/s) = 3.57289 3.79718 3.68674
# Velocity P-wave (km/s) = 7.31303 7.80924 7.56520
#
# Compressibility (1/GPa) = 0.01761551
#
# Stress axis : x y z
#
# Youngs Moduli (GPa) = 56.92436 62.81954 100.48778
#
# Poissons Ratio (x) = 0.23966 0.47968
# Poissons Ratio (y) = 0.21717 0.43433
# Poissons Ratio (z) = 0.27173 0.27152
#
# Static dielectric constant tensor:
#      x y z
#    x 3.218690 0.000000 0.000000 
#    y 0.000000 2.779620 0.000000 
#    z 0.000000 0.000000 3.011890 
# 
# 
# High freq. dielectric constant tensor:
#      x y z
#    x 1.612010 0.000000 0.000000 
#    y 0.000000 1.554990 0.000000 
#    z 0.000000 0.000000 1.587560 
# 
# From -- ./inp_files/23510.got.cif
#   From: 2010.03.12/outbox.cif.g09.slc.cpg/sg38_12_cif.got.tgz:23510.got - 2010.04.14 02:38:36.
