data_PCOD8177100
_publ_section_title
;
Structure prediction by ZEFSAII (Michael W. Deem and Ramdas Pophale) SiO2 
 PCOD8177100
Probable space group: C C C 2
;
_chemical_formula_sum "Si O2"
_cell_formula_units_Z 64
_cell_length_a 13.638139
_cell_length_b 22.264849
_cell_length_c 9.142238
_cell_angle_alpha 90.000000
_cell_angle_beta 90.000000
_cell_angle_gamma 90.000000
_cell_volume 2776.050675
_symmetry_space_group_name_H-M "C C C 2"
_symmetry_group_IT_number 37
_symmetry_cell_setting 'orthorhombic'
loop_
_space_group_symop_operation_xyz
x,y,z
-x,-y,z
-x,y,1/2+z
x,-y,1/2+z
1/2+x,1/2+y,z
1/2-x,1/2-y,z
1/2-x,1/2+y,1/2+z
1/2+x,1/2-y,1/2+z
loop_
_atom_site_type_symbol
_atom_site_label
_atom_site_fract_x
_atom_site_fract_y
_atom_site_fract_z
Si Si1 0.251407 0.183774 0.658380
Si Si2 0.209221 0.684036 0.470468
Si Si3 0.537669 0.386549 0.912182
Si Si4 0.165176 0.071023 0.016773
Si Si5 0.280255 0.462128 0.342868
Si Si6 0.462344 0.690802 0.171615
Si Si7 0.023610 0.671582 0.670664
Si Si8 0.120465 0.381084 0.452667
O O1 0.250000 0.250000 0.594757
O O2 0.323060 0.175720 0.799580
O O3 0.145001 0.170800 0.729602
O O4 0.279291 0.148196 0.512668
O O5 0.250000 0.750000 0.500877
O O6 0.292774 0.637922 0.519490
O O7 0.114952 0.672979 0.564988
O O8 0.636444 0.424950 0.931068
O O9 0.533221 0.358292 0.748814
O O10 0.449146 0.428427 0.970357
O O11 0.536979 0.323918 0.000587
O O12 0.190788 0.040468 0.172459
O O13 0.218777 0.031226 0.892713
O O14 0.167334 0.441455 0.382106
O O15 0.479536 0.761618 0.189086
O O16 0.059227 0.652984 0.830291
O O17 0.948986 0.621949 0.598481
#
# Coordination Sequence:
#
# PCOD8177100 Si02
#       8
#     8   8   8   8   8   8   8   8
#     4  11  23  41  68 104 146 198 241 298 373 436
#     4  11  25  46  77 109 145 194 247 316 374 446
#     4  12  25  44  72 111 153 195 250 297 384 459
#     4  12  27  50  74 110 148 203 251 307 381 448
#     4  12  29  48  76 107 150 199 255 313 372 457
#     4  12  24  40  69 109 153 198 240 307 372 457
#     4  12  26  45  73 107 153 194 251 313 379 447
#     4  12  26  47  71 107 144 198 254 310 371 445
#
# _framework density 23.054334999999998
#
# number of rings (size 3 to 8) (size 9 to 14) (size 15 to 20)
#    0.000    0.250    6.250    2.625    7.000    1.500 
#    0.000    0.625    0.000    0.000    0.000    0.000 
#    0.000    0.000    0.000    0.000    0.000    0.000 
#
# Total GULP energy -396422.127339 kJ/mol
# GULP energy per Si atom -12388.191479 kJ/mol
# Density = 2.300186 g / cm^3
# Si number density = 23.054335 Si / 1000 Ang^3
#
#
#
# Elastic Constant Matrix: (Units=GPa)
#
#
# Indices 1 2 3 4 5 6 
#
# 1 81.0069 18.7062 4.6291 0.0000 0.0000 0.0000
# 2 18.7062 79.0005 18.6746 0.0000 0.0000 0.0000
# 3 4.6291 18.6746 74.9355 0.0000 0.0000 0.0000
# 4 0.0000 0.0000 0.0000 25.6002 0.0000 0.0000
# 5 0.0000 0.0000 0.0000 0.0000 34.5748 0.0000
# 6 0.0000 0.0000 0.0000 0.0000 0.0000 28.6382
#
#
#
# Elastic Compliance Matrix: (Units=1/GPa)
#
#
# Indices 1 2 3 4 5 6 
#
# 1 0.013059 -0.003083 -0.000038 0.000000 0.000000 0.000000
# 2 -0.003083 0.014178 -0.003343 0.000000 0.000000 0.000000
# 3 -0.000038 -0.003343 0.014180 0.000000 0.000000 0.000000
# 4 0.000000 0.000000 0.000000 0.039062 0.000000 0.000000
# 5 0.000000 0.000000 0.000000 0.000000 0.028923 0.000000
# 6 0.000000 0.000000 0.000000 0.000000 0.000000 0.034918
#
#
# Mechanical properties :
#
#
# Convention : Reuss Voigt Hill
#
# Bulk Modulus (GPa) = 35.10162 35.44029 35.27096
# Shear Modulus (GPa) = 29.98575 30.62483 30.30529
#
# Velocity S-wave (km/s) = 3.61037 3.64864 3.62956
# Velocity P-wave (km/s) = 5.71300 5.75813 5.73561
#
# Compressibility (1/GPa) = 0.02848871
#
# Stress axis : x y z
#
# Youngs Moduli (GPa) = 76.57693 70.52981 70.52050
#
# Poissons Ratio (x) = 0.21745 0.00271
# Poissons Ratio (y) = 0.23609 0.23575
# Poissons Ratio (z) = 0.00294 0.23578
#
# Static dielectric constant tensor:
#      x y z
#    x 4.532890 0.000000 0.000000 
#    y 0.000000 3.959610 0.000000 
#    z 0.000000 0.000000 4.268620 
# 
# 
# High freq. dielectric constant tensor:
#      x y z
#    x 1.921970 0.000000 0.000000 
#    y 0.000000 1.886860 0.000000 
#    z 0.000000 0.000000 1.928030 
# 
# From -- ./inp_files/3752.got.cif
#   From: 2010.03.12/outbox.cif.g09.slc.cpg/sg37_2_cif.got.tgz:3752.got - 2010.04.14 02:25:27.
