data_PCOD8177548
_publ_section_title
;
Structure prediction by ZEFSAII (Michael W. Deem and Ramdas Pophale) SiO2 
 PCOD8177548
Probable space group: A M M 2
;
_chemical_formula_sum "Si O2"
_cell_formula_units_Z 52
_cell_length_a 18.658320
_cell_length_b 25.665641
_cell_length_c 5.309501
_cell_angle_alpha 90.000000
_cell_angle_beta 90.000000
_cell_angle_gamma 90.000000
_cell_volume 2542.601854
_symmetry_space_group_name_H-M "A M M 2"
_symmetry_group_IT_number 38
_symmetry_cell_setting 'orthorhombic'
loop_
_space_group_symop_operation_xyz
x,y,z
-x,-y,z
-x,y,z
x,-y,z
x,1/2+y,1/2+z
-x,1/2-y,1/2+z
-x,1/2+y,1/2+z
x,1/2-y,1/2+z
loop_
_atom_site_type_symbol
_atom_site_label
_atom_site_fract_x
_atom_site_fract_y
_atom_site_fract_z
Si Si1 0.715644 0.438698 0.636350
Si Si2 0.283448 0.891923 0.636328
Si Si3 0.500000 0.280697 0.088225
Si Si4 0.125766 0.438594 0.136646
Si Si5 0.345034 0.283589 0.168862
Si Si6 0.084124 0.218643 0.138623
Si Si7 0.877077 0.397727 0.636565
O O1 0.707392 0.500000 0.647106
O O2 0.678289 0.416537 0.383274
O O3 0.798523 0.422688 0.629897
O O4 0.678349 0.413803 0.883583
O O5 0.200717 0.908047 0.630146
O O6 0.287545 0.829499 0.644973
O O7 0.500000 0.232964 0.290932
O O8 0.424972 0.309878 0.148687
O O9 0.138596 0.500000 0.140934
O O10 0.082766 0.419018 0.384815
O O11 0.082904 0.420314 0.885772
O O12 0.333509 0.256727 0.439946
O O13 0.106582 0.249806 0.888052
O O14 0.000000 0.206165 0.138849
O O15 0.126802 0.164576 0.140061
#
# Coordination Sequence:
#
# PCOD8177548 Si02
#       7
#     8   8   4   8   8   8   8
#     4  10  19  33  50  71  97 126 159 194 235 283
#     4  10  18  30  48  72  95 127 161 190 236 283
#     4   8  16  30  48  64  87 126 163 194 234 276
#     4  10  19  33  51  72  98 127 158 193 236 284
#     4  10  19  32  47  69  99 127 158 197 235 279
#     4  10  21  37  54  72  96 127 161 195 232 278
#     4  10  18  32  53  73  93 125 163 194 229 280
#
# _framework density 20.451492999999999
#
# number of rings (size 3 to 8) (size 9 to 14) (size 15 to 20)
#    0.000    2.154    0.000    6.462    0.000    0.000 
#    0.000   18.462    0.000    5.077    0.000    5.923 
#    0.000    0.000    0.000    0.000    0.000    0.000 
#
# Total GULP energy -322137.570866 kJ/mol
# GULP energy per Si atom -12389.906572 kJ/mol
# Density = 2.040494 g / cm^3
# Si number density = 20.451493 Si / 1000 Ang^3
#
#
#
# Elastic Constant Matrix: (Units=GPa)
#
#
# Indices 1 2 3 4 5 6 
#
# 1 13.4849 15.1099 4.3612 0.0000 0.0000 0.0000
# 2 15.1099 114.0521 48.7455 0.0000 0.0000 0.0000
# 3 4.3612 48.7455 221.1124 0.0000 0.0000 0.0000
# 4 0.0000 0.0000 0.0000 41.8292 0.0000 0.0000
# 5 0.0000 0.0000 0.0000 0.0000 0.5326 0.0000
# 6 0.0000 0.0000 0.0000 0.0000 0.0000 21.0272
#
#
#
# Elastic Compliance Matrix: (Units=1/GPa)
#
#
# Indices 1 2 3 4 5 6 
#
# 1 0.087251 -0.011950 0.000913 0.000000 0.000000 0.000000
# 2 -0.011950 0.011317 -0.002259 0.000000 0.000000 0.000000
# 3 0.000913 -0.002259 0.005003 0.000000 0.000000 0.000000
# 4 0.000000 0.000000 0.000000 0.023907 0.000000 0.000000
# 5 0.000000 0.000000 0.000000 0.000000 1.877691 0.000000
# 6 0.000000 0.000000 0.000000 0.000000 0.000000 0.047557
#
#
# Mechanical properties :
#
#
# Convention : Reuss Voigt Hill
#
# Bulk Modulus (GPa) = 12.99042 53.89806 33.44424
# Shear Modulus (GPa) = 2.37532 31.37332 16.87432
#
# Velocity S-wave (km/s) = 1.07887 3.92093 2.87555
# Velocity P-wave (km/s) = 2.81382 6.84905 5.23579
#
# Compressibility (1/GPa) = 0.07697981
#
# Stress axis : x y z
#
# Youngs Moduli (GPa) = 11.46116 88.36597 199.89590
#
# Poissons Ratio (x) = 1.05594 -0.18259
# Poissons Ratio (y) = 0.13696 0.45159
# Poissons Ratio (z) = -0.01047 0.19963
#
# Static dielectric constant tensor:
#      x y z
#    x 3.229630 0.000000 0.000000 
#    y 0.000000 3.501780 0.000000 
#    z 0.000000 0.000000 9.372200 
# 
# 
# High freq. dielectric constant tensor:
#      x y z
#    x 1.730210 0.000000 0.000000 
#    y 0.000000 1.790680 0.000000 
#    z 0.000000 0.000000 1.849430 
# 
# From -- ./inp_files/1900.got.cif
#   From: 2010.03.12/outbox.cif.g09.slc.cpg/sg38_1_cif.got.tgz:1900.got - 2010.04.14 02:38:36.
