data_PCOD8177440
_publ_section_title
;
Structure prediction by ZEFSAII (Michael W. Deem and Ramdas Pophale) SiO2 
 PCOD8177440
Probable space group: A M M 2
;
_chemical_formula_sum "Si O2"
_cell_formula_units_Z 48
_cell_length_a 17.361198
_cell_length_b 8.890475
_cell_length_c 15.464631
_cell_angle_alpha 90.000000
_cell_angle_beta 90.000000
_cell_angle_gamma 90.000000
_cell_volume 2386.954920
_symmetry_space_group_name_H-M "A M M 2"
_symmetry_group_IT_number 38
_symmetry_cell_setting 'orthorhombic'
loop_
_space_group_symop_operation_xyz
x,y,z
-x,-y,z
-x,y,z
x,-y,z
x,1/2+y,1/2+z
-x,1/2-y,1/2+z
-x,1/2+y,1/2+z
x,1/2-y,1/2+z
loop_
_atom_site_type_symbol
_atom_site_label
_atom_site_fract_x
_atom_site_fract_y
_atom_site_fract_z
Si Si1 0.193243 0.325182 0.191090
Si Si2 0.335399 0.824235 0.946144
Si Si3 0.500000 0.677845 0.454325
Si Si4 0.175332 0.325061 0.383095
Si Si5 0.653860 0.822714 0.144353
Si Si6 0.086832 0.321885 0.035290
Si Si7 0.500000 0.322495 0.139652
O O1 0.212559 0.500000 0.176315
O O2 0.151030 0.301049 0.283348
O O3 0.272472 0.234109 0.196631
O O4 0.138708 0.261606 0.114921
O O5 0.419860 0.782277 0.904082
O O6 0.261783 0.754781 0.896856
O O7 0.324342 0.000000 0.941031
O O8 0.334508 0.770492 0.045283
O O9 0.500000 0.500000 0.480127
O O10 0.500000 0.775266 0.540300
O O11 0.172624 0.500000 0.408505
O O12 0.115700 0.239588 0.443813
O O13 0.577142 0.745148 0.183634
O O14 0.645131 0.000000 0.153669
O O15 0.089898 0.500000 0.032283
O O16 0.000000 0.264582 0.050521
O O17 0.500000 0.500000 0.151935
#
# Coordination Sequence:
#
# PCOD8177440 Si02
#       7
#     8   8   4   8   8   8   4
#     4  10  21  36  57  85 117 149 186 234 287 339
#     4   8  14  27  49  75 104 141 185 227 268 320
#     4   8  14  26  45  72 105 144 186 230 277 327
#     4  10  20  36  58  86 114 146 190 233 277 338
#     4  10  18  32  54  78 111 152 195 236 281 335
#     4  10  22  40  59  81 112 148 184 230 291 349
#     4  10  18  28  47  78 113 148 194 242 285 329
#
# _framework density 20.109304000000002
#
# number of rings (size 3 to 8) (size 9 to 14) (size 15 to 20)
#    0.000    2.500    1.667    2.250    0.000    1.667 
#    0.000    2.500    0.000    3.000    0.000    0.000 
#    0.000    0.000    0.000    0.000    0.000    0.000 
#
# Total GULP energy -297413.266697 kJ/mol
# GULP energy per Si atom -12392.219446 kJ/mol
# Density = 2.006353 g / cm^3
# Si number density = 20.109304 Si / 1000 Ang^3
#
#
#
# Elastic Constant Matrix: (Units=GPa)
#
#
# Indices 1 2 3 4 5 6 
#
# 1 155.2590 37.3145 46.6629 0.0000 0.0000 0.0000
# 2 37.3145 50.0585 24.3383 0.0000 0.0000 0.0000
# 3 46.6629 24.3383 76.6590 0.0000 0.0000 0.0000
# 4 0.0000 0.0000 0.0000 20.6605 0.0000 0.0000
# 5 0.0000 0.0000 0.0000 0.0000 10.3874 0.0000
# 6 0.0000 0.0000 0.0000 0.0000 0.0000 29.1325
#
#
#
# Elastic Compliance Matrix: (Units=1/GPa)
#
#
# Indices 1 2 3 4 5 6 
#
# 1 0.008704 -0.004626 -0.003829 0.000000 0.000000 0.000000
# 2 -0.004626 0.026082 -0.005465 0.000000 0.000000 0.000000
# 3 -0.003829 -0.005465 0.017111 0.000000 0.000000 0.000000
# 4 0.000000 0.000000 0.000000 0.048401 0.000000 0.000000
# 5 0.000000 0.000000 0.000000 0.000000 0.096271 0.000000
# 6 0.000000 0.000000 0.000000 0.000000 0.000000 0.034326
#
#
# Mechanical properties :
#
#
# Convention : Reuss Voigt Hill
#
# Bulk Modulus (GPa) = 41.56957 55.40086 48.48522
# Shear Modulus (GPa) = 18.74394 23.61347 21.17870
#
# Velocity S-wave (km/s) = 3.05635 3.43046 3.24879
# Velocity P-wave (km/s) = 5.75949 6.58030 6.18353
#
# Compressibility (1/GPa) = 0.02405606
#
# Stress axis : x y z
#
# Youngs Moduli (GPa) = 114.89626 38.34080 58.44312
#
# Poissons Ratio (x) = 0.17736 0.22379
# Poissons Ratio (y) = 0.53151 0.31938
# Poissons Ratio (z) = 0.43996 0.20952
#
# Static dielectric constant tensor:
#      x y z
#    x 4.131290 0.000000 0.000000 
#    y 0.000000 3.320530 0.000000 
#    z 0.000000 0.000000 3.426190 
# 
# 
# High freq. dielectric constant tensor:
#      x y z
#    x 1.798520 0.000000 0.000000 
#    y 0.000000 1.756280 0.000000 
#    z 0.000000 0.000000 1.761230 
# 
# From -- ./inp_files/15062.got.cif
#   From: 2010.03.12/outbox.cif.g09.slc.cpg/sg38_8_cif.got.tgz:15062.got - 2010.04.14 02:38:36.
