data_PCOD8177642
_publ_section_title
;
Structure prediction by ZEFSAII (Michael W. Deem and Ramdas Pophale) SiO2 
 PCOD8177642
Probable space group: A M M 2
;
_chemical_formula_sum "Si O2"
_cell_formula_units_Z 64
_cell_length_a 8.484972
_cell_length_b 20.810713
_cell_length_c 19.777737
_cell_angle_alpha 90.000000
_cell_angle_beta 90.000000
_cell_angle_gamma 90.000000
_cell_volume 3492.319516
_symmetry_space_group_name_H-M "A M M 2"
_symmetry_group_IT_number 38
_symmetry_cell_setting 'orthorhombic'
loop_
_space_group_symop_operation_xyz
x,y,z
-x,-y,z
-x,y,z
x,-y,z
x,1/2+y,1/2+z
-x,1/2-y,1/2+z
-x,1/2+y,1/2+z
x,1/2-y,1/2+z
loop_
_atom_site_type_symbol
_atom_site_label
_atom_site_fract_x
_atom_site_fract_y
_atom_site_fract_z
Si Si1 0.312521 0.929236 0.203720
Si Si2 0.686300 0.812444 0.704776
Si Si3 0.818320 0.631935 0.982365
Si Si4 0.312507 0.810122 0.120243
Si Si5 0.315947 0.624613 0.844107
Si Si6 0.317543 0.927629 0.610244
Si Si7 0.683594 0.729955 0.476164
Si Si8 0.817100 0.736259 0.337090
O O1 0.500000 0.925439 0.201453
O O2 0.242799 0.875202 0.153357
O O3 0.255533 0.916002 0.280072
O O4 0.252834 0.000000 0.181464
O O5 0.500000 0.809332 0.715182
O O6 0.749838 0.751961 0.661218
O O7 0.738692 0.878047 0.667784
O O8 0.769465 0.812823 0.777885
O O9 0.778351 0.599858 0.909903
O O10 0.710873 0.694847 0.990520
O O11 0.000000 0.652275 0.984172
O O12 0.780822 0.582258 0.041801
O O13 0.500000 0.808713 0.123013
O O14 0.255761 0.808216 0.042406
O O15 0.500000 0.614178 0.856924
O O16 0.285284 0.699447 0.828699
O O17 0.500000 0.915796 0.593049
O O18 0.287251 0.000000 0.636503
O O19 0.500000 0.718047 0.463412
O O20 0.778403 0.705138 0.410391
O O21 0.000000 0.753625 0.333295
#
# Coordination Sequence:
#
# PCOD8177642 Si02
#       8
#     8   8   8   8   8   8   8   8
#     4   9  17  29  48  76 104 129 163 208 253 296
#     4  10  18  34  56  78 101 130 171 216 259 306
#     4  11  21  32  48  74 108 140 171 211 257 308
#     4   9  16  29  52  78 100 127 167 212 255 294
#     4  10  18  31  51  73 102 142 180 212 248 298
#     4  10  21  37  56  76 100 134 176 218 260 313
#     4  10  18  32  54  77 102 136 174 215 258 304
#     4  11  21  32  49  78 108 135 169 213 261 308
#
# _framework density 18.325928999999999
#
# number of rings (size 3 to 8) (size 9 to 14) (size 15 to 20)
#    0.000    2.000    2.500    4.500    0.000    1.250 
#    0.000    1.250    0.000    1.875    0.000    3.500 
#    0.000    0.000    0.000    0.000    0.000    0.000 
#
# Total GULP energy -396782.807986 kJ/mol
# GULP energy per Si atom -12399.462750 kJ/mol
# Density = 1.828422 g / cm^3
# Si number density = 18.325929 Si / 1000 Ang^3
#
#
#
# Elastic Constant Matrix: (Units=GPa)
#
#
# Indices 1 2 3 4 5 6 
#
# 1 38.8144 10.9481 24.9081 0.0000 0.0000 0.0000
# 2 10.9481 110.8448 74.0242 0.0000 0.0000 0.0000
# 3 24.9081 74.0242 146.6499 0.0000 0.0000 0.0000
# 4 0.0000 0.0000 0.0000 26.9061 0.0000 0.0000
# 5 0.0000 0.0000 0.0000 0.0000 7.7540 0.0000
# 6 0.0000 0.0000 0.0000 0.0000 0.0000 5.6369
#
#
#
# Elastic Compliance Matrix: (Units=1/GPa)
#
#
# Indices 1 2 3 4 5 6 
#
# 1 0.028945 0.000640 -0.005239 0.000000 0.000000 0.000000
# 2 0.000640 0.013623 -0.006985 0.000000 0.000000 0.000000
# 3 -0.005239 -0.006985 0.011235 0.000000 0.000000 0.000000
# 4 0.000000 0.000000 0.000000 0.037166 0.000000 0.000000
# 5 0.000000 0.000000 0.000000 0.000000 0.128965 0.000000
# 6 0.000000 0.000000 0.000000 0.000000 0.000000 0.177402
#
#
# Mechanical properties :
#
#
# Convention : Reuss Voigt Hill
#
# Bulk Modulus (GPa) = 32.64329 57.34108 44.99219
# Shear Modulus (GPa) = 11.60854 20.48799 16.04826
#
# Velocity S-wave (km/s) = 2.51957 3.34725 2.96246
# Velocity P-wave (km/s) = 5.12987 6.80414 6.02544
#
# Compressibility (1/GPa) = 0.03063417
#
# Stress axis : x y z
#
# Youngs Moduli (GPa) = 34.54790 73.40339 89.00892
#
# Poissons Ratio (x) = -0.04698 0.46635
# Poissons Ratio (y) = -0.02211 0.62176
# Poissons Ratio (z) = 0.18101 0.51275
#
# Static dielectric constant tensor:
#      x y z
#    x 3.064530 0.000000 0.000000 
#    y 0.000000 3.256420 0.000000 
#    z 0.000000 0.000000 3.681180 
# 
# 
# High freq. dielectric constant tensor:
#      x y z
#    x 1.688710 0.000000 0.000000 
#    y 0.000000 1.677150 0.000000 
#    z 0.000000 0.000000 1.719520 
# 
# From -- ./inp_files/20201.got.cif
#   From: 2010.03.12/outbox.cif.g09.slc.cpg/sg38_11_cif.got.tgz:20201.got - 2010.04.14 02:38:36.
