data_PCOD8178017
_publ_section_title
;
Structure prediction by ZEFSAII (Michael W. Deem and Ramdas Pophale) SiO2 
 PCOD8178017
Probable space group: A M M 2
;
_chemical_formula_sum "Si O2"
_cell_formula_units_Z 64
_cell_length_a 9.459371
_cell_length_b 21.974849
_cell_length_c 15.229182
_cell_angle_alpha 90.000000
_cell_angle_beta 90.000000
_cell_angle_gamma 90.000000
_cell_volume 3165.663402
_symmetry_space_group_name_H-M "A M M 2"
_symmetry_group_IT_number 38
_symmetry_cell_setting 'orthorhombic'
loop_
_space_group_symop_operation_xyz
x,y,z
-x,-y,z
-x,y,z
x,-y,z
x,1/2+y,1/2+z
-x,1/2-y,1/2+z
-x,1/2+y,1/2+z
x,1/2-y,1/2+z
loop_
_atom_site_type_symbol
_atom_site_label
_atom_site_fract_x
_atom_site_fract_y
_atom_site_fract_z
Si Si1 0.657901 0.260930 0.712080
Si Si2 0.836509 0.070937 0.980766
Si Si3 0.155142 0.427779 0.286915
Si Si4 0.832831 0.304941 0.870188
Si Si5 0.662357 0.567650 0.126881
Si Si6 0.342538 0.394656 0.637812
Si Si7 0.664123 0.688184 0.041206
Si Si8 0.161199 0.933428 0.292228
O O1 0.500000 0.241244 0.743550
O O2 0.766272 0.261899 0.794291
O O3 0.650092 0.327173 0.672381
O O4 0.712158 0.216746 0.634369
O O5 0.800006 0.095668 0.883210
O O6 0.000000 0.083694 0.002796
O O7 0.801676 0.000000 0.990294
O O8 0.736414 0.108134 0.045164
O O9 0.150667 0.500000 0.291407
O O10 0.262623 0.405266 0.213245
O O11 0.000000 0.402611 0.262350
O O12 0.797325 0.376627 0.854231
O O13 0.000000 0.292545 0.874690
O O14 0.761292 0.286870 0.962611
O O15 0.500000 0.563761 0.152918
O O16 0.719106 0.500000 0.100328
O O17 0.686538 0.614910 0.047648
O O18 0.500000 0.421734 0.626434
O O19 0.257069 0.436230 0.705773
O O20 0.500000 0.704015 0.021672
O O21 0.000000 0.924418 0.261046
O O22 0.179526 0.000000 0.339521
#
# Coordination Sequence:
#
# PCOD8178017 Si02
#       8
#     8   8   8   8   8   8   8   8
#     4   9  20  40  59  75 104 148 188 222 268 328
#     4   9  17  29  45  67 100 142 180 214 266 332
#     4   8  15  29  47  67  97 138 176 210 257 318
#     4  10  21  37  59  86 113 141 180 233 277 313
#     4   9  18  33  54  81 109 136 173 222 270 316
#     4  10  19  30  47  73 101 133 181 233 269 306
#     4  10  21  39  61  82 109 149 185 217 270 336
#     4   9  18  33  52  75 108 147 178 209 265 334
#
# _framework density 20.216932
#
# number of rings (size 3 to 8) (size 9 to 14) (size 15 to 20)
#    0.000    2.750    0.000    1.875    0.000    5.000 
#    2.250    1.250    0.000    0.000    0.000    0.000 
#    0.000    0.000    0.000    0.000    0.000    0.000 
#
# Total GULP energy -396620.602030 kJ/mol
# GULP energy per Si atom -12394.393813 kJ/mol
# Density = 2.017092 g / cm^3
# Si number density = 20.216932 Si / 1000 Ang^3
#
#
#
# Elastic Constant Matrix: (Units=GPa)
#
#
# Indices 1 2 3 4 5 6 
#
# 1 97.5039 19.3315 69.8742 0.0000 0.0000 0.0000
# 2 19.3315 42.8698 26.3323 0.0000 0.0000 0.0000
# 3 69.8742 26.3323 119.4268 0.0000 0.0000 0.0000
# 4 0.0000 0.0000 0.0000 15.7752 0.0000 0.0000
# 5 0.0000 0.0000 0.0000 0.0000 38.0766 0.0000
# 6 0.0000 0.0000 0.0000 0.0000 0.0000 20.0748
#
#
#
# Elastic Compliance Matrix: (Units=1/GPa)
#
#
# Indices 1 2 3 4 5 6 
#
# 1 0.017792 -0.001884 -0.009994 0.000000 0.000000 0.000000
# 2 -0.001884 0.027180 -0.004891 0.000000 0.000000 0.000000
# 3 -0.009994 -0.004891 0.015299 0.000000 0.000000 0.000000
# 4 0.000000 0.000000 0.000000 0.063391 0.000000 0.000000
# 5 0.000000 0.000000 0.000000 0.000000 0.026263 0.000000
# 6 0.000000 0.000000 0.000000 0.000000 0.000000 0.049814
#
#
# Mechanical properties :
#
#
# Convention : Reuss Voigt Hill
#
# Bulk Modulus (GPa) = 37.40676 54.54184 45.97430
# Shear Modulus (GPa) = 20.64526 24.40282 22.52404
#
# Velocity S-wave (km/s) = 3.19907 3.47803 3.34146
# Velocity P-wave (km/s) = 5.67347 6.57007 6.13816
#
# Compressibility (1/GPa) = 0.02673314
#
# Stress axis : x y z
#
# Youngs Moduli (GPa) = 56.20631 36.79168 65.36392
#
# Poissons Ratio (x) = 0.06932 0.65325
# Poissons Ratio (y) = 0.10590 0.31967
# Poissons Ratio (z) = 0.56173 0.17993
#
# Static dielectric constant tensor:
#      x y z
#    x 3.854760 0.000000 0.000000 
#    y 0.000000 3.603730 0.000000 
#    z 0.000000 0.000000 3.593230 
# 
# 
# High freq. dielectric constant tensor:
#      x y z
#    x 1.786920 0.000000 0.000000 
#    y 0.000000 1.776880 0.000000 
#    z 0.000000 0.000000 1.776560 
# 
# From -- ./inp_files/12826.got.cif
#   From: 2010.03.12/outbox.cif.g09.slc.cpg/sg38_7_cif.got.tgz:12826.got - 2010.04.14 02:38:36.
