data_PCOD8178184
_publ_section_title
;
Structure prediction by ZEFSAII (Michael W. Deem and Ramdas Pophale) SiO2 
 PCOD8178184
Probable space group: A M M 2
;
_chemical_formula_sum "Si O2"
_cell_formula_units_Z 48
_cell_length_a 14.262169
_cell_length_b 15.615569
_cell_length_c 9.853010
_cell_angle_alpha 90.000000
_cell_angle_beta 90.000000
_cell_angle_gamma 90.000000
_cell_volume 2194.382421
_symmetry_space_group_name_H-M "A M M 2"
_symmetry_group_IT_number 38
_symmetry_cell_setting 'orthorhombic'
loop_
_space_group_symop_operation_xyz
x,y,z
-x,-y,z
-x,y,z
x,-y,z
x,1/2+y,1/2+z
-x,1/2-y,1/2+z
-x,1/2+y,1/2+z
x,1/2-y,1/2+z
loop_
_atom_site_type_symbol
_atom_site_label
_atom_site_fract_x
_atom_site_fract_y
_atom_site_fract_z
Si Si1 0.895021 0.500000 0.529021
Si Si2 0.108602 0.683947 0.971208
Si Si3 0.295100 0.500000 0.450961
Si Si4 0.610465 0.172796 0.961739
Si Si5 0.389299 0.670411 0.773883
Si Si6 0.106661 0.500000 0.939163
Si Si7 0.288978 0.500000 0.773795
Si Si8 0.108460 0.678863 0.671672
O O1 0.816307 0.500000 0.409871
O O2 0.875986 0.416357 0.619242
O O3 0.000000 0.500000 0.466414
O O4 0.119139 0.586390 0.028523
O O5 0.155161 0.687857 0.820634
O O6 0.000000 0.709194 0.957949
O O7 0.157950 0.752255 0.070907
O O8 0.344743 0.413893 0.398422
O O9 0.298596 0.500000 0.613235
O O10 0.500000 0.160249 0.952337
O O11 0.641333 0.188846 0.117952
O O12 0.644167 0.251743 0.869400
O O13 0.500000 0.656653 0.783827
O O14 0.340351 0.584659 0.831078
O O15 0.180492 0.500000 0.817322
O O16 0.000000 0.500000 0.873641
O O17 0.000000 0.701591 0.684310
#
# Coordination Sequence:
#
# PCOD8178184 Si02
#       8
#     4   8   4   8   8   4   4   8
#     4  10  20  34  52  74 103 141 182 219 257 306
#     4   9  17  30  48  68  90 120 161 207 251 294
#     4  10  19  31  51  77 104 138 178 216 256 308
#     4   9  18  34  56  81 108 137 170 211 261 316
#     4   9  18  34  56  81 108 137 170 211 261 316
#     4  10  20  34  52  74 103 141 182 219 257 306
#     4  10  19  31  51  77 104 138 178 216 256 308
#     4   9  17  30  48  68  90 120 161 207 251 294
#
# _framework density 21.874034999999999
#
# number of rings (size 3 to 8) (size 9 to 14) (size 15 to 20)
#    0.000    2.667    0.000    2.000    0.000    7.000 
#    0.000    1.667    0.000   11.000    0.000    0.000 
#    0.000    0.000    0.000    0.000    0.000    0.000 
#
# Total GULP energy -297401.614605 kJ/mol
# GULP energy per Si atom -12391.733942 kJ/mol
# Density = 2.182425 g / cm^3
# Si number density = 21.874035 Si / 1000 Ang^3
#
#
#
# Elastic Constant Matrix: (Units=GPa)
#
#
# Indices 1 2 3 4 5 6 
#
# 1 56.7699 53.4977 20.7128 0.0000 0.0000 0.0000
# 2 53.4977 230.4987 76.3547 0.0000 0.0000 0.0000
# 3 20.7128 76.3547 62.9231 0.0000 0.0000 0.0000
# 4 0.0000 0.0000 0.0000 34.3627 0.0000 0.0000
# 5 0.0000 0.0000 0.0000 0.0000 15.3543 0.0000
# 6 0.0000 0.0000 0.0000 0.0000 0.0000 21.8886
#
#
#
# Elastic Compliance Matrix: (Units=1/GPa)
#
#
# Indices 1 2 3 4 5 6 
#
# 1 0.022668 -0.004664 -0.001802 0.000000 0.000000 0.000000
# 2 -0.004664 0.008214 -0.008432 0.000000 0.000000 0.000000
# 3 -0.001802 -0.008432 0.026718 0.000000 0.000000 0.000000
# 4 0.000000 0.000000 0.000000 0.029101 0.000000 0.000000
# 5 0.000000 0.000000 0.000000 0.000000 0.065129 0.000000
# 6 0.000000 0.000000 0.000000 0.000000 0.000000 0.045686
#
#
# Mechanical properties :
#
#
# Convention : Reuss Voigt Hill
#
# Bulk Modulus (GPa) = 35.96727 72.36913 54.16820
# Shear Modulus (GPa) = 21.13450 27.62953 24.38201
#
# Velocity S-wave (km/s) = 3.11173 3.55790 3.34227
# Velocity P-wave (km/s) = 5.42117 7.07351 6.30173
#
# Compressibility (1/GPa) = 0.02780305
#
# Stress axis : x y z
#
# Youngs Moduli (GPa) = 44.11552 121.74000 37.42823
#
# Poissons Ratio (x) = 0.56782 0.06744
# Poissons Ratio (y) = 0.20576 0.31561
# Poissons Ratio (z) = 0.07949 1.02655
#
# Static dielectric constant tensor:
#      x y z
#    x 4.054700 0.000000 0.000000 
#    y 0.000000 4.340080 0.000000 
#    z 0.000000 0.000000 3.762380 
# 
# 
# High freq. dielectric constant tensor:
#      x y z
#    x 1.860390 0.000000 0.000000 
#    y 0.000000 1.880080 0.000000 
#    z 0.000000 0.000000 1.806460 
# 
# From -- ./inp_files/10067.got.cif
#   From: 2010.03.12/outbox.cif.g09.slc.cpg/sg38_6_cif.got.tgz:10067.got - 2010.04.14 02:38:36.
