data_PCOD8178512
_publ_section_title
;
Structure prediction by ZEFSAII (Michael W. Deem and Ramdas Pophale) SiO2 
 PCOD8178512
Probable space group: A M M 2
;
_chemical_formula_sum "Si O2"
_cell_formula_units_Z 64
_cell_length_a 9.108180
_cell_length_b 24.490248
_cell_length_c 15.048631
_cell_angle_alpha 90.000000
_cell_angle_beta 90.000000
_cell_angle_gamma 90.000000
_cell_volume 3356.771513
_symmetry_space_group_name_H-M "A M M 2"
_symmetry_group_IT_number 38
_symmetry_cell_setting 'orthorhombic'
loop_
_space_group_symop_operation_xyz
x,y,z
-x,-y,z
-x,y,z
x,-y,z
x,1/2+y,1/2+z
-x,1/2-y,1/2+z
-x,1/2+y,1/2+z
x,1/2-y,1/2+z
loop_
_atom_site_type_symbol
_atom_site_label
_atom_site_fract_x
_atom_site_fract_y
_atom_site_fract_z
Si Si1 0.173065 0.646753 0.370350
Si Si2 0.332360 0.562945 0.248565
Si Si3 0.832231 0.716978 0.021956
Si Si4 0.332317 0.860885 0.240657
Si Si5 0.330991 0.256122 0.850015
Si Si6 0.829827 0.902224 0.574311
Si Si7 0.831549 0.335244 0.572195
Si Si8 0.669150 0.563093 0.897658
O O1 0.244394 0.595077 0.323587
O O2 0.237274 0.702293 0.328418
O O3 0.212979 0.643717 0.474455
O O4 0.000000 0.646494 0.353303
O O5 0.500000 0.583656 0.244216
O O6 0.325019 0.500000 0.275804
O O7 0.260087 0.570335 0.152756
O O8 0.725265 0.713140 0.937967
O O9 0.000000 0.721624 0.986570
O O10 0.810137 0.663268 0.081496
O O11 0.794592 0.770627 0.079625
O O12 0.500000 0.876408 0.225744
O O13 0.311604 0.798079 0.269326
O O14 0.254766 0.869359 0.146128
O O15 0.267880 0.901764 0.315141
O O16 0.500000 0.239605 0.863917
O O17 0.769060 0.924743 0.482138
O O18 0.000000 0.918701 0.582530
O O19 0.000000 0.346732 0.591104
O O20 0.500000 0.579340 0.918698
O O21 0.681921 0.500000 0.871500
#
# Coordination Sequence:
#
# PCOD8178512 Si02
#       8
#     8   8   8   8   8   8   8   8
#     4  10  22  41  62  85 115 152 195 243 297 352
#     4  11  25  43  62  86 116 152 197 246 296 351
#     4   9  19  35  53  81 116 153 191 230 284 345
#     4  10  21  35  54  85 117 151 195 240 289 342
#     4  10  19  33  55  85 117 151 191 237 287 343
#     4  11  22  36  58  88 120 155 194 239 291 350
#     4   9  20  37  57  82 115 152 190 236 290 346
#     4  10  21  39  59  80 115 159 199 242 290 343
#
# _framework density 19.065937999999999
#
# number of rings (size 3 to 8) (size 9 to 14) (size 15 to 20)
#    0.000    2.000    1.250    2.625    1.750    7.250 
#    0.000    0.625    0.000    2.250    0.000    0.000 
#    0.000    0.000    0.000    0.000    0.000    0.000 
#
# Total GULP energy -396879.225416 kJ/mol
# GULP energy per Si atom -12402.475794 kJ/mol
# Density = 1.902254 g / cm^3
# Si number density = 19.065938 Si / 1000 Ang^3
#
#
#
# Elastic Constant Matrix: (Units=GPa)
#
#
# Indices 1 2 3 4 5 6 
#
# 1 104.3116 45.9892 56.4992 0.0000 0.0000 0.0000
# 2 45.9892 88.3443 47.0348 0.0000 0.0000 0.0000
# 3 56.4992 47.0348 105.6749 0.0000 0.0000 0.0000
# 4 0.0000 0.0000 0.0000 27.7000 0.0000 0.0000
# 5 0.0000 0.0000 0.0000 0.0000 36.2340 0.0000
# 6 0.0000 0.0000 0.0000 0.0000 0.0000 26.2195
#
#
#
# Elastic Compliance Matrix: (Units=1/GPa)
#
#
# Indices 1 2 3 4 5 6 
#
# 1 0.014780 -0.004570 -0.005868 0.000000 0.000000 0.000000
# 2 -0.004570 0.016248 -0.004788 0.000000 0.000000 0.000000
# 3 -0.005868 -0.004788 0.014732 0.000000 0.000000 0.000000
# 4 0.000000 0.000000 0.000000 0.036101 0.000000 0.000000
# 5 0.000000 0.000000 0.000000 0.000000 0.027598 0.000000
# 6 0.000000 0.000000 0.000000 0.000000 0.000000 0.038140
#
#
# Mechanical properties :
#
#
# Convention : Reuss Voigt Hill
#
# Bulk Modulus (GPa) = 65.33153 66.37525 65.85339
# Shear Modulus (GPa) = 27.29964 27.95120 27.62542
#
# Velocity S-wave (km/s) = 3.78809 3.83303 3.81063
# Velocity P-wave (km/s) = 7.31255 7.38096 7.34683
#
# Compressibility (1/GPa) = 0.01530654
#
# Stress axis : x y z
#
# Youngs Moduli (GPa) = 67.66025 61.54773 67.88103
#
# Poissons Ratio (x) = 0.28125 0.39833
# Poissons Ratio (y) = 0.30918 0.32505
# Poissons Ratio (z) = 0.39704 0.29472
#
# Static dielectric constant tensor:
#      x y z
#    x 3.572080 0.000000 0.000000 
#    y 0.000000 3.515340 0.000000 
#    z 0.000000 0.000000 3.356530 
# 
# 
# High freq. dielectric constant tensor:
#      x y z
#    x 1.747140 0.000000 0.000000 
#    y 0.000000 1.736980 0.000000 
#    z 0.000000 0.000000 1.733400 
# 
# From -- ./inp_files/12759.got.cif
#   From: 2010.03.12/outbox.cif.g09.slc.cpg/sg38_7_cif.got.tgz:12759.got - 2010.04.14 02:38:36.
