data_PCOD8178328
_publ_section_title
;
Structure prediction by ZEFSAII (Michael W. Deem and Ramdas Pophale) SiO2 
 PCOD8178328
Probable space group: A M M 2
;
_chemical_formula_sum "Si O2"
_cell_formula_units_Z 64
_cell_length_a 8.820314
_cell_length_b 18.563920
_cell_length_c 20.713939
_cell_angle_alpha 90.000000
_cell_angle_beta 90.000000
_cell_angle_gamma 90.000000
_cell_volume 3391.692158
_symmetry_space_group_name_H-M "A M M 2"
_symmetry_group_IT_number 38
_symmetry_cell_setting 'orthorhombic'
loop_
_space_group_symop_operation_xyz
x,y,z
-x,-y,z
-x,y,z
x,-y,z
x,1/2+y,1/2+z
-x,1/2-y,1/2+z
-x,1/2+y,1/2+z
x,1/2-y,1/2+z
loop_
_atom_site_type_symbol
_atom_site_label
_atom_site_fract_x
_atom_site_fract_y
_atom_site_fract_z
Si Si1 0.832392 0.342700 0.652120
Si Si2 0.324247 0.165944 0.022320
Si Si3 0.674219 0.417019 0.393764
Si Si4 0.174937 0.916675 0.396957
Si Si5 0.181033 0.818190 0.514794
Si Si6 0.678464 0.836442 0.283671
Si Si7 0.180403 0.817063 0.790318
Si Si8 0.165337 0.672040 0.152370
O O1 0.747370 0.367737 0.587177
O O2 0.739252 0.366034 0.715357
O O3 0.848333 0.257639 0.651031
O O4 0.000000 0.378098 0.654439
O O5 0.500000 0.180902 0.035108
O O6 0.296424 0.107657 0.966693
O O7 0.248577 0.240225 0.999102
O O8 0.500000 0.404071 0.374145
O O9 0.720305 0.500000 0.388273
O O10 0.780037 0.372945 0.345602
O O11 0.231327 0.873051 0.459584
O O12 0.277927 0.895613 0.336589
O O13 0.000000 0.898674 0.381266
O O14 0.198449 0.000000 0.412816
O O15 0.245991 0.848786 0.584302
O O16 0.000000 0.810252 0.520022
O O17 0.500000 0.827201 0.279261
O O18 0.749186 0.760494 0.305841
O O19 0.245869 0.847306 0.720790
O O20 0.000000 0.807081 0.785304
O O21 0.000000 0.635287 0.152986
#
# Coordination Sequence:
#
# PCOD8178328 Si02
#       8
#     8   8   8   8   8   8   8   8
#     4   9  17  32  54  79 106 133 167 216 265 311
#     4  10  19  32  53  79 103 133 175 219 266 320
#     4  10  22  38  52  71 106 147 182 220 267 317
#     4  10  21  36  53  75 105 142 184 227 267 308
#     4   9  17  32  54  77 103 136 172 214 265 317
#     4  11  21  34  55  81 108 139 174 214 265 323
#     4  10  19  33  55  81 107 137 177 222 265 314
#     4   7  13  27  48  75 102 126 159 208 262 308
#
# _framework density 18.869637999999998
#
# number of rings (size 3 to 8) (size 9 to 14) (size 15 to 20)
#    0.000    2.500    0.000    4.500    0.000    4.000 
#    0.000    1.875    0.000    4.500    0.000    0.000 
#    0.000    0.000    0.000    0.000    0.000    0.000 
#
# Total GULP energy -396627.863704 kJ/mol
# GULP energy per Si atom -12394.620741 kJ/mol
# Density = 1.882669 g / cm^3
# Si number density = 18.869638 Si / 1000 Ang^3
#
#
#
# Elastic Constant Matrix: (Units=GPa)
#
#
# Indices 1 2 3 4 5 6 
#
# 1 80.0057 15.7989 33.9639 0.0000 0.0000 0.0000
# 2 15.7989 41.2581 16.4768 0.0000 0.0000 0.0000
# 3 33.9639 16.4768 112.4492 0.0000 0.0000 0.0000
# 4 0.0000 0.0000 0.0000 4.1909 0.0000 0.0000
# 5 0.0000 0.0000 0.0000 0.0000 29.3007 0.0000
# 6 0.0000 0.0000 0.0000 0.0000 0.0000 18.3623
#
#
#
# Elastic Compliance Matrix: (Units=1/GPa)
#
#
# Indices 1 2 3 4 5 6 
#
# 1 0.014985 -0.004175 -0.003914 0.000000 0.000000 0.000000
# 2 -0.004175 0.026907 -0.002682 0.000000 0.000000 0.000000
# 3 -0.003914 -0.002682 0.010468 0.000000 0.000000 0.000000
# 4 0.000000 0.000000 0.000000 0.238611 0.000000 0.000000
# 5 0.000000 0.000000 0.000000 0.000000 0.034129 0.000000
# 6 0.000000 0.000000 0.000000 0.000000 0.000000 0.054459
#
#
# Mechanical properties :
#
#
# Convention : Reuss Voigt Hill
#
# Bulk Modulus (GPa) = 32.44787 40.68803 36.56795
# Shear Modulus (GPa) = 12.15436 21.53567 16.84501
#
# Velocity S-wave (km/s) = 2.54071 3.38196 2.99106
# Velocity P-wave (km/s) = 5.08331 6.07122 5.59910
#
# Compressibility (1/GPa) = 0.03081867
#
# Stress axis : x y z
#
# Youngs Moduli (GPa) = 66.73212 37.16453 95.52809
#
# Poissons Ratio (x) = 0.15516 0.37393
# Poissons Ratio (y) = 0.27861 0.25617
# Poissons Ratio (z) = 0.26121 0.09966
#
# Static dielectric constant tensor:
#      x y z
#    x 3.392050 0.000000 0.000000 
#    y 0.000000 3.058220 0.000000 
#    z 0.000000 0.000000 3.987980 
# 
# 
# High freq. dielectric constant tensor:
#      x y z
#    x 1.720810 0.000000 0.000000 
#    y 0.000000 1.692040 0.000000 
#    z 0.000000 0.000000 1.758370 
# 
# From -- ./inp_files/20055.got.cif
#   From: 2010.03.12/outbox.cif.g09.slc.cpg/sg38_11_cif.got.tgz:20055.got - 2010.04.14 02:38:36.
