data_PCOD8178239
_publ_section_title
;
Structure prediction by ZEFSAII (Michael W. Deem and Ramdas Pophale) SiO2 
 PCOD8178239
Probable space group: A M M 2
;
_chemical_formula_sum "Si O2"
_cell_formula_units_Z 64
_cell_length_a 19.416811
_cell_length_b 8.793906
_cell_length_c 20.868057
_cell_angle_alpha 90.000000
_cell_angle_beta 90.000000
_cell_angle_gamma 90.000000
_cell_volume 3563.212610
_symmetry_space_group_name_H-M "A M M 2"
_symmetry_group_IT_number 38
_symmetry_cell_setting 'orthorhombic'
loop_
_space_group_symop_operation_xyz
x,y,z
-x,-y,z
-x,y,z
x,-y,z
x,1/2+y,1/2+z
-x,1/2-y,1/2+z
-x,1/2+y,1/2+z
x,1/2-y,1/2+z
loop_
_atom_site_type_symbol
_atom_site_label
_atom_site_fract_x
_atom_site_fract_y
_atom_site_fract_z
Si Si1 0.578103 0.178698 0.058020
Si Si2 0.075691 0.680295 0.332422
Si Si3 0.213835 0.681002 0.134698
Si Si4 0.709960 0.822341 0.759353
Si Si5 0.289780 0.180220 0.508824
Si Si6 0.576740 0.824643 0.692524
Si Si7 0.218245 0.818990 0.886474
Si Si8 0.925132 0.680708 0.188273
O O1 0.500000 0.229646 0.040349
O O2 0.595194 0.225228 0.130762
O O3 0.586605 0.000000 0.050936
O O4 0.631793 0.258496 0.009866
O O5 0.075928 0.500000 0.330074
O O6 0.138322 0.733882 0.378130
O O7 0.088768 0.741851 0.260330
O O8 0.000000 0.737379 0.357134
O O9 0.219150 0.500000 0.133427
O O10 0.252134 0.747276 0.197291
O O11 0.134304 0.737284 0.139678
O O12 0.248959 0.745609 0.070662
O O13 0.628511 0.786803 0.750938
O O14 0.738489 0.754765 0.825629
O O15 0.725973 0.000000 0.761322
O O16 0.249104 0.239192 0.447893
O O17 0.291884 0.000000 0.507567
O O18 0.500000 0.789840 0.717781
O O19 0.585314 0.000000 0.671209
O O20 0.224783 0.000000 0.893738
O O21 0.924319 0.500000 0.190852
O O22 0.000000 0.738941 0.163901
#
# Coordination Sequence:
#
# PCOD8178239 Si02
#       8
#     8   8   8   8   8   8   8   8
#     4  10  20  34  53  77 102 128 164 209 254 299
#     4   8  13  23  43  71  97 123 161 210 260 305
#     4   9  15  26  45  69  95 126 164 206 249 294
#     4   9  15  27  48  72  95 126 167 210 252 293
#     4  11  22  35  51  72 104 140 172 206 251 310
#     4   9  16  28  49  76 102 129 163 201 249 308
#     4  10  19  32  51  73 102 135 172 217 257 298
#     4   8  12  20  39  69  99 123 158 211 260 295
#
# _framework density 17.961317999999999
#
# number of rings (size 3 to 8) (size 9 to 14) (size 15 to 20)
#    0.000    2.750    2.500    1.500    0.000    0.750 
#    0.000    1.875    0.000    3.375    0.000    0.000 
#    0.000    0.000    0.000    0.000    0.000    0.000 
#
# Total GULP energy -396533.338574 kJ/mol
# GULP energy per Si atom -12391.666830 kJ/mol
# Density = 1.792044 g / cm^3
# Si number density = 17.961318 Si / 1000 Ang^3
#
#
#
# Elastic Constant Matrix: (Units=GPa)
#
#
# Indices 1 2 3 4 5 6 
#
# 1 170.9563 29.6741 78.4215 0.0000 0.0000 0.0000
# 2 29.6741 29.3843 22.7724 0.0000 0.0000 0.0000
# 3 78.4215 22.7724 113.3504 0.0000 0.0000 0.0000
# 4 0.0000 0.0000 0.0000 19.8171 0.0000 0.0000
# 5 0.0000 0.0000 0.0000 0.0000 32.1187 0.0000
# 6 0.0000 0.0000 0.0000 0.0000 0.0000 13.2880
#
#
#
# Elastic Compliance Matrix: (Units=1/GPa)
#
#
# Indices 1 2 3 4 5 6 
#
# 1 0.009183 -0.005152 -0.005318 0.000000 0.000000 0.000000
# 2 -0.005152 0.043198 -0.005114 0.000000 0.000000 0.000000
# 3 -0.005318 -0.005114 0.013529 0.000000 0.000000 0.000000
# 4 0.000000 0.000000 0.000000 0.050462 0.000000 0.000000
# 5 0.000000 0.000000 0.000000 0.000000 0.031134 0.000000
# 6 0.000000 0.000000 0.000000 0.000000 0.000000 0.075256
#
#
# Mechanical properties :
#
#
# Convention : Reuss Voigt Hill
#
# Bulk Modulus (GPa) = 28.78420 63.93634 46.36027
# Shear Modulus (GPa) = 18.83150 25.23297 22.03223
#
# Velocity S-wave (km/s) = 3.24149 3.75220 3.50615
# Velocity P-wave (km/s) = 5.48362 7.37875 6.50062
#
# Compressibility (1/GPa) = 0.03474128
#
# Stress axis : x y z
#
# Youngs Moduli (GPa) = 108.89126 23.14912 73.91408
#
# Poissons Ratio (x) = 0.11927 0.39311
# Poissons Ratio (y) = 0.56104 0.37800
# Poissons Ratio (z) = 0.57914 0.11839
#
# Static dielectric constant tensor:
#      x y z
#    x 3.888610 0.000000 0.000000 
#    y 0.000000 2.835850 0.000000 
#    z 0.000000 0.000000 3.182360 
# 
# 
# High freq. dielectric constant tensor:
#      x y z
#    x 1.720390 0.000000 0.000000 
#    y 0.000000 1.642510 0.000000 
#    z 0.000000 0.000000 1.665210 
# 
# From -- ./inp_files/18999.got.cif
#   From: 2010.03.12/outbox.cif.g09.slc.cpg/sg38_10_cif.got.tgz:18999.got - 2010.04.14 02:38:36.
