data_PCOD8178224
_publ_section_title
;
Structure prediction by ZEFSAII (Michael W. Deem and Ramdas Pophale) SiO2 
 PCOD8178224
Probable space group: A M M 2
;
_chemical_formula_sum "Si O2"
_cell_formula_units_Z 40
_cell_length_a 9.323258
_cell_length_b 25.612555
_cell_length_c 9.548784
_cell_angle_alpha 90.000000
_cell_angle_beta 90.000000
_cell_angle_gamma 90.000000
_cell_volume 2280.177605
_symmetry_space_group_name_H-M "A M M 2"
_symmetry_group_IT_number 38
_symmetry_cell_setting 'orthorhombic'
loop_
_space_group_symop_operation_xyz
x,y,z
-x,-y,z
-x,y,z
x,-y,z
x,1/2+y,1/2+z
-x,1/2-y,1/2+z
-x,1/2+y,1/2+z
x,1/2-y,1/2+z
loop_
_atom_site_type_symbol
_atom_site_label
_atom_site_fract_x
_atom_site_fract_y
_atom_site_fract_z
Si Si1 0.167874 0.164850 0.735930
Si Si2 0.834419 0.784455 0.204268
Si Si3 0.667078 0.940873 0.231957
Si Si4 0.331137 0.643679 0.504735
Si Si5 0.165013 0.370318 0.929802
O O1 0.210885 0.225506 0.735030
O O2 0.211344 0.138894 0.589166
O O3 0.000000 0.157861 0.767802
O O4 0.260183 0.135470 0.853421
O O5 0.737394 0.805726 0.078214
O O6 0.805545 0.817023 0.345139
O O7 0.000000 0.787821 0.155804
O O8 0.500000 0.937665 0.264496
O O9 0.706589 0.907821 0.094181
O O10 0.745273 0.918208 0.368243
O O11 0.717971 0.000000 0.205591
O O12 0.500000 0.652435 0.489348
O O13 0.000000 0.386272 0.918687
#
# Coordination Sequence:
#
# PCOD8178224 Si02
#       5
#     8   8   8   8   8
#     4  10  19  32  50  73 104 137 163 192 237 292
#     4   9  17  32  52  71  97 136 171 194 228 284
#     4   9  19  37  56  70  90 125 165 203 248 300
#     4  10  20  32  49  75 102 128 163 205 243 283
#     4   9  18  31  50  76 100 125 163 205 238 277
#
# _framework density 17.542491999999999
#
# number of rings (size 3 to 8) (size 9 to 14) (size 15 to 20)
#    0.000    2.600    0.000    1.800    0.000    6.000 
#    0.000    5.000    0.000    3.600    0.000    0.000 
#    0.000    0.000    0.000    0.000    0.000    0.000 
#
# Total GULP energy -248062.509406 kJ/mol
# GULP energy per Si atom -12403.125470 kJ/mol
# Density = 1.750256 g / cm^3
# Si number density = 17.542492 Si / 1000 Ang^3
#
#
#
# Elastic Constant Matrix: (Units=GPa)
#
#
# Indices 1 2 3 4 5 6 
#
# 1 65.3967 47.9100 63.9226 0.0000 0.0000 0.0000
# 2 47.9100 112.4261 59.3539 0.0000 0.0000 0.0000
# 3 63.9226 59.3539 147.1221 0.0000 0.0000 0.0000
# 4 0.0000 0.0000 0.0000 12.2676 0.0000 0.0000
# 5 0.0000 0.0000 0.0000 0.0000 32.5259 0.0000
# 6 0.0000 0.0000 0.0000 0.0000 0.0000 25.7096
#
#
#
# Elastic Compliance Matrix: (Units=1/GPa)
#
#
# Indices 1 2 3 4 5 6 
#
# 1 0.031160 -0.007790 -0.010396 0.000000 0.000000 0.000000
# 2 -0.007790 0.013250 -0.001960 0.000000 0.000000 0.000000
# 3 -0.010396 -0.001960 0.012105 0.000000 0.000000 0.000000
# 4 0.000000 0.000000 0.000000 0.081516 0.000000 0.000000
# 5 0.000000 0.000000 0.000000 0.000000 0.030745 0.000000
# 6 0.000000 0.000000 0.000000 0.000000 0.000000 0.038896
#
#
# Mechanical properties :
#
#
# Convention : Reuss Voigt Hill
#
# Bulk Modulus (GPa) = 61.64788 74.14642 67.89715
# Shear Modulus (GPa) = 19.73391 24.35120 22.04256
#
# Velocity S-wave (km/s) = 3.35762 3.72980 3.54859
# Velocity P-wave (km/s) = 7.08871 7.80430 7.45509
#
# Compressibility (1/GPa) = 0.01622116
#
# Stress axis : x y z
#
# Youngs Moduli (GPa) = 32.09250 75.47397 82.61210
#
# Poissons Ratio (x) = 0.58798 0.85881
# Poissons Ratio (y) = 0.25001 0.16196
# Poissons Ratio (z) = 0.33362 0.14797
#
# Static dielectric constant tensor:
#      x y z
#    x 3.206580 0.000000 0.000000 
#    y 0.000000 3.195300 0.000000 
#    z 0.000000 0.000000 3.314080 
# 
# 
# High freq. dielectric constant tensor:
#      x y z
#    x 1.674830 0.000000 0.000000 
#    y 0.000000 1.662510 0.000000 
#    z 0.000000 0.000000 1.682300 
# 
# From -- ./inp_files/3294.got.cif
#   From: 2010.03.12/outbox.cif.g09.slc.cpg/sg38_2_cif.got.tgz:3294.got - 2010.04.14 02:38:36.
