data_PCOD8178483
_publ_section_title
;
Structure prediction by ZEFSAII (Michael W. Deem and Ramdas Pophale) SiO2 
 PCOD8178483
Probable space group: A M M 2
;
_chemical_formula_sum "Si O2"
_cell_formula_units_Z 64
_cell_length_a 19.781108
_cell_length_b 8.975481
_cell_length_c 19.938717
_cell_angle_alpha 90.000000
_cell_angle_beta 90.000000
_cell_angle_gamma 90.000000
_cell_volume 3540.018693
_symmetry_space_group_name_H-M "A M M 2"
_symmetry_group_IT_number 38
_symmetry_cell_setting 'orthorhombic'
loop_
_space_group_symop_operation_xyz
x,y,z
-x,-y,z
-x,y,z
x,-y,z
x,1/2+y,1/2+z
-x,1/2-y,1/2+z
-x,1/2+y,1/2+z
x,1/2-y,1/2+z
loop_
_atom_site_type_symbol
_atom_site_label
_atom_site_fract_x
_atom_site_fract_y
_atom_site_fract_z
Si Si1 0.173731 0.326580 0.044060
Si Si2 0.812188 0.171584 0.694874
Si Si3 0.921789 0.672326 0.439223
Si Si4 0.312701 0.672638 0.511347
Si Si5 0.424604 0.675932 0.614315
Si Si6 0.155486 0.324163 0.826352
Si Si7 0.291430 0.829673 0.862599
Si Si8 0.340021 0.171419 0.721668
O O1 0.169880 0.500000 0.025090
O O2 0.155653 0.299871 0.122124
O O3 0.248923 0.271075 0.030434
O O4 0.119785 0.237029 0.001267
O O5 0.851910 0.268671 0.749797
O O6 0.733440 0.218272 0.693560
O O7 0.818074 0.000000 0.716629
O O8 0.902699 0.500000 0.430768
O O9 0.904981 0.756233 0.370166
O O10 0.000000 0.695867 0.455768
O O11 0.296695 0.500000 0.527382
O O12 0.376958 0.730917 0.553435
O O13 0.329999 0.695060 0.432691
O O14 0.500000 0.739776 0.602583
O O15 0.426397 0.500000 0.616998
O O16 0.396914 0.732007 0.685559
O O17 0.150013 0.500000 0.827745
O O18 0.226051 0.275038 0.859658
O O19 0.342568 0.794051 0.801515
O O20 0.265592 0.000000 0.855487
O O21 0.355383 0.000000 0.706008
#
# Coordination Sequence:
#
# PCOD8178483 Si02
#       8
#     8   8   8   8   8   8   8   8
#     4  11  21  35  58  87 114 143 185 237 281 328
#     4   9  19  35  55  81 114 144 178 228 280 330
#     4  11  24  41  59  80 113 155 190 225 279 340
#     4  10  19  33  55  79 108 148 186 227 280 335
#     4  10  21  35  51  76 110 147 188 233 283 337
#     4  11  21  33  55  85 112 142 183 230 275 326
#     4   9  18  33  53  78 108 140 177 227 280 327
#     4   9  17  32  52  76 105 138 181 225 272 331
#
# _framework density 18.079001000000002
#
# number of rings (size 3 to 8) (size 9 to 14) (size 15 to 20)
#    0.000    2.000    2.500    2.625    0.000    4.250 
#    0.000    1.250    0.000    3.000    0.000    0.000 
#    0.000    0.000    0.000    0.000    0.000    0.000 
#
# Total GULP energy -396833.791512 kJ/mol
# GULP energy per Si atom -12401.055985 kJ/mol
# Density = 1.803785 g / cm^3
# Si number density = 18.079001 Si / 1000 Ang^3
#
#
#
# Elastic Constant Matrix: (Units=GPa)
#
#
# Indices 1 2 3 4 5 6 
#
# 1 101.0982 51.0838 60.0973 0.0000 0.0000 0.0000
# 2 51.0838 91.2217 52.4280 0.0000 0.0000 0.0000
# 3 60.0973 52.4280 129.3732 0.0000 0.0000 0.0000
# 4 0.0000 0.0000 0.0000 31.5217 0.0000 0.0000
# 5 0.0000 0.0000 0.0000 0.0000 24.0219 0.0000
# 6 0.0000 0.0000 0.0000 0.0000 0.0000 20.6946
#
#
#
# Elastic Compliance Matrix: (Units=1/GPa)
#
#
# Indices 1 2 3 4 5 6 
#
# 1 0.015880 -0.006066 -0.004919 0.000000 0.000000 0.000000
# 2 -0.006066 0.016608 -0.003912 0.000000 0.000000 0.000000
# 3 -0.004919 -0.003912 0.011600 0.000000 0.000000 0.000000
# 4 0.000000 0.000000 0.000000 0.031724 0.000000 0.000000
# 5 0.000000 0.000000 0.000000 0.000000 0.041629 0.000000
# 6 0.000000 0.000000 0.000000 0.000000 0.000000 0.048322
#
#
# Mechanical properties :
#
#
# Convention : Reuss Voigt Hill
#
# Bulk Modulus (GPa) = 69.95976 72.10127 71.03052
# Shear Modulus (GPa) = 24.95987 25.78657 25.37322
#
# Velocity S-wave (km/s) = 3.71967 3.78077 3.75035
# Velocity P-wave (km/s) = 7.56496 7.68289 7.62415
#
# Compressibility (1/GPa) = 0.01429393
#
# Stress axis : x y z
#
# Youngs Moduli (GPa) = 62.97103 60.21247 86.20777
#
# Poissons Ratio (x) = 0.36525 0.42402
# Poissons Ratio (y) = 0.38199 0.33728
# Poissons Ratio (z) = 0.30973 0.23558
#
# Static dielectric constant tensor:
#      x y z
#    x 3.196580 0.000000 0.000000 
#    y 0.000000 3.308500 0.000000 
#    z 0.000000 0.000000 3.659660 
# 
# 
# High freq. dielectric constant tensor:
#      x y z
#    x 1.667680 0.000000 0.000000 
#    y 0.000000 1.699890 0.000000 
#    z 0.000000 0.000000 1.717100 
# 
# From -- ./inp_files/21413.got.cif
#   From: 2010.03.12/outbox.cif.g09.slc.cpg/sg38_11_cif.got.tgz:21413.got - 2010.04.14 02:38:36.
