data_PCOD8178490
_publ_section_title
;
Structure prediction by ZEFSAII (Michael W. Deem and Ramdas Pophale) SiO2 
 PCOD8178490
Probable space group: A M M 2
;
_chemical_formula_sum "Si O2"
_cell_formula_units_Z 56
_cell_length_a 9.176012
_cell_length_b 16.674228
_cell_length_c 19.906095
_cell_angle_alpha 90.000000
_cell_angle_beta 90.000000
_cell_angle_gamma 90.000000
_cell_volume 3045.690586
_symmetry_space_group_name_H-M "A M M 2"
_symmetry_group_IT_number 38
_symmetry_cell_setting 'orthorhombic'
loop_
_space_group_symop_operation_xyz
x,y,z
-x,-y,z
-x,y,z
x,-y,z
x,1/2+y,1/2+z
-x,1/2-y,1/2+z
-x,1/2+y,1/2+z
x,1/2-y,1/2+z
loop_
_atom_site_type_symbol
_atom_site_label
_atom_site_fract_x
_atom_site_fract_y
_atom_site_fract_z
Si Si1 0.171024 0.657336 0.106500
Si Si2 0.326471 0.000000 0.414016
Si Si3 0.164994 0.911889 0.826114
Si Si4 0.828597 0.655092 0.855765
Si Si5 0.834083 0.738607 0.482100
Si Si6 0.171221 0.765635 0.739709
Si Si7 0.669674 0.087854 0.963082
Si Si8 0.327124 0.000000 0.570994
O O1 0.221275 0.724517 0.162051
O O2 0.263189 0.576190 0.110597
O O3 0.000000 0.637211 0.116338
O O4 0.206353 0.691802 0.033608
O O5 0.263420 0.922301 0.376206
O O6 0.278996 0.000000 0.492287
O O7 0.500000 0.000000 0.406811
O O8 0.222930 0.849030 0.772171
O O9 0.271629 0.908575 0.888264
O O10 0.000000 0.891063 0.850263
O O11 0.169238 0.000000 0.792633
O O12 0.799809 0.728123 0.907750
O O13 0.771431 0.688538 0.782736
O O14 0.000000 0.632195 0.855688
O O15 0.743146 0.660117 0.503617
O O16 0.000000 0.712690 0.489752
O O17 0.000000 0.757316 0.744031
O O18 0.500000 0.103843 0.961577
O O19 0.705049 0.000000 0.995004
O O20 0.500000 0.000000 0.577251
#
# Coordination Sequence:
#
# PCOD8178490 Si02
#       8
#     8   4   8   8   8   8   8   4
#     4  10  21  36  57  81 109 144 185 228 277 336
#     4  11  23  37  57  85 113 144 187 234 282 332
#     4   9  16  28  48  75 105 135 167 204 248 300
#     4  10  19  35  58  84 109 139 181 230 282 328
#     4  10  19  33  55  81 104 134 178 226 273 325
#     4   9  18  33  54  80 107 138 177 221 269 323
#     4  10  20  32  49  75 104 137 175 214 262 316
#     4  11  23  37  53  83 123 156 185 224 278 338
#
# _framework density 18.386634999999998
#
# number of rings (size 3 to 8) (size 9 to 14) (size 15 to 20)
#    0.000    2.143    2.857    0.857    1.000    2.571 
#    0.000    1.429    1.571    0.000    0.000    0.000 
#    0.000    0.000    0.000    0.000    0.000    0.000 
#
# Total GULP energy -346979.233474 kJ/mol
# GULP energy per Si atom -12392.115481 kJ/mol
# Density = 1.834479 g / cm^3
# Si number density = 18.386635 Si / 1000 Ang^3
#
#
#
# Elastic Constant Matrix: (Units=GPa)
#
#
# Indices 1 2 3 4 5 6 
#
# 1 61.1016 53.2580 22.7629 0.0000 0.0000 0.0000
# 2 53.2580 105.0297 26.4393 0.0000 0.0000 0.0000
# 3 22.7629 26.4393 76.6012 0.0000 0.0000 0.0000
# 4 0.0000 0.0000 0.0000 22.1743 0.0000 0.0000
# 5 0.0000 0.0000 0.0000 0.0000 9.0850 0.0000
# 6 0.0000 0.0000 0.0000 0.0000 0.0000 24.9693
#
#
#
# Elastic Compliance Matrix: (Units=1/GPa)
#
#
# Indices 1 2 3 4 5 6 
#
# 1 0.030447 -0.014414 -0.004073 0.000000 0.000000 0.000000
# 2 -0.014414 0.017250 -0.001671 0.000000 0.000000 0.000000
# 3 -0.004073 -0.001671 0.014842 0.000000 0.000000 0.000000
# 4 0.000000 0.000000 0.000000 0.045097 0.000000 0.000000
# 5 0.000000 0.000000 0.000000 0.000000 0.110071 0.000000
# 6 0.000000 0.000000 0.000000 0.000000 0.000000 0.040049
#
#
# Mechanical properties :
#
#
# Convention : Reuss Voigt Hill
#
# Bulk Modulus (GPa) = 44.99544 49.73919 47.36732
# Shear Modulus (GPa) = 16.36775 20.59722 18.48249
#
# Velocity S-wave (km/s) = 2.98686 3.35061 3.17395
# Velocity P-wave (km/s) = 6.03490 6.48686 6.26496
#
# Compressibility (1/GPa) = 0.02222447
#
# Stress axis : x y z
#
# Youngs Moduli (GPa) = 32.84425 57.96935 67.37813
#
# Poissons Ratio (x) = 0.83554 0.27441
# Poissons Ratio (y) = 0.47340 0.11258
# Poissons Ratio (z) = 0.13376 0.09686
#
# Static dielectric constant tensor:
#      x y z
#    x 3.220250 0.000000 0.000000 
#    y 0.000000 3.619730 0.000000 
#    z 0.000000 0.000000 3.422600 
# 
# 
# High freq. dielectric constant tensor:
#      x y z
#    x 1.690540 0.000000 0.000000 
#    y 0.000000 1.720570 0.000000 
#    z 0.000000 0.000000 1.692850 
# 
# From -- ./inp_files/19867.got.cif
#   From: 2010.03.12/outbox.cif.g09.slc.cpg/sg38_10_cif.got.tgz:19867.got - 2010.04.14 02:38:36.
