data_PCOD8178846
_publ_section_title
;
Structure prediction by ZEFSAII (Michael W. Deem and Ramdas Pophale) SiO2 
 PCOD8178846
Probable space group: A M M 2
;
_chemical_formula_sum "Si O2"
_cell_formula_units_Z 64
_cell_length_a 9.216447
_cell_length_b 14.406523
_cell_length_c 28.077852
_cell_angle_alpha 90.000000
_cell_angle_beta 90.000000
_cell_angle_gamma 90.000000
_cell_volume 3728.091711
_symmetry_space_group_name_H-M "A M M 2"
_symmetry_group_IT_number 38
_symmetry_cell_setting 'orthorhombic'
loop_
_space_group_symop_operation_xyz
x,y,z
-x,-y,z
-x,y,z
x,-y,z
x,1/2+y,1/2+z
-x,1/2-y,1/2+z
-x,1/2+y,1/2+z
x,1/2-y,1/2+z
loop_
_atom_site_type_symbol
_atom_site_label
_atom_site_fract_x
_atom_site_fract_y
_atom_site_fract_z
Si Si1 0.838703 0.854728 0.345450
Si Si2 0.667264 0.099950 0.793893
Si Si3 0.668545 0.393448 0.661518
Si Si4 0.827726 0.773813 0.977376
Si Si5 0.829367 0.605682 0.566940
Si Si6 0.671590 0.295987 0.757512
Si Si7 0.157869 0.852071 0.880151
Si Si8 0.332789 0.896900 0.437437
O O1 0.753336 0.861642 0.295410
O O2 0.857479 0.748851 0.358400
O O3 0.744967 0.903879 0.386219
O O4 0.000000 0.900134 0.341056
O O5 0.500000 0.115505 0.803920
O O6 0.722242 0.187679 0.762833
O O7 0.736875 0.090600 0.846283
O O8 0.696334 0.000000 0.767830
O O9 0.500000 0.380421 0.650449
O O10 0.705295 0.500000 0.674031
O O11 0.755025 0.359580 0.615261
O O12 0.718500 0.329079 0.705243
O O13 0.781971 0.842232 0.933994
O O14 0.745761 0.675391 0.972907
O O15 0.000000 0.754553 0.975436
O O16 0.778271 0.825226 0.025299
O O17 0.782014 0.500000 0.554702
O O18 0.000000 0.611578 0.574164
O O19 0.500000 0.308416 0.765298
O O20 0.000000 0.900903 0.880944
O O21 0.500000 0.866276 0.430210
O O22 0.324048 0.000000 0.460398
#
# Coordination Sequence:
#
# PCOD8178846 Si02
#       8
#     8   8   8   8   8   8   8   8
#     4   9  17  29  45  66  92 122 157 194 229 268
#     4   9  17  28  42  62  89 121 155 186 219 266
#     4   9  18  32  49  69  91 116 150 192 239 288
#     4   9  18  32  50  71  94 123 158 194 233 279
#     4   9  18  33  52  73  96 121 151 191 241 292
#     4   9  17  30  47  66  92 124 155 192 237 281
#     4   8  15  27  42  62  88 117 149 183 220 262
#     4  10  20  32  47  69  98 131 163 194 230 274
#
# _framework density 17.166958999999999
#
# number of rings (size 3 to 8) (size 9 to 14) (size 15 to 20)
#    0.000    3.000    0.000    1.500    0.000    6.250 
#    0.000    2.500    0.000    2.250    0.000    1.750 
#    0.000    0.000    0.000    0.000    0.000    0.000 
#
# Total GULP energy -396564.921439 kJ/mol
# GULP energy per Si atom -12392.653795 kJ/mol
# Density = 1.712789 g / cm^3
# Si number density = 17.166959 Si / 1000 Ang^3
#
#
#
# Elastic Constant Matrix: (Units=GPa)
#
#
# Indices 1 2 3 4 5 6 
#
# 1 59.3557 35.0686 44.9409 0.0000 0.0000 0.0000
# 2 35.0686 91.0094 60.8370 0.0000 0.0000 0.0000
# 3 44.9409 60.8370 136.3187 0.0000 0.0000 0.0000
# 4 0.0000 0.0000 0.0000 21.1189 0.0000 0.0000
# 5 0.0000 0.0000 0.0000 0.0000 29.0594 0.0000
# 6 0.0000 0.0000 0.0000 0.0000 0.0000 14.1797
#
#
#
# Elastic Compliance Matrix: (Units=1/GPa)
#
#
# Indices 1 2 3 4 5 6 
#
# 1 0.024384 -0.005732 -0.005481 0.000000 0.000000 0.000000
# 2 -0.005732 0.017007 -0.005700 0.000000 0.000000 0.000000
# 3 -0.005481 -0.005700 0.011686 0.000000 0.000000 0.000000
# 4 0.000000 0.000000 0.000000 0.047351 0.000000 0.000000
# 5 0.000000 0.000000 0.000000 0.000000 0.034412 0.000000
# 6 0.000000 0.000000 0.000000 0.000000 0.000000 0.070524
#
#
# Mechanical properties :
#
#
# Convention : Reuss Voigt Hill
#
# Bulk Modulus (GPa) = 51.94429 63.15300 57.54865
# Shear Modulus (GPa) = 20.35769 22.59408 21.47589
#
# Velocity S-wave (km/s) = 3.44737 3.63180 3.54079
# Velocity P-wave (km/s) = 6.79484 7.37929 7.09309
#
# Compressibility (1/GPa) = 0.01925140
#
# Stress axis : x y z
#
# Youngs Moduli (GPa) = 41.01073 58.79889 85.56898
#
# Poissons Ratio (x) = 0.33705 0.46896
# Poissons Ratio (y) = 0.23508 0.48776
# Poissons Ratio (z) = 0.22476 0.33517
#
# Static dielectric constant tensor:
#      x y z
#    x 3.387990 0.000000 0.000000 
#    y 0.000000 3.247200 0.000000 
#    z 0.000000 0.000000 3.169360 
# 
# 
# High freq. dielectric constant tensor:
#      x y z
#    x 1.662740 0.000000 0.000000 
#    y 0.000000 1.656960 0.000000 
#    z 0.000000 0.000000 1.638460 
# 
# From -- ./inp_files/24711.got.cif
#   From: 2010.03.12/outbox.cif.g09.slc.cpg/sg38_13_cif.got.tgz:24711.got - 2010.04.14 02:38:36.
