data_PCOD8178967
_publ_section_title
;
Structure prediction by ZEFSAII (Michael W. Deem and Ramdas Pophale) SiO2 
 PCOD8178967
Probable space group: A M M 2
;
_chemical_formula_sum "Si O2"
_cell_formula_units_Z 64
_cell_length_a 9.299669
_cell_length_b 16.026633
_cell_length_c 22.981409
_cell_angle_alpha 90.000000
_cell_angle_beta 90.000000
_cell_angle_gamma 90.000000
_cell_volume 3425.203941
_symmetry_space_group_name_H-M "A M M 2"
_symmetry_group_IT_number 38
_symmetry_cell_setting 'orthorhombic'
loop_
_space_group_symop_operation_xyz
x,y,z
-x,-y,z
-x,y,z
x,-y,z
x,1/2+y,1/2+z
-x,1/2-y,1/2+z
-x,1/2+y,1/2+z
x,1/2-y,1/2+z
loop_
_atom_site_type_symbol
_atom_site_label
_atom_site_fract_x
_atom_site_fract_y
_atom_site_fract_z
Si Si1 0.162885 0.639294 0.337880
Si Si2 0.331357 0.263502 0.541231
Si Si3 0.836097 0.592424 0.211399
Si Si4 0.670847 0.406768 0.990326
Si Si5 0.836201 0.812394 0.277531
Si Si6 0.668854 0.244504 0.671532
Si Si7 0.670103 0.905117 0.953247
Si Si8 0.345080 0.596050 0.862179
O O1 0.206056 0.588887 0.279619
O O2 0.180717 0.736068 0.322072
O O3 0.266581 0.614488 0.390006
O O4 0.000000 0.618295 0.356803
O O5 0.500000 0.259091 0.529532
O O6 0.267125 0.170220 0.528836
O O7 0.298198 0.284059 0.608443
O O8 0.268243 0.338232 0.500645
O O9 0.823426 0.500000 0.184931
O O10 0.729816 0.650430 0.174708
O O11 0.000000 0.627338 0.206693
O O12 0.500000 0.412597 0.995596
O O13 0.733646 0.500000 0.006709
O O14 0.716070 0.378394 0.925291
O O15 0.748608 0.801385 0.218261
O O16 0.769817 0.889636 0.311633
O O17 0.000000 0.830414 0.260739
O O18 0.500000 0.241796 0.684695
O O19 0.500000 0.896586 0.947998
O O20 0.712003 0.000000 0.972003
O O21 0.500000 0.641332 0.849779
O O22 0.377800 0.500000 0.865019
#
# Coordination Sequence:
#
# PCOD8178967 Si02
#       8
#     8   8   8   8   8   8   8   8
#     4   9  18  32  50  73 100 130 162 196 242 300
#     4   9  18  32  48  69 100 133 164 205 253 294
#     4   9  18  33  51  72 103 137 161 191 245 307
#     4   8  14  26  47  75 104 131 158 193 244 304
#     4  10  20  34  51  71  99 135 168 202 252 306
#     4  10  20  33  50  71  95 128 173 217 249 285
#     4  10  20  33  51  75 100 128 164 206 254 305
#     4   9  17  30  51  79 105 128 159 201 249 302
#
# _framework density 18.685019
#
# number of rings (size 3 to 8) (size 9 to 14) (size 15 to 20)
#    0.000    2.750    0.000    3.375    0.000    5.250 
#    0.000    3.125    0.000    3.750    0.000    0.000 
#    0.000    0.000    0.000    0.000    0.000    0.000 
#
# Total GULP energy -396533.540192 kJ/mol
# GULP energy per Si atom -12391.673131 kJ/mol
# Density = 1.864249 g / cm^3
# Si number density = 18.685019 Si / 1000 Ang^3
#
#
#
# Elastic Constant Matrix: (Units=GPa)
#
#
# Indices 1 2 3 4 5 6 
#
# 1 64.0654 17.3564 39.8890 0.0000 0.0000 0.0000
# 2 17.3564 50.0532 44.2858 0.0000 0.0000 0.0000
# 3 39.8890 44.2858 92.2887 0.0000 0.0000 0.0000
# 4 0.0000 0.0000 0.0000 13.9642 0.0000 0.0000
# 5 0.0000 0.0000 0.0000 0.0000 9.6795 0.0000
# 6 0.0000 0.0000 0.0000 0.0000 0.0000 18.7004
#
#
#
# Elastic Compliance Matrix: (Units=1/GPa)
#
#
# Indices 1 2 3 4 5 6 
#
# 1 0.021407 0.001327 -0.009889 0.000000 0.000000 0.000000
# 2 0.001327 0.034802 -0.017273 0.000000 0.000000 0.000000
# 3 -0.009889 -0.017273 0.023399 0.000000 0.000000 0.000000
# 4 0.000000 0.000000 0.000000 0.071612 0.000000 0.000000
# 5 0.000000 0.000000 0.000000 0.000000 0.103311 0.000000
# 6 0.000000 0.000000 0.000000 0.000000 0.000000 0.053475
#
#
# Mechanical properties :
#
#
# Convention : Reuss Voigt Hill
#
# Bulk Modulus (GPa) = 35.79671 45.49662 40.64667
# Shear Modulus (GPa) = 13.55058 15.46058 14.50558
#
# Velocity S-wave (km/s) = 2.69590 2.87963 2.78928
# Velocity P-wave (km/s) = 5.37494 5.95470 5.67224
#
# Compressibility (1/GPa) = 0.02793553
#
# Stress axis : x y z
#
# Youngs Moduli (GPa) = 46.71401 28.73414 42.73759
#
# Poissons Ratio (x) = -0.03812 0.42263
# Poissons Ratio (y) = -0.06197 0.73822
# Poissons Ratio (z) = 0.46196 0.49634
#
# Static dielectric constant tensor:
#      x y z
#    x 3.184370 0.000000 0.000000 
#    y 0.000000 3.589700 0.000000 
#    z 0.000000 0.000000 3.371560 
# 
# 
# High freq. dielectric constant tensor:
#      x y z
#    x 1.696840 0.000000 0.000000 
#    y 0.000000 1.722200 0.000000 
#    z 0.000000 0.000000 1.717820 
# 
# From -- ./inp_files/20103.got.cif
#   From: 2010.03.12/outbox.cif.g09.slc.cpg/sg38_11_cif.got.tgz:20103.got - 2010.04.14 02:38:36.
