data_PCOD8178684
_publ_section_title
;
Structure prediction by ZEFSAII (Michael W. Deem and Ramdas Pophale) SiO2 
 PCOD8178684
Probable space group: A M M 2
;
_chemical_formula_sum "Si O2"
_cell_formula_units_Z 40
_cell_length_a 8.322337
_cell_length_b 25.946671
_cell_length_c 8.919110
_cell_angle_alpha 90.000000
_cell_angle_beta 90.000000
_cell_angle_gamma 90.000000
_cell_volume 1925.965322
_symmetry_space_group_name_H-M "A M M 2"
_symmetry_group_IT_number 38
_symmetry_cell_setting 'orthorhombic'
loop_
_space_group_symop_operation_xyz
x,y,z
-x,-y,z
-x,y,z
x,-y,z
x,1/2+y,1/2+z
-x,1/2-y,1/2+z
-x,1/2+y,1/2+z
x,1/2-y,1/2+z
loop_
_atom_site_type_symbol
_atom_site_label
_atom_site_fract_x
_atom_site_fract_y
_atom_site_fract_z
Si Si1 0.686049 0.705061 0.900950
Si Si2 0.309512 0.500000 0.560005
Si Si3 0.691041 0.603643 0.401166
Si Si4 0.309428 0.398228 0.059749
Si Si5 0.692189 0.500000 0.897967
Si Si6 0.183903 0.200541 0.077329
O O1 0.500000 0.713431 0.941511
O O2 0.704171 0.704380 0.722517
O O3 0.752035 0.651635 0.969636
O O4 0.787854 0.751245 0.969395
O O5 0.500000 0.500000 0.563593
O O6 0.248370 0.449665 0.473044
O O7 0.241003 0.500000 0.728604
O O8 0.500000 0.610341 0.413248
O O9 0.751086 0.604821 0.230077
O O10 0.776431 0.649220 0.487808
O O11 0.500000 0.400935 0.055104
O O12 0.239286 0.449498 0.981643
O O13 0.500000 0.500000 0.899073
O O14 0.000000 0.199668 0.129366
#
# Coordination Sequence:
#
# PCOD8178684 Si02
#       6
#     8   4   8   8   4   8
#     4  11  22  39  61  85 113 153 199 242 288 351
#     4   9  17  29  54  87 118 151 194 244 292 343
#     4  10  19  35  58  86 116 152 196 243 292 350
#     4   9  18  31  54  84 114 145 185 235 287 340
#     4   9  15  27  47  81 120 147 176 230 294 343
#     4  12  25  40  58  85 118 153 191 242 302 358
#
# _framework density 20.768805
#
# number of rings (size 3 to 8) (size 9 to 14) (size 15 to 20)
#    0.000    1.800    0.000    5.400    0.000    7.200 
#    0.000    1.500    0.000    0.000    0.000    4.900 
#    0.000    0.000    0.000    0.000    0.000    0.000 
#
# Total GULP energy -248089.029366 kJ/mol
# GULP energy per Si atom -12404.451468 kJ/mol
# Density = 2.072153 g / cm^3
# Si number density = 20.768805 Si / 1000 Ang^3
#
#
#
# Elastic Constant Matrix: (Units=GPa)
#
#
# Indices 1 2 3 4 5 6 
#
# 1 40.5824 18.5977 5.8230 0.0000 0.0000 0.0000
# 2 18.5977 190.2067 75.8022 0.0000 0.0000 0.0000
# 3 5.8230 75.8022 160.0064 0.0000 0.0000 0.0000
# 4 0.0000 0.0000 0.0000 46.4788 0.0000 0.0000
# 5 0.0000 0.0000 0.0000 0.0000 13.9952 0.0000
# 6 0.0000 0.0000 0.0000 0.0000 0.0000 4.5254
#
#
#
# Elastic Compliance Matrix: (Units=1/GPa)
#
#
# Indices 1 2 3 4 5 6 
#
# 1 0.025810 -0.002650 0.000316 0.000000 0.000000 0.000000
# 2 -0.002650 0.006753 -0.003103 0.000000 0.000000 0.000000
# 3 0.000316 -0.003103 0.007708 0.000000 0.000000 0.000000
# 4 0.000000 0.000000 0.000000 0.021515 0.000000 0.000000
# 5 0.000000 0.000000 0.000000 0.000000 0.071453 0.000000
# 6 0.000000 0.000000 0.000000 0.000000 0.000000 0.220975
#
#
# Mechanical properties :
#
#
# Convention : Reuss Voigt Hill
#
# Bulk Modulus (GPa) = 34.01529 65.69348 49.85439
# Shear Modulus (GPa) = 13.33733 32.37138 22.85436
#
# Velocity S-wave (km/s) = 2.53688 3.95226 3.32085
# Velocity P-wave (km/s) = 4.99946 7.24753 6.22581
#
# Compressibility (1/GPa) = 0.02939854
#
# Stress axis : x y z
#
# Youngs Moduli (GPa) = 38.74449 148.08140 129.73217
#
# Poissons Ratio (x) = 0.39234 -0.04098
# Poissons Ratio (y) = 0.10265 0.40253
# Poissons Ratio (z) = -0.01224 0.45947
#
# Static dielectric constant tensor:
#      x y z
#    x 3.205460 0.000000 0.000000 
#    y 0.000000 4.072240 0.000000 
#    z 0.000000 0.000000 3.906630 
# 
# 
# High freq. dielectric constant tensor:
#      x y z
#    x 1.766470 0.000000 0.000000 
#    y 0.000000 1.833230 0.000000 
#    z 0.000000 0.000000 1.829700 
# 
# From -- ./inp_files/3469.got.cif
#   From: 2010.03.12/outbox.cif.g09.slc.cpg/sg38_2_cif.got.tgz:3469.got - 2010.04.14 02:38:36.
