data_PCOD8178120
_publ_section_title
;
Structure prediction by ZEFSAII (Michael W. Deem and Ramdas Pophale) SiO2 
 PCOD8178120
Probable space group: A M M 2
;
_chemical_formula_sum "Si O2"
_cell_formula_units_Z 48
_cell_length_a 18.733569
_cell_length_b 9.315318
_cell_length_c 15.433430
_cell_angle_alpha 90.000000
_cell_angle_beta 90.000000
_cell_angle_gamma 90.000000
_cell_volume 2693.274790
_symmetry_space_group_name_H-M "A M M 2"
_symmetry_group_IT_number 38
_symmetry_cell_setting 'orthorhombic'
loop_
_space_group_symop_operation_xyz
x,y,z
-x,-y,z
-x,y,z
x,-y,z
x,1/2+y,1/2+z
-x,1/2-y,1/2+z
-x,1/2+y,1/2+z
x,1/2-y,1/2+z
loop_
_atom_site_type_symbol
_atom_site_label
_atom_site_fract_x
_atom_site_fract_y
_atom_site_fract_z
Si Si1 0.082454 0.332550 0.589570
Si Si2 0.578984 0.329784 0.916472
Si Si3 0.082543 0.167302 0.418850
Si Si4 0.831240 0.329507 0.754279
Si Si5 0.583680 0.334314 0.110528
Si Si6 0.669056 0.329134 0.755265
O O1 0.096129 0.500000 0.574065
O O2 0.107825 0.249939 0.504230
O O3 0.128932 0.271357 0.668983
O O4 0.000000 0.301187 0.610916
O O5 0.500000 0.266806 0.896743
O O6 0.574794 0.500000 0.912969
O O7 0.603810 0.284681 0.012828
O O8 0.633730 0.271523 0.844401
O O9 0.128667 0.229111 0.339314
O O10 0.000000 0.197538 0.397640
O O11 0.096917 0.000000 0.434430
O O12 0.835329 0.500000 0.755011
O O13 0.750215 0.274037 0.754343
O O14 0.500000 0.310685 0.127222
O O15 0.604344 0.500000 0.125733
O O16 0.628200 0.234866 0.173869
O O17 0.664628 0.500000 0.748883
#
# Coordination Sequence:
#
# PCOD8178120 Si02
#       6
#     8   8   8   8   8   8
#     4   9  17  31  50  69  92 125 161 195 235 282
#     4   8  15  29  48  67  88 118 153 186 225 275
#     4   9  17  31  51  72  93 121 161 203 235 270
#     4   9  18  31  47  69  97 128 157 188 235 289
#     4   9  18  33  51  70  94 124 156 191 235 284
#     4  10  19  31  49  72  96 123 158 196 231 276
#
# _framework density 17.822168999999999
#
# number of rings (size 3 to 8) (size 9 to 14) (size 15 to 20)
#    0.000    3.000    0.000    2.000    0.000    4.333 
#    0.000    5.000    0.000    5.000    0.000    0.000 
#    0.000    0.000    0.000    0.000    0.000    0.000 
#
# Total GULP energy -297567.557539 kJ/mol
# GULP energy per Si atom -12398.648231 kJ/mol
# Density = 1.778161 g / cm^3
# Si number density = 17.822169 Si / 1000 Ang^3
#
#
#
# Elastic Constant Matrix: (Units=GPa)
#
#
# Indices 1 2 3 4 5 6 
#
# 1 112.7624 30.4473 98.9968 0.0000 0.0000 0.0000
# 2 30.4473 26.7115 39.6824 0.0000 0.0000 0.0000
# 3 98.9968 39.6824 184.6339 0.0000 0.0000 0.0000
# 4 0.0000 0.0000 0.0000 30.3490 0.0000 0.0000
# 5 0.0000 0.0000 0.0000 0.0000 14.3928 0.0000
# 6 0.0000 0.0000 0.0000 0.0000 0.0000 18.3332
#
#
#
# Elastic Compliance Matrix: (Units=1/GPa)
#
#
# Indices 1 2 3 4 5 6 
#
# 1 0.018163 -0.009160 -0.007770 0.000000 0.000000 0.000000
# 2 -0.009160 0.059617 -0.007902 0.000000 0.000000 0.000000
# 3 -0.007770 -0.007902 0.011280 0.000000 0.000000 0.000000
# 4 0.000000 0.000000 0.000000 0.032950 0.000000 0.000000
# 5 0.000000 0.000000 0.000000 0.000000 0.069479 0.000000
# 6 0.000000 0.000000 0.000000 0.000000 0.000000 0.054546
#
#
# Mechanical properties :
#
#
# Convention : Reuss Voigt Hill
#
# Bulk Modulus (GPa) = 25.38270 73.59565 49.48917
# Shear Modulus (GPa) = 16.19007 22.94708 19.56857
#
# Velocity S-wave (km/s) = 3.01728 3.59215 3.31719
# Velocity P-wave (km/s) = 5.13923 7.65433 6.51922
#
# Compressibility (1/GPa) = 0.03939691
#
# Stress axis : x y z
#
# Youngs Moduli (GPa) = 55.05731 16.77370 88.64968
#
# Poissons Ratio (x) = 0.15365 0.68879
# Poissons Ratio (y) = 0.50435 0.70047
# Poissons Ratio (z) = 0.42778 0.13254
#
# Static dielectric constant tensor:
#      x y z
#    x 3.518470 0.000000 0.000000 
#    y 0.000000 2.896280 0.000000 
#    z 0.000000 0.000000 3.543950 
# 
# 
# High freq. dielectric constant tensor:
#      x y z
#    x 1.688710 0.000000 0.000000 
#    y 0.000000 1.647100 0.000000 
#    z 0.000000 0.000000 1.704690 
# 
# From -- ./inp_files/10476.got.cif
#   From: 2010.03.12/outbox.cif.g09.slc.cpg/sg38_6_cif.got.tgz:10476.got - 2010.04.14 02:38:36.
