data_PCOD8178853
_publ_section_title
;
Structure prediction by ZEFSAII (Michael W. Deem and Ramdas Pophale) SiO2 
 PCOD8178853
Probable space group: A M M 2
;
_chemical_formula_sum "Si O2"
_cell_formula_units_Z 48
_cell_length_a 8.932952
_cell_length_b 13.696004
_cell_length_c 23.460640
_cell_angle_alpha 90.000000
_cell_angle_beta 90.000000
_cell_angle_gamma 90.000000
_cell_volume 2870.309510
_symmetry_space_group_name_H-M "A M M 2"
_symmetry_group_IT_number 38
_symmetry_cell_setting 'orthorhombic'
loop_
_space_group_symop_operation_xyz
x,y,z
-x,-y,z
-x,y,z
x,-y,z
x,1/2+y,1/2+z
-x,1/2-y,1/2+z
-x,1/2+y,1/2+z
x,1/2-y,1/2+z
loop_
_atom_site_type_symbol
_atom_site_label
_atom_site_fract_x
_atom_site_fract_y
_atom_site_fract_z
Si Si1 0.673728 0.388078 0.120210
Si Si2 0.828356 0.206453 0.516400
Si Si3 0.676556 0.788607 0.842824
Si Si4 0.175567 0.387379 0.237397
Si Si5 0.172293 0.390008 0.445718
Si Si6 0.825923 0.111101 0.397878
O O1 0.500000 0.372570 0.133609
O O2 0.709363 0.500000 0.103930
O O3 0.720403 0.319596 0.068070
O O4 0.767383 0.356119 0.175251
O O5 0.794148 0.318345 0.498549
O O6 0.790718 0.136167 0.463450
O O7 0.000000 0.192918 0.535698
O O8 0.500000 0.790612 0.839037
O O9 0.742819 0.819588 0.782599
O O10 0.728382 0.863900 0.891303
O O11 0.730369 0.679025 0.856178
O O12 0.216419 0.500000 0.249703
O O13 0.000000 0.368802 0.240890
O O14 0.208113 0.500000 0.465582
O O15 0.000000 0.377726 0.426469
O O16 0.000000 0.129921 0.385251
O O17 0.779199 0.000000 0.386002
#
# Coordination Sequence:
#
# PCOD8178853 Si02
#       6
#     8   8   8   8   8   8
#     4  10  20  32  47  70  99 127 155 192 240 290
#     4   9  17  30  49  72  96 124 159 197 236 279
#     4  11  21  31  47  73 103 129 155 195 245 291
#     4  10  20  34  52  71  93 125 163 200 238 284
#     4   9  18  33  51  70  95 129 167 202 235 278
#     4   9  18  33  52  72  96 129 167 201 232 275
#
# _framework density 16.722936000000001
#
# number of rings (size 3 to 8) (size 9 to 14) (size 15 to 20)
#    0.000    2.333    0.000    4.500    0.000    8.000 
#    0.000    0.000    0.000    1.000    0.000    2.333 
#    0.000    0.000    0.000    0.000    0.000    0.000 
#
# Total GULP energy -297666.187050 kJ/mol
# GULP energy per Si atom -12402.757794 kJ/mol
# Density = 1.668487 g / cm^3
# Si number density = 16.722936 Si / 1000 Ang^3
#
#
#
# Elastic Constant Matrix: (Units=GPa)
#
#
# Indices 1 2 3 4 5 6 
#
# 1 93.4026 49.1826 58.0473 0.0000 0.0000 0.0000
# 2 49.1826 115.5307 62.0714 0.0000 0.0000 0.0000
# 3 58.0473 62.0714 105.9350 0.0000 0.0000 0.0000
# 4 0.0000 0.0000 0.0000 24.0402 0.0000 0.0000
# 5 0.0000 0.0000 0.0000 0.0000 15.6720 0.0000
# 6 0.0000 0.0000 0.0000 0.0000 0.0000 19.5644
#
#
#
# Elastic Compliance Matrix: (Units=1/GPa)
#
#
# Indices 1 2 3 4 5 6 
#
# 1 0.017039 -0.003265 -0.007423 0.000000 0.000000 0.000000
# 2 -0.003265 0.013258 -0.005979 0.000000 0.000000 0.000000
# 3 -0.007423 -0.005979 0.017011 0.000000 0.000000 0.000000
# 4 0.000000 0.000000 0.000000 0.041597 0.000000 0.000000
# 5 0.000000 0.000000 0.000000 0.000000 0.063808 0.000000
# 6 0.000000 0.000000 0.000000 0.000000 0.000000 0.051113
#
#
# Mechanical properties :
#
#
# Convention : Reuss Voigt Hill
#
# Bulk Modulus (GPa) = 71.56991 72.60789 72.08890
# Shear Modulus (GPa) = 20.67653 21.55979 21.11816
#
# Velocity S-wave (km/s) = 3.52009 3.59449 3.55748
# Velocity P-wave (km/s) = 7.70790 7.79356 7.75085
#
# Compressibility (1/GPa) = 0.01397235
#
# Stress axis : x y z
#
# Youngs Moduli (GPa) = 58.68821 75.42436 58.78596
#
# Poissons Ratio (x) = 0.24629 0.43639
# Poissons Ratio (y) = 0.19164 0.35150
# Poissons Ratio (z) = 0.43566 0.45098
#
# Static dielectric constant tensor:
#      x y z
#    x 3.134520 0.000000 0.000000 
#    y 0.000000 3.244210 0.000000 
#    z 0.000000 0.000000 2.980320 
# 
# 
# High freq. dielectric constant tensor:
#      x y z
#    x 1.648810 0.000000 0.000000 
#    y 0.000000 1.637740 0.000000 
#    z 0.000000 0.000000 1.631980 
# 
# From -- ./inp_files/19624.got.cif
#   From: 2010.03.12/outbox.cif.g09.slc.cpg/sg38_10_cif.got.tgz:19624.got - 2010.04.14 02:38:36.
