data_PCOD8178603
_publ_section_title
;
Structure prediction by ZEFSAII (Michael W. Deem and Ramdas Pophale) SiO2 
 PCOD8178603
Probable space group: A M M 2
;
_chemical_formula_sum "Si O2"
_cell_formula_units_Z 64
_cell_length_a 23.988258
_cell_length_b 8.964902
_cell_length_c 15.455588
_cell_angle_alpha 90.000000
_cell_angle_beta 90.000000
_cell_angle_gamma 90.000000
_cell_volume 3323.761016
_symmetry_space_group_name_H-M "A M M 2"
_symmetry_group_IT_number 38
_symmetry_cell_setting 'orthorhombic'
loop_
_space_group_symop_operation_xyz
x,y,z
-x,-y,z
-x,y,z
x,-y,z
x,1/2+y,1/2+z
-x,1/2-y,1/2+z
-x,1/2+y,1/2+z
x,1/2-y,1/2+z
loop_
_atom_site_type_symbol
_atom_site_label
_atom_site_fract_x
_atom_site_fract_y
_atom_site_fract_z
Si Si1 0.437385 0.177345 0.255240
Si Si2 0.629742 0.672188 0.588969
Si Si3 0.256950 0.823916 0.848668
Si Si4 0.746186 0.330075 0.669972
Si Si5 0.634878 0.176600 0.415732
Si Si6 0.132308 0.826403 0.101420
Si Si7 0.136934 0.177026 0.907800
Si Si8 0.063169 0.177132 0.750512
O O1 0.500000 0.242260 0.254324
O O2 0.404413 0.234458 0.171059
O O3 0.405776 0.236363 0.340342
O O4 0.438113 0.000000 0.256285
O O5 0.615190 0.500000 0.571710
O O6 0.695695 0.693910 0.603610
O O7 0.610275 0.768083 0.506822
O O8 0.261802 0.783102 0.748323
O O9 0.304175 0.744911 0.904231
O O10 0.198123 0.762914 0.884186
O O11 0.263058 0.000000 0.860241
O O12 0.745426 0.500000 0.705672
O O13 0.802946 0.294267 0.619801
O O14 0.639293 0.000000 0.414412
O O15 0.093359 0.734887 0.165146
O O16 0.118294 0.000000 0.112506
O O17 0.119414 0.770412 0.003849
O O18 0.093326 0.239501 0.836930
O O19 0.138122 0.000000 0.904647
O O20 0.000000 0.236222 0.751568
O O21 0.065507 0.000000 0.748765
#
# Coordination Sequence:
#
# PCOD8178603 Si02
#       8
#     8   8   8   8   8   8   8   8
#     4   9  19  37  59  80 109 152 193 231 279 331
#     4  10  20  37  59  83 113 148 187 229 277 335
#     4  11  20  34  59  85 113 147 186 227 276 340
#     4  10  19  34  56  84 116 147 179 228 287 334
#     4  11  22  37  57  85 117 148 186 230 282 337
#     4  10  20  35  58  83 110 141 181 226 273 332
#     4   9  19  36  57  82 109 144 183 221 270 329
#     4  10  21  38  57  78 109 146 186 231 276 321
#
# _framework density 19.255293999999999
#
# number of rings (size 3 to 8) (size 9 to 14) (size 15 to 20)
#    0.000    2.000    2.500    1.500    0.000    3.750 
#    0.000    4.375    0.000    2.625    0.000    0.000 
#    0.000    0.000    0.000    0.000    0.000    0.000 
#
# Total GULP energy -396866.386885 kJ/mol
# GULP energy per Si atom -12402.074590 kJ/mol
# Density = 1.921147 g / cm^3
# Si number density = 19.255294 Si / 1000 Ang^3
#
#
#
# Elastic Constant Matrix: (Units=GPa)
#
#
# Indices 1 2 3 4 5 6 
#
# 1 151.3941 29.3243 73.6935 0.0000 0.0000 0.0000
# 2 29.3243 39.2222 33.1461 0.0000 0.0000 0.0000
# 3 73.6935 33.1461 166.6073 0.0000 0.0000 0.0000
# 4 0.0000 0.0000 0.0000 34.6781 0.0000 0.0000
# 5 0.0000 0.0000 0.0000 0.0000 14.7010 0.0000
# 6 0.0000 0.0000 0.0000 0.0000 0.0000 19.0775
#
#
#
# Elastic Compliance Matrix: (Units=1/GPa)
#
#
# Indices 1 2 3 4 5 6 
#
# 1 0.008912 -0.004005 -0.003145 0.000000 0.000000 0.000000
# 2 -0.004005 0.032449 -0.004684 0.000000 0.000000 0.000000
# 3 -0.003145 -0.004684 0.008325 0.000000 0.000000 0.000000
# 4 0.000000 0.000000 0.000000 0.028837 0.000000 0.000000
# 5 0.000000 0.000000 0.000000 0.000000 0.068023 0.000000
# 6 0.000000 0.000000 0.000000 0.000000 0.000000 0.052418
#
#
# Mechanical properties :
#
#
# Convention : Reuss Voigt Hill
#
# Bulk Modulus (GPa) = 38.43614 69.95014 54.19314
# Shear Modulus (GPa) = 21.61659 28.42862 25.02261
#
# Velocity S-wave (km/s) = 3.35420 3.84657 3.60879
# Velocity P-wave (km/s) = 5.91655 7.49231 6.75057
#
# Compressibility (1/GPa) = 0.02601718
#
# Stress axis : x y z
#
# Youngs Moduli (GPa) = 112.20845 30.81803 120.11775
#
# Poissons Ratio (x) = 0.12343 0.37779
# Poissons Ratio (y) = 0.44941 0.56263
# Poissons Ratio (z) = 0.35291 0.14435
#
# Static dielectric constant tensor:
#      x y z
#    x 3.693160 0.000000 0.000000 
#    y 0.000000 3.218220 0.000000 
#    z 0.000000 0.000000 3.706150 
# 
# 
# High freq. dielectric constant tensor:
#      x y z
#    x 1.751240 0.000000 0.000000 
#    y 0.000000 1.716800 0.000000 
#    z 0.000000 0.000000 1.762810 
# 
# From -- ./inp_files/15747.got.cif
#   From: 2010.03.12/outbox.cif.g09.slc.cpg/sg38_8_cif.got.tgz:15747.got - 2010.04.14 02:38:36.
