data_PCOD8178777
_publ_section_title
;
Structure prediction by ZEFSAII (Michael W. Deem and Ramdas Pophale) SiO2 
 PCOD8178777
Probable space group: A M M 2
;
_chemical_formula_sum "Si O2"
_cell_formula_units_Z 56
_cell_length_a 21.174778
_cell_length_b 9.019341
_cell_length_c 15.399211
_cell_angle_alpha 90.000000
_cell_angle_beta 90.000000
_cell_angle_gamma 90.000000
_cell_volume 2940.980483
_symmetry_space_group_name_H-M "A M M 2"
_symmetry_group_IT_number 38
_symmetry_cell_setting 'orthorhombic'
loop_
_space_group_symop_operation_xyz
x,y,z
-x,-y,z
-x,y,z
x,-y,z
x,1/2+y,1/2+z
-x,1/2-y,1/2+z
-x,1/2+y,1/2+z
x,1/2-y,1/2+z
loop_
_atom_site_type_symbol
_atom_site_label
_atom_site_fract_x
_atom_site_fract_y
_atom_site_fract_z
Si Si1 0.847867 0.324061 0.105590
Si Si2 0.072194 0.174538 0.767843
Si Si3 0.624733 0.825995 0.948020
Si Si4 0.927775 0.325531 0.943303
Si Si5 0.633529 0.171386 0.274811
Si Si6 0.714309 0.827434 0.107862
Si Si7 0.500000 0.175800 0.512729
Si Si8 0.500000 0.830235 0.194364
O O1 0.847171 0.500000 0.105612
O O2 0.884594 0.264618 0.190093
O O3 0.777446 0.265945 0.105155
O O4 0.884762 0.264673 0.021234
O O5 0.096837 0.249827 0.855624
O O6 0.000000 0.219911 0.747967
O O7 0.078831 0.000000 0.778953
O O8 0.653748 0.771909 0.856472
O O9 0.560737 0.737749 0.963926
O O10 0.610252 0.000000 0.945674
O O11 0.673975 0.786534 0.023311
O O12 0.920898 0.500000 0.931955
O O13 0.000000 0.280614 0.963164
O O14 0.675272 0.219880 0.192747
O O15 0.560509 0.201564 0.253208
O O16 0.644983 0.000000 0.298057
O O17 0.731231 0.000000 0.109709
O O18 0.500000 0.222355 0.612745
O O19 0.500000 0.000000 0.505342
O O20 0.500000 0.000000 0.159539
#
# Coordination Sequence:
#
# PCOD8178777 Si02
#       8
#     8   8   8   8   8   8   4   4
#     4  10  21  36  56  80 110 148 189 230 275 331
#     4   9  18  34  56  82 111 143 181 228 281 333
#     4  11  23  41  62  85 114 150 190 233 284 337
#     4   9  18  34  56  82 111 144 184 230 279 331
#     4  10  21  39  62  86 113 148 188 233 286 337
#     4  10  23  41  58  79 114 155 189 230 281 331
#     4  12  23  36  61  92 118 146 185 233 284 337
#     4  10  19  38  63  84 116 150 181 229 288 337
#
# _framework density 19.041269
#
# number of rings (size 3 to 8) (size 9 to 14) (size 15 to 20)
#    0.000    2.000    1.429    1.929    0.000    6.857 
#    0.000    5.714    0.000    4.286    0.000    0.000 
#    0.000    0.000    0.000    0.000    0.000    0.000 
#
# Total GULP energy -347314.369085 kJ/mol
# GULP energy per Si atom -12404.084610 kJ/mol
# Density = 1.899793 g / cm^3
# Si number density = 19.041269 Si / 1000 Ang^3
#
#
#
# Elastic Constant Matrix: (Units=GPa)
#
#
# Indices 1 2 3 4 5 6 
#
# 1 114.7557 41.5378 79.2833 0.0000 0.0000 0.0000
# 2 41.5378 57.7288 57.6697 0.0000 0.0000 0.0000
# 3 79.2833 57.6697 179.9045 0.0000 0.0000 0.0000
# 4 0.0000 0.0000 0.0000 36.8814 0.0000 0.0000
# 5 0.0000 0.0000 0.0000 0.0000 -17.1866 0.0000
# 6 0.0000 0.0000 0.0000 0.0000 0.0000 32.1524
#
#
#
# Elastic Compliance Matrix: (Units=1/GPa)
#
#
# Indices 1 2 3 4 5 6 
#
# 1 0.013663 -0.005613 -0.004222 0.000000 0.000000 0.000000
# 2 -0.005613 0.027789 -0.006434 0.000000 0.000000 0.000000
# 3 -0.004222 -0.006434 0.009482 0.000000 0.000000 0.000000
# 4 0.000000 0.000000 0.000000 0.027114 0.000000 0.000000
# 5 0.000000 0.000000 0.000000 0.000000 -0.058185 0.000000
# 6 0.000000 0.000000 0.000000 0.000000 0.000000 0.031102
#
#
# Mechanical properties :
#
#
# Convention : Reuss Voigt Hill
#
# Bulk Modulus (GPa) = 54.36351 78.81896 66.59124
# Shear Modulus (GPa) = 55.78210 21.96264 38.87237
#
# Velocity S-wave (km/s) = 5.41839 3.39989 4.52318
# Velocity P-wave (km/s) = 8.23150 7.54294 7.89473
#
# Compressibility (1/GPa) = 0.01839469
#
# Stress axis : x y z
#
# Youngs Moduli (GPa) = 73.19157 35.98550 105.46842
#
# Poissons Ratio (x) = 0.20200 0.44526
# Poissons Ratio (y) = 0.41086 0.67860
# Poissons Ratio (z) = 0.30899 0.23154
#
# Static dielectric constant tensor:
#      x y z
#    x 3.444050 0.000000 0.000000 
#    y 0.000000 3.351550 0.000000 
#    z 0.000000 0.000000 3.726460 
# 
# 
# High freq. dielectric constant tensor:
#      x y z
#    x 1.737400 0.000000 0.000000 
#    y 0.000000 1.730240 0.000000 
#    z 0.000000 0.000000 1.756820 
# 
# From -- ./inp_files/15519.got.cif
#   From: 2010.03.12/outbox.cif.g09.slc.cpg/sg38_8_cif.got.tgz:15519.got - 2010.04.14 02:38:36.
