data_PCOD8178717
_publ_section_title
;
Structure prediction by ZEFSAII (Michael W. Deem and Ramdas Pophale) SiO2 
 PCOD8178717
Probable space group: A M M 2
;
_chemical_formula_sum "Si O2"
_cell_formula_units_Z 48
_cell_length_a 8.899464
_cell_length_b 20.030985
_cell_length_c 14.386676
_cell_angle_alpha 90.000000
_cell_angle_beta 90.000000
_cell_angle_gamma 90.000000
_cell_volume 2564.641227
_symmetry_space_group_name_H-M "A M M 2"
_symmetry_group_IT_number 38
_symmetry_cell_setting 'orthorhombic'
loop_
_space_group_symop_operation_xyz
x,y,z
-x,-y,z
-x,y,z
x,-y,z
x,1/2+y,1/2+z
-x,1/2-y,1/2+z
-x,1/2+y,1/2+z
x,1/2-y,1/2+z
loop_
_atom_site_type_symbol
_atom_site_label
_atom_site_fract_x
_atom_site_fract_y
_atom_site_fract_z
Si Si1 0.172181 0.923753 0.000000
Si Si2 0.326159 0.776137 0.686575
Si Si3 0.326063 0.119546 0.182353
Si Si4 0.327128 0.077235 0.386104
Si Si5 0.677219 0.307967 0.394113
Si Si6 0.823317 0.812886 0.504335
O O1 0.270817 0.879700 0.930310
O O2 0.000000 0.900202 0.994801
O O3 0.190082 0.000000 0.967858
O O4 0.227490 0.916951 0.105449
O O5 0.500000 0.793045 0.669589
O O6 0.295603 0.697895 0.677841
O O7 0.273149 0.800811 0.787504
O O8 0.227698 0.815441 0.611415
O O9 0.500000 0.102515 0.164339
O O10 0.273088 0.091429 0.281433
O O11 0.500000 0.100181 0.396642
O O12 0.225781 0.118387 0.456923
O O13 0.306210 0.000000 0.410513
O O14 0.500000 0.300921 0.405719
O O15 0.749453 0.250059 0.454748
O O16 0.000000 0.805304 0.498294
#
# Coordination Sequence:
#
# PCOD8178717 Si02
#       6
#     8   8   8   8   8   8
#     4  11  24  39  56  86 126 159 190 236 296 354
#     4  10  21  38  62  89 116 149 197 248 286 335
#     4  10  19  35  61  89 118 153 195 242 289 342
#     4  10  21  39  62  87 118 156 199 244 289 341
#     4  11  22  40  64  86 113 152 201 247 285 339
#     4  12  24  37  59  88 122 157 191 237 293 353
#
# _framework density 18.716069000000001
#
# number of rings (size 3 to 8) (size 9 to 14) (size 15 to 20)
#    0.000    1.333    3.333    3.000    0.000    4.333 
#    0.000    0.833    0.000    1.000    0.000    0.000 
#    0.000    0.000    0.000    0.000    0.000    0.000 
#
# Total GULP energy -297746.488826 kJ/mol
# GULP energy per Si atom -12406.103701 kJ/mol
# Density = 1.867347 g / cm^3
# Si number density = 18.716069 Si / 1000 Ang^3
#
#
#
# Elastic Constant Matrix: (Units=GPa)
#
#
# Indices 1 2 3 4 5 6 
#
# 1 78.2938 22.0299 49.9442 0.0000 0.0000 0.0000
# 2 22.0299 65.1928 36.8611 0.0000 0.0000 0.0000
# 3 49.9442 36.8611 125.0499 0.0000 0.0000 0.0000
# 4 0.0000 0.0000 0.0000 42.3170 0.0000 0.0000
# 5 0.0000 0.0000 0.0000 0.0000 -3.0742 0.0000
# 6 0.0000 0.0000 0.0000 0.0000 0.0000 28.5315
#
#
#
# Elastic Compliance Matrix: (Units=1/GPa)
#
#
# Indices 1 2 3 4 5 6 
#
# 1 0.017433 -0.002345 -0.006271 0.000000 0.000000 0.000000
# 2 -0.002345 0.018722 -0.004582 0.000000 0.000000 0.000000
# 3 -0.006271 -0.004582 0.011852 0.000000 0.000000 0.000000
# 4 0.000000 0.000000 0.000000 0.023631 0.000000 0.000000
# 5 0.000000 0.000000 0.000000 0.000000 -0.325293 0.000000
# 6 0.000000 0.000000 0.000000 0.000000 0.000000 0.035049
#
#
# Mechanical properties :
#
#
# Convention : Reuss Voigt Hill
#
# Bulk Modulus (GPa) = 46.27415 54.02300 50.14858
# Shear Modulus (GPa) = -27.02634 24.20162 -1.41236
#
# Velocity S-wave (km/s) = -3.80415 3.59986 -0.86963
# Velocity P-wave (km/s) = 2.34149 6.79749 5.08372
#
# Compressibility (1/GPa) = 0.02161034
#
# Stress axis : x y z
#
# Youngs Moduli (GPa) = 57.36335 53.41197 84.37218
#
# Poissons Ratio (x) = 0.12525 0.52912
# Poissons Ratio (y) = 0.13451 0.38662
# Poissons Ratio (z) = 0.35974 0.24475
#
# Static dielectric constant tensor:
#      x y z
#    x 3.428690 0.000000 0.000000 
#    y 0.000000 3.381830 0.000000 
#    z 0.000000 0.000000 3.576570 
# 
# 
# High freq. dielectric constant tensor:
#      x y z
#    x 1.725710 0.000000 0.000000 
#    y 0.000000 1.725190 0.000000 
#    z 0.000000 0.000000 1.731710 
# 
# From -- ./inp_files/12013.got.cif
#   From: 2010.03.12/outbox.cif.g09.slc.cpg/sg38_7_cif.got.tgz:12013.got - 2010.04.14 02:38:36.
