data_PCOD8178559
_publ_section_title
;
Structure prediction by ZEFSAII (Michael W. Deem and Ramdas Pophale) SiO2 
 PCOD8178559
Probable space group: A M M 2
;
_chemical_formula_sum "Si O2"
_cell_formula_units_Z 48
_cell_length_a 8.530507
_cell_length_b 10.058371
_cell_length_c 28.360241
_cell_angle_alpha 90.000000
_cell_angle_beta 90.000000
_cell_angle_gamma 90.000000
_cell_volume 2433.393878
_symmetry_space_group_name_H-M "A M M 2"
_symmetry_group_IT_number 38
_symmetry_cell_setting 'orthorhombic'
loop_
_space_group_symop_operation_xyz
x,y,z
-x,-y,z
-x,y,z
x,-y,z
x,1/2+y,1/2+z
-x,1/2-y,1/2+z
-x,1/2+y,1/2+z
x,1/2-y,1/2+z
loop_
_atom_site_type_symbol
_atom_site_label
_atom_site_fract_x
_atom_site_fract_y
_atom_site_fract_z
Si Si1 0.186343 0.653527 0.630300
Si Si2 0.187235 0.000000 0.474557
Si Si3 0.684881 0.153942 0.710208
Si Si4 0.186160 0.249069 0.806891
Si Si5 0.813759 0.000000 0.366534
Si Si6 0.813506 0.757811 0.028252
Si Si7 0.187335 0.000000 0.968312
Si Si8 0.186101 0.500000 0.364569
O O1 0.245674 0.500000 0.637705
O O2 0.249340 0.757954 0.667939
O O3 0.248779 0.712572 0.580729
O O4 0.000000 0.652912 0.632093
O O5 0.252479 0.000000 0.420430
O O6 0.251753 0.876535 0.504894
O O7 0.000000 0.000000 0.472116
O O8 0.500000 0.149309 0.706654
O O9 0.735343 0.235939 0.756181
O O10 0.749793 0.000000 0.709580
O O11 0.246420 0.375422 0.836213
O O12 0.247816 0.126840 0.837218
O O13 0.000000 0.251673 0.799873
O O14 0.000000 0.000000 0.369861
O O15 0.000000 0.755816 0.029093
O O16 0.747790 0.872176 0.994795
O O17 0.259717 0.000000 0.916316
O O18 0.000000 0.000000 0.967173
O O19 0.000000 0.500000 0.367736
#
# Coordination Sequence:
#
# PCOD8178559 Si02
#       8
#     8   4   8   8   4   8   4   4
#     4  10  21  37  58  86 115 144 182 230 280 331
#     4   9  16  26  43  75 116 150 177 211 260 319
#     4  11  25  42  58  79 107 144 189 236 285 336
#     4  10  19  34  54  80 111 142 181 227 273 324
#     4   9  18  30  48  79 118 150 177 215 266 321
#     4   9  16  27  45  74 113 146 173 212 267 324
#     4   9  14  24  43  71 108 142 171 211 264 323
#     4   9  16  26  48  77 106 142 177 215 270 325
#
# _framework density 19.725536999999999
#
# number of rings (size 3 to 8) (size 9 to 14) (size 15 to 20)
#    0.000    2.333    1.667    1.500    2.333    5.333 
#    0.000    0.000    0.000    0.000    0.000    7.000 
#    0.000    0.000    0.000    0.000    0.000    0.000 
#
# Total GULP energy -297443.589931 kJ/mol
# GULP energy per Si atom -12393.482914 kJ/mol
# Density = 1.968064 g / cm^3
# Si number density = 19.725537 Si / 1000 Ang^3
#
#
#
# Elastic Constant Matrix: (Units=GPa)
#
#
# Indices 1 2 3 4 5 6 
#
# 1 14.0286 16.5226 17.5538 0.0000 0.0000 0.0000
# 2 16.5226 187.6242 94.0684 0.0000 0.0000 0.0000
# 3 17.5538 94.0684 190.8094 0.0000 0.0000 0.0000
# 4 0.0000 0.0000 0.0000 46.4917 0.0000 0.0000
# 5 0.0000 0.0000 0.0000 0.0000 -7.9887 0.0000
# 6 0.0000 0.0000 0.0000 0.0000 0.0000 15.7189
#
#
#
# Elastic Compliance Matrix: (Units=1/GPa)
#
#
# Indices 1 2 3 4 5 6 
#
# 1 0.083505 -0.004652 -0.005389 0.000000 0.000000 0.000000
# 2 -0.004652 0.007339 -0.003190 0.000000 0.000000 0.000000
# 3 -0.005389 -0.003190 0.007309 0.000000 0.000000 0.000000
# 4 0.000000 0.000000 0.000000 0.021509 0.000000 0.000000
# 5 0.000000 0.000000 0.000000 0.000000 -0.125177 0.000000
# 6 0.000000 0.000000 0.000000 0.000000 0.000000 0.063618
#
#
# Mechanical properties :
#
#
# Convention : Reuss Voigt Hill
#
# Bulk Modulus (GPa) = 13.94867 72.08354 43.01610
# Shear Modulus (GPa) = 46.09916 28.46553 37.28234
#
# Velocity S-wave (km/s) = 4.83953 3.80291 4.35219
# Velocity P-wave (km/s) = 6.18989 7.47699 6.86368
#
# Compressibility (1/GPa) = 0.07169144
#
# Stress axis : x y z
#
# Youngs Moduli (GPa) = 11.97537 136.26114 136.81236
#
# Poissons Ratio (x) = 0.63387 0.73725
# Poissons Ratio (y) = 0.05571 0.43644
# Poissons Ratio (z) = 0.06453 0.43468
#
# Static dielectric constant tensor:
#      x y z
#    x 2.922490 0.000000 0.000000 
#    y 0.000000 4.067570 0.000000 
#    z 0.000000 0.000000 3.880160 
# 
# 
# High freq. dielectric constant tensor:
#      x y z
#    x 1.703200 0.000000 0.000000 
#    y 0.000000 1.787570 0.000000 
#    z 0.000000 0.000000 1.789390 
# 
# From -- ./inp_files/24498.got.cif
#   From: 2010.03.12/outbox.cif.g09.slc.cpg/sg38_13_cif.got.tgz:24498.got - 2010.04.14 02:38:36.
