data_PCOD8178001
_publ_section_title
;
Structure prediction by ZEFSAII (Michael W. Deem and Ramdas Pophale) SiO2 
 PCOD8178001
Probable space group: A M M 2
;
_chemical_formula_sum "Si O2"
_cell_formula_units_Z 44
_cell_length_a 27.531034
_cell_length_b 17.203566
_cell_length_c 4.992056
_cell_angle_alpha 90.000000
_cell_angle_beta 90.000000
_cell_angle_gamma 90.000000
_cell_volume 2364.397270
_symmetry_space_group_name_H-M "A M M 2"
_symmetry_group_IT_number 38
_symmetry_cell_setting 'orthorhombic'
loop_
_space_group_symop_operation_xyz
x,y,z
-x,-y,z
-x,y,z
x,-y,z
x,1/2+y,1/2+z
-x,1/2-y,1/2+z
-x,1/2+y,1/2+z
x,1/2-y,1/2+z
loop_
_atom_site_type_symbol
_atom_site_label
_atom_site_fract_x
_atom_site_fract_y
_atom_site_fract_z
Si Si1 0.244799 0.697802 0.769960
Si Si2 0.348658 0.698671 0.874960
Si Si3 0.551980 0.302346 0.733135
Si Si4 0.845192 0.589149 0.778426
Si Si5 0.908401 0.589821 0.273982
Si Si6 0.000000 0.802871 0.791796
O O1 0.240115 0.728741 0.468295
O O2 0.297488 0.655361 0.813302
O O3 0.203218 0.636671 0.832671
O O4 0.349719 0.775565 0.684089
O O5 0.398200 0.649125 0.802146
O O6 0.500000 0.347376 0.778816
O O7 0.553595 0.272809 0.428749
O O8 0.830970 0.500000 0.822162
O O9 0.865510 0.605600 0.484207
O O10 0.887387 0.613233 0.985410
O O11 0.925496 0.500000 0.283510
O O12 0.953418 0.643973 0.342793
O O13 0.000000 0.769680 0.492505
#
# Coordination Sequence:
#
# PCOD8178001 Si02
#       6
#     8   8   8   8   8   4
#     4  10  19  30  47  69  94 123 152 190 237 278
#     4   8  14  23  34  53  80 109 142 178 222 271
#     4   8  12  18  29  45  69 103 139 174 213 260
#     4  10  21  36  54  74  96 126 162 193 224 271
#     4  10  22  40  57  73  99 132 158 185 228 277
#     4  12  25  38  57  84 106 124 154 196 231 266
#
# _framework density 18.609394999999999
#
# number of rings (size 3 to 8) (size 9 to 14) (size 15 to 20)
#    0.000    2.545    0.000    2.455    0.000    4.364 
#    0.000    3.636    0.000    0.000    0.000    0.000 
#    0.000    0.727    0.000    0.000    0.000  184.727 
#
# Total GULP energy -272548.156810 kJ/mol
# GULP energy per Si atom -12388.552582 kJ/mol
# Density = 1.856704 g / cm^3
# Si number density = 18.609395 Si / 1000 Ang^3
#
#
#
# Elastic Constant Matrix: (Units=GPa)
#
#
# Indices 1 2 3 4 5 6 
#
# 1 157.5624 51.5347 1.5013 0.0000 0.0000 0.0000
# 2 51.5347 36.6424 8.0242 0.0000 0.0000 0.0000
# 3 1.5013 8.0242 72.6853 0.0000 0.0000 0.0000
# 4 0.0000 0.0000 0.0000 16.1360 0.0000 0.0000
# 5 0.0000 0.0000 0.0000 0.0000 20.2791 0.0000
# 6 0.0000 0.0000 0.0000 0.0000 0.0000 -3.4651
#
#
#
# Elastic Compliance Matrix: (Units=1/GPa)
#
#
# Indices 1 2 3 4 5 6 
#
# 1 0.011943 -0.017157 0.001647 0.000000 0.000000 0.000000
# 2 -0.017157 0.052615 -0.005454 0.000000 0.000000 0.000000
# 3 0.001647 -0.005454 0.014326 0.000000 0.000000 0.000000
# 4 0.000000 0.000000 0.000000 0.061973 0.000000 0.000000
# 5 0.000000 0.000000 0.000000 0.000000 0.049312 0.000000
# 6 0.000000 0.000000 0.000000 0.000000 0.000000 -0.288592
#
#
# Mechanical properties :
#
#
# Convention : Reuss Voigt Hill
#
# Bulk Modulus (GPa) = 27.05905 43.22339 35.14122
# Shear Modulus (GPa) = -113.18435 20.31199 -46.43618
#
# Velocity S-wave (km/s) = -7.80725 3.30736 -5.00073
# Velocity P-wave (km/s) = 8.16693 6.15320 3.79716
#
# Compressibility (1/GPa) = 0.03695621
#
# Stress axis : x y z
#
# Youngs Moduli (GPa) = 83.73329 19.00585 69.80297
#
# Poissons Ratio (x) = 0.32609 -0.11499
# Poissons Ratio (y) = 1.43663 0.38072
# Poissons Ratio (z) = -0.13794 0.10366
#
# Static dielectric constant tensor:
#      x y z
#    x 3.994970 0.000000 0.000000 
#    y 0.000000 2.755570 0.000000 
#    z 0.000000 0.000000 3.553850 
# 
# 
# High freq. dielectric constant tensor:
#      x y z
#    x 1.757180 0.000000 0.000000 
#    y 0.000000 1.630930 0.000000 
#    z 0.000000 0.000000 1.748210 
# 
# From -- ./inp_files/2189.got.cif
#   From: 2010.03.12/outbox.cif.g09.slc.cpg/sg38_2_cif.got.tgz:2189.got - 2010.04.14 02:38:36.
