data_PCOD8178518
_publ_section_title
;
Structure prediction by ZEFSAII (Michael W. Deem and Ramdas Pophale) SiO2 
 PCOD8178518
Probable space group: A M M 2
;
_chemical_formula_sum "Si O2"
_cell_formula_units_Z 48
_cell_length_a 9.135039
_cell_length_b 20.292357
_cell_length_c 14.466897
_cell_angle_alpha 90.000000
_cell_angle_beta 90.000000
_cell_angle_gamma 90.000000
_cell_volume 2681.750001
_symmetry_space_group_name_H-M "A M M 2"
_symmetry_group_IT_number 38
_symmetry_cell_setting 'orthorhombic'
loop_
_space_group_symop_operation_xyz
x,y,z
-x,-y,z
-x,y,z
x,-y,z
x,1/2+y,1/2+z
-x,1/2-y,1/2+z
-x,1/2+y,1/2+z
x,1/2-y,1/2+z
loop_
_atom_site_type_symbol
_atom_site_label
_atom_site_fract_x
_atom_site_fract_y
_atom_site_fract_z
Si Si1 0.826924 0.193202 0.866610
Si Si2 0.829725 0.925796 0.744314
Si Si3 0.327351 0.074792 0.377295
Si Si4 0.673499 0.130781 0.574094
Si Si5 0.831420 0.321812 0.760649
Si Si6 0.830855 0.733355 0.566341
O O1 0.767946 0.125478 0.821048
O O2 0.767240 0.255972 0.809397
O O3 0.000000 0.192175 0.861724
O O4 0.773939 0.198191 0.972820
O O5 0.740458 0.917879 0.649932
O O6 0.000000 0.911811 0.723230
O O7 0.806302 0.000000 0.781840
O O8 0.500000 0.079172 0.367178
O O9 0.275427 0.105140 0.474308
O O10 0.256545 0.114704 0.293478
O O11 0.271887 0.000000 0.371062
O O12 0.500000 0.130736 0.584263
O O13 0.734102 0.203591 0.589361
O O14 0.811873 0.317610 0.650285
O O15 0.000000 0.330865 0.788580
O O16 0.000000 0.755703 0.556724
#
# Coordination Sequence:
#
# PCOD8178518 Si02
#       6
#     8   8   8   8   8   8
#     4   9  17  32  54  79 108 138 171 215 260 305
#     4  10  20  35  55  79 108 143 178 211 259 319
#     4  10  22  38  53  74 109 145 175 214 266 318
#     4  11  21  33  53  80 110 138 172 218 267 315
#     4  10  19  33  56  80 105 137 177 221 259 307
#     4  10  19  34  55  80 110 138 172 218 266 308
#
# _framework density 17.898759999999999
#
# number of rings (size 3 to 8) (size 9 to 14) (size 15 to 20)
#    0.000    2.000    3.333    1.000    0.000    2.667 
#    0.000    1.667    0.000    3.000    0.000    0.000 
#    0.000    0.000    0.000    0.000    0.000    0.000 
#
# Total GULP energy -297639.575685 kJ/mol
# GULP energy per Si atom -12401.648987 kJ/mol
# Density = 1.785802 g / cm^3
# Si number density = 17.898760 Si / 1000 Ang^3
#
#
#
# Elastic Constant Matrix: (Units=GPa)
#
#
# Indices 1 2 3 4 5 6 
#
# 1 35.0615 27.6835 23.2601 0.0000 0.0000 0.0000
# 2 27.6835 103.6332 39.6483 0.0000 0.0000 0.0000
# 3 23.2601 39.6483 111.2010 0.0000 0.0000 0.0000
# 4 0.0000 0.0000 0.0000 29.0812 0.0000 0.0000
# 5 0.0000 0.0000 0.0000 0.0000 21.2322 0.0000
# 6 0.0000 0.0000 0.0000 0.0000 0.0000 23.6903
#
#
#
# Elastic Compliance Matrix: (Units=1/GPa)
#
#
# Indices 1 2 3 4 5 6 
#
# 1 0.038469 -0.008335 -0.005075 0.000000 0.000000 0.000000
# 2 -0.008335 0.012979 -0.002884 0.000000 0.000000 0.000000
# 3 -0.005075 -0.002884 0.011083 0.000000 0.000000 0.000000
# 4 0.000000 0.000000 0.000000 0.034387 0.000000 0.000000
# 5 0.000000 0.000000 0.000000 0.000000 0.047098 0.000000
# 6 0.000000 0.000000 0.000000 0.000000 0.000000 0.042211
#
#
# Mechanical properties :
#
#
# Convention : Reuss Voigt Hill
#
# Bulk Modulus (GPa) = 33.39675 47.89773 40.64724
# Shear Modulus (GPa) = 21.85357 25.42100 23.63729
#
# Velocity S-wave (km/s) = 3.49801 3.77273 3.63796
# Velocity P-wave (km/s) = 5.91726 6.76731 6.35651
#
# Compressibility (1/GPa) = 0.02994304
#
# Stress axis : x y z
#
# Youngs Moduli (GPa) = 25.99512 77.04552 90.23097
#
# Poissons Ratio (x) = 0.64214 0.45792
# Poissons Ratio (y) = 0.21666 0.26026
# Poissons Ratio (z) = 0.13192 0.22223
#
# Static dielectric constant tensor:
#      x y z
#    x 3.085960 0.000000 0.000000 
#    y 0.000000 3.335540 0.000000 
#    z 0.000000 0.000000 3.498910 
# 
# 
# High freq. dielectric constant tensor:
#      x y z
#    x 1.669390 0.000000 0.000000 
#    y 0.000000 1.688840 0.000000 
#    z 0.000000 0.000000 1.696940 
# 
# From -- ./inp_files/12014.got.cif
#   From: 2010.03.12/outbox.cif.g09.slc.cpg/sg38_7_cif.got.tgz:12014.got - 2010.04.14 02:38:36.
