data_PCOD8178779
_publ_section_title
;
Structure prediction by ZEFSAII (Michael W. Deem and Ramdas Pophale) SiO2 
 PCOD8178779
Probable space group: A M M 2
;
_chemical_formula_sum "Si O2"
_cell_formula_units_Z 56
_cell_length_a 21.030869
_cell_length_b 8.752688
_cell_length_c 15.311792
_cell_angle_alpha 90.000000
_cell_angle_beta 90.000000
_cell_angle_gamma 90.000000
_cell_volume 2818.543143
_symmetry_space_group_name_H-M "A M M 2"
_symmetry_group_IT_number 38
_symmetry_cell_setting 'orthorhombic'
loop_
_space_group_symop_operation_xyz
x,y,z
-x,-y,z
-x,y,z
x,-y,z
x,1/2+y,1/2+z
-x,1/2-y,1/2+z
-x,1/2+y,1/2+z
x,1/2-y,1/2+z
loop_
_atom_site_type_symbol
_atom_site_label
_atom_site_fract_x
_atom_site_fract_y
_atom_site_fract_z
Si Si1 0.634588 0.823605 0.801370
Si Si2 0.628541 0.821927 0.477557
Si Si3 0.926833 0.322523 0.300912
Si Si4 0.500000 0.321542 0.537155
Si Si5 0.281157 0.821146 0.634849
Si Si6 0.925615 0.176550 0.482581
Si Si7 0.500000 0.676461 0.223209
Si Si8 0.145452 0.321590 0.641212
O O1 0.657148 0.723008 0.883440
O O2 0.678358 0.779986 0.720028
O O3 0.561587 0.784442 0.779970
O O4 0.642480 0.000000 0.826035
O O5 0.561843 0.739357 0.488847
O O6 0.678242 0.770533 0.551104
O O7 0.615941 0.000000 0.484668
O O8 0.915504 0.500000 0.320776
O O9 0.905576 0.227387 0.385621
O O10 0.884744 0.273519 0.219645
O O11 0.000000 0.288955 0.277292
O O12 0.500000 0.500000 0.525828
O O13 0.500000 0.279318 0.638110
O O14 0.219138 0.717991 0.635126
O O15 0.263215 0.000000 0.631371
O O16 0.887773 0.278529 0.550798
O O17 0.000000 0.204944 0.497767
O O18 0.907306 0.000000 0.495522
O O19 0.500000 0.500000 0.192639
O O20 0.136017 0.500000 0.659169
#
# Coordination Sequence:
#
# PCOD8178779 Si02
#       8
#     8   8   8   4   8   8   4   8
#     4  10  21  39  64  90 119 155 194 244 302 358
#     4  11  23  41  64  89 118 155 198 246 300 357
#     4  10  21  39  64  93 124 158 199 249 303 360
#     4  12  23  36  61  92 122 154 193 245 298 355
#     4  10  23  43  62  82 118 164 203 249 302 353
#     4  10  21  39  64  93 124 158 200 252 305 357
#     4  10  19  38  63  88 120 154 191 239 302 357
#     4  12  25  39  60  89 124 165 206 249 298 359
#
# _framework density 19.868418999999999
#
# number of rings (size 3 to 8) (size 9 to 14) (size 15 to 20)
#    0.000    1.429    1.429    4.071    0.000    7.429 
#    0.000    2.857    0.000    0.000    0.000    0.000 
#    0.000    0.000    0.000    0.000    0.000    0.000 
#
# Total GULP energy -347381.936252 kJ/mol
# GULP energy per Si atom -12406.497723 kJ/mol
# Density = 1.982320 g / cm^3
# Si number density = 19.868419 Si / 1000 Ang^3
#
#
#
# Elastic Constant Matrix: (Units=GPa)
#
#
# Indices 1 2 3 4 5 6 
#
# 1 95.7049 36.1428 53.4549 0.0000 0.0000 0.0000
# 2 36.1428 69.7656 29.1710 0.0000 0.0000 0.0000
# 3 53.4549 29.1710 130.6443 0.0000 0.0000 0.0000
# 4 0.0000 0.0000 0.0000 39.3469 0.0000 0.0000
# 5 0.0000 0.0000 0.0000 0.0000 17.5517 0.0000
# 6 0.0000 0.0000 0.0000 0.0000 0.0000 26.8134
#
#
#
# Elastic Compliance Matrix: (Units=1/GPa)
#
#
# Indices 1 2 3 4 5 6 
#
# 1 0.015487 -0.005927 -0.005013 0.000000 0.000000 0.000000
# 2 -0.005927 0.018078 -0.001611 0.000000 0.000000 0.000000
# 3 -0.005013 -0.001611 0.010065 0.000000 0.000000 0.000000
# 4 0.000000 0.000000 0.000000 0.025415 0.000000 0.000000
# 5 0.000000 0.000000 0.000000 0.000000 0.056975 0.000000
# 6 0.000000 0.000000 0.000000 0.000000 0.000000 0.037295
#
#
# Mechanical properties :
#
#
# Convention : Reuss Voigt Hill
#
# Bulk Modulus (GPa) = 53.97525 59.29468 56.63496
# Shear Modulus (GPa) = 25.69441 28.56547 27.12994
#
# Velocity S-wave (km/s) = 3.60005 3.79586 3.69925
# Velocity P-wave (km/s) = 6.67127 7.00856 6.84199
#
# Compressibility (1/GPa) = 0.01852701
#
# Stress axis : x y z
#
# Youngs Moduli (GPa) = 64.56882 55.31557 99.34940
#
# Poissons Ratio (x) = 0.32786 0.49808
# Poissons Ratio (y) = 0.38271 0.16009
# Poissons Ratio (z) = 0.32371 0.08914
#
# Static dielectric constant tensor:
#      x y z
#    x 3.596980 0.000000 0.000000 
#    y 0.000000 3.619110 0.000000 
#    z 0.000000 0.000000 3.752410 
# 
# 
# High freq. dielectric constant tensor:
#      x y z
#    x 1.772640 0.000000 0.000000 
#    y 0.000000 1.776880 0.000000 
#    z 0.000000 0.000000 1.791030 
# 
# From -- ./inp_files/15582.got.cif
#   From: 2010.03.12/outbox.cif.g09.slc.cpg/sg38_8_cif.got.tgz:15582.got - 2010.04.14 02:38:36.
