data_PCOD8178086
_publ_section_title
;
Structure prediction by ZEFSAII (Michael W. Deem and Ramdas Pophale) SiO2 
 PCOD8178086
Probable space group: A M M 2
;
_chemical_formula_sum "Si O2"
_cell_formula_units_Z 64
_cell_length_a 8.985248
_cell_length_b 29.949495
_cell_length_c 14.312697
_cell_angle_alpha 90.000000
_cell_angle_beta 90.000000
_cell_angle_gamma 90.000000
_cell_volume 3851.598862
_symmetry_space_group_name_H-M "A M M 2"
_symmetry_group_IT_number 38
_symmetry_cell_setting 'orthorhombic'
loop_
_space_group_symop_operation_xyz
x,y,z
-x,-y,z
-x,y,z
x,-y,z
x,1/2+y,1/2+z
-x,1/2-y,1/2+z
-x,1/2+y,1/2+z
x,1/2-y,1/2+z
loop_
_atom_site_type_symbol
_atom_site_label
_atom_site_fract_x
_atom_site_fract_y
_atom_site_fract_z
Si Si1 0.175287 0.950277 0.848480
Si Si2 0.668357 0.367551 0.635037
Si Si3 0.173684 0.272808 0.945017
Si Si4 0.332335 0.183798 0.947281
Si Si5 0.672778 0.869312 0.768857
Si Si6 0.325180 0.703978 0.122931
Si Si7 0.825994 0.448896 0.560974
Si Si8 0.176411 0.213633 0.231016
O O1 0.243802 0.916484 0.772790
O O2 0.000000 0.946038 0.843868
O O3 0.226298 0.000000 0.819658
O O4 0.228462 0.940245 0.954464
O O5 0.500000 0.369683 0.674165
O O6 0.670103 0.351942 0.528677
O O7 0.739282 0.417042 0.633749
O O8 0.764609 0.334278 0.698150
O O9 0.218239 0.222672 0.972755
O O10 0.222494 0.283038 0.839542
O O11 0.000000 0.279915 0.960265
O O12 0.261362 0.303820 0.018851
O O13 0.500000 0.202895 0.932713
O O14 0.271087 0.161168 0.853866
O O15 0.500000 0.879627 0.779303
O O16 0.710233 0.842523 0.674720
O O17 0.500000 0.714268 0.120025
O O18 0.250261 0.745991 0.174383
O O19 0.792412 0.500000 0.589341
O O20 0.000000 0.438386 0.569136
O O21 0.000000 0.216515 0.217175
#
# Coordination Sequence:
#
# PCOD8178086 Si02
#       8
#     8   8   8   8   8   8   8   8
#     4   9  18  31  48  72 101 133 167 203 246 295
#     4  11  21  32  50  75 101 136 172 207 252 298
#     4  11  23  36  51  72  99 133 173 214 253 294
#     4  10  19  31  47  70 103 136 169 205 246 295
#     4  10  20  33  49  72 100 134 171 204 244 295
#     4  11  22  35  52  73 100 134 171 210 253 300
#     4   9  18  32  49  71 102 137 169 205 249 297
#     4  11  23  36  51  73 100 133 173 211 251 300
#
# _framework density 16.616475000000001
#
# number of rings (size 3 to 8) (size 9 to 14) (size 15 to 20)
#    0.000    1.750    3.750    2.250    0.000    4.000 
#    0.000    1.250    0.000    0.000    0.000    0.875 
#    0.000    5.000    0.000    0.000    0.000    0.000 
#
# Total GULP energy -396791.345225 kJ/mol
# GULP energy per Si atom -12399.729538 kJ/mol
# Density = 1.657866 g / cm^3
# Si number density = 16.616475 Si / 1000 Ang^3
#
#
#
# Elastic Constant Matrix: (Units=GPa)
#
#
# Indices 1 2 3 4 5 6 
#
# 1 69.4571 42.4003 37.9274 0.0000 0.0000 0.0000
# 2 42.4003 103.0735 32.9706 0.0000 0.0000 0.0000
# 3 37.9274 32.9706 77.3534 0.0000 0.0000 0.0000
# 4 0.0000 0.0000 0.0000 23.2758 0.0000 0.0000
# 5 0.0000 0.0000 0.0000 0.0000 24.9997 0.0000
# 6 0.0000 0.0000 0.0000 0.0000 0.0000 28.5112
#
#
#
# Elastic Compliance Matrix: (Units=1/GPa)
#
#
# Indices 1 2 3 4 5 6 
#
# 1 0.023186 -0.006833 -0.008456 0.000000 0.000000 0.000000
# 2 -0.006833 0.013247 -0.002296 0.000000 0.000000 0.000000
# 3 -0.008456 -0.002296 0.018052 0.000000 0.000000 0.000000
# 4 0.000000 0.000000 0.000000 0.042963 0.000000 0.000000
# 5 0.000000 0.000000 0.000000 0.000000 0.040001 0.000000
# 6 0.000000 0.000000 0.000000 0.000000 0.000000 0.035074
#
#
# Mechanical properties :
#
#
# Convention : Reuss Voigt Hill
#
# Bulk Modulus (GPa) = 51.77182 52.94229 52.35706
# Shear Modulus (GPa) = 23.35014 24.46305 23.90659
#
# Velocity S-wave (km/s) = 3.75272 3.84111 3.79717
# Velocity P-wave (km/s) = 7.07119 7.18350 7.12757
#
# Compressibility (1/GPa) = 0.01931553
#
# Stress axis : x y z
#
# Youngs Moduli (GPa) = 43.12951 75.48842 55.39427
#
# Poissons Ratio (x) = 0.51581 0.46841
# Poissons Ratio (y) = 0.29470 0.12719
# Poissons Ratio (z) = 0.36470 0.17333
#
# Static dielectric constant tensor:
#      x y z
#    x 3.167990 0.000000 0.000000 
#    y 0.000000 3.083320 0.000000 
#    z 0.000000 0.000000 3.110320 
# 
# 
# High freq. dielectric constant tensor:
#      x y z
#    x 1.647520 0.000000 0.000000 
#    y 0.000000 1.629130 0.000000 
#    z 0.000000 0.000000 1.616450 
# 
# From -- ./inp_files/13073.got.cif
#   From: 2010.03.12/outbox.cif.g09.slc.cpg/sg38_7_cif.got.tgz:13073.got - 2010.04.14 02:38:36.
