data_PCOD8178172
_publ_section_title
;
Structure prediction by ZEFSAII (Michael W. Deem and Ramdas Pophale) SiO2 
 PCOD8178172
Probable space group: A M M 2
;
_chemical_formula_sum "Si O2"
_cell_formula_units_Z 52
_cell_length_a 11.075118
_cell_length_b 7.873003
_cell_length_c 31.099925
_cell_angle_alpha 90.000000
_cell_angle_beta 90.000000
_cell_angle_gamma 90.000000
_cell_volume 2711.740459
_symmetry_space_group_name_H-M "A M M 2"
_symmetry_group_IT_number 38
_symmetry_cell_setting 'orthorhombic'
loop_
_space_group_symop_operation_xyz
x,y,z
-x,-y,z
-x,y,z
x,-y,z
x,1/2+y,1/2+z
-x,1/2-y,1/2+z
-x,1/2+y,1/2+z
x,1/2-y,1/2+z
loop_
_atom_site_type_symbol
_atom_site_label
_atom_site_fract_x
_atom_site_fract_y
_atom_site_fract_z
Si Si1 0.787904 0.000000 0.011400
Si Si2 0.864714 0.799164 0.268805
Si Si3 0.863702 0.000000 0.917545
Si Si4 0.709960 0.810163 0.626943
Si Si5 0.634961 0.687383 0.033100
Si Si6 0.633354 0.799745 0.215742
Si Si7 0.859101 0.187052 0.366520
Si Si8 0.133266 0.000000 0.106853
O O1 0.709260 0.829964 0.008573
O O2 0.865106 0.000000 0.054921
O O3 0.868998 0.000000 0.969083
O O4 0.750418 0.725299 0.241528
O O5 0.837798 0.749027 0.317927
O O6 0.000000 0.729574 0.255073
O O7 0.868175 0.000000 0.264291
O O8 0.801069 0.171324 0.898506
O O9 0.000000 0.000000 0.900017
O O10 0.630461 0.779279 0.584329
O O11 0.628432 0.785809 0.668894
O O12 0.813931 0.670085 0.627344
O O13 0.766109 0.000000 0.626457
O O14 0.500000 0.697553 0.015325
O O15 0.690366 0.500000 0.023485
O O16 0.500000 0.759587 0.236793
O O17 0.649171 0.000000 0.210763
O O18 0.000000 0.166900 0.375893
O O19 0.798786 0.000000 0.374105
O O20 0.000000 0.000000 0.124055
#
# Coordination Sequence:
#
# PCOD8178172 Si02
#       8
#     4   8   4   8   8   8   8   4
#     4  10  20  32  50  78 104 134 166 212 269 323
#     4   8  15  30  51  73 101 139 177 216 264 317
#     4  10  19  31  51  78 105 131 168 213 257 311
#     4  10  20  35  53  75 101 138 183 222 263 313
#     4   9  18  33  53  73  96 131 175 219 261 309
#     4  10  19  31  50  79 109 139 178 226 274 319
#     4   8  15  30  51  72  95 129 170 210 253 303
#     4  10  21  37  53  72 107 147 179 219 266 320
#
# _framework density 19.175875999999999
#
# number of rings (size 3 to 8) (size 9 to 14) (size 15 to 20)
#    0.000    2.769    0.769    1.846    0.000    2.462 
#    1.385    0.000    0.000    4.615    0.000    2.154 
#    0.000    0.000    0.000    0.000    0.000    0.000 
#
# Total GULP energy -322095.115515 kJ/mol
# GULP energy per Si atom -12388.273674 kJ/mol
# Density = 1.913223 g / cm^3
# Si number density = 19.175876 Si / 1000 Ang^3
#
#
#
# Elastic Constant Matrix: (Units=GPa)
#
#
# Indices 1 2 3 4 5 6 
#
# 1 94.4989 35.8803 23.9850 0.0000 0.0000 0.0000
# 2 35.8803 112.1211 25.5978 0.0000 0.0000 0.0000
# 3 23.9850 25.5978 75.1749 0.0000 0.0000 0.0000
# 4 0.0000 0.0000 0.0000 23.1356 0.0000 0.0000
# 5 0.0000 0.0000 0.0000 0.0000 16.9950 0.0000
# 6 0.0000 0.0000 0.0000 0.0000 0.0000 -28.7552
#
#
#
# Elastic Compliance Matrix: (Units=1/GPa)
#
#
# Indices 1 2 3 4 5 6 
#
# 1 0.012591 -0.003375 -0.002868 0.000000 0.000000 0.000000
# 2 -0.003375 0.010575 -0.002524 0.000000 0.000000 0.000000
# 3 -0.002868 -0.002524 0.015077 0.000000 0.000000 0.000000
# 4 0.000000 0.000000 0.000000 0.043223 0.000000 0.000000
# 5 0.000000 0.000000 0.000000 0.000000 0.058841 0.000000
# 6 0.000000 0.000000 0.000000 0.000000 0.000000 -0.034776
#
#
# Mechanical properties :
#
#
# Convention : Reuss Voigt Hill
#
# Bulk Modulus (GPa) = 48.28747 50.30232 49.29490
# Shear Modulus (GPa) = 38.47075 15.36387 26.91731
#
# Velocity S-wave (km/s) = 4.48393 2.83363 3.75067
# Velocity P-wave (km/s) = 7.21412 6.08235 6.67228
#
# Compressibility (1/GPa) = 0.02070931
#
# Stress axis : x y z
#
# Youngs Moduli (GPa) = 79.41905 94.56138 66.32620
#
# Poissons Ratio (x) = 0.31911 0.19024
# Poissons Ratio (y) = 0.26801 0.16742
# Poissons Ratio (z) = 0.22780 0.23870
#
# Static dielectric constant tensor:
#      x y z
#    x 3.393280 0.000000 0.000000 
#    y 0.000000 3.838320 0.000000 
#    z 0.000000 0.000000 3.305290 
# 
# 
# High freq. dielectric constant tensor:
#      x y z
#    x 1.711390 0.000000 0.000000 
#    y 0.000000 1.750860 0.000000 
#    z 0.000000 0.000000 1.724840 
# 
# From -- ./inp_files/24882.got.cif
#   From: 2010.03.12/outbox.cif.g09.slc.cpg/sg38_13_cif.got.tgz:24882.got - 2010.04.14 02:38:36.
