data_PCOD8178981
_publ_section_title
;
Structure prediction by ZEFSAII (Michael W. Deem and Ramdas Pophale) SiO2 
 PCOD8178981
Probable space group: A M M 2
;
_chemical_formula_sum "Si O2"
_cell_formula_units_Z 64
_cell_length_a 9.099501
_cell_length_b 18.495036
_cell_length_c 20.664052
_cell_angle_alpha 90.000000
_cell_angle_beta 90.000000
_cell_angle_gamma 90.000000
_cell_volume 3477.669000
_symmetry_space_group_name_H-M "A M M 2"
_symmetry_group_IT_number 38
_symmetry_cell_setting 'orthorhombic'
loop_
_space_group_symop_operation_xyz
x,y,z
-x,-y,z
-x,y,z
x,-y,z
x,1/2+y,1/2+z
-x,1/2-y,1/2+z
-x,1/2+y,1/2+z
x,1/2-y,1/2+z
loop_
_atom_site_type_symbol
_atom_site_label
_atom_site_fract_x
_atom_site_fract_y
_atom_site_fract_z
Si Si1 0.169166 0.583961 0.965330
Si Si2 0.828300 0.320352 0.731231
Si Si3 0.666505 0.659885 0.362900
Si Si4 0.172083 0.320813 0.589526
Si Si5 0.669458 0.829634 0.720361
Si Si6 0.172302 0.157053 0.598547
Si Si7 0.671713 0.328205 0.856466
Si Si8 0.825392 0.918473 0.974953
O O1 0.202953 0.500000 0.956452
O O2 0.271001 0.628169 0.917398
O O3 0.000000 0.602475 0.950134
O O4 0.208627 0.606105 0.038275
O O5 0.794857 0.355657 0.660577
O O6 0.773843 0.239056 0.725586
O O7 0.744955 0.359614 0.790427
O O8 0.000000 0.321777 0.747001
O O9 0.500000 0.650719 0.387886
O O10 0.680648 0.629278 0.289310
O O11 0.712149 0.744147 0.365428
O O12 0.774190 0.613985 0.407071
O O13 0.230575 0.238469 0.583373
O O14 0.242763 0.371357 0.534059
O O15 0.000000 0.317738 0.577290
O O16 0.500000 0.807417 0.707608
O O17 0.735415 0.874999 0.659871
O O18 0.000000 0.156639 0.615737
O O19 0.500000 0.340128 0.849311
O O20 0.000000 0.917240 0.975982
O O21 0.766121 0.000000 0.982169
#
# Coordination Sequence:
#
# PCOD8178981 Si02
#       8
#     8   8   8   8   8   8   8   8
#     4  10  21  36  53  75 104 138 175 213 255 306
#     4   9  16  29  51  76 101 131 166 207 255 302
#     4   9  19  34  51  73 101 133 167 203 248 301
#     4   8  15  29  49  73  99 127 161 201 248 298
#     4   9  17  30  49  75 103 128 162 210 257 303
#     4   9  17  31  52  75  99 130 167 208 253 301
#     4  10  20  34  53  78 105 133 168 210 256 306
#     4  10  20  33  50  73 100 131 168 208 248 292
#
# _framework density 18.403130999999998
#
# number of rings (size 3 to 8) (size 9 to 14) (size 15 to 20)
#    0.000    2.750    0.000    3.375    0.000    5.000 
#    0.000    5.625    0.000    4.500    0.000    0.000 
#    0.000    0.000    0.000    0.000    0.000    0.000 
#
# Total GULP energy -396611.361383 kJ/mol
# GULP energy per Si atom -12394.105043 kJ/mol
# Density = 1.836124 g / cm^3
# Si number density = 18.403131 Si / 1000 Ang^3
#
#
#
# Elastic Constant Matrix: (Units=GPa)
#
#
# Indices 1 2 3 4 5 6 
#
# 1 62.0684 24.2099 48.5705 0.0000 0.0000 0.0000
# 2 24.2099 42.0779 21.5407 0.0000 0.0000 0.0000
# 3 48.5705 21.5407 107.1662 0.0000 0.0000 0.0000
# 4 0.0000 0.0000 0.0000 2.8245 0.0000 0.0000
# 5 0.0000 0.0000 0.0000 0.0000 22.9796 0.0000
# 6 0.0000 0.0000 0.0000 0.0000 0.0000 15.9325
#
#
#
# Elastic Compliance Matrix: (Units=1/GPa)
#
#
# Indices 1 2 3 4 5 6 
#
# 1 0.028964 -0.011085 -0.010899 0.000000 0.000000 0.000000
# 2 -0.011085 0.030734 -0.001154 0.000000 0.000000 0.000000
# 3 -0.010899 -0.001154 0.014503 0.000000 0.000000 0.000000
# 4 0.000000 0.000000 0.000000 0.354041 0.000000 0.000000
# 5 0.000000 0.000000 0.000000 0.000000 0.043517 0.000000
# 6 0.000000 0.000000 0.000000 0.000000 0.000000 0.062765
#
#
# Mechanical properties :
#
#
# Convention : Reuss Voigt Hill
#
# Bulk Modulus (GPa) = 35.80989 44.43941 40.12465
# Shear Modulus (GPa) = 8.47304 16.14675 12.30989
#
# Velocity S-wave (km/s) = 2.14805 2.96529 2.58912
# Velocity P-wave (km/s) = 5.06488 5.99367 5.54874
#
# Compressibility (1/GPa) = 0.02792525
#
# Stress axis : x y z
#
# Youngs Moduli (GPa) = 34.52576 32.53733 68.95182
#
# Poissons Ratio (x) = 0.36068 0.75151
# Poissons Ratio (y) = 0.38272 0.07954
# Poissons Ratio (z) = 0.37630 0.03753
#
# Static dielectric constant tensor:
#      x y z
#    x 3.307080 0.000000 0.000000 
#    y 0.000000 3.139490 0.000000 
#    z 0.000000 0.000000 3.902070 
# 
# 
# High freq. dielectric constant tensor:
#      x y z
#    x 1.703130 0.000000 0.000000 
#    y 0.000000 1.670740 0.000000 
#    z 0.000000 0.000000 1.735310 
# 
# From -- ./inp_files/20111.got.cif
#   From: 2010.03.12/outbox.cif.g09.slc.cpg/sg38_11_cif.got.tgz:20111.got - 2010.04.14 02:38:36.
