data_PCOD8178851
_publ_section_title
;
Structure prediction by ZEFSAII (Michael W. Deem and Ramdas Pophale) SiO2 
 PCOD8178851
Probable space group: A M M 2
;
_chemical_formula_sum "Si O2"
_cell_formula_units_Z 48
_cell_length_a 9.518934
_cell_length_b 9.468169
_cell_length_c 30.982831
_cell_angle_alpha 90.000000
_cell_angle_beta 90.000000
_cell_angle_gamma 90.000000
_cell_volume 2792.385762
_symmetry_space_group_name_H-M "A M M 2"
_symmetry_group_IT_number 38
_symmetry_cell_setting 'orthorhombic'
loop_
_space_group_symop_operation_xyz
x,y,z
-x,-y,z
-x,y,z
x,-y,z
x,1/2+y,1/2+z
-x,1/2-y,1/2+z
-x,1/2+y,1/2+z
x,1/2-y,1/2+z
loop_
_atom_site_type_symbol
_atom_site_label
_atom_site_fract_x
_atom_site_fract_y
_atom_site_fract_z
Si Si1 0.836530 0.335085 0.344170
Si Si2 0.836945 0.335228 0.020229
Si Si3 0.833336 0.344166 0.440895
Si Si4 0.334226 0.663858 0.774701
Si Si5 0.343584 0.331939 0.099471
Si Si6 0.667010 0.157426 0.694002
O O1 0.807503 0.500000 0.334865
O O2 0.789215 0.295777 0.392910
O O3 0.742711 0.238002 0.314087
O O4 0.000000 0.300120 0.336587
O O5 0.808819 0.500000 0.014471
O O6 0.757337 0.273010 0.062008
O O7 0.000000 0.300801 0.026877
O O8 0.775252 0.262169 0.977161
O O9 0.772463 0.500000 0.450586
O O10 0.000000 0.349200 0.442493
O O11 0.500000 0.686108 0.780480
O O12 0.293323 0.500000 0.773403
O O13 0.279347 0.734725 0.730361
O O14 0.500000 0.270214 0.091979
O O15 0.348784 0.500000 0.098084
O O16 0.283667 0.287396 0.146690
O O17 0.500000 0.149819 0.693282
O O18 0.727154 0.000000 0.703708
#
# Coordination Sequence:
#
# PCOD8178851 Si02
#       6
#     8   8   8   8   8   8
#     4   9  18  33  52  71  90 118 158 197 231 271
#     4   9  16  26  43  67  90 112 143 182 220 259
#     4   8  15  29  47  65  87 116 148 180 217 266
#     4  10  20  32  47  70  98 124 151 187 233 281
#     4   8  14  26  44  64  86 115 150 184 218 258
#     4   8  14  27  47  65  83 116 158 189 217 263
#
# _framework density 17.189603000000002
#
# number of rings (size 3 to 8) (size 9 to 14) (size 15 to 20)
#    0.000    3.333    0.000    2.500    0.000    2.000 
#    0.000    4.167    0.000    7.500    0.000    0.000 
#    0.000    0.000    0.000    0.000    0.000    0.000 
#
# Total GULP energy -297452.102035 kJ/mol
# GULP energy per Si atom -12393.837585 kJ/mol
# Density = 1.715048 g / cm^3
# Si number density = 17.189603 Si / 1000 Ang^3
#
#
#
# Elastic Constant Matrix: (Units=GPa)
#
#
# Indices 1 2 3 4 5 6 
#
# 1 38.1512 35.0747 51.4861 0.0000 0.0000 0.0000
# 2 35.0747 83.0042 82.9774 0.0000 0.0000 0.0000
# 3 51.4861 82.9774 184.8541 0.0000 0.0000 0.0000
# 4 0.0000 0.0000 0.0000 30.5580 0.0000 0.0000
# 5 0.0000 0.0000 0.0000 0.0000 30.5728 0.0000
# 6 0.0000 0.0000 0.0000 0.0000 0.0000 17.7060
#
#
#
# Elastic Compliance Matrix: (Units=1/GPa)
#
#
# Indices 1 2 3 4 5 6 
#
# 1 0.048349 -0.012641 -0.007792 0.000000 0.000000 0.000000
# 2 -0.012641 0.025160 -0.007773 0.000000 0.000000 0.000000
# 3 -0.007792 -0.007773 0.011069 0.000000 0.000000 0.000000
# 4 0.000000 0.000000 0.000000 0.032725 0.000000 0.000000
# 5 0.000000 0.000000 0.000000 0.000000 0.032709 0.000000
# 6 0.000000 0.000000 0.000000 0.000000 0.000000 0.056478
#
#
# Mechanical properties :
#
#
# Convention : Reuss Voigt Hill
#
# Bulk Modulus (GPa) = 35.50431 71.67621 53.59026
# Shear Modulus (GPa) = 18.36287 24.86545 21.61416
#
# Velocity S-wave (km/s) = 3.27196 3.80747 3.54983
# Velocity P-wave (km/s) = 5.91385 7.81774 6.93147
#
# Compressibility (1/GPa) = 0.02816559
#
# Stress axis : x y z
#
# Youngs Moduli (GPa) = 20.68311 39.74635 90.34290
#
# Poissons Ratio (x) = 0.50244 0.70394
# Poissons Ratio (y) = 0.26146 0.70222
# Poissons Ratio (z) = 0.16116 0.30894
#
# Static dielectric constant tensor:
#      x y z
#    x 3.043960 0.000000 0.000000 
#    y 0.000000 3.152830 0.000000 
#    z 0.000000 0.000000 3.668280 
# 
# 
# High freq. dielectric constant tensor:
#      x y z
#    x 1.623930 0.000000 0.000000 
#    y 0.000000 1.643280 0.000000 
#    z 0.000000 0.000000 1.680770 
# 
# From -- ./inp_files/22435.got.cif
#   From: 2010.03.12/outbox.cif.g09.slc.cpg/sg38_12_cif.got.tgz:22435.got - 2010.04.14 02:38:36.
