data_PCOD8178350
_publ_section_title
;
Structure prediction by ZEFSAII (Michael W. Deem and Ramdas Pophale) SiO2 
 PCOD8178350
Probable space group: A M M 2
;
_chemical_formula_sum "Si O2"
_cell_formula_units_Z 40
_cell_length_a 8.901975
_cell_length_b 7.614365
_cell_length_c 29.344384
_cell_angle_alpha 90.000000
_cell_angle_beta 90.000000
_cell_angle_gamma 90.000000
_cell_volume 1989.047061
_symmetry_space_group_name_H-M "A M M 2"
_symmetry_group_IT_number 38
_symmetry_cell_setting 'orthorhombic'
loop_
_space_group_symop_operation_xyz
x,y,z
-x,-y,z
-x,y,z
x,-y,z
x,1/2+y,1/2+z
-x,1/2-y,1/2+z
-x,1/2+y,1/2+z
x,1/2-y,1/2+z
loop_
_atom_site_type_symbol
_atom_site_label
_atom_site_fract_x
_atom_site_fract_y
_atom_site_fract_z
Si Si1 0.168442 0.708165 0.344720
Si Si2 0.828653 0.804866 0.163959
Si Si3 0.179147 0.500000 0.996662
Si Si4 0.673970 0.205231 0.754324
Si Si5 0.676733 0.295696 0.437139
Si Si6 0.821974 0.500000 0.099538
O O1 0.167363 0.500000 0.342073
O O2 0.241523 0.782984 0.298529
O O3 0.266425 0.768593 0.387795
O O4 0.000000 0.783254 0.349806
O O5 0.732487 0.802303 0.209764
O O6 0.762598 0.671789 0.126324
O O7 0.000000 0.753577 0.176209
O O8 0.819148 0.000000 0.142969
O O9 0.241328 0.322104 0.974542
O O10 0.000000 0.500000 0.993402
O O11 0.240572 0.500000 0.048403
O O12 0.500000 0.246090 0.760972
O O13 0.706369 0.000000 0.748335
O O14 0.500000 0.263723 0.439629
O O15 0.717647 0.500000 0.445953
O O16 0.000000 0.500000 0.097214
#
# Coordination Sequence:
#
# PCOD8178350 Si02
#       6
#     8   8   4   8   8   4
#     4   9  17  31  55  85 116 154 197 241 289 344
#     4  10  20  36  59  84 111 147 192 241 292 345
#     4  11  23  39  63  93 119 153 201 253 306 361
#     4  10  19  32  53  82 117 157 194 233 287 347
#     4  10  21  39  61  86 121 160 197 244 300 357
#     4   9  20  39  61  85 115 149 191 247 302 347
#
# _framework density 20.110133999999999
#
# number of rings (size 3 to 8) (size 9 to 14) (size 15 to 20)
#    0.000    2.200    1.000    2.100    0.000    5.600 
#    1.800    4.000    0.000    0.000    0.000    0.000 
#    0.000    0.000    0.000    0.000    0.000    0.000 
#
# Total GULP energy -248027.566510 kJ/mol
# GULP energy per Si atom -12401.378326 kJ/mol
# Density = 2.006436 g / cm^3
# Si number density = 20.110134 Si / 1000 Ang^3
#
#
#
# Elastic Constant Matrix: (Units=GPa)
#
#
# Indices 1 2 3 4 5 6 
#
# 1 94.4913 38.9969 50.5074 0.0000 0.0000 0.0000
# 2 38.9969 99.1598 64.6503 0.0000 0.0000 0.0000
# 3 50.5074 64.6503 174.7650 0.0000 0.0000 0.0000
# 4 0.0000 0.0000 0.0000 10.3762 0.0000 0.0000
# 5 0.0000 0.0000 0.0000 0.0000 10.5627 0.0000
# 6 0.0000 0.0000 0.0000 0.0000 0.0000 22.5072
#
#
#
# Elastic Compliance Matrix: (Units=1/GPa)
#
#
# Indices 1 2 3 4 5 6 
#
# 1 0.013439 -0.003628 -0.002542 0.000000 0.000000 0.000000
# 2 -0.003628 0.014270 -0.004230 0.000000 0.000000 0.000000
# 3 -0.002542 -0.004230 0.008021 0.000000 0.000000 0.000000
# 4 0.000000 0.000000 0.000000 0.096374 0.000000 0.000000
# 5 0.000000 0.000000 0.000000 0.000000 0.094673 0.000000
# 6 0.000000 0.000000 0.000000 0.000000 0.000000 0.044430
#
#
# Mechanical properties :
#
#
# Convention : Reuss Voigt Hill
#
# Bulk Modulus (GPa) = 66.97947 75.19168 71.08557
# Shear Modulus (GPa) = 16.83594 22.97333 19.90464
#
# Velocity S-wave (km/s) = 2.89656 3.38357 3.14949
# Velocity P-wave (km/s) = 6.67573 7.26195 6.97500
#
# Compressibility (1/GPa) = 0.01492995
#
# Stress axis : x y z
#
# Youngs Moduli (GPa) = 74.41091 70.07952 124.66641
#
# Poissons Ratio (x) = 0.25425 0.31687
# Poissons Ratio (y) = 0.26996 0.52736
# Poissons Ratio (z) = 0.18914 0.29645
#
# Static dielectric constant tensor:
#      x y z
#    x 3.600440 0.000000 0.000000 
#    y 0.000000 3.603960 0.000000 
#    z 0.000000 0.000000 3.737380 
# 
# 
# High freq. dielectric constant tensor:
#      x y z
#    x 1.779940 0.000000 0.000000 
#    y 0.000000 1.781300 0.000000 
#    z 0.000000 0.000000 1.782250 
# 
# From -- ./inp_files/23232.got.cif
#   From: 2010.03.12/outbox.cif.g09.slc.cpg/sg38_12_cif.got.tgz:23232.got - 2010.04.14 02:38:36.
