data_PCOD8178698
_publ_section_title
;
Structure prediction by ZEFSAII (Michael W. Deem and Ramdas Pophale) SiO2 
 PCOD8178698
Probable space group: A M M 2
;
_chemical_formula_sum "Si O2"
_cell_formula_units_Z 64
_cell_length_a 8.871693
_cell_length_b 27.972480
_cell_length_c 12.704129
_cell_angle_alpha 90.000000
_cell_angle_beta 90.000000
_cell_angle_gamma 90.000000
_cell_volume 3152.698005
_symmetry_space_group_name_H-M "A M M 2"
_symmetry_group_IT_number 38
_symmetry_cell_setting 'orthorhombic'
loop_
_space_group_symop_operation_xyz
x,y,z
-x,-y,z
-x,y,z
x,-y,z
x,1/2+y,1/2+z
-x,1/2-y,1/2+z
-x,1/2+y,1/2+z
x,1/2-y,1/2+z
loop_
_atom_site_type_symbol
_atom_site_label
_atom_site_fract_x
_atom_site_fract_y
_atom_site_fract_z
Si Si1 0.832310 0.947389 0.581150
Si Si2 0.666440 0.683401 0.942405
Si Si3 0.333931 0.075208 0.376696
Si Si4 0.321484 0.555527 0.465620
Si Si5 0.174169 0.205394 0.241129
Si Si6 0.179355 0.386197 0.275012
Si Si7 0.677279 0.700623 0.176571
Si Si8 0.175952 0.902127 0.172626
O O1 0.734192 0.951549 0.476462
O O2 0.762959 0.912891 0.669589
O O3 0.000000 0.929492 0.550441
O O4 0.838191 0.000000 0.632171
O O5 0.500000 0.707881 0.936606
O O6 0.729140 0.684088 0.060599
O O7 0.652380 0.629924 0.904956
O O8 0.783501 0.709070 0.864659
O O9 0.500000 0.054119 0.352493
O O10 0.228472 0.068038 0.274933
O O11 0.500000 0.559745 0.457400
O O12 0.270255 0.500000 0.457189
O O13 0.248203 0.587047 0.374365
O O14 0.268703 0.578178 0.574871
O O15 0.275027 0.244304 0.182497
O O16 0.210832 0.154070 0.189480
O O17 0.000000 0.218379 0.228833
O O18 0.238812 0.331755 0.264557
O O19 0.000000 0.386736 0.286346
O O20 0.500000 0.695066 0.193866
O O21 0.000000 0.911179 0.154108
#
# Coordination Sequence:
#
# PCOD8178698 Si02
#       8
#     8   8   8   8   8   8   8   8
#     4  10  21  36  56  85 119 154 193 239 297 362
#     4   9  19  36  57  81 114 154 193 241 301 362
#     4  10  19  35  59  86 116 151 195 245 300 361
#     4  11  25  44  66  92 125 168 216 267 323 383
#     4  10  22  38  59  90 122 158 205 256 312 372
#     4  11  23  40  63  89 122 162 207 258 312 371
#     4  11  22  38  61  89 122 161 207 254 311 375
#     4  10  22  41  64  89 122 163 207 258 315 373
#
# _framework density 20.300073000000001
#
# number of rings (size 3 to 8) (size 9 to 14) (size 15 to 20)
#    0.000    1.750    1.250    2.625    0.000    6.750 
#    0.000    2.500    0.000    0.000    0.000    0.000 
#    0.000    0.000    0.000    0.000    0.000    0.000 
#
# Total GULP energy -396785.065322 kJ/mol
# GULP energy per Si atom -12399.533291 kJ/mol
# Density = 2.025387 g / cm^3
# Si number density = 20.300073 Si / 1000 Ang^3
#
#
#
# Elastic Constant Matrix: (Units=GPa)
#
#
# Indices 1 2 3 4 5 6 
#
# 1 78.8820 32.2562 35.8142 0.0000 0.0000 0.0000
# 2 32.2562 63.2861 32.2029 0.0000 0.0000 0.0000
# 3 35.8142 32.2029 112.5020 0.0000 0.0000 0.0000
# 4 0.0000 0.0000 0.0000 20.5177 0.0000 0.0000
# 5 0.0000 0.0000 0.0000 0.0000 37.3584 0.0000
# 6 0.0000 0.0000 0.0000 0.0000 0.0000 27.5235
#
#
#
# Elastic Compliance Matrix: (Units=1/GPa)
#
#
# Indices 1 2 3 4 5 6 
#
# 1 0.017087 -0.006954 -0.003449 0.000000 0.000000 0.000000
# 2 -0.006954 0.021325 -0.003890 0.000000 0.000000 0.000000
# 3 -0.003449 -0.003890 0.011100 0.000000 0.000000 0.000000
# 4 0.000000 0.000000 0.000000 0.048738 0.000000 0.000000
# 5 0.000000 0.000000 0.000000 0.000000 0.026768 0.000000
# 6 0.000000 0.000000 0.000000 0.000000 0.000000 0.036333
#
#
# Mechanical properties :
#
#
# Convention : Reuss Voigt Hill
#
# Bulk Modulus (GPa) = 47.78836 50.57964 49.18400
# Shear Modulus (GPa) = 25.39196 27.37303 26.38249
#
# Velocity S-wave (km/s) = 3.54055 3.67607 3.60894
# Velocity P-wave (km/s) = 6.34870 6.55653 6.45345
#
# Compressibility (1/GPa) = 0.02092560
#
# Stress axis : x y z
#
# Youngs Moduli (GPa) = 58.52531 46.89276 90.08780
#
# Poissons Ratio (x) = 0.32609 0.31070
# Poissons Ratio (y) = 0.40698 0.35048
# Poissons Ratio (z) = 0.20185 0.18244
#
# Static dielectric constant tensor:
#      x y z
#    x 3.837850 0.000000 0.000000 
#    y 0.000000 3.661350 0.000000 
#    z 0.000000 0.000000 3.761830 
# 
# 
# High freq. dielectric constant tensor:
#      x y z
#    x 1.800330 0.000000 0.000000 
#    y 0.000000 1.791500 0.000000 
#    z 0.000000 0.000000 1.793220 
# 
# From -- ./inp_files/8653.got.cif
#   From: 2010.03.12/outbox.cif.g09.slc.cpg/sg38_5_cif.got.tgz:8653.got - 2010.04.14 02:38:36.
