data_PCOD8178342
_publ_section_title
;
Structure prediction by ZEFSAII (Michael W. Deem and Ramdas Pophale) SiO2 
 PCOD8178342
Probable space group: A M M 2
;
_chemical_formula_sum "Si O2"
_cell_formula_units_Z 64
_cell_length_a 24.450192
_cell_length_b 9.058471
_cell_length_c 14.766256
_cell_angle_alpha 90.000000
_cell_angle_beta 90.000000
_cell_angle_gamma 90.000000
_cell_volume 3270.450390
_symmetry_space_group_name_H-M "A M M 2"
_symmetry_group_IT_number 38
_symmetry_cell_setting 'orthorhombic'
loop_
_space_group_symop_operation_xyz
x,y,z
-x,-y,z
-x,y,z
x,-y,z
x,1/2+y,1/2+z
-x,1/2-y,1/2+z
-x,1/2+y,1/2+z
x,1/2-y,1/2+z
loop_
_atom_site_type_symbol
_atom_site_label
_atom_site_fract_x
_atom_site_fract_y
_atom_site_fract_z
Si Si1 0.633428 0.826168 0.067570
Si Si2 0.560736 0.174675 0.231518
Si Si3 0.135095 0.675174 0.900071
Si Si4 0.353337 0.324158 0.879020
Si Si5 0.751513 0.662333 0.597850
Si Si6 0.143415 0.327130 0.105884
Si Si7 0.063052 0.327484 0.261384
Si Si8 0.243341 0.833484 0.882685
O O1 0.583965 0.780468 0.133137
O O2 0.689681 0.789380 0.122665
O O3 0.633126 0.000000 0.041664
O O4 0.628292 0.729359 0.977828
O O5 0.500000 0.243325 0.242186
O O6 0.599747 0.233194 0.311115
O O7 0.558069 0.000000 0.238232
O O8 0.139122 0.500000 0.891946
O O9 0.081815 0.735100 0.848672
O O10 0.188485 0.747442 0.853107
O O11 0.129496 0.727399 0.004467
O O12 0.346475 0.500000 0.878842
O O13 0.296245 0.253110 0.845589
O O14 0.764329 0.500000 0.636032
O O15 0.797442 0.768789 0.639400
O O16 0.753561 0.664244 0.490006
O O17 0.147887 0.500000 0.107459
O O18 0.096141 0.271649 0.173160
O O19 0.073288 0.500000 0.280203
O O20 0.000000 0.293153 0.242503
O O21 0.241868 0.000000 0.843320
#
# Coordination Sequence:
#
# PCOD8178342 Si02
#       8
#     8   8   8   8   8   8   8   8
#     4   9  18  34  54  75 102 139 177 211 258 321
#     4   9  19  35  53  74 103 141 183 222 264 318
#     4  10  20  35  57  84 110 136 173 222 269 310
#     4  10  19  32  53  81 109 136 172 221 271 313
#     4   8  15  28  49  77 105 131 163 208 259 312
#     4   9  19  35  55  78 104 136 172 213 262 312
#     4  10  22  39  55  74 105 145 184 217 257 314
#     4   9  17  32  54  80 110 141 172 208 260 325
#
# _framework density 19.569168000000001
#
# number of rings (size 3 to 8) (size 9 to 14) (size 15 to 20)
#    0.000    2.750    0.000    1.875    0.000    6.250 
#    0.000    3.750    0.000    2.625    0.000    0.000 
#    0.000    0.000    0.000    0.000    0.000    0.000 
#
# Total GULP energy -396742.374533 kJ/mol
# GULP energy per Si atom -12398.199204 kJ/mol
# Density = 1.952463 g / cm^3
# Si number density = 19.569168 Si / 1000 Ang^3
#
#
#
# Elastic Constant Matrix: (Units=GPa)
#
#
# Indices 1 2 3 4 5 6 
#
# 1 118.3219 23.5572 24.1270 0.0000 0.0000 0.0000
# 2 23.5572 49.4897 17.1561 0.0000 0.0000 0.0000
# 3 24.1270 17.1561 42.0818 0.0000 0.0000 0.0000
# 4 0.0000 0.0000 0.0000 21.2345 0.0000 0.0000
# 5 0.0000 0.0000 0.0000 0.0000 34.0981 0.0000
# 6 0.0000 0.0000 0.0000 0.0000 0.0000 27.0764
#
#
#
# Elastic Compliance Matrix: (Units=1/GPa)
#
#
# Indices 1 2 3 4 5 6 
#
# 1 0.009994 -0.003227 -0.004414 0.000000 0.000000 0.000000
# 2 -0.003227 0.024574 -0.008168 0.000000 0.000000 0.000000
# 3 -0.004414 -0.008168 0.029624 0.000000 0.000000 0.000000
# 4 0.000000 0.000000 0.000000 0.047093 0.000000 0.000000
# 5 0.000000 0.000000 0.000000 0.000000 0.029327 0.000000
# 6 0.000000 0.000000 0.000000 0.000000 0.000000 0.036933
#
#
# Mechanical properties :
#
#
# Convention : Reuss Voigt Hill
#
# Bulk Modulus (GPa) = 30.70025 37.73043 34.21534
# Shear Modulus (GPa) = 22.72498 26.15199 24.43849
#
# Velocity S-wave (km/s) = 3.41143 3.65963 3.53771
# Velocity P-wave (km/s) = 5.58921 6.09751 5.84888
#
# Compressibility (1/GPa) = 0.03257303
#
# Stress axis : x y z
#
# Youngs Moduli (GPa) = 100.05874 40.69364 33.75608
#
# Poissons Ratio (x) = 0.13131 0.14901
# Poissons Ratio (y) = 0.32288 0.27573
# Poissons Ratio (z) = 0.44170 0.33240
#
# Static dielectric constant tensor:
#      x y z
#    x 3.851670 0.000000 0.000000 
#    y 0.000000 3.431430 0.000000 
#    z 0.000000 0.000000 3.506570 
# 
# 
# High freq. dielectric constant tensor:
#      x y z
#    x 1.765360 0.000000 0.000000 
#    y 0.000000 1.745450 0.000000 
#    z 0.000000 0.000000 1.754660 
# 
# From -- ./inp_files/15858.got.cif
#   From: 2010.03.12/outbox.cif.g09.slc.cpg/sg38_8_cif.got.tgz:15858.got - 2010.04.14 02:38:36.
