data_PCOD8178262
_publ_section_title
;
Structure prediction by ZEFSAII (Michael W. Deem and Ramdas Pophale) SiO2 
 PCOD8178262
Probable space group: A M M 2
;
_chemical_formula_sum "Si O2"
_cell_formula_units_Z 64
_cell_length_a 19.028776
_cell_length_b 9.120654
_cell_length_c 20.037708
_cell_angle_alpha 90.000000
_cell_angle_beta 90.000000
_cell_angle_gamma 90.000000
_cell_volume 3477.642046
_symmetry_space_group_name_H-M "A M M 2"
_symmetry_group_IT_number 38
_symmetry_cell_setting 'orthorhombic'
loop_
_space_group_symop_operation_xyz
x,y,z
-x,-y,z
-x,y,z
x,-y,z
x,1/2+y,1/2+z
-x,1/2-y,1/2+z
-x,1/2+y,1/2+z
x,1/2-y,1/2+z
loop_
_atom_site_type_symbol
_atom_site_label
_atom_site_fract_x
_atom_site_fract_y
_atom_site_fract_z
Si Si1 0.335807 0.325836 0.576940
Si Si2 0.921669 0.325331 0.279806
Si Si3 0.418947 0.825689 0.205699
Si Si4 0.576874 0.173490 0.955753
Si Si5 0.814766 0.825975 0.034702
Si Si6 0.343002 0.672393 0.325450
Si Si7 0.917296 0.667108 0.130658
Si Si8 0.194123 0.674408 0.382375
O O1 0.337940 0.500000 0.575624
O O2 0.380461 0.267174 0.639233
O O3 0.371725 0.259126 0.510963
O O4 0.254821 0.273610 0.574992
O O5 0.922595 0.500000 0.280543
O O6 0.869156 0.263591 0.336344
O O7 0.000000 0.265758 0.295794
O O8 0.898022 0.275034 0.205338
O O9 0.500000 0.769185 0.207963
O O10 0.370389 0.760880 0.262806
O O11 0.417959 0.000000 0.210027
O O12 0.500000 0.242266 0.965659
O O13 0.603124 0.215016 0.883078
O O14 0.574544 0.000000 0.964525
O O15 0.881114 0.763654 0.073920
O O16 0.813179 0.766123 0.958209
O O17 0.820664 0.000000 0.033271
O O18 0.342711 0.500000 0.309311
O O19 0.266189 0.727655 0.348049
O O20 0.892052 0.500000 0.122352
O O21 0.000000 0.680315 0.119475
O O22 0.193636 0.500000 0.384490
#
# Coordination Sequence:
#
# PCOD8178262 Si02
#       8
#     8   8   8   8   8   8   8   8
#     4   9  17  31  48  70 100 131 166 207 247 294
#     4   8  15  29  49  72  98 131 169 202 237 291
#     4  10  21  35  50  70  99 135 171 206 249 303
#     4   9  15  26  48  72  94 127 168 205 244 290
#     4  10  19  32  52  78 105 130 163 210 255 293
#     4  10  19  32  51  77 103 127 162 211 256 292
#     4   9  19  35  53  74 102 136 170 201 239 295
#     4   9  17  30  49  75 105 131 161 206 253 294
#
# _framework density 18.403274
#
# number of rings (size 3 to 8) (size 9 to 14) (size 15 to 20)
#    0.000    2.750    1.250    1.500    1.750    3.000 
#    0.000    1.875    0.000    1.500    0.000    0.000 
#    0.000    0.000    0.000    0.000    0.000    0.000 
#
# Total GULP energy -396626.092149 kJ/mol
# GULP energy per Si atom -12394.565380 kJ/mol
# Density = 1.836139 g / cm^3
# Si number density = 18.403274 Si / 1000 Ang^3
#
#
#
# Elastic Constant Matrix: (Units=GPa)
#
#
# Indices 1 2 3 4 5 6 
#
# 1 113.0062 18.4979 65.5000 0.0000 0.0000 0.0000
# 2 18.4979 13.5908 21.8792 0.0000 0.0000 0.0000
# 3 65.5000 21.8792 127.8011 0.0000 0.0000 0.0000
# 4 0.0000 0.0000 0.0000 18.6828 0.0000 0.0000
# 5 0.0000 0.0000 0.0000 0.0000 38.6685 0.0000
# 6 0.0000 0.0000 0.0000 0.0000 0.0000 18.6984
#
#
#
# Elastic Compliance Matrix: (Units=1/GPa)
#
#
# Indices 1 2 3 4 5 6 
#
# 1 0.013505 -0.009993 -0.005211 0.000000 0.000000 0.000000
# 2 -0.009993 0.108967 -0.013533 0.000000 0.000000 0.000000
# 3 -0.005211 -0.013533 0.012812 0.000000 0.000000 0.000000
# 4 0.000000 0.000000 0.000000 0.053525 0.000000 0.000000
# 5 0.000000 0.000000 0.000000 0.000000 0.025861 0.000000
# 6 0.000000 0.000000 0.000000 0.000000 0.000000 0.053480
#
#
# Mechanical properties :
#
#
# Convention : Reuss Voigt Hill
#
# Bulk Modulus (GPa) = 12.85179 51.79469 32.32324
# Shear Modulus (GPa) = 14.22230 25.11135 19.66682
#
# Velocity S-wave (km/s) = 2.78297 3.69793 3.27258
# Velocity P-wave (km/s) = 4.16235 6.81456 5.64639
#
# Compressibility (1/GPa) = 0.07781020
#
# Stress axis : x y z
#
# Youngs Moduli (GPa) = 74.04661 9.17712 78.05076
#
# Poissons Ratio (x) = 0.09170 0.40671
# Poissons Ratio (y) = 0.73991 1.05630
# Poissons Ratio (z) = 0.38584 0.12420
#
# Static dielectric constant tensor:
#      x y z
#    x 3.708700 0.000000 0.000000 
#    y 0.000000 2.786040 0.000000 
#    z 0.000000 0.000000 3.601560 
# 
# 
# High freq. dielectric constant tensor:
#      x y z
#    x 1.728760 0.000000 0.000000 
#    y 0.000000 1.647870 0.000000 
#    z 0.000000 0.000000 1.727200 
# 
# From -- ./inp_files/18474.got.cif
#   From: 2010.03.12/outbox.cif.g09.slc.cpg/sg38_10_cif.got.tgz:18474.got - 2010.04.14 02:38:36.
