data_PCOD8178734
_publ_section_title
;
Structure prediction by ZEFSAII (Michael W. Deem and Ramdas Pophale) SiO2 
 PCOD8178734
Probable space group: A M M 2
;
_chemical_formula_sum "Si O2"
_cell_formula_units_Z 48
_cell_length_a 8.618563
_cell_length_b 16.622079
_cell_length_c 18.452251
_cell_angle_alpha 90.000000
_cell_angle_beta 90.000000
_cell_angle_gamma 90.000000
_cell_volume 2643.440601
_symmetry_space_group_name_H-M "A M M 2"
_symmetry_group_IT_number 38
_symmetry_cell_setting 'orthorhombic'
loop_
_space_group_symop_operation_xyz
x,y,z
-x,-y,z
-x,y,z
x,-y,z
x,1/2+y,1/2+z
-x,1/2-y,1/2+z
-x,1/2+y,1/2+z
x,1/2-y,1/2+z
loop_
_atom_site_type_symbol
_atom_site_label
_atom_site_fract_x
_atom_site_fract_y
_atom_site_fract_z
Si Si1 0.183872 0.656641 0.214740
Si Si2 0.183155 0.165897 0.446528
Si Si3 0.681769 0.689196 0.368853
Si Si4 0.183230 0.590742 0.497481
Si Si5 0.182786 0.239813 0.084394
Si Si6 0.680554 0.500000 0.971595
Si Si7 0.684065 0.000000 0.640317
O O1 0.275869 0.660738 0.288964
O O2 0.237959 0.732047 0.163861
O O3 0.233640 0.576408 0.174512
O O4 0.000000 0.656946 0.228880
O O5 0.235171 0.225680 0.382720
O O6 0.250797 0.200999 0.522367
O O7 0.250445 0.077935 0.432072
O O8 0.000000 0.160611 0.446822
O O9 0.500000 0.701008 0.376516
O O10 0.736331 0.620204 0.424126
O O11 0.236700 0.500000 0.515425
O O12 0.232893 0.648002 0.565275
O O13 0.000000 0.595882 0.484300
O O14 0.000000 0.248095 0.080527
O O15 0.500000 0.500000 0.958697
O O16 0.725031 0.500000 0.055779
O O17 0.500000 0.000000 0.655030
#
# Coordination Sequence:
#
# PCOD8178734 Si02
#       7
#     8   8   8   8   8   4   4
#     4  11  21  36  56  78 109 148 186 222 270 330
#     4  10  19  36  58  81 107 144 191 228 267 324
#     4  11  23  37  53  78 113 147 181 226 281 331
#     4   9  18  35  58  82 106 137 180 228 273 326
#     4   8  16  31  54  80 103 135 180 228 268 312
#     4  11  21  33  55  87 119 144 175 224 281 329
#     4  11  23  35  51  83 119 144 175 220 277 333
#
# _framework density 18.158152999999999
#
# number of rings (size 3 to 8) (size 9 to 14) (size 15 to 20)
#    0.000    2.000    1.667    4.000    1.167    1.000 
#    0.000    0.833    1.833    0.000    0.000    0.000 
#    0.000    0.000    0.000    0.000    0.000    0.000 
#
# Total GULP energy -297567.028401 kJ/mol
# GULP energy per Si atom -12398.626183 kJ/mol
# Density = 1.811682 g / cm^3
# Si number density = 18.158153 Si / 1000 Ang^3
#
#
#
# Elastic Constant Matrix: (Units=GPa)
#
#
# Indices 1 2 3 4 5 6 
#
# 1 62.9248 32.8592 15.2866 0.0000 0.0000 0.0000
# 2 32.8592 146.6464 32.4852 0.0000 0.0000 0.0000
# 3 15.2866 32.4852 59.8524 0.0000 0.0000 0.0000
# 4 0.0000 0.0000 0.0000 2588.2407 0.0000 0.0000
# 5 0.0000 0.0000 0.0000 0.0000 16.3546 0.0000
# 6 0.0000 0.0000 0.0000 0.0000 0.0000 22.7232
#
#
#
# Elastic Compliance Matrix: (Units=1/GPa)
#
#
# Indices 1 2 3 4 5 6 
#
# 1 0.018401 -0.003503 -0.002798 0.000000 0.000000 0.000000
# 2 -0.003503 0.008418 -0.003674 0.000000 0.000000 0.000000
# 3 -0.002798 -0.003674 0.019417 0.000000 0.000000 0.000000
# 4 0.000000 0.000000 0.000000 0.000386 0.000000 0.000000
# 5 0.000000 0.000000 0.000000 0.000000 0.061145 0.000000
# 6 0.000000 0.000000 0.000000 0.000000 0.000000 0.044008
#
#
# Mechanical properties :
#
#
# Convention : Reuss Voigt Hill
#
# Bulk Modulus (GPa) = 38.04550 47.85393 42.94971
# Shear Modulus (GPa) = 27.70269 538.04988 282.87629
#
# Velocity S-wave (km/s) = 3.91017 17.23242 12.49492
# Velocity P-wave (km/s) = 6.43302 20.55123 15.22722
#
# Compressibility (1/GPa) = 0.02628432
#
# Stress axis : x y z
#
# Youngs Moduli (GPa) = 54.34429 118.79292 51.50219
#
# Poissons Ratio (x) = 0.41617 0.14412
# Poissons Ratio (y) = 0.19038 0.18923
# Poissons Ratio (z) = 0.15207 0.43646
#
# Static dielectric constant tensor:
#      x y z
#    x 3.260540 0.000000 0.000000 
#    y 0.000000 -20.926390 0.000000 
#    z 0.000000 0.000000 3.347080 
# 
# 
# High freq. dielectric constant tensor:
#      x y z
#    x 1.698910 0.000000 0.000000 
#    y 0.000000 1.711310 0.000000 
#    z 0.000000 0.000000 1.684490 
# 
# From -- ./inp_files/16699.got.cif
#   From: 2010.03.12/outbox.cif.g09.slc.cpg/sg38_9_cif.got.tgz:16699.got - 2010.04.14 02:38:36.
