data_PCOD8178751
_publ_section_title
;
Structure prediction by ZEFSAII (Michael W. Deem and Ramdas Pophale) SiO2 
 PCOD8178751
Probable space group: A M M 2
;
_chemical_formula_sum "Si O2"
_cell_formula_units_Z 48
_cell_length_a 8.846558
_cell_length_b 15.180592
_cell_length_c 18.781400
_cell_angle_alpha 90.000000
_cell_angle_beta 90.000000
_cell_angle_gamma 90.000000
_cell_volume 2522.266662
_symmetry_space_group_name_H-M "A M M 2"
_symmetry_group_IT_number 38
_symmetry_cell_setting 'orthorhombic'
loop_
_space_group_symop_operation_xyz
x,y,z
-x,-y,z
-x,y,z
x,-y,z
x,1/2+y,1/2+z
-x,1/2-y,1/2+z
-x,1/2+y,1/2+z
x,1/2-y,1/2+z
loop_
_atom_site_type_symbol
_atom_site_label
_atom_site_fract_x
_atom_site_fract_y
_atom_site_fract_z
Si Si1 0.825493 0.500000 0.609261
Si Si2 0.820574 0.657721 0.849267
Si Si3 0.822491 0.000000 0.606390
Si Si4 0.825461 0.500000 0.441193
Si Si5 0.673116 0.351074 0.195318
Si Si6 0.322646 0.850807 0.198873
Si Si7 0.677557 0.842708 0.858527
Si Si8 0.179126 0.500000 0.947794
O O1 0.805852 0.500000 0.525242
O O2 0.746099 0.587420 0.638529
O O3 0.000000 0.500000 0.632281
O O4 0.754794 0.627516 0.773697
O O5 0.756060 0.750417 0.875621
O O6 0.765006 0.586827 0.906887
O O7 0.000000 0.663293 0.842811
O O8 0.775411 0.088091 0.646761
O O9 0.751285 0.000000 0.527194
O O10 0.000000 0.000000 0.600844
O O11 0.744834 0.413958 0.411378
O O12 0.000000 0.500000 0.418068
O O13 0.500000 0.374187 0.179369
O O14 0.709488 0.249892 0.176691
O O15 0.711123 0.371090 0.277531
O O16 0.500000 0.868337 0.207065
O O17 0.500000 0.832469 0.871570
O O18 0.000000 0.500000 0.950718
#
# Coordination Sequence:
#
# PCOD8178751 Si02
#       8
#     4   8   4   4   8   8   8   4
#     4  11  24  39  56  82 116 151 186 229 284 344
#     4  10  19  36  61  84 111 147 187 231 278 330
#     4  11  22  35  54  80 110 145 184 223 266 322
#     4  11  24  39  56  82 114 149 190 233 282 342
#     4   9  20  38  57  80 110 142 178 225 277 326
#     4  10  21  38  60  85 112 143 185 234 280 331
#     4  10  21  38  59  83 112 145 185 234 284 334
#     4   9  21  37  52  78 114 147 178 221 274 320
#
# _framework density 19.030501999999998
#
# number of rings (size 3 to 8) (size 9 to 14) (size 15 to 20)
#    0.000    2.000    0.000    4.250    0.000    9.333 
#    0.000    9.583    0.000    0.000    0.000    0.000 
#    0.000    0.000    0.000    0.000    0.000    0.000 
#
# Total GULP energy -297688.174683 kJ/mol
# GULP energy per Si atom -12403.673945 kJ/mol
# Density = 1.898719 g / cm^3
# Si number density = 19.030502 Si / 1000 Ang^3
#
#
#
# Elastic Constant Matrix: (Units=GPa)
#
#
# Indices 1 2 3 4 5 6 
#
# 1 109.6484 63.9681 61.0933 0.0000 0.0000 0.0000
# 2 63.9681 135.8170 81.7925 0.0000 0.0000 0.0000
# 3 61.0933 81.7925 113.8602 0.0000 0.0000 0.0000
# 4 0.0000 0.0000 0.0000 -18.5165 0.0000 0.0000
# 5 0.0000 0.0000 0.0000 0.0000 16.5198 0.0000
# 6 0.0000 0.0000 0.0000 0.0000 0.0000 28.0892
#
#
#
# Elastic Compliance Matrix: (Units=1/GPa)
#
#
# Indices 1 2 3 4 5 6 
#
# 1 0.013960 -0.003638 -0.004877 0.000000 0.000000 0.000000
# 2 -0.003638 0.013925 -0.008051 0.000000 0.000000 0.000000
# 3 -0.004877 -0.008051 0.017183 0.000000 0.000000 0.000000
# 4 0.000000 0.000000 0.000000 -0.054006 0.000000 0.000000
# 5 0.000000 0.000000 0.000000 0.000000 0.060534 0.000000
# 6 0.000000 0.000000 0.000000 0.000000 0.000000 0.035601
#
#
# Mechanical properties :
#
#
# Convention : Reuss Voigt Hill
#
# Bulk Modulus (GPa) = 83.78175 85.89261 84.83718
# Shear Modulus (GPa) = 40.22319 15.38327 27.80323
#
# Velocity S-wave (km/s) = 4.60240 2.84623 3.82643
# Velocity P-wave (km/s) = 8.50666 7.48556 8.01239
#
# Compressibility (1/GPa) = 0.01193577
#
# Stress axis : x y z
#
# Youngs Moduli (GPa) = 71.63493 71.81459 58.19665
#
# Poissons Ratio (x) = 0.26124 0.28383
# Poissons Ratio (y) = 0.26059 0.46855
# Poissons Ratio (z) = 0.34937 0.57818
#
# Static dielectric constant tensor:
#      x y z
#    x 3.530190 0.000000 0.000000 
#    y 0.000000 3.619730 0.000000 
#    z 0.000000 0.000000 3.519020 
# 
# 
# High freq. dielectric constant tensor:
#      x y z
#    x 1.746040 0.000000 0.000000 
#    y 0.000000 1.754880 0.000000 
#    z 0.000000 0.000000 1.736880 
# 
# From -- ./inp_files/16731.got.cif
#   From: 2010.03.12/outbox.cif.g09.slc.cpg/sg38_9_cif.got.tgz:16731.got - 2010.04.14 02:38:36.
