data_PCOD8178457
_publ_section_title
;
Structure prediction by ZEFSAII (Michael W. Deem and Ramdas Pophale) SiO2 
 PCOD8178457
Probable space group: A M M 2
;
_chemical_formula_sum "Si O2"
_cell_formula_units_Z 48
_cell_length_a 14.007137
_cell_length_b 9.145701
_cell_length_c 20.665193
_cell_angle_alpha 90.000000
_cell_angle_beta 90.000000
_cell_angle_gamma 90.000000
_cell_volume 2647.316344
_symmetry_space_group_name_H-M "A M M 2"
_symmetry_group_IT_number 38
_symmetry_cell_setting 'orthorhombic'
loop_
_space_group_symop_operation_xyz
x,y,z
-x,-y,z
-x,y,z
x,-y,z
x,1/2+y,1/2+z
-x,1/2-y,1/2+z
-x,1/2+y,1/2+z
x,1/2-y,1/2+z
loop_
_atom_site_type_symbol
_atom_site_label
_atom_site_fract_x
_atom_site_fract_y
_atom_site_fract_z
Si Si1 0.293160 0.830185 0.781790
Si Si2 0.892914 0.667503 0.351484
Si Si3 0.606056 0.173564 0.912297
Si Si4 0.720637 0.327006 0.536459
Si Si5 0.890854 0.829155 0.483693
Si Si6 0.391019 0.327017 0.664116
O O1 0.180135 0.800627 0.792782
O O2 0.346955 0.773760 0.845737
O O3 0.329621 0.738163 0.721941
O O4 0.314422 0.000000 0.768392
O O5 0.880101 0.500000 0.374956
O O6 0.868376 0.767583 0.412507
O O7 0.000000 0.697237 0.325629
O O8 0.500000 0.239835 0.916234
O O9 0.602807 0.000000 0.915241
O O10 0.665717 0.231596 0.973141
O O11 0.736104 0.500000 0.535894
O O12 0.823946 0.249030 0.536929
O O13 0.658916 0.276743 0.597885
O O14 0.000000 0.795824 0.503164
O O15 0.869124 0.000000 0.483056
O O16 0.500000 0.268264 0.665402
O O17 0.390336 0.500000 0.670620
#
# Coordination Sequence:
#
# PCOD8178457 Si02
#       6
#     8   8   8   8   8   8
#     4  10  19  33  54  80 107 140 180 220 265 316
#     4   9  17  32  55  81 107 138 179 221 261 312
#     4   9  16  28  50  78 102 128 173 226 264 302
#     4  10  19  35  56  77 103 141 184 220 258 313
#     4  10  20  33  52  81 113 140 168 214 275 323
#     4  10  22  38  55  77 108 145 180 219 269 318
#
# _framework density 18.131568999999999
#
# number of rings (size 3 to 8) (size 9 to 14) (size 15 to 20)
#    0.000    2.333    1.667    1.500    0.000    5.333 
#    0.000    0.833    0.000    4.500    0.000    0.000 
#    0.000    0.000    0.000    0.000    0.000    0.000 
#
# Total GULP energy -297597.860496 kJ/mol
# GULP energy per Si atom -12399.910854 kJ/mol
# Density = 1.809030 g / cm^3
# Si number density = 18.131569 Si / 1000 Ang^3
#
#
#
# Elastic Constant Matrix: (Units=GPa)
#
#
# Indices 1 2 3 4 5 6 
#
# 1 149.8265 40.8300 68.2878 0.0000 0.0000 0.0000
# 2 40.8300 36.7015 35.1120 0.0000 0.0000 0.0000
# 3 68.2878 35.1120 121.3519 0.0000 0.0000 0.0000
# 4 0.0000 0.0000 0.0000 28.7791 0.0000 0.0000
# 5 0.0000 0.0000 0.0000 0.0000 32.4806 0.0000
# 6 0.0000 0.0000 0.0000 0.0000 0.0000 24.1954
#
#
#
# Elastic Compliance Matrix: (Units=1/GPa)
#
#
# Indices 1 2 3 4 5 6 
#
# 1 0.010563 -0.008386 -0.003518 0.000000 0.000000 0.000000
# 2 -0.008386 0.044333 -0.008108 0.000000 0.000000 0.000000
# 3 -0.003518 -0.008108 0.012566 0.000000 0.000000 0.000000
# 4 0.000000 0.000000 0.000000 0.034747 0.000000 0.000000
# 5 0.000000 0.000000 0.000000 0.000000 0.030788 0.000000
# 6 0.000000 0.000000 0.000000 0.000000 0.000000 0.041330
#
#
# Mechanical properties :
#
#
# Convention : Reuss Voigt Hill
#
# Bulk Modulus (GPa) = 36.44531 66.25994 51.35262
# Shear Modulus (GPa) = 22.37159 28.00101 25.18630
#
# Velocity S-wave (km/s) = 3.51643 3.93405 3.73109
# Velocity P-wave (km/s) = 6.05236 7.56697 6.85165
#
# Compressibility (1/GPa) = 0.02743837
#
# Stress axis : x y z
#
# Youngs Moduli (GPa) = 94.67060 22.55639 79.57921
#
# Poissons Ratio (x) = 0.18915 0.27993
# Poissons Ratio (y) = 0.79389 0.64527
# Poissons Ratio (z) = 0.33302 0.18290
#
# Static dielectric constant tensor:
#      x y z
#    x 3.728940 0.000000 0.000000 
#    y 0.000000 3.104890 0.000000 
#    z 0.000000 0.000000 3.206850 
# 
# 
# High freq. dielectric constant tensor:
#      x y z
#    x 1.723290 0.000000 0.000000 
#    y 0.000000 1.677420 0.000000 
#    z 0.000000 0.000000 1.684140 
# 
# From -- ./inp_files/18143.got.cif
#   From: 2010.03.12/outbox.cif.g09.slc.cpg/sg38_10_cif.got.tgz:18143.got - 2010.04.14 02:38:36.
