data_PCOD8178909
_publ_section_title
;
Structure prediction by ZEFSAII (Michael W. Deem and Ramdas Pophale) SiO2 
 PCOD8178909
Probable space group: A M M 2
;
_chemical_formula_sum "Si O2"
_cell_formula_units_Z 56
_cell_length_a 9.324045
_cell_length_b 22.257865
_cell_length_c 14.254149
_cell_angle_alpha 90.000000
_cell_angle_beta 90.000000
_cell_angle_gamma 90.000000
_cell_volume 2958.211078
_symmetry_space_group_name_H-M "A M M 2"
_symmetry_group_IT_number 38
_symmetry_cell_setting 'orthorhombic'
loop_
_space_group_symop_operation_xyz
x,y,z
-x,-y,z
-x,y,z
x,-y,z
x,1/2+y,1/2+z
-x,1/2-y,1/2+z
-x,1/2+y,1/2+z
x,1/2-y,1/2+z
loop_
_atom_site_type_symbol
_atom_site_label
_atom_site_fract_x
_atom_site_fract_y
_atom_site_fract_z
Si Si1 0.334213 0.105203 0.078790
Si Si2 0.165061 0.617226 0.998303
Si Si3 0.170343 0.000000 0.395083
Si Si4 0.337619 0.216937 0.397595
Si Si5 0.165488 0.156384 0.699518
Si Si6 0.334051 0.353176 0.378491
Si Si7 0.336903 0.276547 0.686697
Si Si8 0.829488 0.500000 0.679194
O O1 0.500000 0.089815 0.101796
O O2 0.294909 0.171816 0.113620
O O3 0.230958 0.058539 0.128630
O O4 0.307019 0.102994 0.966701
O O5 0.183109 0.611912 0.110739
O O6 0.000000 0.623453 0.969681
O O7 0.232725 0.558647 0.948099
O O8 0.240529 0.677347 0.964141
O O9 0.221012 0.000000 0.287288
O O10 0.000000 0.000000 0.403076
O O11 0.500000 0.210296 0.433358
O O12 0.287048 0.285836 0.406101
O O13 0.321007 0.195339 0.290354
O O14 0.242275 0.125341 0.788830
O O15 0.233192 0.220406 0.672509
O O16 0.000000 0.166868 0.724578
O O17 0.500000 0.353057 0.348201
O O18 0.500000 0.254394 0.670418
O O19 0.000000 0.500000 0.670827
#
# Coordination Sequence:
#
# PCOD8178909 Si02
#       8
#     8   8   4   8   8   8   8   4
#     4  10  20  36  57  77 102 140 180 216 257 309
#     4  10  20  34  52  73 100 138 176 209 252 302
#     4   9  20  39  56  71 100 138 171 205 250 307
#     4   9  17  30  51  79 106 132 165 207 255 304
#     4  10  20  32  50  78 107 135 171 216 262 307
#     4   9  19  35  54  76 104 139 173 208 257 311
#     4   9  18  33  53  77 106 139 172 209 259 315
#     4  11  23  37  56  81 106 134 169 213 264 313
#
# _framework density 18.930358999999999
#
# number of rings (size 3 to 8) (size 9 to 14) (size 15 to 20)
#    0.000    2.429    0.000    3.214    0.000    5.714 
#    0.000    1.786    0.000    0.857    0.000    0.000 
#    0.000    0.000    0.000    0.000    0.000    0.000 
#
# Total GULP energy -347203.568794 kJ/mol
# GULP energy per Si atom -12400.127457 kJ/mol
# Density = 1.888727 g / cm^3
# Si number density = 18.930359 Si / 1000 Ang^3
#
#
#
# Elastic Constant Matrix: (Units=GPa)
#
#
# Indices 1 2 3 4 5 6 
#
# 1 77.2793 37.5306 54.9132 0.0000 0.0000 0.0000
# 2 37.5306 56.2768 51.9995 0.0000 0.0000 0.0000
# 3 54.9132 51.9995 128.7325 0.0000 0.0000 0.0000
# 4 0.0000 0.0000 0.0000 30.8794 0.0000 0.0000
# 5 0.0000 0.0000 0.0000 0.0000 30.4637 0.0000
# 6 0.0000 0.0000 0.0000 0.0000 0.0000 26.2447
#
#
#
# Elastic Compliance Matrix: (Units=1/GPa)
#
#
# Indices 1 2 3 4 5 6 
#
# 1 0.021197 -0.009224 -0.005316 0.000000 0.000000 0.000000
# 2 -0.009224 0.032365 -0.009139 0.000000 0.000000 0.000000
# 3 -0.005316 -0.009139 0.013727 0.000000 0.000000 0.000000
# 4 0.000000 0.000000 0.000000 0.032384 0.000000 0.000000
# 5 0.000000 0.000000 0.000000 0.000000 0.032826 0.000000
# 6 0.000000 0.000000 0.000000 0.000000 0.000000 0.038103
#
#
# Mechanical properties :
#
#
# Convention : Reuss Voigt Hill
#
# Bulk Modulus (GPa) = 50.17184 61.24169 55.70676
# Shear Modulus (GPa) = 22.26140 25.37391 23.81765
#
# Velocity S-wave (km/s) = 3.43295 3.66509 3.55092
# Velocity P-wave (km/s) = 6.50188 7.09449 6.80464
#
# Compressibility (1/GPa) = 0.01993150
#
# Stress axis : x y z
#
# Youngs Moduli (GPa) = 47.17563 30.89763 72.84870
#
# Poissons Ratio (x) = 0.28501 0.38727
# Poissons Ratio (y) = 0.43516 0.66573
# Poissons Ratio (z) = 0.25079 0.28236
#
# Static dielectric constant tensor:
#      x y z
#    x 3.337790 0.000000 0.000000 
#    y 0.000000 3.294230 0.000000 
#    z 0.000000 0.000000 3.707680 
# 
# 
# High freq. dielectric constant tensor:
#      x y z
#    x 1.723070 0.000000 0.000000 
#    y 0.000000 1.709880 0.000000 
#    z 0.000000 0.000000 1.752570 
# 
# From -- ./inp_files/12459.got.cif
#   From: 2010.03.12/outbox.cif.g09.slc.cpg/sg38_7_cif.got.tgz:12459.got - 2010.04.14 02:38:36.
