data_PCOD8178226
_publ_section_title
;
Structure prediction by ZEFSAII (Michael W. Deem and Ramdas Pophale) SiO2 
 PCOD8178226
Probable space group: A M M 2
;
_chemical_formula_sum "Si O2"
_cell_formula_units_Z 40
_cell_length_a 8.551282
_cell_length_b 26.144304
_cell_length_c 9.344588
_cell_angle_alpha 90.000000
_cell_angle_beta 90.000000
_cell_angle_gamma 90.000000
_cell_volume 2089.144460
_symmetry_space_group_name_H-M "A M M 2"
_symmetry_group_IT_number 38
_symmetry_cell_setting 'orthorhombic'
loop_
_space_group_symop_operation_xyz
x,y,z
-x,-y,z
-x,y,z
x,-y,z
x,1/2+y,1/2+z
-x,1/2-y,1/2+z
-x,1/2+y,1/2+z
x,1/2-y,1/2+z
loop_
_atom_site_type_symbol
_atom_site_label
_atom_site_fract_x
_atom_site_fract_y
_atom_site_fract_z
Si Si1 0.320832 0.388233 0.643290
Si Si2 0.812764 0.890137 0.458465
Si Si3 0.184210 0.200203 0.966236
Si Si4 0.323159 0.000000 0.181333
Si Si5 0.822824 0.500000 0.974283
Si Si6 0.813610 0.795558 0.645755
O O1 0.500000 0.370930 0.637679
O O2 0.259451 0.379650 0.803521
O O3 0.224111 0.354468 0.532634
O O4 0.300816 0.447569 0.591702
O O5 0.750546 0.945127 0.523592
O O6 0.754022 0.846363 0.565331
O O7 0.000000 0.890741 0.441906
O O8 0.254850 0.204371 0.806414
O O9 0.000000 0.206050 0.957078
O O10 0.253385 0.245901 0.063545
O O11 0.500000 0.000000 0.248026
O O12 0.191522 0.000000 0.302718
O O13 0.000000 0.500000 0.024383
O O14 0.000000 0.794533 0.647604
#
# Coordination Sequence:
#
# PCOD8178226 Si02
#       6
#     8   8   8   4   4   8
#     4  10  19  32  50  73  98 127 160 198 239 282
#     4   9  16  30  51  75 100 128 160 196 234 279
#     4  10  19  33  51  71  94 126 164 200 237 284
#     4   8  16  30  47  66  94 128 160 190 231 284
#     4   8  14  24  45  74 100 124 156 194 231 270
#     4   9  18  32  52  73  96 127 162 196 238 288
#
# _framework density 19.146594
#
# number of rings (size 3 to 8) (size 9 to 14) (size 15 to 20)
#    0.000    2.800    0.000    1.800    0.000    4.000 
#    0.000    6.000    0.000    2.400    0.000    4.200 
#    0.000    0.000    0.000    0.000    0.000    0.000 
#
# Total GULP energy -247798.567697 kJ/mol
# GULP energy per Si atom -12389.928385 kJ/mol
# Density = 1.910302 g / cm^3
# Si number density = 19.146594 Si / 1000 Ang^3
#
#
#
# Elastic Constant Matrix: (Units=GPa)
#
#
# Indices 1 2 3 4 5 6 
#
# 1 8.3149 7.8450 6.3974 0.0000 0.0000 0.0000
# 2 7.8450 180.1043 83.7247 0.0000 0.0000 0.0000
# 3 6.3974 83.7247 128.1554 0.0000 0.0000 0.0000
# 4 0.0000 0.0000 0.0000 33.1244 0.0000 0.0000
# 5 0.0000 0.0000 0.0000 0.0000 5.8818 0.0000
# 6 0.0000 0.0000 0.0000 0.0000 0.0000 18.9988
#
#
#
# Elastic Compliance Matrix: (Units=1/GPa)
#
#
# Indices 1 2 3 4 5 6 
#
# 1 0.126768 -0.003705 -0.003907 0.000000 0.000000 0.000000
# 2 -0.003705 0.008082 -0.005095 0.000000 0.000000 0.000000
# 3 -0.003907 -0.005095 0.011327 0.000000 0.000000 0.000000
# 4 0.000000 0.000000 0.000000 0.030189 0.000000 0.000000
# 5 0.000000 0.000000 0.000000 0.000000 0.170015 0.000000
# 6 0.000000 0.000000 0.000000 0.000000 0.000000 0.052635
#
#
# Mechanical properties :
#
#
# Convention : Reuss Voigt Hill
#
# Bulk Modulus (GPa) = 8.28082 56.94543 32.61313
# Shear Modulus (GPa) = 10.75996 26.17484 18.46740
#
# Velocity S-wave (km/s) = 2.37318 3.70141 3.10905
# Velocity P-wave (km/s) = 3.44146 6.93351 5.47345
#
# Compressibility (1/GPa) = 0.12076096
#
# Stress axis : x y z
#
# Youngs Moduli (GPa) = 7.88844 123.72591 88.28566
#
# Poissons Ratio (x) = 0.45845 0.34497
# Poissons Ratio (y) = 0.02923 0.44984
# Poissons Ratio (z) = 0.03082 0.63042
#
# Static dielectric constant tensor:
#      x y z
#    x 3.169950 0.000000 0.000000 
#    y 0.000000 4.006920 0.000000 
#    z 0.000000 0.000000 3.332630 
# 
# 
# High freq. dielectric constant tensor:
#      x y z
#    x 1.711350 0.000000 0.000000 
#    y 0.000000 1.772980 0.000000 
#    z 0.000000 0.000000 1.710390 
# 
# From -- ./inp_files/3485.got.cif
#   From: 2010.03.12/outbox.cif.g09.slc.cpg/sg38_2_cif.got.tgz:3485.got - 2010.04.14 02:38:36.
