data_PCOD8178600
_publ_section_title
;
Structure prediction by ZEFSAII (Michael W. Deem and Ramdas Pophale) SiO2 
 PCOD8178600
Probable space group: A M M 2
;
_chemical_formula_sum "Si O2"
_cell_formula_units_Z 48
_cell_length_a 9.168765
_cell_length_b 18.217417
_cell_length_c 15.082062
_cell_angle_alpha 90.000000
_cell_angle_beta 90.000000
_cell_angle_gamma 90.000000
_cell_volume 2519.175146
_symmetry_space_group_name_H-M "A M M 2"
_symmetry_group_IT_number 38
_symmetry_cell_setting 'orthorhombic'
loop_
_space_group_symop_operation_xyz
x,y,z
-x,-y,z
-x,y,z
x,-y,z
x,1/2+y,1/2+z
-x,1/2-y,1/2+z
-x,1/2+y,1/2+z
x,1/2-y,1/2+z
loop_
_atom_site_type_symbol
_atom_site_label
_atom_site_fract_x
_atom_site_fract_y
_atom_site_fract_z
Si Si1 0.825492 0.000000 0.332240
Si Si2 0.672747 0.271302 0.239764
Si Si3 0.171850 0.500000 0.634618
Si Si4 0.331955 0.146450 0.378254
Si Si5 0.667432 0.246956 0.539964
Si Si6 0.332154 0.079259 0.822902
Si Si7 0.172254 0.386968 0.492382
O O1 0.764841 0.926602 0.377498
O O2 0.761438 0.000000 0.232383
O O3 0.000000 0.000000 0.338276
O O4 0.500000 0.272257 0.240628
O O5 0.727495 0.206835 0.306384
O O6 0.730209 0.261978 0.139386
O O7 0.731453 0.351823 0.268050
O O8 0.222601 0.427108 0.582847
O O9 0.000000 0.500000 0.642844
O O10 0.500000 0.127728 0.356100
O O11 0.318473 0.174575 0.479541
O O12 0.500000 0.273488 0.542756
O O13 0.765430 0.305720 0.490154
O O14 0.500000 0.095114 0.848021
O O15 0.319113 0.000000 0.771966
O O16 0.239196 0.068821 0.911274
O O17 0.000000 0.386058 0.482371
#
# Coordination Sequence:
#
# PCOD8178600 Si02
#       7
#     4   8   4   8   8   8   8
#     4  11  23  39  57  78 109 146 188 229 273 324
#     4   9  18  35  58  85 112 141 182 231 275 324
#     4   9  20  35  51  78 113 144 176 225 279 330
#     4  10  20  37  58  81 113 144 180 228 276 326
#     4  10  20  36  58  82 109 144 185 229 274 322
#     4  10  19  34  56  83 114 144 181 225 271 326
#     4  11  20  33  54  80 113 145 179 221 276 335
#
# _framework density 19.053856
#
# number of rings (size 3 to 8) (size 9 to 14) (size 15 to 20)
#    0.000    2.000    2.500    1.750    0.000    0.667 
#    1.500    3.333    0.000    0.000    0.000    0.000 
#    0.000    0.000    0.000    0.000    0.000    0.000 
#
# Total GULP energy -297478.161153 kJ/mol
# GULP energy per Si atom -12394.923381 kJ/mol
# Density = 1.901049 g / cm^3
# Si number density = 19.053856 Si / 1000 Ang^3
#
#
#
# Elastic Constant Matrix: (Units=GPa)
#
#
# Indices 1 2 3 4 5 6 
#
# 1 56.8837 39.5625 20.9037 0.0000 0.0000 0.0000
# 2 39.5625 139.8814 36.8376 0.0000 0.0000 0.0000
# 3 20.9037 36.8376 92.7856 0.0000 0.0000 0.0000
# 4 0.0000 0.0000 0.0000 26.2289 0.0000 0.0000
# 5 0.0000 0.0000 0.0000 0.0000 18.1142 0.0000
# 6 0.0000 0.0000 0.0000 0.0000 0.0000 19.6926
#
#
#
# Elastic Compliance Matrix: (Units=1/GPa)
#
#
# Indices 1 2 3 4 5 6 
#
# 1 0.022537 -0.005625 -0.002844 0.000000 0.000000 0.000000
# 2 -0.005625 0.009388 -0.002460 0.000000 0.000000 0.000000
# 3 -0.002844 -0.002460 0.012395 0.000000 0.000000 0.000000
# 4 0.000000 0.000000 0.000000 0.038126 0.000000 0.000000
# 5 0.000000 0.000000 0.000000 0.000000 0.055205 0.000000
# 6 0.000000 0.000000 0.000000 0.000000 0.000000 0.050781
#
#
# Mechanical properties :
#
#
# Convention : Reuss Voigt Hill
#
# Bulk Modulus (GPa) = 44.52050 53.79538 49.15794
# Shear Modulus (GPa) = 22.95931 25.62360 24.29146
#
# Velocity S-wave (km/s) = 3.47503 3.67113 3.57443
# Velocity P-wave (km/s) = 6.28629 6.80178 6.54911
#
# Compressibility (1/GPa) = 0.02246156
#
# Stress axis : x y z
#
# Youngs Moduli (GPa) = 44.37115 106.52288 80.67855
#
# Poissons Ratio (x) = 0.59921 0.22946
# Poissons Ratio (y) = 0.24960 0.19845
# Poissons Ratio (z) = 0.12620 0.26202
#
# Static dielectric constant tensor:
#      x y z
#    x 3.163630 0.000000 0.000000 
#    y 0.000000 3.557950 0.000000 
#    z 0.000000 0.000000 3.723310 
# 
# 
# High freq. dielectric constant tensor:
#      x y z
#    x 1.710590 0.000000 0.000000 
#    y 0.000000 1.751180 0.000000 
#    z 0.000000 0.000000 1.734470 
# 
# From -- ./inp_files/12083.got.cif
#   From: 2010.03.12/outbox.cif.g09.slc.cpg/sg38_7_cif.got.tgz:12083.got - 2010.04.14 02:38:36.
