data_PCOD8178257
_publ_section_title
;
Structure prediction by ZEFSAII (Michael W. Deem and Ramdas Pophale) SiO2 
 PCOD8178257
Probable space group: A M M 2
;
_chemical_formula_sum "Si O2"
_cell_formula_units_Z 64
_cell_length_a 12.443765
_cell_length_b 26.033960
_cell_length_c 11.135715
_cell_angle_alpha 90.000000
_cell_angle_beta 90.000000
_cell_angle_gamma 90.000000
_cell_volume 3607.531579
_symmetry_space_group_name_H-M "A M M 2"
_symmetry_group_IT_number 38
_symmetry_cell_setting 'orthorhombic'
loop_
_space_group_symop_operation_xyz
x,y,z
-x,-y,z
-x,y,z
x,-y,z
x,1/2+y,1/2+z
-x,1/2-y,1/2+z
-x,1/2+y,1/2+z
x,1/2-y,1/2+z
loop_
_atom_site_type_symbol
_atom_site_label
_atom_site_fract_x
_atom_site_fract_y
_atom_site_fract_z
Si Si1 0.702037 0.942300 0.248980
Si Si2 0.377963 0.056415 0.502716
Si Si3 0.620013 0.656456 0.633368
Si Si4 0.626641 0.645045 0.189802
Si Si5 0.874397 0.271192 0.420088
Si Si6 0.117198 0.941112 0.075849
Si Si7 0.752967 0.128578 0.917285
Si Si8 0.758999 0.248591 0.671171
O O1 0.703913 0.939453 0.392167
O O2 0.623300 0.898712 0.198677
O O3 0.665879 0.000000 0.206796
O O4 0.822900 0.930638 0.202229
O O5 0.500000 0.059496 0.454176
O O6 0.353768 0.105394 0.583088
O O7 0.361162 0.000000 0.565816
O O8 0.500000 0.677618 0.635936
O O9 0.656376 0.650680 0.496773
O O10 0.693927 0.699193 0.694541
O O11 0.500000 0.650513 0.219822
O O12 0.695708 0.617422 0.292543
O O13 0.676427 0.700880 0.164341
O O14 0.851350 0.331575 0.414376
O O15 0.821822 0.247843 0.542895
O O16 0.832242 0.250535 0.291015
O O17 0.000000 0.259636 0.428144
O O18 0.194177 0.922740 0.968567
O O19 0.000000 0.913617 0.080021
O O20 0.098590 0.000000 0.050687
#
# Coordination Sequence:
#
# PCOD8178257 Si02
#       8
#     8   8   8   8   8   8   8   8
#     4   9  18  32  51  76 105 135 175 220 260 315
#     4   9  18  32  51  74 102 140 179 213 256 311
#     4  10  19  32  51  76 107 137 169 214 264 318
#     4  10  20  35  53  74 108 146 176 217 265 318
#     4  10  20  37  56  74 102 138 176 227 273 318
#     4   9  17  31  53  78 103 134 172 219 273 318
#     4   9  19  33  51  75 102 134 176 212 261 316
#     4  10  22  35  54  81 107 137 184 222 270 329
#
# _framework density 17.740663000000001
#
# number of rings (size 3 to 8) (size 9 to 14) (size 15 to 20)
#    0.000    2.500    0.000    1.875    1.750    1.250 
#    0.000    1.875    0.000    3.750    0.000    1.750 
#    0.000    0.000    0.000    0.000    0.000    0.000 
#
# Total GULP energy -396432.830832 kJ/mol
# GULP energy per Si atom -12388.525963 kJ/mol
# Density = 1.770028 g / cm^3
# Si number density = 17.740663 Si / 1000 Ang^3
#
#
#
# Elastic Constant Matrix: (Units=GPa)
#
#
# Indices 1 2 3 4 5 6 
#
# 1 126.0611 45.4897 58.1891 0.0000 0.0000 0.0000
# 2 45.4897 85.7486 41.3533 0.0000 0.0000 0.0000
# 3 58.1891 41.3533 109.1672 0.0000 0.0000 0.0000
# 4 0.0000 0.0000 0.0000 25.6364 0.0000 0.0000
# 5 0.0000 0.0000 0.0000 0.0000 20.4383 0.0000
# 6 0.0000 0.0000 0.0000 0.0000 0.0000 20.7580
#
#
#
# Elastic Compliance Matrix: (Units=1/GPa)
#
#
# Indices 1 2 3 4 5 6 
#
# 1 0.011468 -0.003837 -0.004659 0.000000 0.000000 0.000000
# 2 -0.003837 0.015552 -0.003846 0.000000 0.000000 0.000000
# 3 -0.004659 -0.003846 0.013101 0.000000 0.000000 0.000000
# 4 0.000000 0.000000 0.000000 0.039007 0.000000 0.000000
# 5 0.000000 0.000000 0.000000 0.000000 0.048928 0.000000
# 6 0.000000 0.000000 0.000000 0.000000 0.000000 0.048174
#
#
# Mechanical properties :
#
#
# Convention : Reuss Voigt Hill
#
# Bulk Modulus (GPa) = 64.78193 67.89345 66.33769
# Shear Modulus (GPa) = 24.26481 25.09621 24.68051
#
# Velocity S-wave (km/s) = 3.70232 3.76522 3.73390
# Velocity P-wave (km/s) = 7.40754 7.56674 7.48756
#
# Compressibility (1/GPa) = 0.01543640
#
# Stress axis : x y z
#
# Youngs Moduli (GPa) = 87.20017 64.29935 76.33127
#
# Poissons Ratio (x) = 0.24670 0.35565
# Poissons Ratio (y) = 0.33456 0.29359
# Poissons Ratio (z) = 0.40629 0.24731
#
# Static dielectric constant tensor:
#      x y z
#    x 3.281420 0.000000 0.000000 
#    y 0.000000 3.397550 0.000000 
#    z 0.000000 0.000000 3.291270 
# 
# 
# High freq. dielectric constant tensor:
#      x y z
#    x 1.684190 0.000000 0.000000 
#    y 0.000000 1.692130 0.000000 
#    z 0.000000 0.000000 1.680210 
# 
# From -- ./inp_files/4945.got.cif
#   From: 2010.03.12/outbox.cif.g09.slc.cpg/sg38_3_cif.got.tgz:4945.got - 2010.04.14 02:38:36.
