data_PCOD8178536
_publ_section_title
;
Structure prediction by ZEFSAII (Michael W. Deem and Ramdas Pophale) SiO2 
 PCOD8178536
Probable space group: A M M 2
;
_chemical_formula_sum "Si O2"
_cell_formula_units_Z 48
_cell_length_a 8.823697
_cell_length_b 14.428222
_cell_length_c 20.180959
_cell_angle_alpha 90.000000
_cell_angle_beta 90.000000
_cell_angle_gamma 90.000000
_cell_volume 2569.243121
_symmetry_space_group_name_H-M "A M M 2"
_symmetry_group_IT_number 38
_symmetry_cell_setting 'orthorhombic'
loop_
_space_group_symop_operation_xyz
x,y,z
-x,-y,z
-x,y,z
x,-y,z
x,1/2+y,1/2+z
-x,1/2-y,1/2+z
-x,1/2+y,1/2+z
x,1/2-y,1/2+z
loop_
_atom_site_type_symbol
_atom_site_label
_atom_site_fract_x
_atom_site_fract_y
_atom_site_fract_z
Si Si1 0.821725 0.197627 0.720370
Si Si2 0.675648 0.682085 0.610574
Si Si3 0.823414 0.184526 0.349839
Si Si4 0.673661 0.697453 0.460191
Si Si5 0.673693 0.500000 0.405815
Si Si6 0.821405 0.000000 0.162334
Si Si7 0.321373 0.000000 0.306961
Si Si8 0.178334 0.500000 0.265573
O O1 0.727431 0.237513 0.659709
O O2 0.780101 0.252796 0.786927
O O3 0.764122 0.092024 0.728377
O O4 0.000000 0.204412 0.705147
O O5 0.500000 0.657893 0.622178
O O6 0.704444 0.719997 0.536862
O O7 0.772218 0.590039 0.622089
O O8 0.782141 0.238567 0.416626
O O9 0.000000 0.160476 0.350376
O O10 0.729884 0.089812 0.347718
O O11 0.500000 0.718097 0.440511
O O12 0.712936 0.589545 0.449562
O O13 0.500000 0.500000 0.383115
O O14 0.773891 0.500000 0.341084
O O15 0.750986 0.000000 0.234808
O O16 0.000000 0.000000 0.171396
O O17 0.500000 0.000000 0.299145
O O18 0.000000 0.500000 0.266675
#
# Coordination Sequence:
#
# PCOD8178536 Si02
#       8
#     8   8   8   8   4   4   4   4
#     4  10  21  37  59  85 118 154 196 247 292 347
#     4  11  23  39  60  86 121 161 200 243 297 357
#     4  11  22  38  62  89 119 154 199 247 292 351
#     4  10  22  39  58  86 122 159 198 241 294 354
#     4  10  19  33  57  85 117 149 186 237 288 346
#     4  12  23  37  59  89 123 155 196 249 302 359
#     4  12  24  39  62  89 119 155 197 245 300 357
#     4  10  20  37  58  85 117 149 189 237 288 342
#
# _framework density 18.682545000000001
#
# number of rings (size 3 to 8) (size 9 to 14) (size 15 to 20)
#    0.000    1.333    3.333    3.000    0.000    4.000 
#    0.000    1.667    0.000    4.000    0.000    0.000 
#    0.000    0.000    0.000    0.000    0.000    0.000 
#
# Total GULP energy -297723.165734 kJ/mol
# GULP energy per Si atom -12405.131906 kJ/mol
# Density = 1.864002 g / cm^3
# Si number density = 18.682545 Si / 1000 Ang^3
#
#
#
# Elastic Constant Matrix: (Units=GPa)
#
#
# Indices 1 2 3 4 5 6 
#
# 1 80.7383 51.8023 44.9572 0.0000 0.0000 0.0000
# 2 51.8023 130.6197 53.4487 0.0000 0.0000 0.0000
# 3 44.9572 53.4487 117.7354 0.0000 0.0000 0.0000
# 4 0.0000 0.0000 0.0000 41.0986 0.0000 0.0000
# 5 0.0000 0.0000 0.0000 0.0000 25.7292 0.0000
# 6 0.0000 0.0000 0.0000 0.0000 0.0000 28.1607
#
#
#
# Elastic Compliance Matrix: (Units=1/GPa)
#
#
# Indices 1 2 3 4 5 6 
#
# 1 0.018414 -0.005435 -0.004564 0.000000 0.000000 0.000000
# 2 -0.005435 0.011007 -0.002921 0.000000 0.000000 0.000000
# 3 -0.004564 -0.002921 0.011563 0.000000 0.000000 0.000000
# 4 0.000000 0.000000 0.000000 0.024332 0.000000 0.000000
# 5 0.000000 0.000000 0.000000 0.000000 0.038866 0.000000
# 6 0.000000 0.000000 0.000000 0.000000 0.000000 0.035510
#
#
# Mechanical properties :
#
#
# Convention : Reuss Voigt Hill
#
# Bulk Modulus (GPa) = 66.03967 69.94552 67.99259
# Shear Modulus (GPa) = 29.31155 30.92339 30.11747
#
# Velocity S-wave (km/s) = 3.96527 4.07283 4.01941
# Velocity P-wave (km/s) = 7.50929 7.72253 7.61666
#
# Compressibility (1/GPa) = 0.01514241
#
# Stress axis : x y z
#
# Youngs Moduli (GPa) = 54.30514 90.85293 86.48585
#
# Poissons Ratio (x) = 0.49382 0.39472
# Poissons Ratio (y) = 0.29517 0.25265
# Poissons Ratio (z) = 0.24785 0.26541
#
# Static dielectric constant tensor:
#      x y z
#    x 3.469490 0.000000 0.000000 
#    y 0.000000 3.679620 0.000000 
#    z 0.000000 0.000000 3.337250 
# 
# 
# High freq. dielectric constant tensor:
#      x y z
#    x 1.729420 0.000000 0.000000 
#    y 0.000000 1.731430 0.000000 
#    z 0.000000 0.000000 1.720930 
# 
# From -- ./inp_files/16741.got.cif
#   From: 2010.03.12/outbox.cif.g09.slc.cpg/sg38_9_cif.got.tgz:16741.got - 2010.04.14 02:38:36.
