data_PCOD8178561
_publ_section_title
;
Structure prediction by ZEFSAII (Michael W. Deem and Ramdas Pophale) SiO2 
 PCOD8178561
Probable space group: A M M 2
;
_chemical_formula_sum "Si O2"
_cell_formula_units_Z 48
_cell_length_a 17.044694
_cell_length_b 9.204015
_cell_length_c 15.825958
_cell_angle_alpha 90.000000
_cell_angle_beta 90.000000
_cell_angle_gamma 90.000000
_cell_volume 2482.770265
_symmetry_space_group_name_H-M "A M M 2"
_symmetry_group_IT_number 38
_symmetry_cell_setting 'orthorhombic'
loop_
_space_group_symop_operation_xyz
x,y,z
-x,-y,z
-x,y,z
x,-y,z
x,1/2+y,1/2+z
-x,1/2-y,1/2+z
-x,1/2+y,1/2+z
x,1/2-y,1/2+z
loop_
_atom_site_type_symbol
_atom_site_label
_atom_site_fract_x
_atom_site_fract_y
_atom_site_fract_z
Si Si1 0.677458 0.673490 0.290930
Si Si2 0.000000 0.830907 0.605550
Si Si3 0.682155 0.828632 0.121885
Si Si4 0.000000 0.170686 0.800642
Si Si5 0.152297 0.664858 0.554351
Si Si6 0.411263 0.327475 0.457959
Si Si7 0.838082 0.166637 0.862053
O O1 0.673206 0.500000 0.281857
O O2 0.648153 0.747104 0.204233
O O3 0.624529 0.728407 0.369269
O O4 0.766088 0.730928 0.308235
O O5 0.078240 0.767487 0.565127
O O6 0.000000 0.791922 0.703050
O O7 0.000000 0.000000 0.587222
O O8 0.774837 0.791690 0.113740
O O9 0.668678 0.000000 0.132372
O O10 0.636661 0.768997 0.039209
O O11 0.078402 0.243337 0.840797
O O12 0.000000 0.000000 0.820589
O O13 0.125068 0.500000 0.571633
O O14 0.184068 0.682178 0.459597
O O15 0.500000 0.269816 0.464764
O O16 0.407373 0.500000 0.458402
O O17 0.846654 0.000000 0.835123
#
# Coordination Sequence:
#
# PCOD8178561 Si02
#       7
#     8   4   8   4   8   8   8
#     4  10  19  34  57  82 108 144 188 231 273 328
#     4  11  22  33  47  77 112 139 174 227 283 322
#     4  10  20  35  56  84 113 145 185 231 281 331
#     4   9  17  27  43  69  98 127 166 215 259 302
#     4  10  19  34  55  75 100 141 189 227 265 323
#     4   9  18  35  58  82 111 148 189 230 273 332
#     4   9  16  30  52  74  96 132 184 224 254 308
#
# _framework density 19.333243
#
# number of rings (size 3 to 8) (size 9 to 14) (size 15 to 20)
#    0.000    2.333    1.667    1.750    0.000    4.000 
#    0.000    1.667    0.000    7.000    0.000    0.000 
#    0.000    0.000    0.000    0.000    0.000    0.000 
#
# Total GULP energy -297525.750505 kJ/mol
# GULP energy per Si atom -12396.906271 kJ/mol
# Density = 1.928924 g / cm^3
# Si number density = 19.333243 Si / 1000 Ang^3
#
#
#
# Elastic Constant Matrix: (Units=GPa)
#
#
# Indices 1 2 3 4 5 6 
#
# 1 111.9376 20.1640 68.2739 0.0000 0.0000 0.0000
# 2 20.1640 30.5325 38.5559 0.0000 0.0000 0.0000
# 3 68.2739 38.5559 129.0921 0.0000 0.0000 0.0000
# 4 0.0000 0.0000 0.0000 28.8984 0.0000 0.0000
# 5 0.0000 0.0000 0.0000 0.0000 23.1484 0.0000
# 6 0.0000 0.0000 0.0000 0.0000 0.0000 11.6844
#
#
#
# Elastic Compliance Matrix: (Units=1/GPa)
#
#
# Indices 1 2 3 4 5 6 
#
# 1 0.013188 0.000158 -0.007022 0.000000 0.000000 0.000000
# 2 0.000158 0.052586 -0.015789 0.000000 0.000000 0.000000
# 3 -0.007022 -0.015789 0.016176 0.000000 0.000000 0.000000
# 4 0.000000 0.000000 0.000000 0.034604 0.000000 0.000000
# 5 0.000000 0.000000 0.000000 0.000000 0.043200 0.000000
# 6 0.000000 0.000000 0.000000 0.000000 0.000000 0.085584
#
#
# Mechanical properties :
#
#
# Convention : Reuss Voigt Hill
#
# Bulk Modulus (GPa) = 27.29030 58.39443 42.84236
# Shear Modulus (GPa) = 16.50932 22.38413 19.44673
#
# Velocity S-wave (km/s) = 2.92539 3.40635 3.17499
# Velocity P-wave (km/s) = 5.05538 6.76318 5.97066
#
# Compressibility (1/GPa) = 0.03664306
#
# Stress axis : x y z
#
# Youngs Moduli (GPa) = 75.82640 19.01638 61.82032
#
# Poissons Ratio (x) = -0.00300 0.43410
# Poissons Ratio (y) = -0.01195 0.97610
# Poissons Ratio (z) = 0.53245 0.30025
#
# Static dielectric constant tensor:
#      x y z
#    x 3.744130 0.000000 0.000000 
#    y 0.000000 2.999350 0.000000 
#    z 0.000000 0.000000 3.581990 
# 
# 
# High freq. dielectric constant tensor:
#      x y z
#    x 1.762140 0.000000 0.000000 
#    y 0.000000 1.693330 0.000000 
#    z 0.000000 0.000000 1.764100 
# 
# From -- ./inp_files/15016.got.cif
#   From: 2010.03.12/outbox.cif.g09.slc.cpg/sg38_8_cif.got.tgz:15016.got - 2010.04.14 02:38:36.
