data_PCOD8178503
_publ_section_title
;
Structure prediction by ZEFSAII (Michael W. Deem and Ramdas Pophale) SiO2 
 PCOD8178503
Probable space group: A M M 2
;
_chemical_formula_sum "Si O2"
_cell_formula_units_Z 64
_cell_length_a 15.635906
_cell_length_b 8.821065
_cell_length_c 23.526922
_cell_angle_alpha 90.000000
_cell_angle_beta 90.000000
_cell_angle_gamma 90.000000
_cell_volume 3244.958790
_symmetry_space_group_name_H-M "A M M 2"
_symmetry_group_IT_number 38
_symmetry_cell_setting 'orthorhombic'
loop_
_space_group_symop_operation_xyz
x,y,z
-x,-y,z
-x,y,z
x,-y,z
x,1/2+y,1/2+z
-x,1/2-y,1/2+z
-x,1/2+y,1/2+z
x,1/2-y,1/2+z
loop_
_atom_site_type_symbol
_atom_site_label
_atom_site_fract_x
_atom_site_fract_y
_atom_site_fract_z
Si Si1 0.403062 0.665855 0.084060
Si Si2 0.245953 0.679892 0.885108
Si Si3 0.899956 0.319677 0.686015
Si Si4 0.092451 0.331240 0.959199
Si Si5 0.320615 0.322006 0.490544
Si Si6 0.753001 0.679391 0.262713
Si Si7 0.399812 0.177653 0.196558
Si Si8 0.153767 0.823221 0.062331
O O1 0.500000 0.635941 0.099504
O O2 0.356765 0.500000 0.081557
O O3 0.401352 0.755310 0.024092
O O4 0.366727 0.771539 0.134381
O O5 0.252957 0.500000 0.873972
O O6 0.156982 0.735291 0.912953
O O7 0.251592 0.772276 0.827821
O O8 0.317032 0.735188 0.930378
O O9 0.892077 0.500000 0.689947
O O10 0.837715 0.250054 0.733756
O O11 0.865039 0.257071 0.625153
O O12 0.000000 0.271260 0.694778
O O13 0.123022 0.500000 0.975230
O O14 0.000000 0.330070 0.929704
O O15 0.085020 0.238233 0.017537
O O16 0.327045 0.500000 0.479012
O O17 0.245296 0.278076 0.535453
O O18 0.759051 0.500000 0.256860
O O19 0.661869 0.735251 0.239412
O O20 0.500000 0.215766 0.208766
O O21 0.383091 0.000000 0.202331
O O22 0.141475 0.000000 0.066456
#
# Coordination Sequence:
#
# PCOD8178503 Si02
#       8
#     8   8   8   8   8   8   8   8
#     4  10  20  34  55  86 120 148 177 219 273 333
#     4  10  21  38  57  76 105 145 189 234 279 332
#     4  10  21  37  57  82 115 156 198 237 282 340
#     4   9  18  32  52  78 105 136 176 223 275 328
#     4  10  19  33  55  82 112 145 183 227 277 335
#     4  12  25  40  59  83 114 151 193 242 293 346
#     4  10  21  39  64  91 117 148 188 233 284 345
#     4   9  18  32  52  79 108 139 177 223 275 329
#
# _framework density 19.722899000000002
#
# number of rings (size 3 to 8) (size 9 to 14) (size 15 to 20)
#    0.000    2.000    0.000    3.750    0.000    5.500 
#    0.000    1.875    0.000    3.750    0.000    0.000 
#    0.000    0.000    0.000    0.000    0.000    0.000 
#
# Total GULP energy -396572.285691 kJ/mol
# GULP energy per Si atom -12392.883928 kJ/mol
# Density = 1.967801 g / cm^3
# Si number density = 19.722899 Si / 1000 Ang^3
#
#
#
# Elastic Constant Matrix: (Units=GPa)
#
#
# Indices 1 2 3 4 5 6 
#
# 1 61.1654 33.6670 46.6044 0.0000 0.0000 0.0000
# 2 33.6670 73.4041 38.0446 0.0000 0.0000 0.0000
# 3 46.6044 38.0446 146.1435 0.0000 0.0000 0.0000
# 4 0.0000 0.0000 0.0000 36.0309 0.0000 0.0000
# 5 0.0000 0.0000 0.0000 0.0000 20.2861 0.0000
# 6 0.0000 0.0000 0.0000 0.0000 0.0000 23.7320
#
#
#
# Elastic Compliance Matrix: (Units=1/GPa)
#
#
# Indices 1 2 3 4 5 6 
#
# 1 0.025641 -0.008696 -0.005913 0.000000 0.000000 0.000000
# 2 -0.008696 0.018697 -0.002094 0.000000 0.000000 0.000000
# 3 -0.005913 -0.002094 0.009273 0.000000 0.000000 0.000000
# 4 0.000000 0.000000 0.000000 0.027754 0.000000 0.000000
# 5 0.000000 0.000000 0.000000 0.000000 0.049295 0.000000
# 6 0.000000 0.000000 0.000000 0.000000 0.000000 0.042137
#
#
# Mechanical properties :
#
#
# Convention : Reuss Voigt Hill
#
# Bulk Modulus (GPa) = 49.49186 57.48277 53.48732
# Shear Modulus (GPa) = 23.48101 26.83626 25.15864
#
# Velocity S-wave (km/s) = 3.45417 3.69272 3.57544
# Velocity P-wave (km/s) = 6.40753 6.88404 6.65006
#
# Compressibility (1/GPa) = 0.02020534
#
# Stress axis : x y z
#
# Youngs Moduli (GPa) = 39.00035 53.48481 107.83498
#
# Poissons Ratio (x) = 0.46508 0.63764
# Poissons Ratio (y) = 0.33913 0.22584
# Poissons Ratio (z) = 0.23061 0.11201
#
# Static dielectric constant tensor:
#      x y z
#    x 3.629820 0.000000 0.000000 
#    y 0.000000 3.686870 0.000000 
#    z 0.000000 0.000000 3.604910 
# 
# 
# High freq. dielectric constant tensor:
#      x y z
#    x 1.763390 0.000000 0.000000 
#    y 0.000000 1.772830 0.000000 
#    z 0.000000 0.000000 1.764700 
# 
# From -- ./inp_files/21388.got.cif
#   From: 2010.03.12/outbox.cif.g09.slc.cpg/sg38_11_cif.got.tgz:21388.got - 2010.04.14 02:38:36.
