data_PCOD8178537
_publ_section_title
;
Structure prediction by ZEFSAII (Michael W. Deem and Ramdas Pophale) SiO2 
 PCOD8178537
Probable space group: A M M 2
;
_chemical_formula_sum "Si O2"
_cell_formula_units_Z 64
_cell_length_a 13.916736
_cell_length_b 9.208887
_cell_length_c 25.957531
_cell_angle_alpha 90.000000
_cell_angle_beta 90.000000
_cell_angle_gamma 90.000000
_cell_volume 3326.656153
_symmetry_space_group_name_H-M "A M M 2"
_symmetry_group_IT_number 38
_symmetry_cell_setting 'orthorhombic'
loop_
_space_group_symop_operation_xyz
x,y,z
-x,-y,z
-x,y,z
x,-y,z
x,1/2+y,1/2+z
-x,1/2-y,1/2+z
-x,1/2+y,1/2+z
x,1/2-y,1/2+z
loop_
_atom_site_type_symbol
_atom_site_label
_atom_site_fract_x
_atom_site_fract_y
_atom_site_fract_z
Si Si1 0.283552 0.828082 0.546030
Si Si2 0.113787 0.340346 0.699305
Si Si3 0.725934 0.327628 0.845322
Si Si4 0.608183 0.327607 0.943993
Si Si5 0.111530 0.331151 0.298666
Si Si6 0.394159 0.670782 0.748855
Si Si7 0.614483 0.836345 0.135009
Si Si8 0.109138 0.670363 0.584517
O O1 0.338954 0.772927 0.495352
O O2 0.344296 0.778482 0.595168
O O3 0.177535 0.757291 0.545454
O O4 0.272640 0.000000 0.546881
O O5 0.154723 0.500000 0.714896
O O6 0.145248 0.225801 0.742446
O O7 0.150000 0.296381 0.642197
O O8 0.000000 0.350794 0.694635
O O9 0.739348 0.500000 0.846487
O O10 0.667837 0.271310 0.894893
O O11 0.830531 0.252144 0.843635
O O12 0.671618 0.268519 0.794538
O O13 0.500000 0.263313 0.942303
O O14 0.602860 0.500000 0.943054
O O15 0.134389 0.500000 0.301169
O O16 0.000000 0.297078 0.308071
O O17 0.500000 0.742421 0.753460
O O18 0.405595 0.500000 0.755987
O O19 0.347763 0.703993 0.692660
O O20 0.500000 0.827794 0.135482
O O21 0.647779 0.000000 0.120151
O O22 0.114564 0.500000 0.572824
O O23 0.000000 0.726491 0.577339
#
# Coordination Sequence:
#
# PCOD8178537 Si02
#       8
#     8   8   8   8   8   8   8   8
#     4  11  22  34  53  81 112 146 182 223 277 335
#     4   8  15  30  52  75 100 136 182 225 260 303
#     4  10  19  33  58  83 101 134 185 232 271 312
#     4   9  19  37  59  82 108 139 181 230 275 323
#     4  10  21  35  50  74 113 151 178 213 267 327
#     4   8  15  29  51  79 105 129 166 218 271 319
#     4   9  18  33  52  76 108 142 176 219 271 331
#     4   9  19  36  56  78 107 144 187 232 273 318
#
# _framework density 19.238536
#
# number of rings (size 3 to 8) (size 9 to 14) (size 15 to 20)
#    0.000    2.750    0.000    3.000    1.750    3.750 
#    0.000    3.125    0.000    7.500    0.000    0.000 
#    0.000    0.000    0.000    0.000    0.000    0.000 
#
# Total GULP energy -396731.995709 kJ/mol
# GULP energy per Si atom -12397.874866 kJ/mol
# Density = 1.919475 g / cm^3
# Si number density = 19.238536 Si / 1000 Ang^3
#
#
#
# Elastic Constant Matrix: (Units=GPa)
#
#
# Indices 1 2 3 4 5 6 
#
# 1 95.9761 45.1934 71.9141 0.0000 0.0000 0.0000
# 2 45.1934 56.4034 42.0752 0.0000 0.0000 0.0000
# 3 71.9141 42.0752 131.6637 0.0000 0.0000 0.0000
# 4 0.0000 0.0000 0.0000 22.8797 0.0000 0.0000
# 5 0.0000 0.0000 0.0000 0.0000 36.2620 0.0000
# 6 0.0000 0.0000 0.0000 0.0000 0.0000 26.9552
#
#
#
# Elastic Compliance Matrix: (Units=1/GPa)
#
#
# Indices 1 2 3 4 5 6 
#
# 1 0.022118 -0.011437 -0.008426 0.000000 0.000000 0.000000
# 2 -0.011437 0.029192 -0.003082 0.000000 0.000000 0.000000
# 3 -0.008426 -0.003082 0.013182 0.000000 0.000000 0.000000
# 4 0.000000 0.000000 0.000000 0.043707 0.000000 0.000000
# 5 0.000000 0.000000 0.000000 0.000000 0.027577 0.000000
# 6 0.000000 0.000000 0.000000 0.000000 0.000000 0.037099
#
#
# Mechanical properties :
#
#
# Convention : Reuss Voigt Hill
#
# Bulk Modulus (GPa) = 53.75491 66.93430 60.34460
# Shear Modulus (GPa) = 22.22553 25.54340 23.88446
#
# Velocity S-wave (km/s) = 3.40260 3.64774 3.52730
# Velocity P-wave (km/s) = 6.59082 7.25318 6.92992
#
# Compressibility (1/GPa) = 0.01860295
#
# Stress axis : x y z
#
# Youngs Moduli (GPa) = 45.21160 34.25555 75.85887
#
# Poissons Ratio (x) = 0.39177 0.63919
# Poissons Ratio (y) = 0.51707 0.23381
# Poissons Ratio (z) = 0.38096 0.10558
#
# Static dielectric constant tensor:
#      x y z
#    x 3.750320 0.000000 0.000000 
#    y 0.000000 3.129220 0.000000 
#    z 0.000000 0.000000 3.560490 
# 
# 
# High freq. dielectric constant tensor:
#      x y z
#    x 1.765450 0.000000 0.000000 
#    y 0.000000 1.708610 0.000000 
#    z 0.000000 0.000000 1.735550 
# 
# From -- ./inp_files/23008.got.cif
#   From: 2010.03.12/outbox.cif.g09.slc.cpg/sg38_12_cif.got.tgz:23008.got - 2010.04.14 02:38:36.
