data_PCOD8178479
_publ_section_title
;
Structure prediction by ZEFSAII (Michael W. Deem and Ramdas Pophale) SiO2 
 PCOD8178479
Probable space group: A M M 2
;
_chemical_formula_sum "Si O2"
_cell_formula_units_Z 64
_cell_length_a 9.105959
_cell_length_b 33.056411
_cell_length_c 11.319999
_cell_angle_alpha 90.000000
_cell_angle_beta 90.000000
_cell_angle_gamma 90.000000
_cell_volume 3407.436558
_symmetry_space_group_name_H-M "A M M 2"
_symmetry_group_IT_number 38
_symmetry_cell_setting 'orthorhombic'
loop_
_space_group_symop_operation_xyz
x,y,z
-x,-y,z
-x,y,z
x,-y,z
x,1/2+y,1/2+z
-x,1/2-y,1/2+z
-x,1/2+y,1/2+z
x,1/2-y,1/2+z
loop_
_atom_site_type_symbol
_atom_site_label
_atom_site_fract_x
_atom_site_fract_y
_atom_site_fract_z
Si Si1 0.671496 0.845687 0.077340
Si Si2 0.173630 0.046098 0.447144
Si Si3 0.165513 0.275886 0.454076
Si Si4 0.673085 0.620433 0.829731
Si Si5 0.835353 0.825079 0.715325
Si Si6 0.670192 0.608147 0.342518
Si Si7 0.326438 0.196290 0.487797
Si Si8 0.837029 0.452886 0.214608
O O1 0.500000 0.834551 0.081008
O O2 0.724133 0.865411 0.199672
O O3 0.757985 0.804048 0.053158
O O4 0.706591 0.878585 0.975735
O O5 0.250803 0.077960 0.360146
O O6 0.219981 0.056336 0.581706
O O7 0.000000 0.050240 0.432644
O O8 0.221991 0.000000 0.414761
O O9 0.163357 0.298125 0.330580
O O10 0.255509 0.235323 0.426776
O O11 0.000000 0.266132 0.497534
O O12 0.500000 0.613267 0.833540
O O13 0.721794 0.655479 0.920550
O O14 0.762444 0.867656 0.744949
O O15 0.734777 0.803323 0.619729
O O16 0.000000 0.831710 0.666481
O O17 0.500000 0.613700 0.314764
O O18 0.724458 0.562873 0.315402
O O19 0.500000 0.201390 0.487452
O O20 0.845549 0.500000 0.234515
O O21 0.000000 0.434227 0.232894
#
# Coordination Sequence:
#
# PCOD8178479 Si02
#       8
#     8   8   8   8   8   8   8   8
#     4   9  20  39  57  76 108 148 186 226 275 331
#     4   9  19  36  57  82 112 146 182 225 280 333
#     4  10  22  38  56  80 107 140 183 228 276 328
#     4  10  22  38  56  82 110 145 189 229 275 331
#     4  10  21  37  55  77 106 139 177 220 268 325
#     4  10  19  33  55  79 105 139 179 223 271 324
#     4  11  23  36  55  82 111 141 180 229 277 330
#     4   9  18  33  54  80 111 144 177 221 278 334
#
# _framework density 18.782447999999999
#
# number of rings (size 3 to 8) (size 9 to 14) (size 15 to 20)
#    0.000    2.250    0.000    3.000    1.750    6.500 
#    0.000    1.875    0.000    3.750    0.000    0.000 
#    0.000    0.000    0.000    0.000    0.000    0.000 
#
# Total GULP energy -396786.291658 kJ/mol
# GULP energy per Si atom -12399.571614 kJ/mol
# Density = 1.873970 g / cm^3
# Si number density = 18.782448 Si / 1000 Ang^3
#
#
#
# Elastic Constant Matrix: (Units=GPa)
#
#
# Indices 1 2 3 4 5 6 
#
# 1 86.5096 53.3385 42.3652 0.0000 0.0000 0.0000
# 2 53.3385 105.0382 45.8345 0.0000 0.0000 0.0000
# 3 42.3652 45.8345 68.4610 0.0000 0.0000 0.0000
# 4 0.0000 0.0000 0.0000 25.0101 0.0000 0.0000
# 5 0.0000 0.0000 0.0000 0.0000 27.8006 0.0000
# 6 0.0000 0.0000 0.0000 0.0000 0.0000 37.8739
#
#
#
# Elastic Compliance Matrix: (Units=1/GPa)
#
#
# Indices 1 2 3 4 5 6 
#
# 1 0.019266 -0.006472 -0.007590 0.000000 0.000000 0.000000
# 2 -0.006472 0.015623 -0.006455 0.000000 0.000000 0.000000
# 3 -0.007590 -0.006455 0.023625 0.000000 0.000000 0.000000
# 4 0.000000 0.000000 0.000000 0.039984 0.000000 0.000000
# 5 0.000000 0.000000 0.000000 0.000000 0.035970 0.000000
# 6 0.000000 0.000000 0.000000 0.000000 0.000000 0.026403
#
#
# Mechanical properties :
#
#
# Convention : Reuss Voigt Hill
#
# Bulk Modulus (GPa) = 57.20112 60.34278 58.77195
# Shear Modulus (GPa) = 24.06939 26.03497 25.05218
#
# Velocity S-wave (km/s) = 3.58366 3.72712 3.65610
# Velocity P-wave (km/s) = 6.90248 7.12172 7.01295
#
# Compressibility (1/GPa) = 0.01748217
#
# Stress axis : x y z
#
# Youngs Moduli (GPa) = 51.90384 64.00668 42.32775
#
# Poissons Ratio (x) = 0.41423 0.32126
# Poissons Ratio (y) = 0.33590 0.27323
# Poissons Ratio (z) = 0.39394 0.41316
#
# Static dielectric constant tensor:
#      x y z
#    x 3.525870 0.000000 0.000000 
#    y 0.000000 3.516380 0.000000 
#    z 0.000000 0.000000 3.383040 
# 
# 
# High freq. dielectric constant tensor:
#      x y z
#    x 1.733160 0.000000 0.000000 
#    y 0.000000 1.733400 0.000000 
#    z 0.000000 0.000000 1.720240 
# 
# From -- ./inp_files/8537.got.cif
#   From: 2010.03.12/outbox.cif.g09.slc.cpg/sg38_5_cif.got.tgz:8537.got - 2010.04.14 02:38:36.
