data_PCOD8178713
_publ_section_title
;
Structure prediction by ZEFSAII (Michael W. Deem and Ramdas Pophale) SiO2 
 PCOD8178713
Probable space group: A M M 2
;
_chemical_formula_sum "Si O2"
_cell_formula_units_Z 36
_cell_length_a 7.464603
_cell_length_b 14.209270
_cell_length_c 18.787302
_cell_angle_alpha 90.000000
_cell_angle_beta 90.000000
_cell_angle_gamma 90.000000
_cell_volume 1992.704485
_symmetry_space_group_name_H-M "A M M 2"
_symmetry_group_IT_number 38
_symmetry_cell_setting 'orthorhombic'
loop_
_space_group_symop_operation_xyz
x,y,z
-x,-y,z
-x,y,z
x,-y,z
x,1/2+y,1/2+z
-x,1/2-y,1/2+z
-x,1/2+y,1/2+z
x,1/2-y,1/2+z
loop_
_atom_site_type_symbol
_atom_site_label
_atom_site_fract_x
_atom_site_fract_y
_atom_site_fract_z
Si Si1 0.000000 0.699296 0.296250
Si Si2 0.000000 0.296780 0.944886
Si Si3 0.000000 0.500000 0.366985
Si Si4 0.000000 0.500000 0.996116
Si Si5 0.706643 0.298138 0.539573
Si Si6 0.706327 0.802879 0.683269
Si Si7 0.295404 0.500000 0.485173
Si Si8 0.706073 0.500000 0.114088
O O1 0.000000 0.766707 0.363558
O O2 0.000000 0.590502 0.317419
O O3 0.176478 0.723788 0.251173
O O4 0.177382 0.257752 0.982440
O O5 0.000000 0.409265 0.945882
O O6 0.177014 0.500000 0.414806
O O7 0.822484 0.500000 0.043475
O O8 0.500000 0.273558 0.523555
O O9 0.758836 0.266533 0.618835
O O10 0.746238 0.409197 0.533454
O O11 0.500000 0.791307 0.705020
O O12 0.751926 0.909296 0.660994
O O13 0.500000 0.500000 0.458509
O O14 0.500000 0.500000 0.089394
#
# Coordination Sequence:
#
# PCOD8178713 Si02
#       8
#     4   4   2   2   8   8   4   4
#     4  12  24  36  53  82 123 157 182 224 286 351
#     4  12  23  37  58  83 116 155 190 230 282 339
#     4  12  22  35  54  85 122 154 180 222 292 355
#     4  12  22  35  60  87 114 144 192 246 278 327
#     4  10  20  38  62  86 111 146 194 241 282 330
#     4  10  21  37  58  84 114 150 190 235 286 337
#     4  10  20  36  61  90 113 141 190 244 286 329
#     4  10  19  35  61  88 110 142 190 244 291 331
#
# _framework density 18.065899999999999
#
# number of rings (size 3 to 8) (size 9 to 14) (size 15 to 20)
#    0.000    1.333    4.444    2.000    0.000    1.778 
#    0.000    1.111    0.000    0.000    0.000    0.000 
#    0.000    0.000    0.000    0.000    0.000    0.000 
#
# Total GULP energy -223280.559098 kJ/mol
# GULP energy per Si atom -12404.475505 kJ/mol
# Density = 1.802478 g / cm^3
# Si number density = 18.065900 Si / 1000 Ang^3
#
#
#
# Elastic Constant Matrix: (Units=GPa)
#
#
# Indices 1 2 3 4 5 6 
#
# 1 105.3300 50.5400 77.1296 0.0000 0.0000 0.0000
# 2 50.5400 128.2937 68.9306 0.0000 0.0000 0.0000
# 3 77.1296 68.9306 150.1666 0.0000 0.0000 0.0000
# 4 0.0000 0.0000 0.0000 33.9484 0.0000 0.0000
# 5 0.0000 0.0000 0.0000 0.0000 20.1222 0.0000
# 6 0.0000 0.0000 0.0000 0.0000 0.0000 1.6516
#
#
#
# Elastic Compliance Matrix: (Units=1/GPa)
#
#
# Indices 1 2 3 4 5 6 
#
# 1 0.015787 -0.002472 -0.006974 0.000000 0.000000 0.000000
# 2 -0.002472 0.010733 -0.003657 0.000000 0.000000 0.000000
# 3 -0.006974 -0.003657 0.011920 0.000000 0.000000 0.000000
# 4 0.000000 0.000000 0.000000 0.029456 0.000000 0.000000
# 5 0.000000 0.000000 0.000000 0.000000 0.049696 0.000000
# 6 0.000000 0.000000 0.000000 0.000000 0.000000 0.605464
#
#
# Mechanical properties :
#
#
# Convention : Reuss Voigt Hill
#
# Bulk Modulus (GPa) = 81.73925 86.33228 84.03577
# Shear Modulus (GPa) = 6.63710 23.62379 15.13045
#
# Velocity S-wave (km/s) = 1.91880 3.62006 2.89712
# Velocity P-wave (km/s) = 7.08889 8.08482 7.60318
#
# Compressibility (1/GPa) = 0.01223402
#
# Stress axis : x y z
#
# Youngs Moduli (GPa) = 63.34405 93.16666 83.89316
#
# Poissons Ratio (x) = 0.23032 0.58505
# Poissons Ratio (y) = 0.15660 0.30681
# Poissons Ratio (z) = 0.44175 0.34073
#
# Static dielectric constant tensor:
#      x y z
#    x 3.551200 0.000000 0.000000 
#    y 0.000000 3.589370 0.000000 
#    z 0.000000 0.000000 3.161420 
# 
# 
# High freq. dielectric constant tensor:
#      x y z
#    x 1.719650 0.000000 0.000000 
#    y 0.000000 1.702910 0.000000 
#    z 0.000000 0.000000 1.682810 
# 
# From -- ./inp_files/11644.got.cif
#   From: 2010.03.12/outbox.cif.g09.slc.cpg/sg38_6_cif.got.tgz:11644.got - 2010.04.14 02:38:36.
