data_PCOD8178883
_publ_section_title
;
Structure prediction by ZEFSAII (Michael W. Deem and Ramdas Pophale) SiO2 
 PCOD8178883
Probable space group: A M M 2
;
_chemical_formula_sum "Si O2"
_cell_formula_units_Z 64
_cell_length_a 9.652087
_cell_length_b 13.600505
_cell_length_c 24.448662
_cell_angle_alpha 90.000000
_cell_angle_beta 90.000000
_cell_angle_gamma 90.000000
_cell_volume 3209.455502
_symmetry_space_group_name_H-M "A M M 2"
_symmetry_group_IT_number 38
_symmetry_cell_setting 'orthorhombic'
loop_
_space_group_symop_operation_xyz
x,y,z
-x,-y,z
-x,y,z
x,-y,z
x,1/2+y,1/2+z
-x,1/2-y,1/2+z
-x,1/2+y,1/2+z
x,1/2-y,1/2+z
loop_
_atom_site_type_symbol
_atom_site_label
_atom_site_fract_x
_atom_site_fract_y
_atom_site_fract_z
Si Si1 0.655863 0.110390 0.950970
Si Si2 0.347357 0.387981 0.736495
Si Si3 0.153456 0.614722 0.644821
Si Si4 0.340095 0.611726 0.135578
Si Si5 0.156810 0.683271 0.357727
Si Si6 0.340496 0.792044 0.061273
Si Si7 0.158826 0.114433 0.739290
Si Si8 0.845814 0.606297 0.837622
O O1 0.500000 0.125306 0.929936
O O2 0.752077 0.119992 0.898336
O O3 0.675704 0.000000 0.975093
O O4 0.688901 0.193413 0.996724
O O5 0.500000 0.337206 0.737906
O O6 0.367011 0.500000 0.717638
O O7 0.245712 0.335017 0.692917
O O8 0.276929 0.384093 0.794933
O O9 0.135836 0.500000 0.655419
O O10 0.234945 0.632372 0.588917
O O11 0.000000 0.663242 0.643452
O O12 0.500000 0.618581 0.152809
O O13 0.300219 0.500000 0.118690
O O14 0.309471 0.681398 0.082925
O O15 0.251505 0.647475 0.187733
O O16 0.205826 0.672382 0.294346
O O17 0.167935 0.798402 0.376377
O O18 0.000000 0.644055 0.362537
O O19 0.500000 0.821422 0.074339
O O20 0.000000 0.138188 0.724573
O O21 0.181036 0.000000 0.751844
O O22 0.830110 0.500000 0.868455
O O23 0.000000 0.609964 0.809741
#
# Coordination Sequence:
#
# PCOD8178883 Si02
#       8
#     8   8   8   8   8   8   8   8
#     4  10  22  40  60  83 113 146 182 232 289 342
#     4   9  17  29  46  70 103 142 180 219 265 318
#     4  10  20  32  48  74 107 142 181 223 268 324
#     4   9  19  36  57  82 112 145 183 227 276 333
#     4  10  21  36  57  83 111 149 193 235 280 332
#     4  10  21  37  57  80 108 144 184 227 282 337
#     4   9  18  33  53  79 111 145 182 229 282 330
#     4   9  18  33  51  74 109 149 186 227 275 324
#
# _framework density 19.941077
#
# number of rings (size 3 to 8) (size 9 to 14) (size 15 to 20)
#    0.000    2.500    0.000    1.500    1.750    5.500 
#    0.000    1.875    0.000    0.750    0.000    0.000 
#    0.000    0.000    0.000    0.000    0.000    0.000 
#
# Total GULP energy -396544.876789 kJ/mol
# GULP energy per Si atom -12392.027400 kJ/mol
# Density = 1.989569 g / cm^3
# Si number density = 19.941077 Si / 1000 Ang^3
#
#
#
# Elastic Constant Matrix: (Units=GPa)
#
#
# Indices 1 2 3 4 5 6 
#
# 1 110.3494 27.5765 44.6511 0.0000 0.0000 0.0000
# 2 27.5765 86.1912 36.7239 0.0000 0.0000 0.0000
# 3 44.6511 36.7239 88.9435 0.0000 0.0000 0.0000
# 4 0.0000 0.0000 0.0000 26.2654 0.0000 0.0000
# 5 0.0000 0.0000 0.0000 0.0000 18.3437 0.0000
# 6 0.0000 0.0000 0.0000 0.0000 0.0000 18.4916
#
#
#
# Elastic Compliance Matrix: (Units=1/GPa)
#
#
# Indices 1 2 3 4 5 6 
#
# 1 0.011526 -0.001483 -0.005174 0.000000 0.000000 0.000000
# 2 -0.001483 0.014270 -0.005147 0.000000 0.000000 0.000000
# 3 -0.005174 -0.005147 0.015966 0.000000 0.000000 0.000000
# 4 0.000000 0.000000 0.000000 0.038073 0.000000 0.000000
# 5 0.000000 0.000000 0.000000 0.000000 0.054515 0.000000
# 6 0.000000 0.000000 0.000000 0.000000 0.000000 0.054078
#
#
# Mechanical properties :
#
#
# Convention : Reuss Voigt Hill
#
# Bulk Modulus (GPa) = 55.08758 55.93187 55.50973
# Shear Modulus (GPa) = 22.92652 24.38898 23.65775
#
# Velocity S-wave (km/s) = 3.39442 3.50101 3.44813
# Velocity P-wave (km/s) = 6.56109 6.66725 6.61438
#
# Compressibility (1/GPa) = 0.01815291
#
# Stress axis : x y z
#
# Youngs Moduli (GPa) = 86.75757 70.07814 62.63404
#
# Poissons Ratio (x) = 0.10395 0.32407
# Poissons Ratio (y) = 0.12869 0.32239
# Poissons Ratio (z) = 0.44888 0.36071
#
# Static dielectric constant tensor:
#      x y z
#    x 3.828330 0.000000 0.000000 
#    y 0.000000 3.787140 0.000000 
#    z 0.000000 0.000000 3.192020 
# 
# 
# High freq. dielectric constant tensor:
#      x y z
#    x 1.785200 0.000000 0.000000 
#    y 0.000000 1.784170 0.000000 
#    z 0.000000 0.000000 1.733440 
# 
# From -- ./inp_files/22184.got.cif
#   From: 2010.03.12/outbox.cif.g09.slc.cpg/sg38_12_cif.got.tgz:22184.got - 2010.04.14 02:38:36.
