data_PCOD8178189
_publ_section_title
;
Structure prediction by ZEFSAII (Michael W. Deem and Ramdas Pophale) SiO2 
 PCOD8178189
Probable space group: A M M 2
;
_chemical_formula_sum "Si O2"
_cell_formula_units_Z 40
_cell_length_a 14.543602
_cell_length_b 7.663377
_cell_length_c 19.595536
_cell_angle_alpha 90.000000
_cell_angle_beta 90.000000
_cell_angle_gamma 90.000000
_cell_volume 2183.983333
_symmetry_space_group_name_H-M "A M M 2"
_symmetry_group_IT_number 38
_symmetry_cell_setting 'orthorhombic'
loop_
_space_group_symop_operation_xyz
x,y,z
-x,-y,z
-x,y,z
x,-y,z
x,1/2+y,1/2+z
-x,1/2-y,1/2+z
-x,1/2+y,1/2+z
x,1/2-y,1/2+z
loop_
_atom_site_type_symbol
_atom_site_label
_atom_site_fract_x
_atom_site_fract_y
_atom_site_fract_z
Si Si1 0.763013 0.297171 0.877080
Si Si2 0.101569 0.000000 0.876792
Si Si3 0.600819 0.706675 0.973519
Si Si4 0.394938 0.204610 0.626582
Si Si5 0.233434 0.193538 0.219677
Si Si6 0.102736 0.000000 0.715124
O O1 0.786333 0.500000 0.892469
O O2 0.674911 0.228386 0.918866
O O3 0.741199 0.263712 0.797867
O O4 0.847820 0.176828 0.901104
O O5 0.094131 0.000000 0.795797
O O6 0.000000 0.000000 0.909571
O O7 0.500000 0.781841 0.953771
O O8 0.595657 0.500000 0.973484
O O9 0.627593 0.768701 0.049718
O O10 0.500000 0.252297 0.645238
O O11 0.327795 0.303170 0.677886
O O12 0.377778 0.000000 0.634143
O O13 0.158193 0.328630 0.190344
O O14 0.190262 0.000000 0.214283
O O15 0.000000 0.000000 0.682709
#
# Coordination Sequence:
#
# PCOD8178189 Si02
#       6
#     8   4   8   8   8   4
#     4   9  18  32  51  75 100 129 165 204 248 293
#     4   9  18  32  51  75 101 127 161 206 252 298
#     4   8  15  30  51  73  98 134 172 200 238 293
#     4   9  17  31  51  73 100 137 173 202 241 296
#     4  10  19  31  51  78 102 129 166 206 252 298
#     4   9  18  34  53  73 101 131 163 208 254 298
#
# _framework density 18.315158
#
# number of rings (size 3 to 8) (size 9 to 14) (size 15 to 20)
#    0.000    3.000    1.000    1.200    0.000    2.000 
#    1.800    6.500    0.000    1.200    0.000    0.000 
#    0.000    0.000    0.000    0.000    0.000    0.000 
#
# Total GULP energy -247913.389115 kJ/mol
# GULP energy per Si atom -12395.669456 kJ/mol
# Density = 1.827347 g / cm^3
# Si number density = 18.315158 Si / 1000 Ang^3
#
#
#
# Elastic Constant Matrix: (Units=GPa)
#
#
# Indices 1 2 3 4 5 6 
#
# 1 154.2302 60.6339 61.6673 0.0000 0.0000 0.0000
# 2 60.6339 91.7257 31.0568 0.0000 0.0000 0.0000
# 3 61.6673 31.0568 62.4082 0.0000 0.0000 0.0000
# 4 0.0000 0.0000 0.0000 12.9705 0.0000 0.0000
# 5 0.0000 0.0000 0.0000 0.0000 6.8101 0.0000
# 6 0.0000 0.0000 0.0000 0.0000 0.0000 23.3132
#
#
#
# Elastic Compliance Matrix: (Units=1/GPa)
#
#
# Indices 1 2 3 4 5 6 
#
# 1 0.012264 -0.004815 -0.009722 0.000000 0.000000 0.000000
# 2 -0.004815 0.015002 -0.002707 0.000000 0.000000 0.000000
# 3 -0.009722 -0.002707 0.026978 0.000000 0.000000 0.000000
# 4 0.000000 0.000000 0.000000 0.077098 0.000000 0.000000
# 5 0.000000 0.000000 0.000000 0.000000 0.146841 0.000000
# 6 0.000000 0.000000 0.000000 0.000000 0.000000 0.042894
#
#
# Mechanical properties :
#
#
# Convention : Reuss Voigt Hill
#
# Bulk Modulus (GPa) = 50.62325 68.34222 59.48274
# Shear Modulus (GPa) = 13.80637 18.95251 16.37944
#
# Velocity S-wave (km/s) = 2.74856 3.22032 2.99375
# Velocity P-wave (km/s) = 6.14596 7.15701 6.67067
#
# Compressibility (1/GPa) = 0.01975377
#
# Stress axis : x y z
#
# Youngs Moduli (GPa) = 81.53761 66.65857 37.06753
#
# Poissons Ratio (x) = 0.32098 0.36039
# Poissons Ratio (y) = 0.39263 0.10036
# Poissons Ratio (z) = 0.79274 0.18047
#
# Static dielectric constant tensor:
#      x y z
#    x 3.647190 0.000000 0.000000 
#    y 0.000000 3.343340 0.000000 
#    z 0.000000 0.000000 3.239840 
# 
# 
# High freq. dielectric constant tensor:
#      x y z
#    x 1.702230 0.000000 0.000000 
#    y 0.000000 1.711070 0.000000 
#    z 0.000000 0.000000 1.681330 
# 
# From -- ./inp_files/20481.got.cif
#   From: 2010.03.12/outbox.cif.g09.slc.cpg/sg38_11_cif.got.tgz:20481.got - 2010.04.14 02:38:36.
