data_PCOD8178544
_publ_section_title
;
Structure prediction by ZEFSAII (Michael W. Deem and Ramdas Pophale) SiO2 
 PCOD8178544
Probable space group: A M M 2
;
_chemical_formula_sum "Si O2"
_cell_formula_units_Z 48
_cell_length_a 19.033450
_cell_length_b 8.487470
_cell_length_c 14.789847
_cell_angle_alpha 90.000000
_cell_angle_beta 90.000000
_cell_angle_gamma 90.000000
_cell_volume 2389.238196
_symmetry_space_group_name_H-M "A M M 2"
_symmetry_group_IT_number 38
_symmetry_cell_setting 'orthorhombic'
loop_
_space_group_symop_operation_xyz
x,y,z
-x,-y,z
-x,y,z
x,-y,z
x,1/2+y,1/2+z
-x,1/2-y,1/2+z
-x,1/2+y,1/2+z
x,1/2-y,1/2+z
loop_
_atom_site_type_symbol
_atom_site_label
_atom_site_fract_x
_atom_site_fract_y
_atom_site_fract_z
Si Si1 0.104787 0.314082 0.979320
Si Si2 0.000000 0.186094 0.631615
Si Si3 0.000000 0.685900 0.336746
Si Si4 0.500000 0.817037 0.379531
Si Si5 0.648051 0.818887 0.834265
Si Si6 0.350816 0.680226 0.650981
Si Si7 0.500000 0.680923 0.570589
Si Si8 0.264880 0.182879 0.490873
O O1 0.097310 0.500000 0.968535
O O2 0.069279 0.239723 0.890513
O O3 0.185032 0.258523 0.982208
O O4 0.067873 0.258420 0.073057
O O5 0.000000 0.257743 0.733703
O O6 0.000000 0.000000 0.640960
O O7 0.000000 0.500000 0.330329
O O8 0.432441 0.733410 0.338218
O O9 0.500000 0.800013 0.487187
O O10 0.500000 0.000000 0.352261
O O11 0.674174 0.792824 0.732022
O O12 0.656344 0.000000 0.863287
O O13 0.695724 0.709819 0.896995
O O14 0.341887 0.500000 0.680844
O O15 0.431859 0.717229 0.629674
O O16 0.302282 0.712292 0.565645
O O17 0.500000 0.500000 0.535257
O O18 0.268929 0.000000 0.517569
#
# Coordination Sequence:
#
# PCOD8178544 Si02
#       8
#     8   4   4   4   8   8   4   8
#     4   9  20  39  60  83 119 160 194 234 290 352
#     4   8  16  35  60  85 114 151 189 230 284 342
#     4  10  19  33  60  93 120 149 195 242 284 342
#     4  12  23  38  63  88 116 152 201 256 305 362
#     4  12  25  41  61  86 120 160 203 250 304 361
#     4  11  23  40  62  88 120 156 200 252 305 363
#     4  10  21  38  61  86 116 152 193 246 311 362
#     4  11  23  40  61  88 121 160 204 248 299 358
#
# _framework density 20.090084999999998
#
# number of rings (size 3 to 8) (size 9 to 14) (size 15 to 20)
#    0.000    1.500    1.667    4.500    0.000    4.000 
#    0.000    5.000    0.000    0.000    0.000    0.000 
#    0.000    0.000    0.000    0.000    0.000    0.000 
#
# Total GULP energy -297672.102739 kJ/mol
# GULP energy per Si atom -12403.004281 kJ/mol
# Density = 2.004436 g / cm^3
# Si number density = 20.090085 Si / 1000 Ang^3
#
#
#
# Elastic Constant Matrix: (Units=GPa)
#
#
# Indices 1 2 3 4 5 6 
#
# 1 149.9801 18.3615 55.6148 0.0000 0.0000 0.0000
# 2 18.3615 53.7095 16.1623 0.0000 0.0000 0.0000
# 3 55.6148 16.1623 145.1661 0.0000 0.0000 0.0000
# 4 0.0000 0.0000 0.0000 34.2729 0.0000 0.0000
# 5 0.0000 0.0000 0.0000 0.0000 97.9849 0.0000
# 6 0.0000 0.0000 0.0000 0.0000 0.0000 73.5575
#
#
#
# Elastic Compliance Matrix: (Units=1/GPa)
#
#
# Indices 1 2 3 4 5 6 
#
# 1 0.007948 -0.001863 -0.002837 0.000000 0.000000 0.000000
# 2 -0.001863 0.019701 -0.001480 0.000000 0.000000 0.000000
# 3 -0.002837 -0.001480 0.008140 0.000000 0.000000 0.000000
# 4 0.000000 0.000000 0.000000 0.029178 0.000000 0.000000
# 5 0.000000 0.000000 0.000000 0.000000 0.010206 0.000000
# 6 0.000000 0.000000 0.000000 0.000000 0.000000 0.013595
#
#
# Mechanical properties :
#
#
# Convention : Reuss Voigt Hill
#
# Bulk Modulus (GPa) = 42.68290 58.79254 50.73772
# Shear Modulus (GPa) = 45.89793 58.41088 52.15440
#
# Velocity S-wave (km/s) = 4.78494 5.39793 5.10065
# Velocity P-wave (km/s) = 7.19857 8.25700 7.74589
#
# Compressibility (1/GPa) = 0.02342858
#
# Stress axis : x y z
#
# Youngs Moduli (GPa) = 125.82050 50.75909 122.84331
#
# Poissons Ratio (x) = 0.09458 0.34856
# Poissons Ratio (y) = 0.23444 0.18176
# Poissons Ratio (z) = 0.35701 0.07510
#
# Static dielectric constant tensor:
#      x y z
#    x 3.515150 0.000000 0.000000 
#    y 0.000000 3.583770 0.000000 
#    z 0.000000 0.000000 3.770390 
# 
# 
# High freq. dielectric constant tensor:
#      x y z
#    x 1.781680 0.000000 0.000000 
#    y 0.000000 1.777390 0.000000 
#    z 0.000000 0.000000 1.794490 
# 
# From -- ./inp_files/15126.got.cif
#   From: 2010.03.12/outbox.cif.g09.slc.cpg/sg38_8_cif.got.tgz:15126.got - 2010.04.14 02:38:36.
