data_PCOD8178178
_publ_section_title
;
Structure prediction by ZEFSAII (Michael W. Deem and Ramdas Pophale) SiO2 
 PCOD8178178
Probable space group: A M M 2
;
_chemical_formula_sum "Si O2"
_cell_formula_units_Z 56
_cell_length_a 8.932862
_cell_length_b 23.997298
_cell_length_c 13.972719
_cell_angle_alpha 90.000000
_cell_angle_beta 90.000000
_cell_angle_gamma 90.000000
_cell_volume 2995.255640
_symmetry_space_group_name_H-M "A M M 2"
_symmetry_group_IT_number 38
_symmetry_cell_setting 'orthorhombic'
loop_
_space_group_symop_operation_xyz
x,y,z
-x,-y,z
-x,y,z
x,-y,z
x,1/2+y,1/2+z
-x,1/2-y,1/2+z
-x,1/2+y,1/2+z
x,1/2-y,1/2+z
loop_
_atom_site_type_symbol
_atom_site_label
_atom_site_fract_x
_atom_site_fract_y
_atom_site_fract_z
Si Si1 0.322027 0.838072 0.930420
Si Si2 0.677707 0.621555 0.936771
Si Si3 0.321783 0.439145 0.750750
Si Si4 0.677694 0.832648 0.144185
Si Si5 0.678135 0.771146 0.328425
Si Si6 0.326007 0.935521 0.626419
Si Si7 0.823840 0.063765 0.824096
O O1 0.500000 0.844812 0.926911
O O2 0.263396 0.789855 0.858618
O O3 0.249771 0.896943 0.903666
O O4 0.267506 0.820201 0.036850
O O5 0.500000 0.620084 0.941760
O O6 0.733655 0.578112 0.856495
O O7 0.733773 0.683329 0.906780
O O8 0.739240 0.602437 0.040136
O O9 0.500000 0.440630 0.749341
O O10 0.255564 0.500000 0.725128
O O11 0.263195 0.394039 0.673991
O O12 0.500000 0.831838 0.149099
O O13 0.737584 0.787075 0.221694
O O14 0.500000 0.771394 0.328949
O O15 0.500000 0.923141 0.646435
O O16 0.235205 0.918280 0.720238
O O17 0.301021 0.000000 0.599386
O O18 0.000000 0.071612 0.826306
O O19 0.777300 0.000000 0.846725
#
# Coordination Sequence:
#
# PCOD8178178 Si02
#       7
#     8   8   8   8   8   8   8
#     4  10  19  31  51  74  93 120 159 199 233 270
#     4   8  13  22  39  66  99 130 157 188 230 277
#     4   8  12  19  33  57  93 130 156 185 231 278
#     4   8  15  26  40  65  99 127 153 189 233 277
#     4   8  15  27  43  68 102 132 156 188 233 280
#     4   9  16  27  47  75 101 125 159 200 233 266
#     4  10  22  38  51  65  91 125 156 190 239 294
#
# _framework density 18.696234
#
# number of rings (size 3 to 8) (size 9 to 14) (size 15 to 20)
#    0.000    3.286    0.000    2.571    0.000    4.286 
#    0.000    5.714    0.000    3.429    0.000    3.000 
#    0.000   10.286    0.000    0.000    0.000    0.000 
#
# Total GULP energy -346976.944682 kJ/mol
# GULP energy per Si atom -12392.033739 kJ/mol
# Density = 1.865368 g / cm^3
# Si number density = 18.696234 Si / 1000 Ang^3
#
#
#
# Elastic Constant Matrix: (Units=GPa)
#
#
# Indices 1 2 3 4 5 6 
#
# 1 20.6607 21.3752 24.8977 0.0000 0.0000 0.0000
# 2 21.3752 121.7467 74.2063 0.0000 0.0000 0.0000
# 3 24.8977 74.2063 142.9870 0.0000 0.0000 0.0000
# 4 0.0000 0.0000 0.0000 29.5835 0.0000 0.0000
# 5 0.0000 0.0000 0.0000 0.0000 1.4103 0.0000
# 6 0.0000 0.0000 0.0000 0.0000 0.0000 10.4334
#
#
#
# Elastic Compliance Matrix: (Units=1/GPa)
#
#
# Indices 1 2 3 4 5 6 
#
# 1 0.064655 -0.006567 -0.007850 0.000000 0.000000 0.000000
# 2 -0.006567 0.012681 -0.005438 0.000000 0.000000 0.000000
# 3 -0.007850 -0.005438 0.011183 0.000000 0.000000 0.000000
# 4 0.000000 0.000000 0.000000 0.033803 0.000000 0.000000
# 5 0.000000 0.000000 0.000000 0.000000 0.709048 0.000000
# 6 0.000000 0.000000 0.000000 0.000000 0.000000 0.095846
#
#
# Mechanical properties :
#
#
# Convention : Reuss Voigt Hill
#
# Bulk Modulus (GPa) = 20.48782 58.48364 39.48573
# Shear Modulus (GPa) = 5.08546 19.27979 12.18263
#
# Velocity S-wave (km/s) = 1.65105 3.21473 2.55543
# Velocity P-wave (km/s) = 3.82317 6.71775 5.46557
#
# Compressibility (1/GPa) = 0.04880950
#
# Stress axis : x y z
#
# Youngs Moduli (GPa) = 15.46670 78.85781 89.42506
#
# Poissons Ratio (x) = 0.51784 0.70199
# Poissons Ratio (y) = 0.10157 0.48626
# Poissons Ratio (z) = 0.12141 0.42880
#
# Static dielectric constant tensor:
#      x y z
#    x 2.746000 0.000000 0.000000 
#    y 0.000000 3.675930 0.000000 
#    z 0.000000 0.000000 3.675980 
# 
# 
# High freq. dielectric constant tensor:
#      x y z
#    x 1.650670 0.000000 0.000000 
#    y 0.000000 1.730120 0.000000 
#    z 0.000000 0.000000 1.730670 
# 
# From -- ./inp_files/12440.got.cif
#   From: 2010.03.12/outbox.cif.g09.slc.cpg/sg38_7_cif.got.tgz:12440.got - 2010.04.14 02:38:36.
