data_PCOD8178632
_publ_section_title
;
Structure prediction by ZEFSAII (Michael W. Deem and Ramdas Pophale) SiO2 
 PCOD8178632
Probable space group: A M M 2
;
_chemical_formula_sum "Si O2"
_cell_formula_units_Z 64
_cell_length_a 19.799000
_cell_length_b 19.663971
_cell_length_c 8.117884
_cell_angle_alpha 90.000000
_cell_angle_beta 90.000000
_cell_angle_gamma 90.000000
_cell_volume 3160.511114
_symmetry_space_group_name_H-M "A M M 2"
_symmetry_group_IT_number 38
_symmetry_cell_setting 'orthorhombic'
loop_
_space_group_symop_operation_xyz
x,y,z
-x,-y,z
-x,y,z
x,-y,z
x,1/2+y,1/2+z
-x,1/2-y,1/2+z
-x,1/2+y,1/2+z
x,1/2-y,1/2+z
loop_
_atom_site_type_symbol
_atom_site_label
_atom_site_fract_x
_atom_site_fract_y
_atom_site_fract_z
Si Si1 0.217104 0.812913 0.737270
Si Si2 0.797393 0.420216 0.965541
Si Si3 0.575773 0.425067 0.914316
Si Si4 0.657324 0.307436 0.445839
Si Si5 0.694872 0.423214 0.678331
Si Si6 0.869510 0.716999 0.526982
Si Si7 0.421918 0.801615 0.641982
Si Si8 0.075832 0.343644 0.846537
O O1 0.228237 0.880877 0.628833
O O2 0.284584 0.782372 0.820229
O O3 0.193538 0.751950 0.619015
O O4 0.160386 0.828082 0.877240
O O5 0.792385 0.500000 0.003362
O O6 0.750318 0.399406 0.811537
O O7 0.873835 0.400065 0.919778
O O8 0.500000 0.413094 0.851693
O O9 0.585313 0.500000 0.994039
O O10 0.620710 0.417403 0.754043
O O11 0.596397 0.370463 0.048610
O O12 0.691753 0.374869 0.520821
O O13 0.632198 0.254997 0.584122
O O14 0.590723 0.318536 0.333514
O O15 0.710951 0.500000 0.619894
O O16 0.910060 0.669308 0.652834
O O17 0.918355 0.774214 0.450504
O O18 0.500000 0.779030 0.617231
O O19 0.000000 0.371910 0.864762
#
# Coordination Sequence:
#
# PCOD8178632 Si02
#       8
#     8   8   8   8   8   8   8   8
#     4  10  20  35  57  84 113 148 190 239 291 345
#     4  10  22  40  60  83 115 153 192 240 295 352
#     4   9  19  38  61  82 109 148 189 227 274 338
#     4  12  23  36  57  82 112 150 190 237 293 349
#     4  10  22  39  58  81 109 145 192 242 292 347
#     4   9  19  34  54  86 120 145 187 243 291 337
#     4  11  24  38  55  83 118 151 185 232 287 344
#     4  10  19  34  58  85 116 155 195 237 288 349
#
# _framework density 20.249889
#
# number of rings (size 3 to 8) (size 9 to 14) (size 15 to 20)
#    0.000    1.875    0.000    3.750    0.000    7.250 
#    0.000    1.250    0.000    0.000    0.000    0.000 
#    0.000    0.000    0.000    0.000    0.000    0.000 
#
# Total GULP energy -396723.456203 kJ/mol
# GULP energy per Si atom -12397.608006 kJ/mol
# Density = 2.020380 g / cm^3
# Si number density = 20.249889 Si / 1000 Ang^3
#
#
#
# Elastic Constant Matrix: (Units=GPa)
#
#
# Indices 1 2 3 4 5 6 
#
# 1 108.0229 39.1002 37.8198 0.0000 0.0000 0.0000
# 2 39.1002 75.6918 36.3319 0.0000 0.0000 0.0000
# 3 37.8198 36.3319 100.5945 0.0000 0.0000 0.0000
# 4 0.0000 0.0000 0.0000 30.9153 0.0000 0.0000
# 5 0.0000 0.0000 0.0000 0.0000 29.5765 0.0000
# 6 0.0000 0.0000 0.0000 0.0000 0.0000 21.2036
#
#
#
# Elastic Compliance Matrix: (Units=1/GPa)
#
#
# Indices 1 2 3 4 5 6 
#
# 1 0.011982 -0.004872 -0.002745 0.000000 0.000000 0.000000
# 2 -0.004872 0.017963 -0.004656 0.000000 0.000000 0.000000
# 3 -0.002745 -0.004656 0.012655 0.000000 0.000000 0.000000
# 4 0.000000 0.000000 0.000000 0.032346 0.000000 0.000000
# 5 0.000000 0.000000 0.000000 0.000000 0.033811 0.000000
# 6 0.000000 0.000000 0.000000 0.000000 0.000000 0.047162
#
#
# Mechanical properties :
#
#
# Convention : Reuss Voigt Hill
#
# Bulk Modulus (GPa) = 55.39146 56.75700 56.07423
# Shear Modulus (GPa) = 26.81221 27.74291 27.27756
#
# Velocity S-wave (km/s) = 3.64272 3.70540 3.67420
# Velocity P-wave (km/s) = 6.71609 6.81145 6.76394
#
# Compressibility (1/GPa) = 0.01805332
#
# Stress axis : x y z
#
# Youngs Moduli (GPa) = 83.45990 55.66993 79.02238
#
# Poissons Ratio (x) = 0.27121 0.21693
# Poissons Ratio (y) = 0.40660 0.36794
# Poissons Ratio (z) = 0.22911 0.25921
#
# Static dielectric constant tensor:
#      x y z
#    x 3.681950 0.000000 0.000000 
#    y 0.000000 3.546930 0.000000 
#    z 0.000000 0.000000 3.810220 
# 
# 
# High freq. dielectric constant tensor:
#      x y z
#    x 1.797120 0.000000 0.000000 
#    y 0.000000 1.770440 0.000000 
#    z 0.000000 0.000000 1.795040 
# 
# From -- ./inp_files/6847.got.cif
#   From: 2010.03.12/outbox.cif.g09.slc.cpg/sg38_4_cif.got.tgz:6847.got - 2010.04.14 02:38:36.
