data_PCOD8178047
_publ_section_title
;
Structure prediction by ZEFSAII (Michael W. Deem and Ramdas Pophale) SiO2 
 PCOD8178047
Probable space group: A M M 2
;
_chemical_formula_sum "Si O2"
_cell_formula_units_Z 64
_cell_length_a 8.952358
_cell_length_b 33.374822
_cell_length_c 11.697031
_cell_angle_alpha 90.000000
_cell_angle_beta 90.000000
_cell_angle_gamma 90.000000
_cell_volume 3494.878163
_symmetry_space_group_name_H-M "A M M 2"
_symmetry_group_IT_number 38
_symmetry_cell_setting 'orthorhombic'
loop_
_space_group_symop_operation_xyz
x,y,z
-x,-y,z
-x,y,z
x,-y,z
x,1/2+y,1/2+z
-x,1/2-y,1/2+z
-x,1/2+y,1/2+z
x,1/2-y,1/2+z
loop_
_atom_site_type_symbol
_atom_site_label
_atom_site_fract_x
_atom_site_fract_y
_atom_site_fract_z
Si Si1 0.824704 0.267565 0.428720
Si Si2 0.330482 0.545526 0.386117
Si Si3 0.325654 0.621790 0.062065
Si Si4 0.830910 0.179708 0.146411
Si Si5 0.675447 0.667331 0.289969
Si Si6 0.829665 0.113908 0.974548
Si Si7 0.326218 0.186967 0.381354
Si Si8 0.175352 0.454666 0.144077
O O1 0.783204 0.289984 0.546091
O O2 0.753858 0.290217 0.318918
O O3 0.763483 0.222898 0.440118
O O4 0.000000 0.267203 0.408229
O O5 0.500000 0.561262 0.379447
O O6 0.324406 0.500000 0.425454
O O7 0.235282 0.569037 0.482397
O O8 0.256845 0.552431 0.263496
O O9 0.500000 0.611450 0.071626
O O10 0.275782 0.650785 0.166086
O O11 0.236563 0.579541 0.058414
O O12 0.287169 0.645557 0.945740
O O13 0.716741 0.183468 0.249335
O O14 0.000000 0.188744 0.188037
O O15 0.818511 0.134593 0.098004
O O16 0.500000 0.674537 0.296227
O O17 0.725011 0.635017 0.382315
O O18 0.000000 0.114829 0.930677
O O19 0.500000 0.196863 0.392129
O O20 0.209576 0.500000 0.098455
O O21 0.000000 0.448779 0.161969
#
# Coordination Sequence:
#
# PCOD8178047 Si02
#       8
#     8   8   8   8   8   8   8   8
#     4  10  22  39  58  81 109 142 183 228 276 326
#     4  10  19  30  48  78 114 147 178 217 270 329
#     4  10  22  37  54  82 115 147 185 229 279 333
#     4   9  21  40  57  78 106 141 183 224 272 326
#     4  10  19  33  54  80 109 142 180 220 269 328
#     4  10  19  33  54  79 107 140 180 223 268 322
#     4  11  24  39  57  82 110 143 186 231 275 327
#     4  10  20  33  53  82 114 148 186 229 279 335
#
# _framework density 18.312512000000002
#
# number of rings (size 3 to 8) (size 9 to 14) (size 15 to 20)
#    0.000    2.000    1.250    3.000    1.750    6.000 
#    0.000    0.000    0.000    0.750    0.000    0.000 
#    0.000    0.000    0.000    0.000    0.000    0.000 
#
# Total GULP energy -396793.615091 kJ/mol
# GULP energy per Si atom -12399.800472 kJ/mol
# Density = 1.827083 g / cm^3
# Si number density = 18.312512 Si / 1000 Ang^3
#
#
#
# Elastic Constant Matrix: (Units=GPa)
#
#
# Indices 1 2 3 4 5 6 
#
# 1 86.5156 56.4335 38.9506 0.0000 0.0000 0.0000
# 2 56.4335 123.1346 42.6601 0.0000 0.0000 0.0000
# 3 38.9506 42.6601 74.9773 0.0000 0.0000 0.0000
# 4 0.0000 0.0000 0.0000 22.7928 0.0000 0.0000
# 5 0.0000 0.0000 0.0000 0.0000 24.9285 0.0000
# 6 0.0000 0.0000 0.0000 0.0000 0.0000 36.3248
#
#
#
# Elastic Compliance Matrix: (Units=1/GPa)
#
#
# Indices 1 2 3 4 5 6 
#
# 1 0.018382 -0.006372 -0.005924 0.000000 0.000000 0.000000
# 2 -0.006372 0.012324 -0.003702 0.000000 0.000000 0.000000
# 3 -0.005924 -0.003702 0.018521 0.000000 0.000000 0.000000
# 4 0.000000 0.000000 0.000000 0.043874 0.000000 0.000000
# 5 0.000000 0.000000 0.000000 0.000000 0.040115 0.000000
# 6 0.000000 0.000000 0.000000 0.000000 0.000000 0.027529
#
#
# Mechanical properties :
#
#
# Convention : Reuss Voigt Hill
#
# Bulk Modulus (GPa) = 58.03302 62.30175 60.16738
# Shear Modulus (GPa) = 25.19086 26.58145 25.88616
#
# Velocity S-wave (km/s) = 3.71294 3.81405 3.76384
# Velocity P-wave (km/s) = 7.08099 7.31377 7.19832
#
# Compressibility (1/GPa) = 0.01723157
#
# Stress axis : x y z
#
# Youngs Moduli (GPa) = 54.40018 81.14137 53.99297
#
# Poissons Ratio (x) = 0.51707 0.31985
# Poissons Ratio (y) = 0.34666 0.19986
# Poissons Ratio (z) = 0.32226 0.30036
#
# Static dielectric constant tensor:
#      x y z
#    x 3.467610 0.000000 0.000000 
#    y 0.000000 3.652880 0.000000 
#    z 0.000000 0.000000 3.113350 
# 
# 
# High freq. dielectric constant tensor:
#      x y z
#    x 1.723250 0.000000 0.000000 
#    y 0.000000 1.718330 0.000000 
#    z 0.000000 0.000000 1.674210 
# 
# From -- ./inp_files/8542.got.cif
#   From: 2010.03.12/outbox.cif.g09.slc.cpg/sg38_5_cif.got.tgz:8542.got - 2010.04.14 02:38:36.
