data_PCOD8178261
_publ_section_title
;
Structure prediction by ZEFSAII (Michael W. Deem and Ramdas Pophale) SiO2 
 PCOD8178261
Probable space group: A M M 2
;
_chemical_formula_sum "Si O2"
_cell_formula_units_Z 64
_cell_length_a 9.022827
_cell_length_b 22.623138
_cell_length_c 15.462467
_cell_angle_alpha 90.000000
_cell_angle_beta 90.000000
_cell_angle_gamma 90.000000
_cell_volume 3156.270825
_symmetry_space_group_name_H-M "A M M 2"
_symmetry_group_IT_number 38
_symmetry_cell_setting 'orthorhombic'
loop_
_space_group_symop_operation_xyz
x,y,z
-x,-y,z
-x,y,z
x,-y,z
x,1/2+y,1/2+z
-x,1/2-y,1/2+z
-x,1/2+y,1/2+z
x,1/2-y,1/2+z
loop_
_atom_site_type_symbol
_atom_site_label
_atom_site_fract_x
_atom_site_fract_y
_atom_site_fract_z
Si Si1 0.661991 0.930130 0.517370
Si Si2 0.827165 0.313267 0.247190
Si Si3 0.171726 0.064580 0.683363
Si Si4 0.324912 0.733981 0.606419
Si Si5 0.668127 0.930384 0.327594
Si Si6 0.823961 0.690784 0.440846
Si Si7 0.168106 0.878374 0.172867
Si Si8 0.169471 0.435789 0.497637
O O1 0.500000 0.905016 0.542763
O O2 0.776369 0.910631 0.590403
O O3 0.707779 0.905592 0.423177
O O4 0.653786 0.000000 0.509999
O O5 0.792069 0.384022 0.252130
O O6 0.732820 0.285430 0.169764
O O7 0.786435 0.288316 0.342820
O O8 0.000000 0.302359 0.227091
O O9 0.000000 0.054089 0.675722
O O10 0.244764 0.000000 0.707270
O O11 0.500000 0.740269 0.596281
O O12 0.252596 0.735217 0.509767
O O13 0.282261 0.673140 0.651408
O O14 0.500000 0.912166 0.302157
O O15 0.789923 0.902843 0.265687
O O16 0.684770 0.000000 0.323733
O O17 0.761346 0.623266 0.453863
O O18 0.000000 0.691183 0.458675
O O19 0.182221 0.929674 0.101430
O O20 0.000000 0.853467 0.175649
O O21 0.243862 0.500000 0.472465
O O22 0.000000 0.439186 0.467626
#
# Coordination Sequence:
#
# PCOD8178261 Si02
#       8
#     8   8   8   8   8   8   8   8
#     4   8  15  29  47  68 102 147 186 222 269 325
#     4  10  21  39  62  87 116 151 189 232 285 342
#     4   9  18  33  55  85 117 145 178 224 277 334
#     4  11  23  40  60  81 110 148 192 242 291 338
#     4   9  17  29  46  72 108 148 190 238 290 341
#     4   9  19  37  61  86 115 150 187 232 284 338
#     4  10  19  32  51  76 108 147 192 238 287 339
#     4   8  14  26  48  80 113 142 175 217 269 331
#
# _framework density 20.277094000000002
#
# number of rings (size 3 to 8) (size 9 to 14) (size 15 to 20)
#    0.000    2.750    0.000    3.375    0.000    2.750 
#    2.250    3.750    0.000    3.375    0.000    3.500 
#    0.000    0.000    0.000    0.000    0.000    0.000 
#
# Total GULP energy -396427.545623 kJ/mol
# GULP energy per Si atom -12388.360801 kJ/mol
# Density = 2.023094 g / cm^3
# Si number density = 20.277094 Si / 1000 Ang^3
#
#
#
# Elastic Constant Matrix: (Units=GPa)
#
#
# Indices 1 2 3 4 5 6 
#
# 1 63.6430 36.0302 44.7589 0.0000 0.0000 0.0000
# 2 36.0302 58.5574 36.4241 0.0000 0.0000 0.0000
# 3 44.7589 36.4241 117.4875 0.0000 0.0000 0.0000
# 4 0.0000 0.0000 0.0000 25.3409 0.0000 0.0000
# 5 0.0000 0.0000 0.0000 0.0000 20.7055 0.0000
# 6 0.0000 0.0000 0.0000 0.0000 0.0000 18.7507
#
#
#
# Elastic Compliance Matrix: (Units=1/GPa)
#
#
# Indices 1 2 3 4 5 6 
#
# 1 0.027619 -0.012945 -0.006508 0.000000 0.000000 0.000000
# 2 -0.012945 0.027225 -0.003509 0.000000 0.000000 0.000000
# 3 -0.006508 -0.003509 0.012079 0.000000 0.000000 0.000000
# 4 0.000000 0.000000 0.000000 0.039462 0.000000 0.000000
# 5 0.000000 0.000000 0.000000 0.000000 0.048296 0.000000
# 6 0.000000 0.000000 0.000000 0.000000 0.000000 0.053331
#
#
# Mechanical properties :
#
#
# Convention : Reuss Voigt Hill
#
# Bulk Modulus (GPa) = 47.62450 52.67937 50.15193
# Shear Modulus (GPa) = 19.16179 21.12439 20.14309
#
# Velocity S-wave (km/s) = 3.07741 3.23117 3.15523
# Velocity P-wave (km/s) = 6.01375 6.32114 6.16936
#
# Compressibility (1/GPa) = 0.02099760
#
# Stress axis : x y z
#
# Youngs Moduli (GPa) = 36.20749 36.73102 82.78949
#
# Poissons Ratio (x) = 0.47549 0.53883
# Poissons Ratio (y) = 0.46872 0.29048
# Poissons Ratio (z) = 0.23565 0.12888
#
# Static dielectric constant tensor:
#      x y z
#    x 3.451510 0.000000 0.000000 
#    y 0.000000 3.678240 0.000000 
#    z 0.000000 0.000000 3.920120 
# 
# 
# High freq. dielectric constant tensor:
#      x y z
#    x 1.760600 0.000000 0.000000 
#    y 0.000000 1.779250 0.000000 
#    z 0.000000 0.000000 1.794920 
# 
# From -- ./inp_files/12854.got.cif
#   From: 2010.03.12/outbox.cif.g09.slc.cpg/sg38_7_cif.got.tgz:12854.got - 2010.04.14 02:38:36.
