data_PCOD8178233
_publ_section_title
;
Structure prediction by ZEFSAII (Michael W. Deem and Ramdas Pophale) SiO2 
 PCOD8178233
Probable space group: A M M 2
;
_chemical_formula_sum "Si O2"
_cell_formula_units_Z 64
_cell_length_a 18.375729
_cell_length_b 12.225157
_cell_length_c 15.320034
_cell_angle_alpha 90.000000
_cell_angle_beta 90.000000
_cell_angle_gamma 90.000000
_cell_volume 3441.586993
_symmetry_space_group_name_H-M "A M M 2"
_symmetry_group_IT_number 38
_symmetry_cell_setting 'orthorhombic'
loop_
_space_group_symop_operation_xyz
x,y,z
-x,-y,z
-x,y,z
x,-y,z
x,1/2+y,1/2+z
-x,1/2-y,1/2+z
-x,1/2+y,1/2+z
x,1/2-y,1/2+z
loop_
_atom_site_type_symbol
_atom_site_label
_atom_site_fract_x
_atom_site_fract_y
_atom_site_fract_z
Si Si1 0.417458 0.745642 0.160410
Si Si2 0.085363 0.625656 0.550489
Si Si3 0.286550 0.877187 0.594775
Si Si4 0.693948 0.375086 0.763431
Si Si5 0.824852 0.753521 0.694393
Si Si6 0.289725 0.246879 0.925412
Si Si7 0.847350 0.627828 0.366416
Si Si8 0.580538 0.622832 0.485639
O O1 0.500000 0.708256 0.184785
O O2 0.367665 0.641561 0.133797
O O3 0.377725 0.805403 0.240326
O O4 0.419471 0.832627 0.083165
O O5 0.111068 0.500000 0.566623
O O6 0.120194 0.707826 0.621495
O O7 0.103823 0.660220 0.450575
O O8 0.000000 0.636517 0.563430
O O9 0.221842 0.859474 0.664253
O O10 0.268521 0.787968 0.520958
O O11 0.283402 0.000000 0.558918
O O12 0.676386 0.500000 0.746116
O O13 0.765888 0.342139 0.709817
O O14 0.710655 0.353396 0.864645
O O15 0.867327 0.795330 0.782171
O O16 0.235621 0.152806 0.892495
O O17 0.369301 0.193860 0.922671
O O18 0.857188 0.500000 0.342958
O O19 0.500000 0.627556 0.445077
O O20 0.610690 0.500000 0.489810
#
# Coordination Sequence:
#
# PCOD8178233 Si02
#       8
#     8   8   8   8   8   8   8   8
#     4   9  19  33  48  70  99 134 181 232 281 331
#     4  10  21  38  61  88 116 148 186 228 279 335
#     4  10  19  33  54  78 106 144 186 225 278 338
#     4  10  20  32  50  75 103 136 183 229 277 332
#     4  10  20  36  57  84 113 150 184 232 277 331
#     4  10  19  32  50  77 107 141 179 229 278 327
#     4  10  20  35  58  87 115 148 191 234 277 328
#     4   9  17  30  48  69  96 132 174 222 273 324
#
# _framework density 18.596071999999999
#
# number of rings (size 3 to 8) (size 9 to 14) (size 15 to 20)
#    0.000    2.250    1.250    1.875    0.000    2.000 
#    0.000    0.625    0.000    3.375    0.000    0.000 
#    0.000    0.000    0.000    0.000    0.000    0.000 
#
# Total GULP energy -396628.323878 kJ/mol
# GULP energy per Si atom -12394.635121 kJ/mol
# Density = 1.855375 g / cm^3
# Si number density = 18.596072 Si / 1000 Ang^3
#
#
#
# Elastic Constant Matrix: (Units=GPa)
#
#
# Indices 1 2 3 4 5 6 
#
# 1 78.8942 25.4164 40.7759 0.0000 0.0000 0.0000
# 2 25.4164 83.8812 31.9791 0.0000 0.0000 0.0000
# 3 40.7759 31.9791 87.9551 0.0000 0.0000 0.0000
# 4 0.0000 0.0000 0.0000 22.0205 0.0000 0.0000
# 5 0.0000 0.0000 0.0000 0.0000 23.2408 0.0000
# 6 0.0000 0.0000 0.0000 0.0000 0.0000 17.1723
#
#
#
# Elastic Compliance Matrix: (Units=1/GPa)
#
#
# Indices 1 2 3 4 5 6 
#
# 1 0.017112 -0.002508 -0.007021 0.000000 0.000000 0.000000
# 2 -0.002508 0.014208 -0.004003 0.000000 0.000000 0.000000
# 3 -0.007021 -0.004003 0.016080 0.000000 0.000000 0.000000
# 4 0.000000 0.000000 0.000000 0.045412 0.000000 0.000000
# 5 0.000000 0.000000 0.000000 0.000000 0.043028 0.000000
# 6 0.000000 0.000000 0.000000 0.000000 0.000000 0.058233
#
#
# Mechanical properties :
#
#
# Convention : Reuss Voigt Hill
#
# Bulk Modulus (GPa) = 49.17629 49.67478 49.42554
# Shear Modulus (GPa) = 21.93791 22.65733 22.29762
#
# Velocity S-wave (km/s) = 3.43841 3.49434 3.46649
# Velocity P-wave (km/s) = 6.50119 6.56133 6.53133
#
# Compressibility (1/GPa) = 0.02033500
#
# Stress axis : x y z
#
# Youngs Moduli (GPa) = 58.43819 70.38434 62.18973
#
# Poissons Ratio (x) = 0.17654 0.43665
# Poissons Ratio (y) = 0.14658 0.24894
# Poissons Ratio (z) = 0.41031 0.28174
#
# Static dielectric constant tensor:
#      x y z
#    x 3.363790 0.000000 0.000000 
#    y 0.000000 3.217170 0.000000 
#    z 0.000000 0.000000 3.481530 
# 
# 
# High freq. dielectric constant tensor:
#      x y z
#    x 1.709980 0.000000 0.000000 
#    y 0.000000 1.710310 0.000000 
#    z 0.000000 0.000000 1.724730 
# 
# From -- ./inp_files/15253.got.cif
#   From: 2010.03.12/outbox.cif.g09.slc.cpg/sg38_8_cif.got.tgz:15253.got - 2010.04.14 02:38:36.
