data_PCOD8178957
_publ_section_title
;
Structure prediction by ZEFSAII (Michael W. Deem and Ramdas Pophale) SiO2 
 PCOD8178957
Probable space group: A M M 2
;
_chemical_formula_sum "Si O2"
_cell_formula_units_Z 64
_cell_length_a 8.770038
_cell_length_b 14.173172
_cell_length_c 28.231563
_cell_angle_alpha 90.000000
_cell_angle_beta 90.000000
_cell_angle_gamma 90.000000
_cell_volume 3509.162305
_symmetry_space_group_name_H-M "A M M 2"
_symmetry_group_IT_number 38
_symmetry_cell_setting 'orthorhombic'
loop_
_space_group_symop_operation_xyz
x,y,z
-x,-y,z
-x,y,z
x,-y,z
x,1/2+y,1/2+z
-x,1/2-y,1/2+z
-x,1/2+y,1/2+z
x,1/2-y,1/2+z
loop_
_atom_site_type_symbol
_atom_site_label
_atom_site_fract_x
_atom_site_fract_y
_atom_site_fract_z
Si Si1 0.180101 0.894360 0.805770
Si Si2 0.824181 0.107662 0.073404
Si Si3 0.323841 0.710500 0.658805
Si Si4 0.323644 0.105770 0.709443
Si Si5 0.173948 0.888669 0.245880
Si Si6 0.321921 0.108220 0.974566
Si Si7 0.819680 0.228042 0.893200
Si Si8 0.322105 0.891583 0.344532
O O1 0.235269 0.854247 0.755345
O O2 0.243285 0.833019 0.849085
O O3 0.000000 0.894058 0.806561
O O4 0.245233 0.000000 0.812118
O O5 0.779983 0.176761 0.115782
O O6 0.000000 0.123593 0.060033
O O7 0.795287 0.000000 0.089856
O O8 0.721565 0.132724 0.028307
O O9 0.500000 0.689707 0.647155
O O10 0.293607 0.822599 0.666049
O O11 0.280936 0.656934 0.706649
O O12 0.500000 0.104713 0.723158
O O13 0.267774 0.000000 0.695270
O O14 0.232699 0.858572 0.297572
O O15 0.000000 0.853446 0.240213
O O16 0.185675 0.000000 0.239485
O O17 0.500000 0.125644 0.967236
O O18 0.227919 0.177934 0.941461
O O19 0.276660 0.000000 0.962988
O O20 0.740041 0.330256 0.888669
O O21 0.000000 0.240495 0.892663
O O22 0.500000 0.874500 0.336277
O O23 0.287012 0.000000 0.356797
#
# Coordination Sequence:
#
# PCOD8178957 Si02
#       8
#     8   8   8   8   8   8   8   8
#     4   9  18  31  47  71 103 136 169 205 247 296
#     4  10  21  37  56  78 105 134 163 202 255 311
#     4  11  21  32  51  76 101 133 172 213 256 305
#     4   9  19  34  49  68  98 135 172 209 249 292
#     4  10  20  33  49  72 104 139 173 210 255 308
#     4  10  21  37  57  81 108 136 167 206 253 307
#     4  11  21  33  53  78 105 138 174 213 257 308
#     4  10  21  36  52  72 102 139 178 220 262 304
#
# _framework density 18.237970000000001
#
# number of rings (size 3 to 8) (size 9 to 14) (size 15 to 20)
#    0.000    2.000    0.000    3.750    0.000    9.000 
#    0.000    1.250    0.000    0.750    0.000    1.750 
#    0.000    0.000    0.000    0.000    0.000    0.000 
#
# Total GULP energy -396898.854987 kJ/mol
# GULP energy per Si atom -12403.089218 kJ/mol
# Density = 1.819646 g / cm^3
# Si number density = 18.237970 Si / 1000 Ang^3
#
#
#
# Elastic Constant Matrix: (Units=GPa)
#
#
# Indices 1 2 3 4 5 6 
#
# 1 53.3583 28.5908 17.1418 0.0000 0.0000 0.0000
# 2 28.5908 74.2835 51.8421 0.0000 0.0000 0.0000
# 3 17.1418 51.8421 75.7596 0.0000 0.0000 0.0000
# 4 0.0000 0.0000 0.0000 29.5966 0.0000 0.0000
# 5 0.0000 0.0000 0.0000 0.0000 33.9433 0.0000
# 6 0.0000 0.0000 0.0000 0.0000 0.0000 27.0608
#
#
#
# Elastic Compliance Matrix: (Units=1/GPa)
#
#
# Indices 1 2 3 4 5 6 
#
# 1 0.023722 -0.010307 0.001685 0.000000 0.000000 0.000000
# 2 -0.010307 0.030246 -0.018365 0.000000 0.000000 0.000000
# 3 0.001685 -0.018365 0.025385 0.000000 0.000000 0.000000
# 4 0.000000 0.000000 0.000000 0.033788 0.000000 0.000000
# 5 0.000000 0.000000 0.000000 0.000000 0.029461 0.000000
# 6 0.000000 0.000000 0.000000 0.000000 0.000000 0.036954
#
#
# Mechanical properties :
#
#
# Convention : Reuss Voigt Hill
#
# Bulk Modulus (GPa) = 39.39990 44.28341 41.84166
# Shear Modulus (GPa) = 20.66211 25.17524 22.91867
#
# Velocity S-wave (km/s) = 3.36953 3.71937 3.54877
# Velocity P-wave (km/s) = 6.06535 6.54053 6.30742
#
# Compressibility (1/GPa) = 0.02538077
#
# Stress axis : x y z
#
# Youngs Moduli (GPa) = 42.15431 33.06262 39.39263
#
# Poissons Ratio (x) = 0.34076 -0.06638
# Poissons Ratio (y) = 0.43446 0.72345
# Poissons Ratio (z) = -0.07104 0.60719
#
# Static dielectric constant tensor:
#      x y z
#    x 3.384710 0.000000 0.000000 
#    y 0.000000 3.562160 0.000000 
#    z 0.000000 0.000000 3.162480 
# 
# 
# High freq. dielectric constant tensor:
#      x y z
#    x 1.716500 0.000000 0.000000 
#    y 0.000000 1.708360 0.000000 
#    z 0.000000 0.000000 1.684840 
# 
# From -- ./inp_files/22135.got.cif
#   From: 2010.03.12/outbox.cif.g09.slc.cpg/sg38_12_cif.got.tgz:22135.got - 2010.04.14 02:38:36.
