data_PCOD8178935
_publ_section_title
;
Structure prediction by ZEFSAII (Michael W. Deem and Ramdas Pophale) SiO2 
 PCOD8178935
Probable space group: A M M 2
;
_chemical_formula_sum "Si O2"
_cell_formula_units_Z 64
_cell_length_a 14.344871
_cell_length_b 8.858871
_cell_length_c 31.688423
_cell_angle_alpha 90.000000
_cell_angle_beta 90.000000
_cell_angle_gamma 90.000000
_cell_volume 4026.944568
_symmetry_space_group_name_H-M "A M M 2"
_symmetry_group_IT_number 38
_symmetry_cell_setting 'orthorhombic'
loop_
_space_group_symop_operation_xyz
x,y,z
-x,-y,z
-x,y,z
x,-y,z
x,1/2+y,1/2+z
-x,1/2-y,1/2+z
-x,1/2+y,1/2+z
x,1/2-y,1/2+z
loop_
_atom_site_type_symbol
_atom_site_label
_atom_site_fract_x
_atom_site_fract_y
_atom_site_fract_z
Si Si1 0.610275 0.164798 0.313320
Si Si2 0.896274 0.673976 0.024540
Si Si3 0.393881 0.680232 0.721959
Si Si4 0.394674 0.819147 0.403554
Si Si5 0.605185 0.179786 0.566267
Si Si6 0.719005 0.178512 0.647246
Si Si7 0.710415 0.177570 0.484051
Si Si8 0.105776 0.675878 0.613125
O O1 0.500000 0.144038 0.315008
O O2 0.635244 0.245062 0.268715
O O3 0.639336 0.246864 0.357580
O O4 0.657906 0.000000 0.312599
O O5 0.883068 0.500000 0.038714
O O6 0.877555 0.775721 0.065020
O O7 0.000000 0.701772 0.005972
O O8 0.820307 0.716289 0.988859
O O9 0.500000 0.728218 0.711100
O O10 0.384991 0.500000 0.721291
O O11 0.324179 0.753894 0.689291
O O12 0.500000 0.766972 0.413951
O O13 0.327924 0.752595 0.440289
O O14 0.390435 0.000000 0.401283
O O15 0.500000 0.242421 0.568415
O O16 0.661218 0.239398 0.606955
O O17 0.654102 0.244087 0.524081
O O18 0.605986 0.000000 0.565916
O O19 0.825547 0.233456 0.643875
O O20 0.716122 0.000000 0.650137
O O21 0.693064 0.000000 0.482641
O O22 0.127439 0.500000 0.616990
O O23 0.000000 0.713652 0.626865
#
# Coordination Sequence:
#
# PCOD8178935 Si02
#       8
#     8   8   8   8   8   8   8   8
#     4   7  11  21  36  55  80 110 142 178 218 253
#     4   9  16  27  42  60  84 112 142 178 220 261
#     4   9  17  29  44  62  88 119 149 183 222 261
#     4   8  12  18  32  56  84 110 139 176 214 254
#     4   9  16  24  34  53  84 116 141 168 203 244
#     4  11  20  30  44  64  89 116 146 179 216 262
#     4   9  14  21  34  56  83 112 142 173 214 256
#     4  10  20  33  48  64  82 108 145 186 223 260
#
# _framework density 15.892944
#
# number of rings (size 3 to 8) (size 9 to 14) (size 15 to 20)
#    0.000    3.000    1.250    3.000    0.000    3.000 
#    0.000    0.000    0.000    0.000    0.000    1.750 
#    0.000    6.000    0.000    0.000    0.000    1.000 
#
# Total GULP energy -396471.997178 kJ/mol
# GULP energy per Si atom -12389.749912 kJ/mol
# Density = 1.585677 g / cm^3
# Si number density = 15.892944 Si / 1000 Ang^3
#
#
#
# Elastic Constant Matrix: (Units=GPa)
#
#
# Indices 1 2 3 4 5 6 
#
# 1 108.0356 18.1785 70.2838 0.0000 0.0000 0.0000
# 2 18.1785 17.3573 19.9357 0.0000 0.0000 0.0000
# 3 70.2838 19.9357 148.7086 0.0000 0.0000 0.0000
# 4 0.0000 0.0000 0.0000 12.3141 0.0000 0.0000
# 5 0.0000 0.0000 0.0000 0.0000 15.4381 0.0000
# 6 0.0000 0.0000 0.0000 0.0000 0.0000 13.6244
#
#
#
# Elastic Compliance Matrix: (Units=1/GPa)
#
#
# Indices 1 2 3 4 5 6 
#
# 1 0.014369 -0.008568 -0.005642 0.000000 0.000000 0.000000
# 2 -0.008568 0.073207 -0.005765 0.000000 0.000000 0.000000
# 3 -0.005642 -0.005765 0.010164 0.000000 0.000000 0.000000
# 4 0.000000 0.000000 0.000000 0.081208 0.000000 0.000000
# 5 0.000000 0.000000 0.000000 0.000000 0.064775 0.000000
# 6 0.000000 0.000000 0.000000 0.000000 0.000000 0.073398
#
#
# Mechanical properties :
#
#
# Convention : Reuss Voigt Hill
#
# Bulk Modulus (GPa) = 17.30413 54.54416 35.92415
# Shear Modulus (GPa) = 13.28612 19.32221 16.30417
#
# Velocity S-wave (km/s) = 2.89446 3.49058 3.20640
# Velocity P-wave (km/s) = 4.69916 7.11616 6.03000
#
# Compressibility (1/GPa) = 0.05778968
#
# Stress axis : x y z
#
# Youngs Moduli (GPa) = 69.59627 13.65998 98.38531
#
# Poissons Ratio (x) = 0.11704 0.55513
# Poissons Ratio (y) = 0.59628 0.56715
# Poissons Ratio (z) = 0.39269 0.07874
#
# Static dielectric constant tensor:
#      x y z
#    x 3.059140 0.000000 0.000000 
#    y 0.000000 2.610960 0.000000 
#    z 0.000000 0.000000 3.347100 
# 
# 
# High freq. dielectric constant tensor:
#      x y z
#    x 1.595300 0.000000 0.000000 
#    y 0.000000 1.565460 0.000000 
#    z 0.000000 0.000000 1.606940 
# 
# From -- ./inp_files/25099.got.cif
#   From: 2010.03.12/outbox.cif.g09.slc.cpg/sg38_13_cif.got.tgz:25099.got - 2010.04.14 02:38:36.
