data_PCOD8178859
_publ_section_title
;
Structure prediction by ZEFSAII (Michael W. Deem and Ramdas Pophale) SiO2 
 PCOD8178859
Probable space group: A M M 2
;
_chemical_formula_sum "Si O2"
_cell_formula_units_Z 64
_cell_length_a 9.468701
_cell_length_b 13.799748
_cell_length_c 24.373280
_cell_angle_alpha 90.000000
_cell_angle_beta 90.000000
_cell_angle_gamma 90.000000
_cell_volume 3184.751392
_symmetry_space_group_name_H-M "A M M 2"
_symmetry_group_IT_number 38
_symmetry_cell_setting 'orthorhombic'
loop_
_space_group_symop_operation_xyz
x,y,z
-x,-y,z
-x,y,z
x,-y,z
x,1/2+y,1/2+z
-x,1/2-y,1/2+z
-x,1/2+y,1/2+z
x,1/2-y,1/2+z
loop_
_atom_site_type_symbol
_atom_site_label
_atom_site_fract_x
_atom_site_fract_y
_atom_site_fract_z
Si Si1 0.159339 0.609169 0.024340
Si Si2 0.164037 0.290546 0.134676
Si Si3 0.654927 0.387321 0.218098
Si Si4 0.337275 0.185619 0.428147
Si Si5 0.835626 0.112127 0.327817
Si Si6 0.846256 0.109382 0.810816
Si Si7 0.657323 0.604224 0.414578
Si Si8 0.833209 0.893132 0.203212
O O1 0.178370 0.500000 0.048346
O O2 0.189156 0.692134 0.069976
O O3 0.000000 0.622518 0.002186
O O4 0.265111 0.619587 0.973727
O O5 0.259632 0.372376 0.162329
O O6 0.216359 0.185422 0.157365
O O7 0.000000 0.307419 0.149702
O O8 0.500000 0.338193 0.215073
O O9 0.635156 0.500000 0.229561
O O10 0.745210 0.337059 0.267056
O O11 0.500000 0.153528 0.421407
O O12 0.258850 0.175910 0.369403
O O13 0.326552 0.297785 0.450069
O O14 0.787619 0.135877 0.265240
O O15 0.000000 0.137494 0.336772
O O16 0.807870 0.000000 0.341083
O O17 0.777541 0.110482 0.869762
O O18 0.000000 0.161861 0.812686
O O19 0.868867 0.000000 0.790652
O O20 0.500000 0.605170 0.387601
O O21 0.676300 0.500000 0.446660
O O22 0.000000 0.901047 0.202240
O O23 0.770558 0.000000 0.188136
#
# Coordination Sequence:
#
# PCOD8178859 Si02
#       8
#     8   8   8   8   8   8   8   8
#     4  10  22  40  59  81 114 151 185 231 289 342
#     4  10  20  35  58  84 108 141 188 234 277 330
#     4  10  20  32  47  72 109 148 181 218 270 329
#     4  11  23  36  56  84 110 145 194 240 280 331
#     4   9  18  34  56  82 114 150 184 223 279 343
#     4   9  17  29  47  72 102 138 180 222 262 313
#     4   9  19  36  53  72 106 147 182 223 280 336
#     4   8  16  33  57  85 115 145 179 223 280 341
#
# _framework density 20.095759999999999
#
# number of rings (size 3 to 8) (size 9 to 14) (size 15 to 20)
#    0.000    2.500    0.000    2.625    1.750    6.250 
#    0.000    0.625    0.000    1.875    0.000    0.000 
#    0.000    0.000    0.000    0.000    0.000    0.000 
#
# Total GULP energy -396421.632164 kJ/mol
# GULP energy per Si atom -12388.176005 kJ/mol
# Density = 2.005002 g / cm^3
# Si number density = 20.095760 Si / 1000 Ang^3
#
#
#
# Elastic Constant Matrix: (Units=GPa)
#
#
# Indices 1 2 3 4 5 6 
#
# 1 99.6613 25.3426 32.4533 0.0000 0.0000 0.0000
# 2 25.3426 108.2357 37.8330 0.0000 0.0000 0.0000
# 3 32.4533 37.8330 77.6660 0.0000 0.0000 0.0000
# 4 0.0000 0.0000 0.0000 26.1339 0.0000 0.0000
# 5 0.0000 0.0000 0.0000 0.0000 11.6320 0.0000
# 6 0.0000 0.0000 0.0000 0.0000 0.0000 17.1522
#
#
#
# Elastic Compliance Matrix: (Units=1/GPa)
#
#
# Indices 1 2 3 4 5 6 
#
# 1 0.011752 -0.001248 -0.004303 0.000000 0.000000 0.000000
# 2 -0.001248 0.011268 -0.004967 0.000000 0.000000 0.000000
# 3 -0.004303 -0.004967 0.017093 0.000000 0.000000 0.000000
# 4 0.000000 0.000000 0.000000 0.038264 0.000000 0.000000
# 5 0.000000 0.000000 0.000000 0.000000 0.085970 0.000000
# 6 0.000000 0.000000 0.000000 0.000000 0.000000 0.058301
#
#
# Mechanical properties :
#
#
# Convention : Reuss Voigt Hill
#
# Bulk Modulus (GPa) = 52.41840 52.98009 52.69924
# Shear Modulus (GPa) = 19.99644 23.64589 21.82117
#
# Velocity S-wave (km/s) = 3.15788 3.43397 3.29881
# Velocity P-wave (km/s) = 6.27990 6.49183 6.38675
#
# Compressibility (1/GPa) = 0.01907727
#
# Stress axis : x y z
#
# Youngs Moduli (GPa) = 85.08830 88.75062 58.50190
#
# Poissons Ratio (x) = 0.11073 0.25174
# Poissons Ratio (y) = 0.10616 0.29060
# Poissons Ratio (z) = 0.36614 0.44086
#
# Static dielectric constant tensor:
#      x y z
#    x 3.748310 0.000000 0.000000 
#    y 0.000000 4.033530 0.000000 
#    z 0.000000 0.000000 3.270190 
# 
# 
# High freq. dielectric constant tensor:
#      x y z
#    x 1.777650 0.000000 0.000000 
#    y 0.000000 1.791930 0.000000 
#    z 0.000000 0.000000 1.744900 
# 
# From -- ./inp_files/22122.got.cif
#   From: 2010.03.12/outbox.cif.g09.slc.cpg/sg38_12_cif.got.tgz:22122.got - 2010.04.14 02:38:36.
