data_PCOD8178582
_publ_section_title
;
Structure prediction by ZEFSAII (Michael W. Deem and Ramdas Pophale) SiO2 
 PCOD8178582
Probable space group: A M M 2
;
_chemical_formula_sum "Si O2"
_cell_formula_units_Z 64
_cell_length_a 19.071314
_cell_length_b 8.871575
_cell_length_c 20.719663
_cell_angle_alpha 90.000000
_cell_angle_beta 90.000000
_cell_angle_gamma 90.000000
_cell_volume 3505.613499
_symmetry_space_group_name_H-M "A M M 2"
_symmetry_group_IT_number 38
_symmetry_cell_setting 'orthorhombic'
loop_
_space_group_symop_operation_xyz
x,y,z
-x,-y,z
-x,y,z
x,-y,z
x,1/2+y,1/2+z
-x,1/2-y,1/2+z
-x,1/2+y,1/2+z
x,1/2-y,1/2+z
loop_
_atom_site_type_symbol
_atom_site_label
_atom_site_fract_x
_atom_site_fract_y
_atom_site_fract_z
Si Si1 0.579620 0.673188 0.341830
Si Si2 0.579396 0.823106 0.477574
Si Si3 0.209501 0.825086 0.403288
Si Si4 0.782741 0.322263 0.651548
Si Si5 0.712849 0.178836 0.022229
Si Si6 0.298603 0.324217 0.776566
Si Si7 0.920399 0.674743 0.350970
Si Si8 0.921862 0.325820 0.714864
O O1 0.500000 0.693545 0.317951
O O2 0.595980 0.500000 0.358767
O O3 0.594857 0.772127 0.404821
O O4 0.629470 0.731985 0.284963
O O5 0.500000 0.780645 0.497976
O O6 0.633042 0.739642 0.525369
O O7 0.592873 0.000000 0.481156
O O8 0.249277 0.734841 0.458338
O O9 0.246371 0.791309 0.335404
O O10 0.129636 0.767618 0.398837
O O11 0.210434 0.000000 0.421257
O O12 0.774991 0.500000 0.649409
O O13 0.753980 0.255006 0.584488
O O14 0.737452 0.261254 0.711729
O O15 0.864649 0.277399 0.661176
O O16 0.711283 0.000000 0.022327
O O17 0.316773 0.500000 0.771510
O O18 0.900669 0.500000 0.355457
O O19 0.910088 0.726062 0.277640
O O20 0.000000 0.704822 0.373587
O O21 0.910230 0.500000 0.735333
O O22 0.000000 0.301162 0.686039
#
# Coordination Sequence:
#
# PCOD8178582 Si02
#       8
#     8   8   8   8   8   8   8   8
#     4  10  20  33  52  81 112 140 177 226 277 324
#     4  10  20  35  55  78 106 141 182 225 270 327
#     4  11  21  35  57  81 109 143 181 224 269 324
#     4   9  19  36  54  79 110 143 183 223 266 322
#     4  11  22  36  56  80 112 146 181 228 274 322
#     4  10  19  34  56  79 107 141 180 223 265 320
#     4  10  20  33  52  82 115 143 179 229 279 322
#     4   9  16  31  56  80 105 141 183 223 267 323
#
# _framework density 18.256433999999999
#
# number of rings (size 3 to 8) (size 9 to 14) (size 15 to 20)
#    0.000    2.000    2.500    1.875    0.000    2.750 
#    0.000    3.750    0.000    6.000    0.000    0.000 
#    0.000    0.000    0.000    0.000    0.000    0.000 
#
# Total GULP energy -396825.706621 kJ/mol
# GULP energy per Si atom -12400.803332 kJ/mol
# Density = 1.821488 g / cm^3
# Si number density = 18.256434 Si / 1000 Ang^3
#
#
#
# Elastic Constant Matrix: (Units=GPa)
#
#
# Indices 1 2 3 4 5 6 
#
# 1 142.2372 47.0475 52.3357 0.0000 0.0000 0.0000
# 2 47.0475 61.9111 30.9781 0.0000 0.0000 0.0000
# 3 52.3357 30.9781 77.5131 0.0000 0.0000 0.0000
# 4 0.0000 0.0000 0.0000 20.0661 0.0000 0.0000
# 5 0.0000 0.0000 0.0000 0.0000 29.9025 0.0000
# 6 0.0000 0.0000 0.0000 0.0000 0.0000 32.4975
#
#
#
# Elastic Compliance Matrix: (Units=1/GPa)
#
#
# Indices 1 2 3 4 5 6 
#
# 1 0.010739 -0.005666 -0.004987 0.000000 0.000000 0.000000
# 2 -0.005666 0.023179 -0.005438 0.000000 0.000000 0.000000
# 3 -0.004987 -0.005438 0.018441 0.000000 0.000000 0.000000
# 4 0.000000 0.000000 0.000000 0.049835 0.000000 0.000000
# 5 0.000000 0.000000 0.000000 0.000000 0.033442 0.000000
# 6 0.000000 0.000000 0.000000 0.000000 0.000000 0.030772
#
#
# Mechanical properties :
#
#
# Convention : Reuss Voigt Hill
#
# Bulk Modulus (GPa) = 49.55782 60.26489 54.91136
# Shear Modulus (GPa) = 24.35275 26.57990 25.46632
#
# Velocity S-wave (km/s) = 3.65626 3.81979 3.73892
# Velocity P-wave (km/s) = 6.71034 7.24819 6.98444
#
# Compressibility (1/GPa) = 0.02017845
#
# Stress axis : x y z
#
# Youngs Moduli (GPa) = 93.11429 43.14288 54.22631
#
# Poissons Ratio (x) = 0.24445 0.27041
# Poissons Ratio (y) = 0.52758 0.29487
# Poissons Ratio (z) = 0.46434 0.23460
#
# Static dielectric constant tensor:
#      x y z
#    x 3.743860 0.000000 0.000000 
#    y 0.000000 3.313250 0.000000 
#    z 0.000000 0.000000 3.223860 
# 
# 
# High freq. dielectric constant tensor:
#      x y z
#    x 1.726140 0.000000 0.000000 
#    y 0.000000 1.703740 0.000000 
#    z 0.000000 0.000000 1.673730 
# 
# From -- ./inp_files/18854.got.cif
#   From: 2010.03.12/outbox.cif.g09.slc.cpg/sg38_10_cif.got.tgz:18854.got - 2010.04.14 02:38:36.
