data_PCOD8178681
_publ_section_title
;
Structure prediction by ZEFSAII (Michael W. Deem and Ramdas Pophale) SiO2 
 PCOD8178681
Probable space group: A M M 2
;
_chemical_formula_sum "Si O2"
_cell_formula_units_Z 64
_cell_length_a 8.727643
_cell_length_b 24.741863
_cell_length_c 15.164630
_cell_angle_alpha 90.000000
_cell_angle_beta 90.000000
_cell_angle_gamma 90.000000
_cell_volume 3274.622108
_symmetry_space_group_name_H-M "A M M 2"
_symmetry_group_IT_number 38
_symmetry_cell_setting 'orthorhombic'
loop_
_space_group_symop_operation_xyz
x,y,z
-x,-y,z
-x,y,z
x,-y,z
x,1/2+y,1/2+z
-x,1/2-y,1/2+z
-x,1/2+y,1/2+z
x,1/2-y,1/2+z
loop_
_atom_site_type_symbol
_atom_site_label
_atom_site_fract_x
_atom_site_fract_y
_atom_site_fract_z
Si Si1 0.175048 0.742857 0.475960
Si Si2 0.680915 0.855750 0.885714
Si Si3 0.826465 0.220177 0.176964
Si Si4 0.818858 0.895921 0.209392
Si Si5 0.320365 0.646136 0.022823
Si Si6 0.824088 0.062581 0.398086
Si Si7 0.678248 0.938594 0.033246
Si Si8 0.817175 0.337853 0.206812
O O1 0.269915 0.704838 0.410713
O O2 0.185313 0.716812 0.571903
O O3 0.245233 0.802520 0.474609
O O4 0.000000 0.746327 0.442735
O O5 0.500000 0.859424 0.875660
O O6 0.757848 0.870337 0.791828
O O7 0.743197 0.898860 0.957316
O O8 0.748443 0.165307 0.213645
O O9 0.751197 0.275935 0.211389
O O10 0.000000 0.221460 0.209767
O O11 0.770929 0.926796 0.297805
O O12 0.756803 0.928638 0.126537
O O13 0.000000 0.892514 0.197368
O O14 0.500000 0.655756 0.032237
O O15 0.248657 0.634852 0.118799
O O16 0.286389 0.594046 0.963965
O O17 0.000000 0.081301 0.411021
O O18 0.804334 0.000000 0.419513
O O19 0.500000 0.927229 0.046214
O O20 0.710787 0.000000 0.003277
O O21 0.000000 0.338901 0.200358
#
# Coordination Sequence:
#
# PCOD8178681 Si02
#       8
#     8   8   8   8   8   8   8   8
#     4  10  19  35  58  84 117 156 193 236 292 354
#     4  11  22  36  56  87 121 155 199 248 294 349
#     4   8  16  31  53  83 114 147 187 227 282 344
#     4  10  19  35  59  88 117 150 195 242 286 340
#     4  11  23  40  61  87 117 153 198 250 303 354
#     4  10  22  39  60  87 118 155 200 248 297 353
#     4  10  22  39  57  81 120 163 196 234 290 349
#     4  10  21  38  60  86 118 158 195 241 299 359
#
# _framework density 19.544239000000001
#
# number of rings (size 3 to 8) (size 9 to 14) (size 15 to 20)
#    0.000    2.000    1.250    3.375    1.750    2.000 
#    0.000    1.250    0.000    2.250    0.000    0.000 
#    0.000    0.000    0.000    0.000    0.000    0.000 
#
# Total GULP energy -396809.841983 kJ/mol
# GULP energy per Si atom -12400.307562 kJ/mol
# Density = 1.949976 g / cm^3
# Si number density = 19.544239 Si / 1000 Ang^3
#
#
#
# Elastic Constant Matrix: (Units=GPa)
#
#
# Indices 1 2 3 4 5 6 
#
# 1 66.7872 29.9387 32.7670 0.0000 0.0000 0.0000
# 2 29.9387 89.0906 50.9837 0.0000 0.0000 0.0000
# 3 32.7670 50.9837 119.0275 0.0000 0.0000 0.0000
# 4 0.0000 0.0000 0.0000 28.8050 0.0000 0.0000
# 5 0.0000 0.0000 0.0000 0.0000 30.3415 0.0000
# 6 0.0000 0.0000 0.0000 0.0000 0.0000 24.6513
#
#
#
# Elastic Compliance Matrix: (Units=1/GPa)
#
#
# Indices 1 2 3 4 5 6 
#
# 1 0.018516 -0.004379 -0.003222 0.000000 0.000000 0.000000
# 2 -0.004379 0.015905 -0.005607 0.000000 0.000000 0.000000
# 3 -0.003222 -0.005607 0.011690 0.000000 0.000000 0.000000
# 4 0.000000 0.000000 0.000000 0.034716 0.000000 0.000000
# 5 0.000000 0.000000 0.000000 0.000000 0.032958 0.000000
# 6 0.000000 0.000000 0.000000 0.000000 0.000000 0.040566
#
#
# Mechanical properties :
#
#
# Convention : Reuss Voigt Hill
#
# Bulk Modulus (GPa) = 50.77180 55.80934 53.29057
# Shear Modulus (GPa) = 26.69053 27.50726 27.09889
#
# Velocity S-wave (km/s) = 3.69947 3.75565 3.72767
# Velocity P-wave (km/s) = 6.65450 6.88650 6.77150
#
# Compressibility (1/GPa) = 0.01969597
#
# Stress axis : x y z
#
# Youngs Moduli (GPa) = 54.00604 62.87415 85.54233
#
# Poissons Ratio (x) = 0.27530 0.27560
# Poissons Ratio (y) = 0.23647 0.47965
# Poissons Ratio (z) = 0.17400 0.35255
#
# Static dielectric constant tensor:
#      x y z
#    x 3.399890 0.000000 0.000000 
#    y 0.000000 3.610660 0.000000 
#    z 0.000000 0.000000 3.575410 
# 
# 
# High freq. dielectric constant tensor:
#      x y z
#    x 1.745320 0.000000 0.000000 
#    y 0.000000 1.755960 0.000000 
#    z 0.000000 0.000000 1.764460 
# 
# From -- ./inp_files/12706.got.cif
#   From: 2010.03.12/outbox.cif.g09.slc.cpg/sg38_7_cif.got.tgz:12706.got - 2010.04.14 02:38:36.
