data_PCOD8178535
_publ_section_title
;
Structure prediction by ZEFSAII (Michael W. Deem and Ramdas Pophale) SiO2 
 PCOD8178535
Probable space group: A M M 2
;
_chemical_formula_sum "Si O2"
_cell_formula_units_Z 48
_cell_length_a 8.866212
_cell_length_b 14.438538
_cell_length_c 20.251230
_cell_angle_alpha 90.000000
_cell_angle_beta 90.000000
_cell_angle_gamma 90.000000
_cell_volume 2592.464021
_symmetry_space_group_name_H-M "A M M 2"
_symmetry_group_IT_number 38
_symmetry_cell_setting 'orthorhombic'
loop_
_space_group_symop_operation_xyz
x,y,z
-x,-y,z
-x,y,z
x,-y,z
x,1/2+y,1/2+z
-x,1/2-y,1/2+z
-x,1/2+y,1/2+z
x,1/2-y,1/2+z
loop_
_atom_site_type_symbol
_atom_site_label
_atom_site_fract_x
_atom_site_fract_y
_atom_site_fract_z
Si Si1 0.173874 0.818736 0.793250
Si Si2 0.322516 0.500000 0.340525
Si Si3 0.177766 0.187846 0.412417
Si Si4 0.678228 0.500000 0.945646
Si Si5 0.173618 0.000000 0.586370
Si Si6 0.322517 0.301019 0.530325
Si Si7 0.678012 0.000000 0.987879
Si Si8 0.172747 0.302807 0.143942
O O1 0.223722 0.741870 0.846087
O O2 0.203497 0.779176 0.720261
O O3 0.000000 0.846292 0.802877
O O4 0.271434 0.910066 0.801464
O O5 0.500000 0.500000 0.344564
O O6 0.251673 0.500000 0.414255
O O7 0.234492 0.242360 0.476159
O O8 0.000000 0.173820 0.418917
O O9 0.256668 0.088828 0.408188
O O10 0.500000 0.500000 0.940073
O O11 0.722432 0.500000 0.022278
O O12 0.210847 0.910374 0.630386
O O13 0.000000 0.000000 0.562913
O O14 0.500000 0.290424 0.517375
O O15 0.268842 0.407971 0.526308
O O16 0.281295 0.263759 0.602434
O O17 0.500000 0.000000 0.981811
O O18 0.000000 0.281881 0.124646
#
# Coordination Sequence:
#
# PCOD8178535 Si02
#       8
#     8   4   8   4   4   8   4   8
#     4  10  22  39  59  85 118 155 193 235 286 345
#     4  11  20  34  58  88 122 153 185 235 289 342
#     4  11  22  38  60  85 115 151 192 238 287 337
#     4  12  24  37  58  87 117 148 194 240 283 341
#     4  10  19  33  57  84 118 152 183 230 291 343
#     4  11  21  37  59  84 116 153 194 236 284 340
#     4   9  20  36  55  83 119 151 182 235 289 330
#     4  10  21  38  58  84 118 154 191 237 290 339
#
# _framework density 18.515203
#
# number of rings (size 3 to 8) (size 9 to 14) (size 15 to 20)
#    0.000    1.500    3.333    2.500    0.000    2.667 
#    0.000    3.333    0.000    3.000    0.000    0.000 
#    0.000    0.000    0.000    0.000    0.000    0.000 
#
# Total GULP energy -297696.841600 kJ/mol
# GULP energy per Si atom -12404.035067 kJ/mol
# Density = 1.847306 g / cm^3
# Si number density = 18.515203 Si / 1000 Ang^3
#
#
#
# Elastic Constant Matrix: (Units=GPa)
#
#
# Indices 1 2 3 4 5 6 
#
# 1 73.8853 44.5342 32.4456 0.0000 0.0000 0.0000
# 2 44.5342 134.3221 48.7439 0.0000 0.0000 0.0000
# 3 32.4456 48.7439 110.8903 0.0000 0.0000 0.0000
# 4 0.0000 0.0000 0.0000 348.0825 0.0000 0.0000
# 5 0.0000 0.0000 0.0000 0.0000 20.3342 0.0000
# 6 0.0000 0.0000 0.0000 0.0000 0.0000 22.5753
#
#
#
# Elastic Compliance Matrix: (Units=1/GPa)
#
#
# Indices 1 2 3 4 5 6 
#
# 1 0.017770 -0.004765 -0.003105 0.000000 0.000000 0.000000
# 2 -0.004765 0.010135 -0.003061 0.000000 0.000000 0.000000
# 3 -0.003105 -0.003061 0.011272 0.000000 0.000000 0.000000
# 4 0.000000 0.000000 0.000000 0.002873 0.000000 0.000000
# 5 0.000000 0.000000 0.000000 0.000000 0.049178 0.000000
# 6 0.000000 0.000000 0.000000 0.000000 0.000000 0.044296
#
#
# Mechanical properties :
#
#
# Convention : Reuss Voigt Hill
#
# Bulk Modulus (GPa) = 57.75097 63.39390 60.57244
# Shear Modulus (GPa) = 30.64516 91.09000 60.86758
#
# Velocity S-wave (km/s) = 4.07275 7.02170 5.73984
# Velocity P-wave (km/s) = 7.30583 10.00261 8.75863
#
# Compressibility (1/GPa) = 0.01731573
#
# Stress axis : x y z
#
# Youngs Moduli (GPa) = 56.27473 98.66421 88.71607
#
# Poissons Ratio (x) = 0.47012 0.27545
# Poissons Ratio (y) = 0.26814 0.27156
# Poissons Ratio (z) = 0.17473 0.30201
#
# Static dielectric constant tensor:
#      x y z
#    x 3.355340 0.000000 0.000000 
#    y 0.000000 1.581540 0.000000 
#    z 0.000000 0.000000 3.414020 
# 
# 
# High freq. dielectric constant tensor:
#      x y z
#    x 1.715280 0.000000 0.000000 
#    y 0.000000 1.722190 0.000000 
#    z 0.000000 0.000000 1.715890 
# 
# From -- ./inp_files/16721.got.cif
#   From: 2010.03.12/outbox.cif.g09.slc.cpg/sg38_9_cif.got.tgz:16721.got - 2010.04.14 02:38:36.
