data_PCOD8178524
_publ_section_title
;
Structure prediction by ZEFSAII (Michael W. Deem and Ramdas Pophale) SiO2 
 PCOD8178524
Probable space group: A M M 2
;
_chemical_formula_sum "Si O2"
_cell_formula_units_Z 64
_cell_length_a 8.945983
_cell_length_b 19.547161
_cell_length_c 20.502434
_cell_angle_alpha 90.000000
_cell_angle_beta 90.000000
_cell_angle_gamma 90.000000
_cell_volume 3585.231315
_symmetry_space_group_name_H-M "A M M 2"
_symmetry_group_IT_number 38
_symmetry_cell_setting 'orthorhombic'
loop_
_space_group_symop_operation_xyz
x,y,z
-x,-y,z
-x,y,z
x,-y,z
x,1/2+y,1/2+z
-x,1/2-y,1/2+z
-x,1/2+y,1/2+z
x,1/2-y,1/2+z
loop_
_atom_site_type_symbol
_atom_site_label
_atom_site_fract_x
_atom_site_fract_y
_atom_site_fract_z
Si Si1 0.826593 0.577260 0.065700
Si Si2 0.823636 0.283823 0.262974
Si Si3 0.822706 0.573868 0.213819
Si Si4 0.328520 0.706849 0.022226
Si Si5 0.671926 0.299374 0.875478
Si Si6 0.824279 0.704510 0.631133
Si Si7 0.324925 0.577526 0.681516
Si Si8 0.173814 0.077394 0.319434
O O1 0.803834 0.500000 0.039627
O O2 0.768531 0.583472 0.139798
O O3 0.726621 0.628435 0.023579
O O4 0.000000 0.598751 0.060237
O O5 0.767142 0.362580 0.257221
O O6 0.739450 0.253917 0.324672
O O7 0.779101 0.244492 0.196880
O O8 0.000000 0.278937 0.275062
O O9 0.764329 0.500000 0.241059
O O10 0.000000 0.573390 0.212387
O O11 0.500000 0.711089 0.044879
O O12 0.228867 0.753928 0.068357
O O13 0.310075 0.731969 0.947688
O O14 0.500000 0.312669 0.858154
O O15 0.758230 0.371760 0.872734
O O16 0.745855 0.630147 0.629876
O O17 0.000000 0.694114 0.625968
O O18 0.500000 0.590671 0.687368
O O19 0.290277 0.500000 0.658474
O O20 0.252113 0.592424 0.751103
O O21 0.000000 0.093225 0.309778
O O22 0.201559 0.000000 0.343315
#
# Coordination Sequence:
#
# PCOD8178524 Si02
#       8
#     8   8   8   8   8   8   8   8
#     4   9  17  32  54  78 107 143 180 219 267 322
#     4  10  19  33  56  83 106 135 178 225 272 320
#     4   8  14  28  52  80 107 132 164 210 263 317
#     4  11  24  38  52  75 110 149 187 227 274 327
#     4  11  24  38  52  74 108 150 187 223 272 325
#     4  11  21  35  58  85 109 139 183 231 274 319
#     4  10  20  34  55  83 113 144 177 218 273 330
#     4  10  20  34  53  78 108 143 184 227 269 318
#
# _framework density 17.851009999999999
#
# number of rings (size 3 to 8) (size 9 to 14) (size 15 to 20)
#    0.000    2.000    2.500    2.625    0.000    4.750 
#    0.000    2.500    0.000    1.125    0.000    3.500 
#    0.000    0.000    0.000    0.000    0.000    0.000 
#
# Total GULP energy -396778.449471 kJ/mol
# GULP energy per Si atom -12399.326546 kJ/mol
# Density = 1.781038 g / cm^3
# Si number density = 17.851010 Si / 1000 Ang^3
#
#
#
# Elastic Constant Matrix: (Units=GPa)
#
#
# Indices 1 2 3 4 5 6 
#
# 1 79.6995 47.3048 40.3962 0.0000 0.0000 0.0000
# 2 47.3048 119.3507 50.0150 0.0000 0.0000 0.0000
# 3 40.3962 50.0150 81.5942 0.0000 0.0000 0.0000
# 4 0.0000 0.0000 0.0000 22.3236 0.0000 0.0000
# 5 0.0000 0.0000 0.0000 0.0000 23.6648 0.0000
# 6 0.0000 0.0000 0.0000 0.0000 0.0000 25.5688
#
#
#
# Elastic Compliance Matrix: (Units=1/GPa)
#
#
# Indices 1 2 3 4 5 6 
#
# 1 0.018529 -0.004709 -0.006287 0.000000 0.000000 0.000000
# 2 -0.004709 0.012472 -0.005313 0.000000 0.000000 0.000000
# 3 -0.006287 -0.005313 0.018625 0.000000 0.000000 0.000000
# 4 0.000000 0.000000 0.000000 0.044796 0.000000 0.000000
# 5 0.000000 0.000000 0.000000 0.000000 0.042257 0.000000
# 6 0.000000 0.000000 0.000000 0.000000 0.000000 0.039110
#
#
# Mechanical properties :
#
#
# Convention : Reuss Voigt Hill
#
# Bulk Modulus (GPa) = 58.79926 61.78627 60.29276
# Shear Modulus (GPa) = 23.35619 23.84001 23.59810
#
# Velocity S-wave (km/s) = 3.62110 3.65841 3.63980
# Velocity P-wave (km/s) = 7.10588 7.24794 7.17726
#
# Compressibility (1/GPa) = 0.01700702
#
# Stress axis : x y z
#
# Youngs Moduli (GPa) = 53.97008 80.18047 53.69102
#
# Poissons Ratio (x) = 0.37761 0.33753
# Poissons Ratio (y) = 0.25417 0.28528
# Poissons Ratio (z) = 0.33929 0.42602
#
# Static dielectric constant tensor:
#      x y z
#    x 3.256560 0.000000 0.000000 
#    y 0.000000 3.700240 0.000000 
#    z 0.000000 0.000000 3.037890 
# 
# 
# High freq. dielectric constant tensor:
#      x y z
#    x 1.688300 0.000000 0.000000 
#    y 0.000000 1.699160 0.000000 
#    z 0.000000 0.000000 1.661420 
# 
# From -- ./inp_files/20199.got.cif
#   From: 2010.03.12/outbox.cif.g09.slc.cpg/sg38_11_cif.got.tgz:20199.got - 2010.04.14 02:38:36.
