data_PCOD8178575
_publ_section_title
;
Structure prediction by ZEFSAII (Michael W. Deem and Ramdas Pophale) SiO2 
 PCOD8178575
Probable space group: A M M 2
;
_chemical_formula_sum "Si O2"
_cell_formula_units_Z 64
_cell_length_a 9.150033
_cell_length_b 24.737097
_cell_length_c 15.052568
_cell_angle_alpha 90.000000
_cell_angle_beta 90.000000
_cell_angle_gamma 90.000000
_cell_volume 3407.077325
_symmetry_space_group_name_H-M "A M M 2"
_symmetry_group_IT_number 38
_symmetry_cell_setting 'orthorhombic'
loop_
_space_group_symop_operation_xyz
x,y,z
-x,-y,z
-x,y,z
x,-y,z
x,1/2+y,1/2+z
-x,1/2-y,1/2+z
-x,1/2+y,1/2+z
x,1/2-y,1/2+z
loop_
_atom_site_type_symbol
_atom_site_label
_atom_site_fract_x
_atom_site_fract_y
_atom_site_fract_z
Si Si1 0.331919 0.860159 0.394390
Si Si2 0.830198 0.715737 0.604845
Si Si3 0.674047 0.439269 0.742928
Si Si4 0.166773 0.336206 0.063689
Si Si5 0.332999 0.562372 0.375168
Si Si6 0.330403 0.613979 0.560919
Si Si7 0.172741 0.350622 0.264596
Si Si8 0.330120 0.242955 0.282117
O O1 0.500000 0.874257 0.408118
O O2 0.264436 0.901983 0.322638
O O3 0.256540 0.868252 0.489440
O O4 0.309769 0.798622 0.362786
O O5 0.808522 0.772006 0.553461
O O6 0.763407 0.668247 0.544403
O O7 0.742823 0.715728 0.696800
O O8 0.000000 0.705389 0.625346
O O9 0.500000 0.438780 0.742784
O O10 0.734463 0.500000 0.755451
O O11 0.728906 0.416127 0.648685
O O12 0.218417 0.354898 0.161327
O O13 0.000000 0.352020 0.048774
O O14 0.500000 0.576818 0.350322
O O15 0.298996 0.500000 0.357931
O O16 0.303717 0.574619 0.478269
O O17 0.223609 0.595492 0.313230
O O18 0.500000 0.630033 0.570599
O O19 0.251883 0.298912 0.308583
O O20 0.000000 0.342296 0.274613
O O21 0.500000 0.253825 0.262023
#
# Coordination Sequence:
#
# PCOD8178575 Si02
#       8
#     8   8   8   8   8   8   8   8
#     4  10  20  33  54  85 112 143 187 231 279 331
#     4  10  20  34  52  80 114 151 188 225 276 338
#     4   9  17  33  56  81 112 147 183 224 272 331
#     4   9  21  38  54  76 110 150 188 228 280 338
#     4  10  22  39  60  87 114 146 194 245 291 338
#     4  10  19  34  56  83 114 150 186 227 279 338
#     4  10  22  40  59  81 111 151 193 234 291 349
#     4  10  19  34  55  83 114 145 185 233 282 337
#
# _framework density 18.784428999999999
#
# number of rings (size 3 to 8) (size 9 to 14) (size 15 to 20)
#    0.000    2.250    1.250    2.250    1.750    6.250 
#    0.000    0.625    0.000    4.500    0.000    0.000 
#    0.000    0.000    0.000    0.000    0.000    0.000 
#
# Total GULP energy -396857.414160 kJ/mol
# GULP energy per Si atom -12401.794193 kJ/mol
# Density = 1.874167 g / cm^3
# Si number density = 18.784429 Si / 1000 Ang^3
#
#
#
# Elastic Constant Matrix: (Units=GPa)
#
#
# Indices 1 2 3 4 5 6 
#
# 1 75.3881 42.2888 44.3991 0.0000 0.0000 0.0000
# 2 42.2888 109.1485 54.3138 0.0000 0.0000 0.0000
# 3 44.3991 54.3138 104.0564 0.0000 0.0000 0.0000
# 4 0.0000 0.0000 0.0000 28.5190 0.0000 0.0000
# 5 0.0000 0.0000 0.0000 0.0000 23.1197 0.0000
# 6 0.0000 0.0000 0.0000 0.0000 0.0000 15.7651
#
#
#
# Elastic Compliance Matrix: (Units=1/GPa)
#
#
# Indices 1 2 3 4 5 6 
#
# 1 0.019260 -0.004556 -0.005840 0.000000 0.000000 0.000000
# 2 -0.004556 0.013454 -0.005079 0.000000 0.000000 0.000000
# 3 -0.005840 -0.005079 0.014753 0.000000 0.000000 0.000000
# 4 0.000000 0.000000 0.000000 0.035064 0.000000 0.000000
# 5 0.000000 0.000000 0.000000 0.000000 0.043253 0.000000
# 6 0.000000 0.000000 0.000000 0.000000 0.000000 0.063431
#
#
# Mechanical properties :
#
#
# Convention : Reuss Voigt Hill
#
# Bulk Modulus (GPa) = 60.54061 63.39961 61.97011
# Shear Modulus (GPa) = 22.15625 23.32018 22.73822
#
# Velocity S-wave (km/s) = 3.43811 3.52726 3.48297
# Velocity P-wave (km/s) = 6.93253 7.10023 7.01688
#
# Compressibility (1/GPa) = 0.01651784
#
# Stress axis : x y z
#
# Youngs Moduli (GPa) = 51.92211 74.32588 67.78414
#
# Poissons Ratio (x) = 0.33864 0.39583
# Poissons Ratio (y) = 0.23656 0.34425
# Poissons Ratio (z) = 0.30321 0.37747
#
# Static dielectric constant tensor:
#      x y z
#    x 3.304650 0.000000 0.000000 
#    y 0.000000 3.444940 0.000000 
#    z 0.000000 0.000000 3.349250 
# 
# 
# High freq. dielectric constant tensor:
#      x y z
#    x 1.715810 0.000000 0.000000 
#    y 0.000000 1.722980 0.000000 
#    z 0.000000 0.000000 1.726920 
# 
# From -- ./inp_files/12763.got.cif
#   From: 2010.03.12/outbox.cif.g09.slc.cpg/sg38_7_cif.got.tgz:12763.got - 2010.04.14 02:38:36.
