data_PCOD8178849
_publ_section_title
;
Structure prediction by ZEFSAII (Michael W. Deem and Ramdas Pophale) SiO2 
 PCOD8178849
Probable space group: A M M 2
;
_chemical_formula_sum "Si O2"
_cell_formula_units_Z 64
_cell_length_a 18.527293
_cell_length_b 9.085959
_cell_length_c 20.894625
_cell_angle_alpha 90.000000
_cell_angle_beta 90.000000
_cell_angle_gamma 90.000000
_cell_volume 3517.364076
_symmetry_space_group_name_H-M "A M M 2"
_symmetry_group_IT_number 38
_symmetry_cell_setting 'orthorhombic'
loop_
_space_group_symop_operation_xyz
x,y,z
-x,-y,z
-x,y,z
x,-y,z
x,1/2+y,1/2+z
-x,1/2-y,1/2+z
-x,1/2+y,1/2+z
x,1/2-y,1/2+z
loop_
_atom_site_type_symbol
_atom_site_label
_atom_site_fract_x
_atom_site_fract_y
_atom_site_fract_z
Si Si1 0.085805 0.166683 0.522920
Si Si2 0.585219 0.339878 0.525319
Si Si3 0.916272 0.828810 0.149054
Si Si4 0.328399 0.328711 0.780365
Si Si5 0.419096 0.175957 0.161567
Si Si6 0.915934 0.827684 0.895876
Si Si7 0.581682 0.675852 0.387359
Si Si8 0.840224 0.328930 0.779085
O O1 0.115098 0.242100 0.587731
O O2 0.114502 0.252171 0.460403
O O3 0.000000 0.174068 0.523746
O O4 0.114374 0.000000 0.520043
O O5 0.500000 0.362447 0.528081
O O6 0.623006 0.500000 0.524011
O O7 0.607268 0.258636 0.592079
O O8 0.603766 0.259739 0.458043
O O9 0.873720 0.776534 0.211892
O O10 0.000000 0.792581 0.160648
O O11 0.903826 0.000000 0.135216
O O12 0.345960 0.500000 0.789526
O O13 0.364823 0.266813 0.715689
O O14 0.360819 0.241355 0.839372
O O15 0.244226 0.297419 0.776189
O O16 0.500000 0.230837 0.178519
O O17 0.418072 0.000000 0.156724
O O18 0.873729 0.765932 0.835449
O O19 0.000000 0.791443 0.886302
O O20 0.901660 0.000000 0.902032
O O21 0.500000 0.725321 0.369380
O O22 0.586287 0.500000 0.387758
O O23 0.857839 0.500000 0.791527
#
# Coordination Sequence:
#
# PCOD8178849 Si02
#       8
#     8   8   8   8   8   8   8   8
#     4   9  17  30  51  78 104 128 157 198 249 302
#     4   7  11  22  42  67  91 116 153 200 241 278
#     4   9  17  31  51  72  96 129 168 208 249 295
#     4  10  20  32  47  70 100 131 163 200 241 289
#     4   8  13  24  45  70  92 117 154 198 238 276
#     4  10  20  34  54  78 100 125 164 212 255 298
#     4   9  17  30  49  72  97 126 161 202 248 295
#     4  10  21  35  49  69 102 140 172 206 251 299
#
# _framework density 18.195443000000001
#
# number of rings (size 3 to 8) (size 9 to 14) (size 15 to 20)
#    0.000    3.000    0.000    3.000    0.000    4.500 
#    0.000    2.500    0.000    3.750    0.000    1.750 
#    0.000    0.000    0.000    0.000    0.000    0.000 
#
# Total GULP energy -396573.943881 kJ/mol
# GULP energy per Si atom -12392.935746 kJ/mol
# Density = 1.815403 g / cm^3
# Si number density = 18.195443 Si / 1000 Ang^3
#
#
#
# Elastic Constant Matrix: (Units=GPa)
#
#
# Indices 1 2 3 4 5 6 
#
# 1 64.9152 32.7146 64.0387 0.0000 0.0000 0.0000
# 2 32.7146 56.7006 58.9933 0.0000 0.0000 0.0000
# 3 64.0387 58.9933 196.0317 0.0000 0.0000 0.0000
# 4 0.0000 0.0000 0.0000 29.9348 0.0000 0.0000
# 5 0.0000 0.0000 0.0000 0.0000 -0.0015 0.0000
# 6 0.0000 0.0000 0.0000 0.0000 0.0000 15.6269
#
#
#
# Elastic Compliance Matrix: (Units=1/GPa)
#
#
# Indices 1 2 3 4 5 6 
#
# 1 0.025409 -0.008770 -0.005661 0.000000 0.000000 0.000000
# 2 -0.008770 0.028703 -0.005773 0.000000 0.000000 0.000000
# 3 -0.005661 -0.005773 0.008688 0.000000 0.000000 0.000000
# 4 0.000000 0.000000 0.000000 0.033406 0.000000 0.000000
# 5 0.000000 0.000000 0.000000 0.000000********** 0.000000
# 6 0.000000 0.000000 0.000000 0.000000 0.000000 0.063992
#
#
# Mechanical properties :
#
#
# Convention : Reuss Voigt Hill
#
# Bulk Modulus (GPa) = 44.65983 69.90451 57.28217
# Shear Modulus (GPa) = -0.00773 19.90542 9.94884
#
# Velocity S-wave (km/s) = -0.06526 3.31112 2.34086
# Velocity P-wave (km/s) = 4.95904 7.28836 6.23347
#
# Compressibility (1/GPa) = 0.02239149
#
# Stress axis : x y z
#
# Youngs Moduli (GPa) = 39.35537 34.83977 115.10306
#
# Poissons Ratio (x) = 0.30555 0.65164
# Poissons Ratio (y) = 0.34516 0.66446
# Poissons Ratio (z) = 0.22280 0.20112
#
# Static dielectric constant tensor:
#      x y z
#    x 3.074440 0.000000 0.000000 
#    y 0.000000 3.069880 0.000000 
#    z 0.000000 0.000000 3.846460 
# 
# 
# High freq. dielectric constant tensor:
#      x y z
#    x 1.670670 0.000000 0.000000 
#    y 0.000000 1.671920 0.000000 
#    z 0.000000 0.000000 1.731030 
# 
# From -- ./inp_files/21398.got.cif
#   From: 2010.03.12/outbox.cif.g09.slc.cpg/sg38_11_cif.got.tgz:21398.got - 2010.04.14 02:38:36.
