data_PCOD8178344
_publ_section_title
;
Structure prediction by ZEFSAII (Michael W. Deem and Ramdas Pophale) SiO2 
 PCOD8178344
Probable space group: A M M 2
;
_chemical_formula_sum "Si O2"
_cell_formula_units_Z 64
_cell_length_a 33.483499
_cell_length_b 17.664760
_cell_length_c 5.142856
_cell_angle_alpha 90.000000
_cell_angle_beta 90.000000
_cell_angle_gamma 90.000000
_cell_volume 3041.886046
_symmetry_space_group_name_H-M "A M M 2"
_symmetry_group_IT_number 38
_symmetry_cell_setting 'orthorhombic'
loop_
_space_group_symop_operation_xyz
x,y,z
-x,-y,z
-x,y,z
x,-y,z
x,1/2+y,1/2+z
-x,1/2-y,1/2+z
-x,1/2+y,1/2+z
x,1/2-y,1/2+z
loop_
_atom_site_type_symbol
_atom_site_label
_atom_site_fract_x
_atom_site_fract_y
_atom_site_fract_z
Si Si1 0.298465 0.910408 0.483950
Si Si2 0.410748 0.198502 0.894804
Si Si3 0.954211 0.798597 0.488755
Si Si4 0.253108 0.909462 0.981398
Si Si5 0.836390 0.410260 0.436487
Si Si6 0.619925 0.586766 0.751118
Si Si7 0.544445 0.085625 0.614168
Si Si8 0.884483 0.410319 0.934982
O O1 0.271513 0.878620 0.248796
O O2 0.344643 0.886131 0.443062
O O3 0.295021 0.000000 0.490222
O O4 0.280972 0.876644 0.750456
O O5 0.408368 0.238147 0.615476
O O6 0.449925 0.144590 0.855093
O O7 0.377529 0.136318 0.984271
O O8 0.944463 0.737674 0.266788
O O9 0.927882 0.873271 0.452813
O O10 0.000000 0.825380 0.470065
O O11 0.208362 0.876987 0.950817
O O12 0.252740 0.000000 0.974801
O O13 0.833974 0.500000 0.447195
O O14 0.856997 0.382766 0.172547
O O15 0.862477 0.380670 0.677182
O O16 0.626287 0.500000 0.667188
O O17 0.577509 0.601356 0.891899
O O18 0.500000 0.097041 0.496702
O O19 0.549595 0.000000 0.721728
O O20 0.890967 0.500000 0.935976
#
# Coordination Sequence:
#
# PCOD8178344 Si02
#       8
#     8   8   8   8   8   8   8   8
#     4   9  18  29  51  83 117 150 187 235 287 337
#     4  12  25  44  64  91 123 159 198 240 288 343
#     4  10  21  37  55  77 109 149 192 239 290 344
#     4   9  16  28  46  78 117 151 181 227 293 347
#     4   9  17  29  48  77 117 149 181 232 293 351
#     4  10  22  41  67  96 127 159 202 252 296 353
#     4  10  23  44  68  93 125 163 199 243 300 353
#     4  10  19  32  53  81 110 147 189 237 290 342
#
# _framework density 21.039580000000001
#
# number of rings (size 3 to 8) (size 9 to 14) (size 15 to 20)
#    0.000    2.125    1.250    1.875    1.750    4.250 
#    0.000    1.250    0.000    4.500    0.000   17.500 
#    0.000    0.000    0.000    0.000    0.000    0.000 
#
# Total GULP energy -396511.122078 kJ/mol
# GULP energy per Si atom -12390.972565 kJ/mol
# Density = 2.099169 g / cm^3
# Si number density = 21.039580 Si / 1000 Ang^3
#
#
#
# Elastic Constant Matrix: (Units=GPa)
#
#
# Indices 1 2 3 4 5 6 
#
# 1 108.8103 13.7053 8.7635 0.0000 0.0000 0.0000
# 2 13.7053 49.0452 4.0259 0.0000 0.0000 0.0000
# 3 8.7635 4.0259 82.4459 0.0000 0.0000 0.0000
# 4 0.0000 0.0000 0.0000 22.0527 0.0000 0.0000
# 5 0.0000 0.0000 0.0000 0.0000 35.4942 0.0000
# 6 0.0000 0.0000 0.0000 0.0000 0.0000 10.8722
#
#
#
# Elastic Compliance Matrix: (Units=1/GPa)
#
#
# Indices 1 2 3 4 5 6 
#
# 1 0.009590 -0.002607 -0.000892 0.000000 0.000000 0.000000
# 2 -0.002607 0.021180 -0.000757 0.000000 0.000000 0.000000
# 3 -0.000892 -0.000757 0.012261 0.000000 0.000000 0.000000
# 4 0.000000 0.000000 0.000000 0.045346 0.000000 0.000000
# 5 0.000000 0.000000 0.000000 0.000000 0.028174 0.000000
# 6 0.000000 0.000000 0.000000 0.000000 0.000000 0.091978
#
#
# Mechanical properties :
#
#
# Convention : Reuss Voigt Hill
#
# Bulk Modulus (GPa) = 28.96927 32.58787 30.77857
# Shear Modulus (GPa) = 21.87731 27.93759 24.90745
#
# Velocity S-wave (km/s) = 3.22812 3.64793 3.44443
# Velocity P-wave (km/s) = 5.26243 5.76764 5.52082
#
# Compressibility (1/GPa) = 0.03451933
#
# Stress axis : x y z
#
# Youngs Moduli (GPa) = 104.26996 47.21445 81.55966
#
# Poissons Ratio (x) = 0.12308 0.07276
# Poissons Ratio (y) = 0.27181 0.06175
# Poissons Ratio (z) = 0.09302 0.03575
#
# Static dielectric constant tensor:
#      x y z
#    x 3.895740 0.000000 0.000000 
#    y 0.000000 3.592090 0.000000 
#    z 0.000000 0.000000 4.019410 
# 
# 
# High freq. dielectric constant tensor:
#      x y z
#    x 1.822300 0.000000 0.000000 
#    y 0.000000 1.787160 0.000000 
#    z 0.000000 0.000000 1.835700 
# 
# From -- ./inp_files/2319.got.cif
#   From: 2010.03.12/outbox.cif.g09.slc.cpg/sg38_2_cif.got.tgz:2319.got - 2010.04.14 02:38:36.
