data_PCOD8178272
_publ_section_title
;
Structure prediction by ZEFSAII (Michael W. Deem and Ramdas Pophale) SiO2 
 PCOD8178272
Probable space group: A M M 2
;
_chemical_formula_sum "Si O2"
_cell_formula_units_Z 56
_cell_length_a 9.564961
_cell_length_b 14.258361
_cell_length_c 22.877052
_cell_angle_alpha 90.000000
_cell_angle_beta 90.000000
_cell_angle_gamma 90.000000
_cell_volume 3119.987608
_symmetry_space_group_name_H-M "A M M 2"
_symmetry_group_IT_number 38
_symmetry_cell_setting 'orthorhombic'
loop_
_space_group_symop_operation_xyz
x,y,z
-x,-y,z
-x,y,z
x,-y,z
x,1/2+y,1/2+z
-x,1/2-y,1/2+z
-x,1/2+y,1/2+z
x,1/2-y,1/2+z
loop_
_atom_site_type_symbol
_atom_site_label
_atom_site_fract_x
_atom_site_fract_y
_atom_site_fract_z
Si Si1 0.660335 0.895452 0.474190
Si Si2 0.338663 0.705225 0.423192
Si Si3 0.836106 0.792138 0.703401
Si Si4 0.165606 0.102360 0.152296
Si Si5 0.158735 0.109142 0.021515
Si Si6 0.335972 0.890498 0.804274
Si Si7 0.159258 0.892212 0.584500
O O1 0.500000 0.897758 0.494172
O O2 0.682149 0.818766 0.422745
O O3 0.747682 0.861233 0.529958
O O4 0.707490 0.000000 0.452870
O O5 0.500000 0.677678 0.431891
O O6 0.254950 0.663756 0.476863
O O7 0.283960 0.662037 0.362630
O O8 0.792547 0.681998 0.699422
O O9 0.746773 0.844175 0.751603
O O10 0.796093 0.834412 0.640949
O O11 0.000000 0.805525 0.717523
O O12 0.000000 0.096525 0.147289
O O13 0.224534 0.000000 0.172287
O O14 0.218294 0.127494 0.086914
O O15 0.000000 0.146416 0.015586
O O16 0.165257 0.000000 0.006270
O O17 0.500000 0.875449 0.793543
O O18 0.298082 0.000000 0.809121
O O19 0.000000 0.871135 0.567050
O O20 0.183529 0.000000 0.600361
#
# Coordination Sequence:
#
# PCOD8178272 Si02
#       7
#     8   8   8   8   8   8   8
#     4   9  18  32  50  73  99 127 161 198 236 284
#     4  10  20  34  51  70  96 131 165 198 240 286
#     4  10  19  32  52  74  96 127 166 203 236 277
#     4   8  15  29  49  74 103 130 155 190 241 293
#     4   9  17  30  51  78 103 127 157 194 238 289
#     4  10  22  38  52  68  95 129 161 197 244 292
#     4   9  17  29  47  73 102 128 156 196 245 289
#
# _framework density 17.948789000000001
#
# number of rings (size 3 to 8) (size 9 to 14) (size 15 to 20)
#    0.000    2.714    0.000    2.571    0.000    4.571 
#    0.000    2.857    0.000    2.143    0.000    0.000 
#    0.000    0.000    0.000    0.000    0.000    0.000 
#
# Total GULP energy -347080.860800 kJ/mol
# GULP energy per Si atom -12395.745029 kJ/mol
# Density = 1.790794 g / cm^3
# Si number density = 17.948789 Si / 1000 Ang^3
#
#
#
# Elastic Constant Matrix: (Units=GPa)
#
#
# Indices 1 2 3 4 5 6 
#
# 1 42.7748 43.3415 37.5356 0.0000 0.0000 0.0000
# 2 43.3415 129.6614 82.5882 0.0000 0.0000 0.0000
# 3 37.5356 82.5882 80.7089 0.0000 0.0000 0.0000
# 4 0.0000 0.0000 0.0000 30.8818 0.0000 0.0000
# 5 0.0000 0.0000 0.0000 0.0000 30.4486 0.0000
# 6 0.0000 0.0000 0.0000 0.0000 0.0000 21.9619
#
#
#
# Elastic Compliance Matrix: (Units=1/GPa)
#
#
# Indices 1 2 3 4 5 6 
#
# 1 0.040356 -0.004408 -0.014258 0.000000 0.000000 0.000000
# 2 -0.004408 0.022630 -0.021107 0.000000 0.000000 0.000000
# 3 -0.014258 -0.021107 0.040619 0.000000 0.000000 0.000000
# 4 0.000000 0.000000 0.000000 0.032382 0.000000 0.000000
# 5 0.000000 0.000000 0.000000 0.000000 0.032842 0.000000
# 6 0.000000 0.000000 0.000000 0.000000 0.000000 0.045533
#
#
# Mechanical properties :
#
#
# Convention : Reuss Voigt Hill
#
# Bulk Modulus (GPa) = 41.56260 64.45287 53.00773
# Shear Modulus (GPa) = 16.56024 22.63711 19.59868
#
# Velocity S-wave (km/s) = 3.04079 3.55520 3.30801
# Velocity P-wave (km/s) = 5.96113 7.26910 6.64736
#
# Compressibility (1/GPa) = 0.02406009
#
# Stress axis : x y z
#
# Youngs Moduli (GPa) = 24.77929 44.18932 24.61884
#
# Poissons Ratio (x) = 0.19480 0.35101
# Poissons Ratio (y) = 0.10923 0.51962
# Poissons Ratio (z) = 0.35330 0.93269
#
# Static dielectric constant tensor:
#      x y z
#    x 3.158890 0.000000 0.000000 
#    y 0.000000 3.857680 0.000000 
#    z 0.000000 0.000000 3.213790 
# 
# 
# High freq. dielectric constant tensor:
#      x y z
#    x 1.673820 0.000000 0.000000 
#    y 0.000000 1.717830 0.000000 
#    z 0.000000 0.000000 1.671070 
# 
# From -- ./inp_files/19775.got.cif
#   From: 2010.03.12/outbox.cif.g09.slc.cpg/sg38_10_cif.got.tgz:19775.got - 2010.04.14 02:38:36.
