data_PCOD8178927
_publ_section_title
;
Structure prediction by ZEFSAII (Michael W. Deem and Ramdas Pophale) SiO2 
 PCOD8178927
Probable space group: A M M 2
;
_chemical_formula_sum "Si O2"
_cell_formula_units_Z 64
_cell_length_a 20.035012
_cell_length_b 14.311484
_cell_length_c 11.930635
_cell_angle_alpha 90.000000
_cell_angle_beta 90.000000
_cell_angle_gamma 90.000000
_cell_volume 3420.879965
_symmetry_space_group_name_H-M "A M M 2"
_symmetry_group_IT_number 38
_symmetry_cell_setting 'orthorhombic'
loop_
_space_group_symop_operation_xyz
x,y,z
-x,-y,z
-x,y,z
x,-y,z
x,1/2+y,1/2+z
-x,1/2-y,1/2+z
-x,1/2+y,1/2+z
x,1/2-y,1/2+z
loop_
_atom_site_type_symbol
_atom_site_label
_atom_site_fract_x
_atom_site_fract_y
_atom_site_fract_z
Si Si1 0.662511 0.604603 0.995220
Si Si2 0.426349 0.896162 0.705486
Si Si3 0.648817 0.764681 0.847141
Si Si4 0.190225 0.890620 0.418804
Si Si5 0.927137 0.607676 0.078043
Si Si6 0.755327 0.608036 0.473309
Si Si7 0.172783 0.895221 0.755263
Si Si8 0.763983 0.210925 0.205025
O O1 0.649112 0.500000 0.948966
O O2 0.621418 0.681119 0.924483
O O3 0.741131 0.630038 0.986903
O O4 0.634872 0.614363 0.120018
O O5 0.500000 0.878447 0.652174
O O6 0.414833 0.821437 0.803531
O O7 0.423815 0.000000 0.757299
O O8 0.687367 0.711881 0.745513
O O9 0.695392 0.836649 0.915140
O O10 0.128257 0.851004 0.492295
O O11 0.189780 0.836297 0.300843
O O12 0.183070 0.000000 0.393970
O O13 0.935388 0.500000 0.047792
O O14 0.902476 0.618534 0.207900
O O15 0.000000 0.657023 0.065364
O O16 0.734961 0.500000 0.491876
O O17 0.819938 0.615590 0.390095
O O18 0.774044 0.654014 0.591121
O O19 0.216798 0.819319 0.689445
O O20 0.198040 0.000000 0.719454
#
# Coordination Sequence:
#
# PCOD8178927 Si02
#       8
#     8   8   8   8   8   8   8   8
#     4   9  19  34  54  81 109 138 177 222 275 323
#     4  10  21  36  54  77 106 140 180 225 269 317
#     4  10  20  33  52  79 106 142 178 220 266 320
#     4   9  18  32  55  83 109 140 178 228 275 319
#     4   9  18  33  54  78 105 141 185 228 274 326
#     4  10  20  33  51  79 110 142 176 219 274 326
#     4   9  20  33  51  75 102 138 177 218 266 318
#     4  10  20  32  54  78 111 137 177 221 271 326
#
# _framework density 18.708635999999998
#
# number of rings (size 3 to 8) (size 9 to 14) (size 15 to 20)
#    0.000    2.500    0.000    1.500    8.750    1.500 
#    0.000    0.625    0.000    0.750    0.000    3.500 
#    0.000    0.000    0.000    0.000    0.000    0.000 
#
# Total GULP energy -396443.150135 kJ/mol
# GULP energy per Si atom -12388.848442 kJ/mol
# Density = 1.866605 g / cm^3
# Si number density = 18.708636 Si / 1000 Ang^3
#
#
#
# Elastic Constant Matrix: (Units=GPa)
#
#
# Indices 1 2 3 4 5 6 
#
# 1 81.5205 31.7294 48.3044 0.0000 0.0000 0.0000
# 2 31.7294 108.6667 52.4067 0.0000 0.0000 0.0000
# 3 48.3044 52.4067 108.6937 0.0000 0.0000 0.0000
# 4 0.0000 0.0000 0.0000 35.8699 0.0000 0.0000
# 5 0.0000 0.0000 0.0000 0.0000 15.6696 0.0000
# 6 0.0000 0.0000 0.0000 0.0000 0.0000 16.9927
#
#
#
# Elastic Compliance Matrix: (Units=1/GPa)
#
#
# Indices 1 2 3 4 5 6 
#
# 1 0.016892 -0.001709 -0.006683 0.000000 0.000000 0.000000
# 2 -0.001709 0.012164 -0.005105 0.000000 0.000000 0.000000
# 3 -0.006683 -0.005105 0.014631 0.000000 0.000000 0.000000
# 4 0.000000 0.000000 0.000000 0.027879 0.000000 0.000000
# 5 0.000000 0.000000 0.000000 0.000000 0.063818 0.000000
# 6 0.000000 0.000000 0.000000 0.000000 0.000000 0.058849
#
#
# Mechanical properties :
#
#
# Convention : Reuss Voigt Hill
#
# Bulk Modulus (GPa) = 59.90644 62.64019 61.27331
# Shear Modulus (GPa) = 22.04676 24.80246 23.42461
#
# Velocity S-wave (km/s) = 3.43655 3.64500 3.54231
# Velocity P-wave (km/s) = 6.91641 7.16026 7.03939
#
# Compressibility (1/GPa) = 0.01669270
#
# Stress axis : x y z
#
# Youngs Moduli (GPa) = 59.19959 82.21279 68.34609
#
# Poissons Ratio (x) = 0.14053 0.45674
# Poissons Ratio (y) = 0.10119 0.34891
# Poissons Ratio (z) = 0.39562 0.41970
#
# Static dielectric constant tensor:
#      x y z
#    x 3.341550 0.000000 0.000000 
#    y 0.000000 3.703250 0.000000 
#    z 0.000000 0.000000 3.428560 
# 
# 
# High freq. dielectric constant tensor:
#      x y z
#    x 1.689250 0.000000 0.000000 
#    y 0.000000 1.736440 0.000000 
#    z 0.000000 0.000000 1.718400 
# 
# From -- ./inp_files/10596.got.cif
#   From: 2010.03.12/outbox.cif.g09.slc.cpg/sg38_6_cif.got.tgz:10596.got - 2010.04.14 02:38:36.
