data_PCOD8178082
_publ_section_title
;
Structure prediction by ZEFSAII (Michael W. Deem and Ramdas Pophale) SiO2 
 PCOD8178082
Probable space group: A M M 2
;
_chemical_formula_sum "Si O2"
_cell_formula_units_Z 56
_cell_length_a 8.941604
_cell_length_b 18.348040
_cell_length_c 20.381291
_cell_angle_alpha 90.000000
_cell_angle_beta 90.000000
_cell_angle_gamma 90.000000
_cell_volume 3343.773105
_symmetry_space_group_name_H-M "A M M 2"
_symmetry_group_IT_number 38
_symmetry_cell_setting 'orthorhombic'
loop_
_space_group_symop_operation_xyz
x,y,z
-x,-y,z
-x,y,z
x,-y,z
x,1/2+y,1/2+z
-x,1/2-y,1/2+z
-x,1/2+y,1/2+z
x,1/2-y,1/2+z
loop_
_atom_site_type_symbol
_atom_site_label
_atom_site_fract_x
_atom_site_fract_y
_atom_site_fract_z
Si Si1 0.823153 0.655029 0.603980
Si Si2 0.173056 0.653134 0.356056
Si Si3 0.325320 0.417545 0.726303
Si Si4 0.666105 0.781371 0.299938
Si Si5 0.333112 0.710734 0.157476
Si Si6 0.674195 0.414710 0.479737
Si Si7 0.826199 0.417532 0.216388
O O1 0.766216 0.602479 0.661559
O O2 0.761166 0.737269 0.609630
O O3 0.771580 0.623094 0.535222
O O4 0.000000 0.658228 0.606935
O O5 0.219012 0.738156 0.346516
O O6 0.276624 0.617315 0.410342
O O7 0.206258 0.608861 0.290006
O O8 0.000000 0.649453 0.376645
O O9 0.500000 0.407171 0.708881
O O10 0.287858 0.500000 0.747132
O O11 0.282617 0.365417 0.788171
O O12 0.500000 0.777757 0.331236
O O13 0.664483 0.746049 0.228625
O O14 0.500000 0.702516 0.128958
O O15 0.259474 0.630958 0.162586
O O16 0.500000 0.398496 0.491527
O O17 0.708494 0.500000 0.480399
O O18 0.768271 0.500000 0.209584
O O19 0.000000 0.411083 0.200478
#
# Coordination Sequence:
#
# PCOD8178082 Si02
#       7
#     8   8   8   8   8   8   8
#     4  11  21  32  47  67  93 124 157 192 231 276
#     4  10  19  31  47  67  93 124 157 192 228 269
#     4   9  17  30  48  70  96 124 154 190 231 273
#     4   8  15  28  45  65  90 121 154 187 226 272
#     4   9  17  30  47  66  90 121 157 193 229 274
#     4  11  23  36  49  66  91 124 159 192 226 269
#     4   9  17  29  46  70  99 126 152 189 236 278
#
# _framework density 16.747547999999998
#
# number of rings (size 3 to 8) (size 9 to 14) (size 15 to 20)
#    0.000    2.429    0.000    4.286    0.000    8.000 
#    0.000    0.000    0.000    0.000    0.000    1.000 
#    0.000    5.714    0.000    0.000    0.000    0.000 
#
# Total GULP energy -347163.522282 kJ/mol
# GULP energy per Si atom -12398.697224 kJ/mol
# Density = 1.670943 g / cm^3
# Si number density = 16.747548 Si / 1000 Ang^3
#
#
#
# Elastic Constant Matrix: (Units=GPa)
#
#
# Indices 1 2 3 4 5 6 
#
# 1 90.9331 58.0748 33.7183 0.0000 0.0000 0.0000
# 2 58.0748 149.8542 40.8368 0.0000 0.0000 0.0000
# 3 33.7183 40.8368 40.2115 0.0000 0.0000 0.0000
# 4 0.0000 0.0000 0.0000 24.0650 0.0000 0.0000
# 5 0.0000 0.0000 0.0000 0.0000 24.6402 0.0000
# 6 0.0000 0.0000 0.0000 0.0000 0.0000 25.9234
#
#
#
# Elastic Compliance Matrix: (Units=1/GPa)
#
#
# Indices 1 2 3 4 5 6 
#
# 1 0.017416 -0.003830 -0.010714 0.000000 0.000000 0.000000
# 2 -0.003830 0.010069 -0.007014 0.000000 0.000000 0.000000
# 3 -0.010714 -0.007014 0.040976 0.000000 0.000000 0.000000
# 4 0.000000 0.000000 0.000000 0.041554 0.000000 0.000000
# 5 0.000000 0.000000 0.000000 0.000000 0.040584 0.000000
# 6 0.000000 0.000000 0.000000 0.000000 0.000000 0.038575
#
#
# Mechanical properties :
#
#
# Convention : Reuss Voigt Hill
#
# Bulk Modulus (GPa) = 39.45667 60.69542 50.07604
# Shear Modulus (GPa) = 20.76945 24.81698 22.79322
#
# Velocity S-wave (km/s) = 3.52540 3.85363 3.69316
# Velocity P-wave (km/s) = 6.33893 7.49137 6.93912
#
# Compressibility (1/GPa) = 0.02534426
#
# Stress axis : x y z
#
# Youngs Moduli (GPa) = 57.41904 99.31799 24.40455
#
# Poissons Ratio (x) = 0.38034 0.26148
# Poissons Ratio (y) = 0.21989 0.17118
# Poissons Ratio (z) = 0.61522 0.69662
#
# Static dielectric constant tensor:
#      x y z
#    x 3.240310 0.000000 0.000000 
#    y 0.000000 3.526730 0.000000 
#    z 0.000000 0.000000 2.806070 
# 
# 
# High freq. dielectric constant tensor:
#      x y z
#    x 1.654180 0.000000 0.000000 
#    y 0.000000 1.652470 0.000000 
#    z 0.000000 0.000000 1.600370 
# 
# From -- ./inp_files/17068.got.cif
#   From: 2010.03.12/outbox.cif.g09.slc.cpg/sg38_9_cif.got.tgz:17068.got - 2010.04.14 02:38:36.
