data_PCOD8178723
_publ_section_title
;
Structure prediction by ZEFSAII (Michael W. Deem and Ramdas Pophale) SiO2 
 PCOD8178723
Probable space group: A M M 2
;
_chemical_formula_sum "Si O2"
_cell_formula_units_Z 48
_cell_length_a 8.595407
_cell_length_b 27.541432
_cell_length_c 9.941244
_cell_angle_alpha 90.000000
_cell_angle_beta 90.000000
_cell_angle_gamma 90.000000
_cell_volume 2353.388877
_symmetry_space_group_name_H-M "A M M 2"
_symmetry_group_IT_number 38
_symmetry_cell_setting 'orthorhombic'
loop_
_space_group_symop_operation_xyz
x,y,z
-x,-y,z
-x,y,z
x,-y,z
x,1/2+y,1/2+z
-x,1/2-y,1/2+z
-x,1/2+y,1/2+z
x,1/2-y,1/2+z
loop_
_atom_site_type_symbol
_atom_site_label
_atom_site_fract_x
_atom_site_fract_y
_atom_site_fract_z
Si Si1 0.176728 0.445451 0.658670
Si Si2 0.316903 0.295149 0.786830
Si Si3 0.184269 0.613291 0.409778
Si Si4 0.816175 0.780987 0.991682
Si Si5 0.816370 0.944954 0.656416
Si Si6 0.679741 0.899483 0.397422
O O1 0.180828 0.500000 0.604233
O O2 0.249951 0.411777 0.543671
O O3 0.284653 0.441123 0.789111
O O4 0.000000 0.430053 0.695563
O O5 0.500000 0.292333 0.761325
O O6 0.270493 0.260683 0.909986
O O7 0.232242 0.280664 0.648305
O O8 0.264275 0.348642 0.833583
O O9 0.233906 0.669418 0.416182
O O10 0.255343 0.585038 0.281943
O O11 0.000000 0.607820 0.407579
O O12 0.000000 0.772582 0.984903
O O13 0.776546 0.912511 0.528594
O O14 0.000000 0.948827 0.669535
O O15 0.746679 0.000000 0.649877
O O16 0.500000 0.898533 0.436636
#
# Coordination Sequence:
#
# PCOD8178723 Si02
#       6
#     8   8   8   8   8   8
#     4  10  19  35  62  90 117 153 196 247 303 356
#     4  11  25  44  63  89 126 166 201 249 316 379
#     4   9  19  37  61  91 121 149 192 249 303 356
#     4  11  23  41  67  96 121 156 206 260 305 362
#     4  10  21  38  61  89 122 161 203 250 304 358
#     4  11  24  40  58  84 122 164 201 244 298 357
#
# _framework density 20.39612
#
# number of rings (size 3 to 8) (size 9 to 14) (size 15 to 20)
#    0.000    1.667    1.667    2.500    2.333    6.667 
#    0.000    1.667    0.000    2.000    0.000    0.000 
#    0.000    0.000    0.000    0.000    0.000    0.000 
#
# Total GULP energy -297615.965507 kJ/mol
# GULP energy per Si atom -12400.665229 kJ/mol
# Density = 2.034970 g / cm^3
# Si number density = 20.396120 Si / 1000 Ang^3
#
#
#
# Elastic Constant Matrix: (Units=GPa)
#
#
# Indices 1 2 3 4 5 6 
#
# 1 26.5968 23.6824 8.8284 0.0000 0.0000 0.0000
# 2 23.6824 98.8939 41.3430 0.0000 0.0000 0.0000
# 3 8.8284 41.3430 127.4377 0.0000 0.0000 0.0000
# 4 0.0000 0.0000 0.0000 43.0590 0.0000 0.0000
# 5 0.0000 0.0000 0.0000 0.0000 6.4810 0.0000
# 6 0.0000 0.0000 0.0000 0.0000 0.0000 22.9731
#
#
#
# Elastic Compliance Matrix: (Units=1/GPa)
#
#
# Indices 1 2 3 4 5 6 
#
# 1 0.047812 -0.011644 0.000465 0.000000 0.000000 0.000000
# 2 -0.011644 0.014534 -0.003909 0.000000 0.000000 0.000000
# 3 0.000465 -0.003909 0.009083 0.000000 0.000000 0.000000
# 4 0.000000 0.000000 0.000000 0.023224 0.000000 0.000000
# 5 0.000000 0.000000 0.000000 0.000000 0.154298 0.000000
# 6 0.000000 0.000000 0.000000 0.000000 0.000000 0.043529
#
#
# Mechanical properties :
#
#
# Convention : Reuss Voigt Hill
#
# Bulk Modulus (GPa) = 24.23982 44.51512 34.37747
# Shear Modulus (GPa) = 14.86295 26.44091 20.65193
#
# Velocity S-wave (km/s) = 2.70240 3.60442 3.18550
# Velocity P-wave (km/s) = 4.65270 6.26060 5.51556
#
# Compressibility (1/GPa) = 0.04125444
#
# Stress axis : x y z
#
# Youngs Moduli (GPa) = 20.91512 68.80276 110.09917
#
# Poissons Ratio (x) = 0.80116 -0.05123
# Poissons Ratio (y) = 0.24354 0.43032
# Poissons Ratio (z) = -0.00973 0.26892
#
# Static dielectric constant tensor:
#      x y z
#    x 3.425870 0.000000 0.000000 
#    y 0.000000 3.915290 0.000000 
#    z 0.000000 0.000000 3.782180 
# 
# 
# High freq. dielectric constant tensor:
#      x y z
#    x 1.772340 0.000000 0.000000 
#    y 0.000000 1.810460 0.000000 
#    z 0.000000 0.000000 1.809200 
# 
# From -- ./inp_files/3768.got.cif
#   From: 2010.03.12/outbox.cif.g09.slc.cpg/sg38_2_cif.got.tgz:3768.got - 2010.04.14 02:38:36.
