data_PCOD8178682
_publ_section_title
;
Structure prediction by ZEFSAII (Michael W. Deem and Ramdas Pophale) SiO2 
 PCOD8178682
Probable space group: A M M 2
;
_chemical_formula_sum "Si O2"
_cell_formula_units_Z 64
_cell_length_a 23.879308
_cell_length_b 8.798530
_cell_length_c 15.373774
_cell_angle_alpha 90.000000
_cell_angle_beta 90.000000
_cell_angle_gamma 90.000000
_cell_volume 3230.073084
_symmetry_space_group_name_H-M "A M M 2"
_symmetry_group_IT_number 38
_symmetry_cell_setting 'orthorhombic'
loop_
_space_group_symop_operation_xyz
x,y,z
-x,-y,z
-x,y,z
x,-y,z
x,1/2+y,1/2+z
-x,1/2-y,1/2+z
-x,1/2+y,1/2+z
x,1/2-y,1/2+z
loop_
_atom_site_type_symbol
_atom_site_label
_atom_site_fract_x
_atom_site_fract_y
_atom_site_fract_z
Si Si1 0.634480 0.319479 0.594670
Si Si2 0.868467 0.674257 0.850131
Si Si3 0.362940 0.676079 0.399584
Si Si4 0.237762 0.676699 0.417476
Si Si5 0.435199 0.678264 0.241725
Si Si6 0.750742 0.678319 0.101089
Si Si7 0.858615 0.674230 0.657568
Si Si8 0.063738 0.320748 0.500619
O O1 0.637062 0.500000 0.594655
O O2 0.625065 0.256370 0.496008
O O3 0.583974 0.261757 0.654112
O O4 0.693276 0.257591 0.631597
O O5 0.857386 0.500000 0.875759
O O6 0.810449 0.766897 0.853865
O O7 0.889690 0.688975 0.750643
O O8 0.915355 0.742275 0.912746
O O9 0.377739 0.500000 0.403589
O O10 0.298222 0.704147 0.373314
O O11 0.402076 0.748786 0.324883
O O12 0.229712 0.500000 0.440975
O O13 0.232090 0.773122 0.504662
O O14 0.500000 0.713180 0.256830
O O15 0.423096 0.500000 0.230727
O O16 0.741619 0.500000 0.108091
O O17 0.801672 0.728670 0.162598
O O18 0.842493 0.500000 0.638215
O O19 0.900104 0.736359 0.582919
O O20 0.069299 0.500000 0.488490
O O21 0.000000 0.271290 0.517172
#
# Coordination Sequence:
#
# PCOD8178682 Si02
#       8
#     8   8   8   8   8   8   8   8
#     4  10  21  38  59  85 117 155 197 243 297 354
#     4  11  23  37  58  91 122 154 198 247 299 351
#     4   8  18  36  57  81 111 154 197 235 288 349
#     4  10  19  35  58  84 120 159 198 243 297 358
#     4  10  21  38  59  85 117 154 199 247 293 348
#     4  11  21  35  59  89 121 155 197 244 301 358
#     4  10  22  39  59  87 123 159 197 241 298 357
#     4  10  22  42  65  85 115 164 209 246 294 353
#
# _framework density 19.813794000000001
#
# number of rings (size 3 to 8) (size 9 to 14) (size 15 to 20)
#    0.000    2.000    1.250    3.000    1.750    2.500 
#    0.000    5.625    0.000    0.000    0.000    0.000 
#    0.000    0.000    0.000    0.000    0.000    0.000 
#
# Total GULP energy -396821.634882 kJ/mol
# GULP energy per Si atom -12400.676090 kJ/mol
# Density = 1.976870 g / cm^3
# Si number density = 19.813794 Si / 1000 Ang^3
#
#
#
# Elastic Constant Matrix: (Units=GPa)
#
#
# Indices 1 2 3 4 5 6 
#
# 1 111.8919 37.4959 48.2496 0.0000 0.0000 0.0000
# 2 37.4959 67.4527 26.5990 0.0000 0.0000 0.0000
# 3 48.2496 26.5990 96.2505 0.0000 0.0000 0.0000
# 4 0.0000 0.0000 0.0000 26.8073 0.0000 0.0000
# 5 0.0000 0.0000 0.0000 0.0000 29.1724 0.0000
# 6 0.0000 0.0000 0.0000 0.0000 0.0000 27.0684
#
#
#
# Elastic Compliance Matrix: (Units=1/GPa)
#
#
# Indices 1 2 3 4 5 6 
#
# 1 0.012822 -0.005155 -0.005003 0.000000 0.000000 0.000000
# 2 -0.005155 0.018711 -0.002587 0.000000 0.000000 0.000000
# 3 -0.005003 -0.002587 0.013612 0.000000 0.000000 0.000000
# 4 0.000000 0.000000 0.000000 0.037303 0.000000 0.000000
# 5 0.000000 0.000000 0.000000 0.000000 0.034279 0.000000
# 6 0.000000 0.000000 0.000000 0.000000 0.000000 0.036943
#
#
# Mechanical properties :
#
#
# Convention : Reuss Voigt Hill
#
# Bulk Modulus (GPa) = 50.87472 55.58712 53.23092
# Shear Modulus (GPa) = 26.92348 27.49300 27.20824
#
# Velocity S-wave (km/s) = 3.69022 3.72905 3.70969
# Velocity P-wave (km/s) = 6.62489 6.83057 6.72852
#
# Compressibility (1/GPa) = 0.01965613
#
# Stress axis : x y z
#
# Youngs Moduli (GPa) = 77.99130 53.44555 73.46251
#
# Poissons Ratio (x) = 0.27549 0.36754
# Poissons Ratio (y) = 0.40202 0.19003
# Poissons Ratio (z) = 0.39019 0.13825
#
# Static dielectric constant tensor:
#      x y z
#    x 3.608930 0.000000 0.000000 
#    y 0.000000 3.453850 0.000000 
#    z 0.000000 0.000000 3.707770 
# 
# 
# High freq. dielectric constant tensor:
#      x y z
#    x 1.768030 0.000000 0.000000 
#    y 0.000000 1.757950 0.000000 
#    z 0.000000 0.000000 1.777400 
# 
# From -- ./inp_files/15874.got.cif
#   From: 2010.03.12/outbox.cif.g09.slc.cpg/sg38_8_cif.got.tgz:15874.got - 2010.04.14 02:38:36.
