data_PCOD8178643
_publ_section_title
;
Structure prediction by ZEFSAII (Michael W. Deem and Ramdas Pophale) SiO2 
 PCOD8178643
Probable space group: A M M 2
;
_chemical_formula_sum "Si O2"
_cell_formula_units_Z 64
_cell_length_a 14.388614
_cell_length_b 20.465319
_cell_length_c 11.440738
_cell_angle_alpha 90.000000
_cell_angle_beta 90.000000
_cell_angle_gamma 90.000000
_cell_volume 3368.926381
_symmetry_space_group_name_H-M "A M M 2"
_symmetry_group_IT_number 38
_symmetry_cell_setting 'orthorhombic'
loop_
_space_group_symop_operation_xyz
x,y,z
-x,-y,z
-x,y,z
x,-y,z
x,1/2+y,1/2+z
-x,1/2-y,1/2+z
-x,1/2+y,1/2+z
x,1/2-y,1/2+z
loop_
_atom_site_type_symbol
_atom_site_label
_atom_site_fract_x
_atom_site_fract_y
_atom_site_fract_z
Si Si1 0.395522 0.874547 0.006040
Si Si2 0.234764 0.650300 0.136461
Si Si3 0.219067 0.421867 0.898344
Si Si4 0.397895 0.423689 0.761470
Si Si5 0.394183 0.426760 0.258000
Si Si6 0.102787 0.794598 0.811781
Si Si7 0.773573 0.790895 0.032594
Si Si8 0.102890 0.847994 0.213114
O O1 0.500000 0.846115 0.007800
O O2 0.372240 0.910870 0.126865
O O3 0.382539 0.923940 0.898142
O O4 0.325588 0.814906 0.986363
O O5 0.330158 0.624514 0.191162
O O6 0.153702 0.649365 0.234767
O O7 0.204784 0.605037 0.028530
O O8 0.249446 0.725256 0.102116
O O9 0.212713 0.500000 0.898115
O O10 0.318106 0.395599 0.847195
O O11 0.136846 0.393183 0.819148
O O12 0.500000 0.393369 0.792389
O O13 0.402411 0.500000 0.781503
O O14 0.500000 0.410667 0.222059
O O15 0.367256 0.500000 0.218435
O O16 0.159135 0.775297 0.926306
O O17 0.093530 0.727959 0.741787
O O18 0.000000 0.821138 0.843999
O O19 0.822447 0.848987 0.107846
O O20 0.000000 0.873532 0.175989
#
# Coordination Sequence:
#
# PCOD8178643 Si02
#       8
#     8   8   8   8   8   8   8   8
#     4  10  19  34  59  89 116 148 193 241 288 338
#     4  11  23  37  59  87 118 152 193 238 284 351
#     4  11  22  37  57  84 118 155 190 231 286 346
#     4   9  18  34  57  84 114 151 195 238 281 338
#     4  10  21  38  60  85 117 160 203 239 280 337
#     4  10  21  39  63  86 110 148 194 245 290 337
#     4  11  20  37  62  86 117 146 186 240 296 346
#     4  10  21  37  58  85 112 146 193 236 286 344
#
# _framework density 18.997150999999999
#
# number of rings (size 3 to 8) (size 9 to 14) (size 15 to 20)
#    0.000    1.750    3.750    1.125    0.000    3.750 
#    0.000    1.250    0.000    1.125    0.000    0.000 
#    0.000    0.000    0.000    0.000    0.000    0.000 
#
# Total GULP energy -396699.219588 kJ/mol
# GULP energy per Si atom -12396.850612 kJ/mol
# Density = 1.895391 g / cm^3
# Si number density = 18.997151 Si / 1000 Ang^3
#
#
#
# Elastic Constant Matrix: (Units=GPa)
#
#
# Indices 1 2 3 4 5 6 
#
# 1 135.3932 49.9857 33.9660 0.0000 0.0000 0.0000
# 2 49.9857 63.4312 23.9927 0.0000 0.0000 0.0000
# 3 33.9660 23.9927 68.1554 0.0000 0.0000 0.0000
# 4 0.0000 0.0000 0.0000 30.8485 0.0000 0.0000
# 5 0.0000 0.0000 0.0000 0.0000 25.1638 0.0000
# 6 0.0000 0.0000 0.0000 0.0000 0.0000 19.0866
#
#
#
# Elastic Compliance Matrix: (Units=1/GPa)
#
#
# Indices 1 2 3 4 5 6 
#
# 1 0.010850 -0.007504 -0.002766 0.000000 0.000000 0.000000
# 2 -0.007504 0.023377 -0.004490 0.000000 0.000000 0.000000
# 3 -0.002766 -0.004490 0.017631 0.000000 0.000000 0.000000
# 4 0.000000 0.000000 0.000000 0.032416 0.000000 0.000000
# 5 0.000000 0.000000 0.000000 0.000000 0.039740 0.000000
# 6 0.000000 0.000000 0.000000 0.000000 0.000000 0.052393
#
#
# Mechanical properties :
#
#
# Convention : Reuss Voigt Hill
#
# Bulk Modulus (GPa) = 44.76395 53.65204 49.20799
# Shear Modulus (GPa) = 23.43326 25.62215 24.52770
#
# Velocity S-wave (km/s) = 3.51595 3.67650 3.59712
# Velocity P-wave (km/s) = 6.33224 6.80629 6.57354
#
# Compressibility (1/GPa) = 0.02233941
#
# Stress axis : x y z
#
# Youngs Moduli (GPa) = 92.16458 42.77750 56.71809
#
# Poissons Ratio (x) = 0.32101 0.15686
# Poissons Ratio (y) = 0.69162 0.25464
# Poissons Ratio (z) = 0.25489 0.19205
#
# Static dielectric constant tensor:
#      x y z
#    x 3.924220 0.000000 0.000000 
#    y 0.000000 3.172500 0.000000 
#    z 0.000000 0.000000 3.532420 
# 
# 
# High freq. dielectric constant tensor:
#      x y z
#    x 1.750950 0.000000 0.000000 
#    y 0.000000 1.710350 0.000000 
#    z 0.000000 0.000000 1.742450 
# 
# From -- ./inp_files/9590.got.cif
#   From: 2010.03.12/outbox.cif.g09.slc.cpg/sg38_5_cif.got.tgz:9590.got - 2010.04.14 02:38:36.
