data_PCOD8178819
_publ_section_title
;
Structure prediction by ZEFSAII (Michael W. Deem and Ramdas Pophale) SiO2 
 PCOD8178819
Probable space group: A M M 2
;
_chemical_formula_sum "Si O2"
_cell_formula_units_Z 48
_cell_length_a 9.296185
_cell_length_b 7.869373
_cell_length_c 34.528599
_cell_angle_alpha 90.000000
_cell_angle_beta 90.000000
_cell_angle_gamma 90.000000
_cell_volume 2525.944744
_symmetry_space_group_name_H-M "A M M 2"
_symmetry_group_IT_number 38
_symmetry_cell_setting 'orthorhombic'
loop_
_space_group_symop_operation_xyz
x,y,z
-x,-y,z
-x,y,z
x,-y,z
x,1/2+y,1/2+z
-x,1/2-y,1/2+z
-x,1/2+y,1/2+z
x,1/2-y,1/2+z
loop_
_atom_site_type_symbol
_atom_site_label
_atom_site_fract_x
_atom_site_fract_y
_atom_site_fract_z
Si Si1 0.831192 0.692140 0.903500
Si Si2 0.655215 0.695911 0.168264
Si Si3 0.670310 0.000000 0.033523
Si Si4 0.671663 0.809065 0.584196
Si Si5 0.830147 0.190584 0.821336
Si Si6 0.328381 0.000000 0.944446
Si Si7 0.838533 0.802404 0.239614
O O1 0.800796 0.500000 0.918486
O O2 0.783641 0.698313 0.858316
O O3 0.737352 0.828231 0.926668
O O4 0.000000 0.738685 0.907782
O O5 0.500000 0.784321 0.176834
O O6 0.627293 0.500000 0.161379
O O7 0.720307 0.758840 0.127036
O O8 0.758331 0.717391 0.204298
O O9 0.732717 0.171903 0.053403
O O10 0.500000 0.000000 0.037836
O O11 0.717114 0.000000 0.989088
O O12 0.500000 0.814220 0.582964
O O13 0.731552 0.000000 0.574765
O O14 0.763456 0.259787 0.780991
O O15 0.000000 0.199901 0.816991
O O16 0.775176 0.000000 0.828598
O O17 0.500000 0.000000 0.938284
O O18 0.000000 0.729523 0.239183
O O19 0.836291 0.000000 0.232560
#
# Coordination Sequence:
#
# PCOD8178819 Si02
#       7
#     8   8   4   8   8   4   8
#     4  10  20  37  62  85 108 146 194 236 273 329
#     4   9  18  32  50  73 100 132 173 219 266 313
#     4   9  18  31  51  77 105 141 179 217 269 329
#     4   8  15  29  49  73 100 133 177 222 259 309
#     4   9  16  30  54  78 100 133 181 230 268 308
#     4  11  23  37  55  87 123 147 177 231 297 349
#     4  10  20  31  46  74 107 136 173 219 265 315
#
# _framework density 19.002790999999998
#
# number of rings (size 3 to 8) (size 9 to 14) (size 15 to 20)
#    0.000    2.667    0.833    2.250    1.167    4.333 
#    0.000    2.500    0.000    4.000    0.000    0.000 
#    0.000    0.000    0.000    0.000    0.000    0.000 
#
# Total GULP energy -297379.077962 kJ/mol
# GULP energy per Si atom -12390.794915 kJ/mol
# Density = 1.895954 g / cm^3
# Si number density = 19.002791 Si / 1000 Ang^3
#
#
#
# Elastic Constant Matrix: (Units=GPa)
#
#
# Indices 1 2 3 4 5 6 
#
# 1 42.3430 25.6770 39.3098 0.0000 0.0000 0.0000
# 2 25.6770 97.5213 57.3617 0.0000 0.0000 0.0000
# 3 39.3098 57.3617 152.3674 0.0000 0.0000 0.0000
# 4 0.0000 0.0000 0.0000 27.0056 0.0000 0.0000
# 5 0.0000 0.0000 0.0000 0.0000 35.5341 0.0000
# 6 0.0000 0.0000 0.0000 0.0000 0.0000 18.7778
#
#
#
# Elastic Compliance Matrix: (Units=1/GPa)
#
#
# Indices 1 2 3 4 5 6 
#
# 1 0.032634 -0.004676 -0.006659 0.000000 0.000000 0.000000
# 2 -0.004676 0.013841 -0.004004 0.000000 0.000000 0.000000
# 3 -0.006659 -0.004004 0.009789 0.000000 0.000000 0.000000
# 4 0.000000 0.000000 0.000000 0.037029 0.000000 0.000000
# 5 0.000000 0.000000 0.000000 0.000000 0.028142 0.000000
# 6 0.000000 0.000000 0.000000 0.000000 0.000000 0.053254
#
#
# Mechanical properties :
#
#
# Convention : Reuss Voigt Hill
#
# Bulk Modulus (GPa) = 39.08503 59.65874 49.37189
# Shear Modulus (GPa) = 23.37593 27.58906 25.48250
#
# Velocity S-wave (km/s) = 3.51113 3.81444 3.66592
# Velocity P-wave (km/s) = 6.08688 7.13182 6.62996
#
# Compressibility (1/GPa) = 0.02558525
#
# Stress axis : x y z
#
# Youngs Moduli (GPa) = 30.64278 72.25159 102.15960
#
# Poissons Ratio (x) = 0.33781 0.68030
# Poissons Ratio (y) = 0.14327 0.40908
# Poissons Ratio (z) = 0.20406 0.28932
#
# Static dielectric constant tensor:
#      x y z
#    x 3.120250 0.000000 0.000000 
#    y 0.000000 3.619360 0.000000 
#    z 0.000000 0.000000 3.773580 
# 
# 
# High freq. dielectric constant tensor:
#      x y z
#    x 1.678740 0.000000 0.000000 
#    y 0.000000 1.747760 0.000000 
#    z 0.000000 0.000000 1.748470 
# 
# From -- ./inp_files/24380.got.cif
#   From: 2010.03.12/outbox.cif.g09.slc.cpg/sg38_13_cif.got.tgz:24380.got - 2010.04.14 02:38:36.
