data_PCOD8178154
_publ_section_title
;
Structure prediction by ZEFSAII (Michael W. Deem and Ramdas Pophale) SiO2 
 PCOD8178154
Probable space group: A M M 2
;
_chemical_formula_sum "Si O2"
_cell_formula_units_Z 40
_cell_length_a 9.332028
_cell_length_b 7.712828
_cell_length_c 29.449611
_cell_angle_alpha 90.000000
_cell_angle_beta 90.000000
_cell_angle_gamma 90.000000
_cell_volume 2119.674827
_symmetry_space_group_name_H-M "A M M 2"
_symmetry_group_IT_number 38
_symmetry_cell_setting 'orthorhombic'
loop_
_space_group_symop_operation_xyz
x,y,z
-x,-y,z
-x,y,z
x,-y,z
x,1/2+y,1/2+z
-x,1/2-y,1/2+z
-x,1/2+y,1/2+z
x,1/2-y,1/2+z
loop_
_atom_site_type_symbol
_atom_site_label
_atom_site_fract_x
_atom_site_fract_y
_atom_site_fract_z
Si Si1 0.330249 0.500000 0.541400
Si Si2 0.328656 0.000000 0.143007
Si Si3 0.664213 0.694189 0.977554
Si Si4 0.658890 0.294549 0.305709
Si Si5 0.670717 0.807053 0.705521
Si Si6 0.835400 0.705082 0.390861
O O1 0.500000 0.500000 0.545291
O O2 0.265173 0.500000 0.592077
O O3 0.276488 0.671616 0.515098
O O4 0.270218 0.828388 0.168457
O O5 0.500000 0.000000 0.143087
O O6 0.500000 0.740541 0.965106
O O7 0.675803 0.500000 0.997773
O O8 0.757362 0.703754 0.932451
O O9 0.500000 0.215461 0.313812
O O10 0.648830 0.500000 0.308205
O O11 0.718591 0.243229 0.255826
O O12 0.765667 0.224028 0.344276
O O13 0.500000 0.813805 0.704880
O O14 0.731417 0.000000 0.694558
O O15 0.816680 0.500000 0.395635
O O16 0.000000 0.761696 0.390968
#
# Coordination Sequence:
#
# PCOD8178154 Si02
#       6
#     4   4   8   8   8   8
#     4   9  18  32  49  71 101 131 165 213 260 301
#     4   9  16  26  44  71  99 127 159 203 254 297
#     4  10  20  34  52  73  99 134 172 209 254 305
#     4   8  14  26  45  68  98 136 170 203 245 294
#     4   8  14  25  41  64  96 130 162 197 241 294
#     4  10  19  31  50  75 102 135 171 209 256 303
#
# _framework density 18.870819999999998
#
# number of rings (size 3 to 8) (size 9 to 14) (size 15 to 20)
#    0.000    3.000    1.000    1.800    0.000    2.000 
#    1.800    4.000    0.000    0.000    0.000    2.800 
#    0.000    3.200    0.000    0.000    0.000    0.000 
#
# Total GULP energy -247914.257683 kJ/mol
# GULP energy per Si atom -12395.712884 kJ/mol
# Density = 1.882787 g / cm^3
# Si number density = 18.870820 Si / 1000 Ang^3
#
#
#
# Elastic Constant Matrix: (Units=GPa)
#
#
# Indices 1 2 3 4 5 6 
#
# 1 55.3303 25.0659 41.9532 0.0000 0.0000 0.0000
# 2 25.0659 106.1026 72.8507 0.0000 0.0000 0.0000
# 3 41.9532 72.8507 174.7274 0.0000 0.0000 0.0000
# 4 0.0000 0.0000 0.0000 17.0447 0.0000 0.0000
# 5 0.0000 0.0000 0.0000 0.0000 0.6678 0.0000
# 6 0.0000 0.0000 0.0000 0.0000 0.0000 9.7862
#
#
#
# Elastic Compliance Matrix: (Units=1/GPa)
#
#
# Indices 1 2 3 4 5 6 
#
# 1 0.022472 -0.002248 -0.004459 0.000000 0.000000 0.000000
# 2 -0.002248 0.013430 -0.005060 0.000000 0.000000 0.000000
# 3 -0.004459 -0.005060 0.008903 0.000000 0.000000 0.000000
# 4 0.000000 0.000000 0.000000 0.058669 0.000000 0.000000
# 5 0.000000 0.000000 0.000000 0.000000 1.497452 0.000000
# 6 0.000000 0.000000 0.000000 0.000000 0.000000 0.102184
#
#
# Mechanical properties :
#
#
# Convention : Reuss Voigt Hill
#
# Bulk Modulus (GPa) = 47.00692 68.43333 57.72013
# Shear Modulus (GPa) = 2.88395 18.58578 10.73486
#
# Velocity S-wave (km/s) = 1.23757 3.14171 2.38767
# Velocity P-wave (km/s) = 5.19673 7.03586 6.18503
#
# Compressibility (1/GPa) = 0.02127346
#
# Stress axis : x y z
#
# Youngs Moduli (GPa) = 44.49958 74.46068 112.31693
#
# Poissons Ratio (x) = 0.16735 0.50078
# Poissons Ratio (y) = 0.10002 0.56830
# Poissons Ratio (z) = 0.19841 0.37676
#
# Static dielectric constant tensor:
#      x y z
#    x 3.063670 0.000000 0.000000 
#    y 0.000000 3.507250 0.000000 
#    z 0.000000 0.000000 3.685110 
# 
# 
# High freq. dielectric constant tensor:
#      x y z
#    x 1.674320 0.000000 0.000000 
#    y 0.000000 1.731300 0.000000 
#    z 0.000000 0.000000 1.733520 
# 
# From -- ./inp_files/23231.got.cif
#   From: 2010.03.12/outbox.cif.g09.slc.cpg/sg38_12_cif.got.tgz:23231.got - 2010.04.14 02:38:36.
