data_PCOD8178436
_publ_section_title
;
Structure prediction by ZEFSAII (Michael W. Deem and Ramdas Pophale) SiO2 
 PCOD8178436
Probable space group: A M M 2
;
_chemical_formula_sum "Si O2"
_cell_formula_units_Z 64
_cell_length_a 9.173828
_cell_length_b 27.648228
_cell_length_c 14.389403
_cell_angle_alpha 90.000000
_cell_angle_beta 90.000000
_cell_angle_gamma 90.000000
_cell_volume 3649.729446
_symmetry_space_group_name_H-M "A M M 2"
_symmetry_group_IT_number 38
_symmetry_cell_setting 'orthorhombic'
loop_
_space_group_symop_operation_xyz
x,y,z
-x,-y,z
-x,y,z
x,-y,z
x,1/2+y,1/2+z
-x,1/2-y,1/2+z
-x,1/2+y,1/2+z
x,1/2-y,1/2+z
loop_
_atom_site_type_symbol
_atom_site_label
_atom_site_fract_x
_atom_site_fract_y
_atom_site_fract_z
Si Si1 0.169115 0.832161 0.872500
Si Si2 0.669742 0.641986 0.988396
Si Si3 0.831135 0.443667 0.677119
Si Si4 0.334281 0.670493 0.193518
Si Si5 0.165274 0.270027 0.939505
Si Si6 0.331542 0.130830 0.054318
Si Si7 0.662484 0.266564 0.606566
Si Si8 0.668990 0.445263 0.864468
O O1 0.232736 0.851150 0.774543
O O2 0.187526 0.773804 0.867243
O O3 0.000000 0.847058 0.883234
O O4 0.260994 0.855522 0.955648
O O5 0.500000 0.651685 0.983465
O O6 0.740595 0.681952 0.919431
O O7 0.711139 0.588778 0.951347
O O8 0.722359 0.648656 0.094987
O O9 0.807636 0.500000 0.655794
O O10 0.751965 0.414834 0.595453
O O11 0.762725 0.429586 0.775894
O O12 0.000000 0.429373 0.679052
O O13 0.500000 0.653839 0.212501
O O14 0.325516 0.729694 0.193332
O O15 0.000000 0.287395 0.943186
O O16 0.209428 0.248176 0.038171
O O17 0.500000 0.117031 0.038266
O O18 0.317379 0.176165 0.127229
O O19 0.500000 0.259480 0.561339
O O20 0.500000 0.439414 0.836962
O O21 0.704946 0.500000 0.895183
#
# Coordination Sequence:
#
# PCOD8178436 Si02
#       8
#     8   8   8   8   8   8   8   8
#     4  10  20  32  46  69 101 135 169 203 242 288
#     4   9  18  32  50  72  98 128 164 206 250 294
#     4  10  21  36  53  75 103 130 156 195 249 302
#     4   9  17  30  47  68  97 133 169 202 240 288
#     4   9  17  28  43  65  93 125 161 198 236 283
#     4  10  19  33  54  76  98 129 169 208 246 291
#     4   8  16  30  46  66  93 125 161 201 242 281
#     4   9  18  34  55  76  97 124 161 204 249 298
#
# _framework density 17.535547000000001
#
# number of rings (size 3 to 8) (size 9 to 14) (size 15 to 20)
#    0.000    2.750    0.000    2.250    0.000    6.250 
#    0.000    3.750    0.000    0.750    0.000    1.750 
#    0.000    0.000    0.000    0.000    0.000    0.000 
#
# Total GULP energy -396529.221689 kJ/mol
# GULP energy per Si atom -12391.538178 kJ/mol
# Density = 1.749564 g / cm^3
# Si number density = 17.535547 Si / 1000 Ang^3
#
#
#
# Elastic Constant Matrix: (Units=GPa)
#
#
# Indices 1 2 3 4 5 6 
#
# 1 89.4384 45.6691 55.3224 0.0000 0.0000 0.0000
# 2 45.6691 85.9246 50.6977 0.0000 0.0000 0.0000
# 3 55.3224 50.6977 90.1515 0.0000 0.0000 0.0000
# 4 0.0000 0.0000 0.0000 23.6384 0.0000 0.0000
# 5 0.0000 0.0000 0.0000 0.0000 19.3704 0.0000
# 6 0.0000 0.0000 0.0000 0.0000 0.0000 24.7310
#
#
#
# Elastic Compliance Matrix: (Units=1/GPa)
#
#
# Indices 1 2 3 4 5 6 
#
# 1 0.019306 -0.004895 -0.009094 0.000000 0.000000 0.000000
# 2 -0.004895 0.018659 -0.007489 0.000000 0.000000 0.000000
# 3 -0.009094 -0.007489 0.020885 0.000000 0.000000 0.000000
# 4 0.000000 0.000000 0.000000 0.042304 0.000000 0.000000
# 5 0.000000 0.000000 0.000000 0.000000 0.051625 0.000000
# 6 0.000000 0.000000 0.000000 0.000000 0.000000 0.040435
#
#
# Mechanical properties :
#
#
# Convention : Reuss Voigt Hill
#
# Bulk Modulus (GPa) = 62.92361 63.21033 63.06697
# Shear Modulus (GPa) = 20.70673 21.13632 20.92152
#
# Velocity S-wave (km/s) = 3.44007 3.47557 3.45786
# Velocity P-wave (km/s) = 7.19306 7.22712 7.21011
#
# Compressibility (1/GPa) = 0.01589228
#
# Stress axis : x y z
#
# Youngs Moduli (GPa) = 51.79793 53.59480 47.88190
#
# Poissons Ratio (x) = 0.26236 0.43545
# Poissons Ratio (y) = 0.25356 0.35858
# Poissons Ratio (z) = 0.47107 0.40136
#
# Static dielectric constant tensor:
#      x y z
#    x 3.312220 0.000000 0.000000 
#    y 0.000000 3.298410 0.000000 
#    z 0.000000 0.000000 3.034000 
# 
# 
# High freq. dielectric constant tensor:
#      x y z
#    x 1.685950 0.000000 0.000000 
#    y 0.000000 1.661430 0.000000 
#    z 0.000000 0.000000 1.652300 
# 
# From -- ./inp_files/8595.got.cif
#   From: 2010.03.12/outbox.cif.g09.slc.cpg/sg38_5_cif.got.tgz:8595.got - 2010.04.14 02:38:36.
