data_PCOD8178480
_publ_section_title
;
Structure prediction by ZEFSAII (Michael W. Deem and Ramdas Pophale) SiO2 
 PCOD8178480
Probable space group: A M M 2
;
_chemical_formula_sum "Si O2"
_cell_formula_units_Z 64
_cell_length_a 13.703411
_cell_length_b 27.322105
_cell_length_c 9.564282
_cell_angle_alpha 90.000000
_cell_angle_beta 90.000000
_cell_angle_gamma 90.000000
_cell_volume 3580.924894
_symmetry_space_group_name_H-M "A M M 2"
_symmetry_group_IT_number 38
_symmetry_cell_setting 'orthorhombic'
loop_
_space_group_symop_operation_xyz
x,y,z
-x,-y,z
-x,y,z
x,-y,z
x,1/2+y,1/2+z
-x,1/2-y,1/2+z
-x,1/2+y,1/2+z
x,1/2-y,1/2+z
loop_
_atom_site_type_symbol
_atom_site_label
_atom_site_fract_x
_atom_site_fract_y
_atom_site_fract_z
Si Si1 0.390443 0.813123 0.723980
Si Si2 0.890418 0.097569 0.224654
Si Si3 0.203665 0.125879 0.739873
Si Si4 0.885121 0.444218 0.015631
Si Si5 0.390316 0.727937 0.523160
Si Si6 0.113403 0.777659 0.840084
Si Si7 0.890056 0.554694 0.436746
Si Si8 0.802195 0.198213 0.141321
O O1 0.500000 0.834568 0.731585
O O2 0.316788 0.858739 0.729274
O O3 0.375199 0.783600 0.578709
O O4 0.371749 0.776517 0.856275
O O5 0.852865 0.068812 0.359336
O O6 0.885907 0.057417 0.103119
O O7 0.825843 0.143946 0.188355
O O8 0.000000 0.117238 0.246837
O O9 0.174040 0.093681 0.608604
O O10 0.136041 0.173636 0.751813
O O11 0.187935 0.092798 0.876711
O O12 0.854517 0.500000 0.049458
O O13 0.000000 0.437381 0.039809
O O14 0.500000 0.710331 0.561389
O O15 0.312600 0.695141 0.606126
O O16 0.175323 0.734121 0.770513
O O17 0.000000 0.764885 0.828314
O O18 0.140238 0.784013 0.002964
O O19 0.863148 0.500000 0.388199
O O20 0.000000 0.567738 0.383449
#
# Coordination Sequence:
#
# PCOD8178480 Si02
#       8
#     8   8   8   8   8   8   8   8
#     4  10  21  37  57  79 104 139 182 229 275 319
#     4  10  20  35  54  77 110 146 186 226 267 324
#     4  12  21  35  55  79 110 140 179 225 269 329
#     4  10  22  38  56  80 108 142 185 230 275 323
#     4  10  19  36  56  77 106 143 187 234 270 308
#     4  12  24  35  50  77 117 153 182 211 260 333
#     4  10  19  33  55  79 105 141 183 228 273 317
#     4  12  22  37  52  79 112 152 186 220 270 324
#
# _framework density 17.872477
#
# number of rings (size 3 to 8) (size 9 to 14) (size 15 to 20)
#    0.000    1.250    3.750    3.000    1.750    3.500 
#    0.000    0.000    0.000    1.500    0.000    0.000 
#    0.000    3.000    0.000    0.000    0.000    0.000 
#
# Total GULP energy -396736.032264 kJ/mol
# GULP energy per Si atom -12398.001008 kJ/mol
# Density = 1.783180 g / cm^3
# Si number density = 17.872477 Si / 1000 Ang^3
#
#
#
# Elastic Constant Matrix: (Units=GPa)
#
#
# Indices 1 2 3 4 5 6 
#
# 1 98.7280 45.4100 34.2548 0.0000 0.0000 0.0000
# 2 45.4100 97.4956 34.9444 0.0000 0.0000 0.0000
# 3 34.2548 34.9444 92.0766 0.0000 0.0000 0.0000
# 4 0.0000 0.0000 0.0000 32.5511 0.0000 0.0000
# 5 0.0000 0.0000 0.0000 0.0000 18.0270 0.0000
# 6 0.0000 0.0000 0.0000 0.0000 0.0000 18.7487
#
#
#
# Elastic Compliance Matrix: (Units=1/GPa)
#
#
# Indices 1 2 3 4 5 6 
#
# 1 0.013603 -0.005234 -0.003074 0.000000 0.000000 0.000000
# 2 -0.005234 0.013886 -0.003323 0.000000 0.000000 0.000000
# 3 -0.003074 -0.003323 0.013265 0.000000 0.000000 0.000000
# 4 0.000000 0.000000 0.000000 0.030721 0.000000 0.000000
# 5 0.000000 0.000000 0.000000 0.000000 0.055472 0.000000
# 6 0.000000 0.000000 0.000000 0.000000 0.000000 0.053337
#
#
# Mechanical properties :
#
#
# Convention : Reuss Voigt Hill
#
# Bulk Modulus (GPa) = 57.16880 57.50208 57.33544
# Shear Modulus (GPa) = 23.88047 25.44475 24.66261
#
# Velocity S-wave (km/s) = 3.65932 3.77727 3.71876
# Velocity P-wave (km/s) = 7.06475 7.16010 7.11258
#
# Compressibility (1/GPa) = 0.01749206
#
# Stress axis : x y z
#
# Youngs Moduli (GPa) = 73.51437 72.01753 75.38516
#
# Poissons Ratio (x) = 0.37693 0.23175
# Poissons Ratio (y) = 0.38476 0.25048
# Poissons Ratio (z) = 0.22600 0.23929
#
# Static dielectric constant tensor:
#      x y z
#    x 3.351750 0.000000 0.000000 
#    y 0.000000 3.043680 0.000000 
#    z 0.000000 0.000000 3.518440 
# 
# 
# High freq. dielectric constant tensor:
#      x y z
#    x 1.674880 0.000000 0.000000 
#    y 0.000000 1.678050 0.000000 
#    z 0.000000 0.000000 1.707710 
# 
# From -- ./inp_files/5885.got.cif
#   From: 2010.03.12/outbox.cif.g09.slc.cpg/sg38_3_cif.got.tgz:5885.got - 2010.04.14 02:38:36.
