data_PCOD8178361
_publ_section_title
;
Structure prediction by ZEFSAII (Michael W. Deem and Ramdas Pophale) SiO2 
 PCOD8178361
Probable space group: A M M 2
;
_chemical_formula_sum "Si O2"
_cell_formula_units_Z 64
_cell_length_a 23.679634
_cell_length_b 9.143249
_cell_length_c 15.568865
_cell_angle_alpha 90.000000
_cell_angle_beta 90.000000
_cell_angle_gamma 90.000000
_cell_volume 3370.796121
_symmetry_space_group_name_H-M "A M M 2"
_symmetry_group_IT_number 38
_symmetry_cell_setting 'orthorhombic'
loop_
_space_group_symop_operation_xyz
x,y,z
-x,-y,z
-x,y,z
x,-y,z
x,1/2+y,1/2+z
-x,1/2-y,1/2+z
-x,1/2+y,1/2+z
x,1/2-y,1/2+z
loop_
_atom_site_type_symbol
_atom_site_label
_atom_site_fract_x
_atom_site_fract_y
_atom_site_fract_z
Si Si1 0.864428 0.326587 0.817040
Si Si2 0.238926 0.665344 0.060175
Si Si3 0.126207 0.668073 0.149345
Si Si4 0.366488 0.171051 0.895608
Si Si5 0.237205 0.170274 0.889716
Si Si6 0.936555 0.173723 0.478988
Si Si7 0.633096 0.169620 0.571230
Si Si8 0.436055 0.825827 0.733318
O O1 0.860870 0.500000 0.813095
O O2 0.892545 0.266093 0.729880
O O3 0.801672 0.259963 0.824181
O O4 0.902113 0.269482 0.896486
O O5 0.234642 0.500000 0.022175
O O6 0.193694 0.684820 0.135895
O O7 0.301440 0.695142 0.096669
O O8 0.223529 0.779056 0.986067
O O9 0.109971 0.500000 0.167667
O O10 0.093404 0.728478 0.065885
O O11 0.302255 0.205187 0.868342
O O12 0.405981 0.232447 0.819583
O O13 0.375492 0.000000 0.911019
O O14 0.383555 0.249753 0.983648
O O15 0.223245 0.000000 0.880375
O O16 0.000000 0.236954 0.475259
O O17 0.936981 0.000000 0.477525
O O18 0.595960 0.234748 0.649056
O O19 0.619799 0.000000 0.556930
O O20 0.500000 0.767489 0.731977
O O21 0.433343 0.000000 0.732907
#
# Coordination Sequence:
#
# PCOD8178361 Si02
#       8
#     8   8   8   8   8   8   8   8
#     4  11  22  36  55  83 113 144 180 220 269 320
#     4   9  17  32  54  78 108 141 175 216 270 325
#     4  10  20  35  56  82 109 142 179 217 264 319
#     4   9  19  34  53  77 106 139 176 220 267 316
#     4  10  19  32  54  80 110 142 179 223 270 320
#     4   9  19  38  60  78 105 146 184 218 262 320
#     4   9  18  32  53  77 104 136 173 217 263 315
#     4   9  18  33  53  76 102 139 183 217 255 319
#
# _framework density 18.986613999999999
#
# number of rings (size 3 to 8) (size 9 to 14) (size 15 to 20)
#    0.000    2.500    1.250    0.750    1.750    2.000 
#    0.000    0.625    0.000    3.375    0.000    0.000 
#    0.000    0.000    0.000    0.000    0.000    0.000 
#
# Total GULP energy -396809.597135 kJ/mol
# GULP energy per Si atom -12400.299910 kJ/mol
# Density = 1.894340 g / cm^3
# Si number density = 18.986614 Si / 1000 Ang^3
#
#
#
# Elastic Constant Matrix: (Units=GPa)
#
#
# Indices 1 2 3 4 5 6 
#
# 1 119.0962 32.5307 79.9153 0.0000 0.0000 0.0000
# 2 32.5307 50.6289 46.1544 0.0000 0.0000 0.0000
# 3 79.9153 46.1544 163.8491 0.0000 0.0000 0.0000
# 4 0.0000 0.0000 0.0000 33.2835 0.0000 0.0000
# 5 0.0000 0.0000 0.0000 0.0000 25.1486 0.0000
# 6 0.0000 0.0000 0.0000 0.0000 0.0000 15.9317
#
#
#
# Elastic Compliance Matrix: (Units=1/GPa)
#
#
# Indices 1 2 3 4 5 6 
#
# 1 0.012911 -0.003438 -0.005329 0.000000 0.000000 0.000000
# 2 -0.003438 0.027492 -0.006067 0.000000 0.000000 0.000000
# 3 -0.005329 -0.006067 0.010411 0.000000 0.000000 0.000000
# 4 0.000000 0.000000 0.000000 0.030045 0.000000 0.000000
# 5 0.000000 0.000000 0.000000 0.000000 0.039764 0.000000
# 6 0.000000 0.000000 0.000000 0.000000 0.000000 0.062768
#
#
# Mechanical properties :
#
#
# Convention : Reuss Voigt Hill
#
# Bulk Modulus (GPa) = 47.29019 72.30834 59.79926
# Shear Modulus (GPa) = 22.71611 26.53767 24.62689
#
# Velocity S-wave (km/s) = 3.46269 3.74264 3.60539
# Velocity P-wave (km/s) = 6.39908 7.53943 6.99254
#
# Compressibility (1/GPa) = 0.02114603
#
# Stress axis : x y z
#
# Youngs Moduli (GPa) = 77.45054 36.37474 96.04895
#
# Poissons Ratio (x) = 0.12506 0.51184
# Poissons Ratio (y) = 0.26628 0.58275
# Poissons Ratio (z) = 0.41273 0.22069
#
# Static dielectric constant tensor:
#      x y z
#    x 3.619990 0.000000 0.000000 
#    y 0.000000 3.196120 0.000000 
#    z 0.000000 0.000000 3.483430 
# 
# 
# High freq. dielectric constant tensor:
#      x y z
#    x 1.737870 0.000000 0.000000 
#    y 0.000000 1.705930 0.000000 
#    z 0.000000 0.000000 1.740530 
# 
# From -- ./inp_files/15800.got.cif
#   From: 2010.03.12/outbox.cif.g09.slc.cpg/sg38_8_cif.got.tgz:15800.got - 2010.04.14 02:38:36.
