data_PCOD8178916
_publ_section_title
;
Structure prediction by ZEFSAII (Michael W. Deem and Ramdas Pophale) SiO2 
 PCOD8178916
Probable space group: A M M 2
;
_chemical_formula_sum "Si O2"
_cell_formula_units_Z 48
_cell_length_a 9.080970
_cell_length_b 7.863322
_cell_length_c 34.095343
_cell_angle_alpha 90.000000
_cell_angle_beta 90.000000
_cell_angle_gamma 90.000000
_cell_volume 2434.632219
_symmetry_space_group_name_H-M "A M M 2"
_symmetry_group_IT_number 38
_symmetry_cell_setting 'orthorhombic'
loop_
_space_group_symop_operation_xyz
x,y,z
-x,-y,z
-x,y,z
x,-y,z
x,1/2+y,1/2+z
-x,1/2-y,1/2+z
-x,1/2+y,1/2+z
x,1/2-y,1/2+z
loop_
_atom_site_type_symbol
_atom_site_label
_atom_site_fract_x
_atom_site_fract_y
_atom_site_fract_z
Si Si1 0.837822 0.694031 0.540940
Si Si2 0.675260 0.500000 0.834022
Si Si3 0.173124 0.308900 0.377915
Si Si4 0.829018 0.309188 0.959888
Si Si5 0.171174 0.193736 0.694677
Si Si6 0.171905 0.500000 0.751984
Si Si7 0.667204 0.301077 0.115862
O O1 0.858880 0.500000 0.530434
O O2 0.756024 0.773642 0.502462
O O3 0.738106 0.710165 0.578918
O O4 0.000000 0.776752 0.548948
O O5 0.500000 0.500000 0.837466
O O6 0.736688 0.327721 0.853185
O O7 0.723517 0.500000 0.789146
O O8 0.202714 0.500000 0.361839
O O9 0.226320 0.304834 0.423471
O O10 0.000000 0.262537 0.375073
O O11 0.795646 0.500000 0.946513
O O12 0.000000 0.272776 0.966956
O O13 0.211104 0.327701 0.728482
O O14 0.253953 0.254635 0.655752
O O15 0.000000 0.201361 0.684684
O O16 0.216781 0.000000 0.707084
O O17 0.000000 0.500000 0.764114
O O18 0.500000 0.240666 0.119193
O O19 0.682517 0.500000 0.109030
#
# Coordination Sequence:
#
# PCOD8178916 Si02
#       7
#     8   4   8   8   8   4   8
#     4  10  20  32  50  80 114 148 192 244 294 343
#     4  12  26  42  60  90 130 166 200 242 302 376
#     4  10  20  38  66  93 119 156 204 257 307 358
#     4   9  16  30  56  86 114 145 191 250 303 347
#     4   9  19  37  61  87 114 146 188 243 299 348
#     4  10  22  40  64  90 116 148 198 250 296 356
#     4  10  21  36  53  76 110 152 194 235 286 349
#
# _framework density 19.715502999999998
#
# number of rings (size 3 to 8) (size 9 to 14) (size 15 to 20)
#    0.000    2.167    0.833    2.250    1.167    5.667 
#    0.000    2.500    0.000    2.000    0.000    0.000 
#    0.000    0.000    0.000    0.000    0.000    0.000 
#
# Total GULP energy -297504.037494 kJ/mol
# GULP energy per Si atom -12396.001562 kJ/mol
# Density = 1.967063 g / cm^3
# Si number density = 19.715503 Si / 1000 Ang^3
#
#
#
# Elastic Constant Matrix: (Units=GPa)
#
#
# Indices 1 2 3 4 5 6 
#
# 1 79.4394 43.9383 62.7534 0.0000 0.0000 0.0000
# 2 43.9383 106.0275 66.6706 0.0000 0.0000 0.0000
# 3 62.7534 66.6706 142.5704 0.0000 0.0000 0.0000
# 4 0.0000 0.0000 0.0000 22.6472 0.0000 0.0000
# 5 0.0000 0.0000 0.0000 0.0000 -8.4671 0.0000
# 6 0.0000 0.0000 0.0000 0.0000 0.0000 17.7820
#
#
#
# Elastic Compliance Matrix: (Units=1/GPa)
#
#
# Indices 1 2 3 4 5 6 
#
# 1 0.020419 -0.003981 -0.007126 0.000000 0.000000 0.000000
# 2 -0.003981 0.014136 -0.004858 0.000000 0.000000 0.000000
# 3 -0.007126 -0.004858 0.012423 0.000000 0.000000 0.000000
# 4 0.000000 0.000000 0.000000 0.044155 0.000000 0.000000
# 5 0.000000 0.000000 0.000000 0.000000 -0.118104 0.000000
# 6 0.000000 0.000000 0.000000 0.000000 0.000000 0.056237
#
#
# Mechanical properties :
#
#
# Convention : Reuss Voigt Hill
#
# Bulk Modulus (GPa) = 66.45658 74.97354 70.71506
# Shear Modulus (GPa) = 75.51453 16.70410 46.10931
#
# Velocity S-wave (km/s) = 6.19558 2.91393 4.84129
# Velocity P-wave (km/s) = 9.21745 7.03076 8.19734
#
# Compressibility (1/GPa) = 0.01504742
#
# Stress axis : x y z
#
# Youngs Moduli (GPa) = 48.97301 70.74056 80.49854
#
# Poissons Ratio (x) = 0.28162 0.57364
# Poissons Ratio (y) = 0.19496 0.39108
# Poissons Ratio (z) = 0.34899 0.34368
#
# Static dielectric constant tensor:
#      x y z
#    x 3.334190 0.000000 0.000000 
#    y 0.000000 3.776110 0.000000 
#    z 0.000000 0.000000 3.589140 
# 
# 
# High freq. dielectric constant tensor:
#      x y z
#    x 1.732230 0.000000 0.000000 
#    y 0.000000 1.778960 0.000000 
#    z 0.000000 0.000000 1.773810 
# 
# From -- ./inp_files/24328.got.cif
#   From: 2010.03.12/outbox.cif.g09.slc.cpg/sg38_13_cif.got.tgz:24328.got - 2010.04.14 02:38:36.
