data_PCOD8178369
_publ_section_title
;
Structure prediction by ZEFSAII (Michael W. Deem and Ramdas Pophale) SiO2 
 PCOD8178369
Probable space group: A M M 2
;
_chemical_formula_sum "Si O2"
_cell_formula_units_Z 40
_cell_length_a 11.524136
_cell_length_b 8.800524
_cell_length_c 20.473820
_cell_angle_alpha 90.000000
_cell_angle_beta 90.000000
_cell_angle_gamma 90.000000
_cell_volume 2076.422792
_symmetry_space_group_name_H-M "A M M 2"
_symmetry_group_IT_number 38
_symmetry_cell_setting 'orthorhombic'
loop_
_space_group_symop_operation_xyz
x,y,z
-x,-y,z
-x,y,z
x,-y,z
x,1/2+y,1/2+z
-x,1/2-y,1/2+z
-x,1/2+y,1/2+z
x,1/2-y,1/2+z
loop_
_atom_site_type_symbol
_atom_site_label
_atom_site_fract_x
_atom_site_fract_y
_atom_site_fract_z
Si Si1 0.500000 0.681401 0.659070
Si Si2 0.863971 0.827533 0.081654
Si Si3 0.258190 0.821006 0.212669
Si Si4 0.732546 0.677850 0.967647
Si Si5 0.868401 0.681178 0.840279
Si Si6 0.500000 0.679411 0.509624
O O1 0.500000 0.500000 0.657439
O O2 0.613453 0.744689 0.696865
O O3 0.500000 0.741729 0.584268
O O4 0.828444 0.778186 0.154224
O O5 0.000000 0.814246 0.074386
O O6 0.820690 0.000000 0.067600
O O7 0.805900 0.712070 0.031998
O O8 0.204090 0.751659 0.278884
O O9 0.268409 0.000000 0.221130
O O10 0.708890 0.500000 0.962381
O O11 0.804663 0.738288 0.905533
O O12 0.610580 0.762599 0.969965
O O13 0.872351 0.500000 0.837532
O O14 0.000000 0.745280 0.839083
O O15 0.500000 0.500000 0.510019
#
# Coordination Sequence:
#
# PCOD8178369 Si02
#       6
#     4   8   8   8   8   4
#     4   9  16  28  51  79 105 132 172 231 279 311
#     4  10  19  32  54  82 108 143 193 237 272 317
#     4   9  16  29  51  79 107 140 185 235 276 312
#     4  11  22  35  54  82 114 147 182 222 280 340
#     4   9  18  32  50  77 115 149 178 223 276 323
#     4  11  21  38  59  81 111 142 184 233 279 325
#
# _framework density 19.263898999999999
#
# number of rings (size 3 to 8) (size 9 to 14) (size 15 to 20)
#    0.000    2.200    2.000    2.100    0.000    4.400 
#    0.000    3.000    0.000    2.400    0.000    0.000 
#    0.000    0.000    0.000    0.000    0.000    0.000 
#
# Total GULP energy -247997.978351 kJ/mol
# GULP energy per Si atom -12399.898918 kJ/mol
# Density = 1.922005 g / cm^3
# Si number density = 19.263899 Si / 1000 Ang^3
#
#
#
# Elastic Constant Matrix: (Units=GPa)
#
#
# Indices 1 2 3 4 5 6 
#
# 1 154.7548 25.3705 66.0310 0.0000 0.0000 0.0000
# 2 25.3705 28.3509 24.6717 0.0000 0.0000 0.0000
# 3 66.0310 24.6717 117.1863 0.0000 0.0000 0.0000
# 4 0.0000 0.0000 0.0000 21.3978 0.0000 0.0000
# 5 0.0000 0.0000 0.0000 0.0000 42.3595 0.0000
# 6 0.0000 0.0000 0.0000 0.0000 0.0000 24.3568
#
#
#
# Elastic Compliance Matrix: (Units=1/GPa)
#
#
# Indices 1 2 3 4 5 6 
#
# 1 0.008939 -0.004427 -0.004105 0.000000 0.000000 0.000000
# 2 -0.004427 0.045377 -0.007059 0.000000 0.000000 0.000000
# 3 -0.004105 -0.007059 0.012332 0.000000 0.000000 0.000000
# 4 0.000000 0.000000 0.000000 0.046734 0.000000 0.000000
# 5 0.000000 0.000000 0.000000 0.000000 0.023607 0.000000
# 6 0.000000 0.000000 0.000000 0.000000 0.000000 0.041056
#
#
# Mechanical properties :
#
#
# Convention : Reuss Voigt Hill
#
# Bulk Modulus (GPa) = 28.19546 59.15981 43.67764
# Shear Modulus (GPa) = 22.61937 29.90408 26.26172
#
# Velocity S-wave (km/s) = 3.43035 3.94425 3.69624
# Velocity P-wave (km/s) = 5.50981 7.17772 6.39834
#
# Compressibility (1/GPa) = 0.03546670
#
# Stress axis : x y z
#
# Youngs Moduli (GPa) = 111.86828 22.03776 81.08684
#
# Poissons Ratio (x) = 0.09757 0.33285
# Poissons Ratio (y) = 0.49527 0.57237
# Poissons Ratio (z) = 0.45920 0.15556
#
# Static dielectric constant tensor:
#      x y z
#    x 3.863880 0.000000 0.000000 
#    y 0.000000 3.013080 0.000000 
#    z 0.000000 0.000000 3.707290 
# 
# 
# High freq. dielectric constant tensor:
#      x y z
#    x 1.770520 0.000000 0.000000 
#    y 0.000000 1.692380 0.000000 
#    z 0.000000 0.000000 1.755380 
# 
# From -- ./inp_files/20459.got.cif
#   From: 2010.03.12/outbox.cif.g09.slc.cpg/sg38_11_cif.got.tgz:20459.got - 2010.04.14 02:38:36.
