data_PCOD8178896
_publ_section_title
;
Structure prediction by ZEFSAII (Michael W. Deem and Ramdas Pophale) SiO2 
 PCOD8178896
Probable space group: A M M 2
;
_chemical_formula_sum "Si O2"
_cell_formula_units_Z 64
_cell_length_a 9.441570
_cell_length_b 22.275104
_cell_length_c 15.620239
_cell_angle_alpha 90.000000
_cell_angle_beta 90.000000
_cell_angle_gamma 90.000000
_cell_volume 3285.122981
_symmetry_space_group_name_H-M "A M M 2"
_symmetry_group_IT_number 38
_symmetry_cell_setting 'orthorhombic'
loop_
_space_group_symop_operation_xyz
x,y,z
-x,-y,z
-x,y,z
x,-y,z
x,1/2+y,1/2+z
-x,1/2-y,1/2+z
-x,1/2+y,1/2+z
x,1/2-y,1/2+z
loop_
_atom_site_type_symbol
_atom_site_label
_atom_site_fract_x
_atom_site_fract_y
_atom_site_fract_z
Si Si1 0.166212 0.677120 0.732020
Si Si2 0.654652 0.429385 0.292036
Si Si3 0.664940 0.567502 0.797807
Si Si4 0.840056 0.732323 0.903182
Si Si5 0.844800 0.929961 0.644439
Si Si6 0.333105 0.931777 0.983335
Si Si7 0.162796 0.598682 0.958816
Si Si8 0.165570 0.675930 0.541376
O O1 0.252090 0.614626 0.738143
O O2 0.222413 0.723782 0.806096
O O3 0.187762 0.704364 0.636808
O O4 0.000000 0.663036 0.750904
O O5 0.500000 0.399600 0.283510
O O6 0.640403 0.500000 0.276872
O O7 0.753422 0.399320 0.219835
O O8 0.716445 0.417518 0.386329
O O9 0.500000 0.586205 0.804512
O O10 0.678197 0.500000 0.759382
O O11 0.735362 0.566724 0.891456
O O12 0.828066 0.669865 0.951958
O O13 0.000000 0.754023 0.893828
O O14 0.767187 0.781573 0.966385
O O15 0.776425 0.918844 0.551786
O O16 0.000000 0.899694 0.647163
O O17 0.856997 0.000000 0.663227
O O18 0.500000 0.921038 0.994060
O O19 0.294852 0.000000 0.008391
O O20 0.246269 0.887401 0.043690
O O21 0.000000 0.576200 0.947415
O O22 0.000000 0.664365 0.526196
#
# Coordination Sequence:
#
# PCOD8178896 Si02
#       8
#     8   8   8   8   8   8   8   8
#     4   9  19  36  56  76 105 142 175 213 264 318
#     4   8  15  29  46  63  91 133 171 202 245 304
#     4  10  20  32  49  76 107 139 177 219 263 311
#     4   8  16  34  54  74 102 135 171 213 258 305
#     4   9  16  25  41  70 103 132 169 216 261 304
#     4   9  19  36  55  75 104 141 174 209 263 323
#     4   9  17  31  50  72 102 140 178 217 264 317
#     4  10  20  35  57  83 105 133 176 219 262 313
#
# _framework density 19.481767000000001
#
# number of rings (size 3 to 8) (size 9 to 14) (size 15 to 20)
#    0.000    3.000    0.000    2.250    0.000    3.750 
#    2.250    7.500    0.000    0.000    0.000    0.000 
#    0.000    0.000    0.000    0.000    0.000    0.000 
#
# Total GULP energy -396492.735697 kJ/mol
# GULP energy per Si atom -12390.397991 kJ/mol
# Density = 1.943743 g / cm^3
# Si number density = 19.481767 Si / 1000 Ang^3
#
#
#
# Elastic Constant Matrix: (Units=GPa)
#
#
# Indices 1 2 3 4 5 6 
#
# 1 55.3511 23.5989 36.3304 0.0000 0.0000 0.0000
# 2 23.5989 68.7230 42.7395 0.0000 0.0000 0.0000
# 3 36.3304 42.7395 123.3451 0.0000 0.0000 0.0000
# 4 0.0000 0.0000 0.0000 24.9483 0.0000 0.0000
# 5 0.0000 0.0000 0.0000 0.0000 24.9013 0.0000
# 6 0.0000 0.0000 0.0000 0.0000 0.0000 18.2960
#
#
#
# Elastic Compliance Matrix: (Units=1/GPa)
#
#
# Indices 1 2 3 4 5 6 
#
# 1 0.023584 -0.004816 -0.005278 0.000000 0.000000 0.000000
# 2 -0.004816 0.019532 -0.005349 0.000000 0.000000 0.000000
# 3 -0.005278 -0.005349 0.011515 0.000000 0.000000 0.000000
# 4 0.000000 0.000000 0.000000 0.040083 0.000000 0.000000
# 5 0.000000 0.000000 0.000000 0.000000 0.040159 0.000000
# 6 0.000000 0.000000 0.000000 0.000000 0.000000 0.054657
#
#
# Mechanical properties :
#
#
# Convention : Reuss Voigt Hill
#
# Bulk Modulus (GPa) = 42.11454 50.30632 46.21043
# Shear Modulus (GPa) = 21.89809 23.27915 22.58862
#
# Velocity S-wave (km/s) = 3.35629 3.46051 3.40880
# Velocity P-wave (km/s) = 6.05673 6.46878 6.26614
#
# Compressibility (1/GPa) = 0.02374477
#
# Stress axis : x y z
#
# Youngs Moduli (GPa) = 42.40172 51.19864 86.84059
#
# Poissons Ratio (x) = 0.24659 0.45831
# Poissons Ratio (y) = 0.20422 0.46453
# Poissons Ratio (z) = 0.22378 0.27387
#
# Static dielectric constant tensor:
#      x y z
#    x 3.533650 0.000000 0.000000 
#    y 0.000000 3.271340 0.000000 
#    z 0.000000 0.000000 3.736390 
# 
# 
# High freq. dielectric constant tensor:
#      x y z
#    x 1.733440 0.000000 0.000000 
#    y 0.000000 1.728620 0.000000 
#    z 0.000000 0.000000 1.769700 
# 
# From -- ./inp_files/12860.got.cif
#   From: 2010.03.12/outbox.cif.g09.slc.cpg/sg38_7_cif.got.tgz:12860.got - 2010.04.14 02:38:36.
