data_PCOD8178959
_publ_section_title
;
Structure prediction by ZEFSAII (Michael W. Deem and Ramdas Pophale) SiO2 
 PCOD8178959
Probable space group: A M M 2
;
_chemical_formula_sum "Si O2"
_cell_formula_units_Z 64
_cell_length_a 8.894814
_cell_length_b 27.487441
_cell_length_c 14.453489
_cell_angle_alpha 90.000000
_cell_angle_beta 90.000000
_cell_angle_gamma 90.000000
_cell_volume 3533.815550
_symmetry_space_group_name_H-M "A M M 2"
_symmetry_group_IT_number 38
_symmetry_cell_setting 'orthorhombic'
loop_
_space_group_symop_operation_xyz
x,y,z
-x,-y,z
-x,y,z
x,-y,z
x,1/2+y,1/2+z
-x,1/2-y,1/2+z
-x,1/2+y,1/2+z
x,1/2-y,1/2+z
loop_
_atom_site_type_symbol
_atom_site_label
_atom_site_fract_x
_atom_site_fract_y
_atom_site_fract_z
Si Si1 0.826510 0.819535 0.305680
Si Si2 0.171102 0.135104 0.496652
Si Si3 0.676329 0.170938 0.118506
Si Si4 0.323138 0.555041 0.110842
Si Si5 0.673007 0.281795 0.319481
Si Si6 0.329697 0.217050 0.606488
Si Si7 0.824531 0.944749 0.800297
Si Si8 0.823369 0.862406 0.940155
O O1 0.809761 0.859307 0.386561
O O2 0.762670 0.843606 0.212224
O O3 0.728203 0.773006 0.333473
O O4 0.000000 0.804108 0.291853
O O5 0.268847 0.089254 0.528105
O O6 0.218704 0.185017 0.545891
O O7 0.000000 0.124728 0.524048
O O8 0.500000 0.163295 0.134575
O O9 0.713187 0.226668 0.091798
O O10 0.735825 0.136327 0.037211
O O11 0.500000 0.558250 0.117044
O O12 0.268147 0.500000 0.091033
O O13 0.259032 0.573829 0.208461
O O14 0.500000 0.285129 0.352691
O O15 0.689115 0.297732 0.213283
O O16 0.776279 0.316050 0.380678
O O17 0.500000 0.207280 0.573955
O O18 0.776350 0.911365 0.886302
O O19 0.000000 0.939926 0.780003
O O20 0.778066 0.000000 0.824549
O O21 0.000000 0.859954 0.959392
#
# Coordination Sequence:
#
# PCOD8178959 Si02
#       8
#     8   8   8   8   8   8   8   8
#     4  10  21  36  52  73 102 135 174 216 255 297
#     4  11  22  33  51  77 102 133 170 208 253 302
#     4  10  21  36  53  73 100 137 175 212 257 302
#     4  10  21  36  55  79 105 133 165 204 251 301
#     4  10  20  33  49  73 106 141 175 209 250 300
#     4   9  19  33  49  72 103 137 171 208 248 295
#     4   9  19  36  56  78 105 135 166 203 250 303
#     4  11  21  32  51  77 103 134 172 213 256 302
#
# _framework density 18.110735999999999
#
# number of rings (size 3 to 8) (size 9 to 14) (size 15 to 20)
#    0.000    2.000    0.000    4.500    0.000   10.750 
#    0.000    0.000    0.000    0.750    0.000    1.750 
#    0.000    0.000    0.000    0.000    0.000    0.000 
#
# Total GULP energy -396932.883633 kJ/mol
# GULP energy per Si atom -12404.152614 kJ/mol
# Density = 1.806952 g / cm^3
# Si number density = 18.110736 Si / 1000 Ang^3
#
#
#
# Elastic Constant Matrix: (Units=GPa)
#
#
# Indices 1 2 3 4 5 6 
#
# 1 64.6856 29.0963 40.5504 0.0000 0.0000 0.0000
# 2 29.0963 66.0521 54.7289 0.0000 0.0000 0.0000
# 3 40.5504 54.7289 103.8600 0.0000 0.0000 0.0000
# 4 0.0000 0.0000 0.0000 26.7518 0.0000 0.0000
# 5 0.0000 0.0000 0.0000 0.0000 27.7994 0.0000
# 6 0.0000 0.0000 0.0000 0.0000 0.0000 25.0601
#
#
#
# Elastic Compliance Matrix: (Units=1/GPa)
#
#
# Indices 1 2 3 4 5 6 
#
# 1 0.021165 -0.004395 -0.005947 0.000000 0.000000 0.000000
# 2 -0.004395 0.027785 -0.012925 0.000000 0.000000 0.000000
# 3 -0.005947 -0.012925 0.018761 0.000000 0.000000 0.000000
# 4 0.000000 0.000000 0.000000 0.037381 0.000000 0.000000
# 5 0.000000 0.000000 0.000000 0.000000 0.035972 0.000000
# 6 0.000000 0.000000 0.000000 0.000000 0.000000 0.039904
#
#
# Mechanical properties :
#
#
# Convention : Reuss Voigt Hill
#
# Bulk Modulus (GPa) = 47.22469 53.70542 50.46506
# Shear Modulus (GPa) = 21.31629 23.27041 22.29335
#
# Velocity S-wave (km/s) = 3.43446 3.58843 3.51229
# Velocity P-wave (km/s) = 6.46989 6.84744 6.66134
#
# Compressibility (1/GPa) = 0.02117536
#
# Stress axis : x y z
#
# Youngs Moduli (GPa) = 47.24842 35.99027 53.30127
#
# Poissons Ratio (x) = 0.15819 0.31699
# Poissons Ratio (y) = 0.20768 0.68893
# Poissons Ratio (z) = 0.28100 0.46518
#
# Static dielectric constant tensor:
#      x y z
#    x 3.434870 0.000000 0.000000 
#    y 0.000000 3.238510 0.000000 
#    z 0.000000 0.000000 3.432460 
# 
# 
# High freq. dielectric constant tensor:
#      x y z
#    x 1.714590 0.000000 0.000000 
#    y 0.000000 1.676710 0.000000 
#    z 0.000000 0.000000 1.702970 
# 
# From -- ./inp_files/12824.got.cif
#   From: 2010.03.12/outbox.cif.g09.slc.cpg/sg38_7_cif.got.tgz:12824.got - 2010.04.14 02:38:36.
