data_PCOD8178230
_publ_section_title
;
Structure prediction by ZEFSAII (Michael W. Deem and Ramdas Pophale) SiO2 
 PCOD8178230
Probable space group: A M M 2
;
_chemical_formula_sum "Si O2"
_cell_formula_units_Z 48
_cell_length_a 7.803770
_cell_length_b 9.755019
_cell_length_c 33.840892
_cell_angle_alpha 90.000000
_cell_angle_beta 90.000000
_cell_angle_gamma 90.000000
_cell_volume 2576.169194
_symmetry_space_group_name_H-M "A M M 2"
_symmetry_group_IT_number 38
_symmetry_cell_setting 'orthorhombic'
loop_
_space_group_symop_operation_xyz
x,y,z
-x,-y,z
-x,y,z
x,-y,z
x,1/2+y,1/2+z
-x,1/2-y,1/2+z
-x,1/2+y,1/2+z
x,1/2-y,1/2+z
loop_
_atom_site_type_symbol
_atom_site_label
_atom_site_fract_x
_atom_site_fract_y
_atom_site_fract_z
Si Si1 0.000000 0.836007 0.122200
Si Si2 0.699337 0.658340 0.326654
Si Si3 0.311753 0.162076 0.175241
Si Si4 0.805606 0.848045 0.257810
Si Si5 0.303106 0.841995 0.484939
Si Si6 0.296845 0.848493 0.914304
Si Si7 0.000000 0.658393 0.044557
O O1 0.167717 0.781906 0.145519
O O2 0.000000 0.762334 0.080458
O O3 0.000000 0.000000 0.115954
O O4 0.500000 0.691641 0.322977
O O5 0.737070 0.500000 0.317191
O O6 0.797519 0.751437 0.295628
O O7 0.768665 0.694509 0.370667
O O8 0.500000 0.204776 0.159241
O O9 0.292461 0.217877 0.220124
O O10 0.289819 0.000000 0.177802
O O11 0.000000 0.861168 0.243885
O O12 0.733277 0.000000 0.268486
O O13 0.500000 0.802010 0.496613
O O14 0.234603 0.758157 0.447157
O O15 0.173928 0.809734 0.520491
O O16 0.293195 0.000000 0.472705
O O17 0.500000 0.853442 0.912466
O O18 0.226579 0.000000 0.925240
O O19 0.000000 0.500000 0.058494
#
# Coordination Sequence:
#
# PCOD8178230 Si02
#       7
#     4   8   8   8   8   8   4
#     4  10  20  36  56  79 104 129 167 210 249 310
#     4   9  18  32  49  72 104 140 177 217 262 310
#     4   9  17  32  55  79 104 134 167 211 262 301
#     4  10  19  32  50  74 104 138 178 221 258 301
#     4   9  18  34  55  76 101 136 172 206 252 307
#     4   8  15  30  51  73 100 134 172 216 258 295
#     4  10  22  38  54  77 108 135 161 204 259 308
#
# _framework density 18.632314999999998
#
# number of rings (size 3 to 8) (size 9 to 14) (size 15 to 20)
#    0.000    2.833    0.833    1.500    0.000    3.333 
#    1.500    2.500    0.000    1.000    0.000    0.000 
#    0.000    0.000    0.000    0.000    0.000    0.000 
#
# Total GULP energy -297475.062304 kJ/mol
# GULP energy per Si atom -12394.794263 kJ/mol
# Density = 1.858991 g / cm^3
# Si number density = 18.632315 Si / 1000 Ang^3
#
#
#
# Elastic Constant Matrix: (Units=GPa)
#
#
# Indices 1 2 3 4 5 6 
#
# 1 98.0289 32.6223 55.9858 0.0000 0.0000 0.0000
# 2 32.6223 62.6348 64.9877 0.0000 0.0000 0.0000
# 3 55.9858 64.9877 139.5188 0.0000 0.0000 0.0000
# 4 0.0000 0.0000 0.0000 34.4189 0.0000 0.0000
# 5 0.0000 0.0000 0.0000 0.0000 27.4264 0.0000
# 6 0.0000 0.0000 0.0000 0.0000 0.0000 16.0690
#
#
#
# Elastic Compliance Matrix: (Units=1/GPa)
#
#
# Indices 1 2 3 4 5 6 
#
# 1 0.013470 -0.002724 -0.004136 0.000000 0.000000 0.000000
# 2 -0.002724 0.031450 -0.013556 0.000000 0.000000 0.000000
# 3 -0.004136 -0.013556 0.015142 0.000000 0.000000 0.000000
# 4 0.000000 0.000000 0.000000 0.029054 0.000000 0.000000
# 5 0.000000 0.000000 0.000000 0.000000 0.036461 0.000000
# 6 0.000000 0.000000 0.000000 0.000000 0.000000 0.062232
#
#
# Mechanical properties :
#
#
# Convention : Reuss Voigt Hill
#
# Bulk Modulus (GPa) = 52.00600 67.48599 59.74600
# Shear Modulus (GPa) = 21.27201 25.35530 23.31365
#
# Velocity S-wave (km/s) = 3.38253 3.69294 3.54114
# Velocity P-wave (km/s) = 6.57478 7.38121 6.98963
#
# Compressibility (1/GPa) = 0.01922855
#
# Stress axis : x y z
#
# Youngs Moduli (GPa) = 74.23979 31.79679 66.04203
#
# Poissons Ratio (x) = 0.08661 0.27318
# Poissons Ratio (y) = 0.20221 0.89528
# Poissons Ratio (z) = 0.30709 0.43105
#
# Static dielectric constant tensor:
#      x y z
#    x 3.442650 0.000000 0.000000 
#    y 0.000000 3.279520 0.000000 
#    z 0.000000 0.000000 3.391470 
# 
# 
# High freq. dielectric constant tensor:
#      x y z
#    x 1.725450 0.000000 0.000000 
#    y 0.000000 1.697480 0.000000 
#    z 0.000000 0.000000 1.717650 
# 
# From -- ./inp_files/24375.got.cif
#   From: 2010.03.12/outbox.cif.g09.slc.cpg/sg38_13_cif.got.tgz:24375.got - 2010.04.14 02:38:36.
