data_PCOD8178857
_publ_section_title
;
Structure prediction by ZEFSAII (Michael W. Deem and Ramdas Pophale) SiO2 
 PCOD8178857
Probable space group: A M M 2
;
_chemical_formula_sum "Si O2"
_cell_formula_units_Z 48
_cell_length_a 8.966349
_cell_length_b 23.609416
_cell_length_c 13.583673
_cell_angle_alpha 90.000000
_cell_angle_beta 90.000000
_cell_angle_gamma 90.000000
_cell_volume 2875.531317
_symmetry_space_group_name_H-M "A M M 2"
_symmetry_group_IT_number 38
_symmetry_cell_setting 'orthorhombic'
loop_
_space_group_symop_operation_xyz
x,y,z
-x,-y,z
-x,y,z
x,-y,z
x,1/2+y,1/2+z
-x,1/2-y,1/2+z
-x,1/2+y,1/2+z
x,1/2-y,1/2+z
loop_
_atom_site_type_symbol
_atom_site_label
_atom_site_fract_x
_atom_site_fract_y
_atom_site_fract_z
Si Si1 0.828512 0.436567 0.576350
Si Si2 0.174319 0.338163 0.261085
Si Si3 0.828508 0.171701 0.191600
Si Si4 0.324507 0.773127 0.591318
Si Si5 0.326748 0.065454 0.874849
Si Si6 0.828778 0.729551 0.888838
O O1 0.789894 0.500000 0.613197
O O2 0.795219 0.393760 0.666036
O O3 0.728903 0.419061 0.483785
O O4 0.000000 0.432242 0.542324
O O5 0.249594 0.320979 0.158564
O O6 0.240068 0.398004 0.294399
O O7 0.208216 0.291093 0.343907
O O8 0.000000 0.344515 0.242084
O O9 0.727048 0.210639 0.122716
O O10 0.794637 0.181827 0.306454
O O11 0.000000 0.188408 0.169389
O O12 0.500000 0.778092 0.602259
O O13 0.279108 0.783806 0.478840
O O14 0.500000 0.080157 0.869035
O O15 0.293988 0.000000 0.851011
O O16 0.000000 0.727037 0.924089
#
# Coordination Sequence:
#
# PCOD8178857 Si02
#       6
#     8   8   8   8   8   8
#     4   9  17  30  49  72  97 127 163 199 235 278
#     4  10  20  34  52  71  94 126 162 198 235 279
#     4   9  18  32  49  69  95 127 160 196 237 280
#     4  11  21  31  47  71  97 124 155 194 240 288
#     4  10  20  32  47  71 102 130 156 192 238 284
#     4   9  18  32  48  67  93 125 158 194 237 281
#
# _framework density 16.692568000000001
#
# number of rings (size 3 to 8) (size 9 to 14) (size 15 to 20)
#    0.000    2.333    0.000    4.500    0.000    9.000 
#    0.000    0.000    0.000    1.000    0.000    2.333 
#    0.000    0.000    0.000    0.000    0.000    0.000 
#
# Total GULP energy -297652.742156 kJ/mol
# GULP energy per Si atom -12402.197590 kJ/mol
# Density = 1.665457 g / cm^3
# Si number density = 16.692568 Si / 1000 Ang^3
#
#
#
# Elastic Constant Matrix: (Units=GPa)
#
#
# Indices 1 2 3 4 5 6 
#
# 1 105.3172 50.2942 61.4445 0.0000 0.0000 0.0000
# 2 50.2942 98.9414 60.1626 0.0000 0.0000 0.0000
# 3 61.4445 60.1626 111.3030 0.0000 0.0000 0.0000
# 4 0.0000 0.0000 0.0000 28.1573 0.0000 0.0000
# 5 0.0000 0.0000 0.0000 0.0000 10.3733 0.0000
# 6 0.0000 0.0000 0.0000 0.0000 0.0000 23.4222
#
#
#
# Elastic Compliance Matrix: (Units=1/GPa)
#
#
# Indices 1 2 3 4 5 6 
#
# 1 0.014924 -0.003838 -0.006164 0.000000 0.000000 0.000000
# 2 -0.003838 0.016042 -0.006553 0.000000 0.000000 0.000000
# 3 -0.006164 -0.006553 0.015929 0.000000 0.000000 0.000000
# 4 0.000000 0.000000 0.000000 0.035515 0.000000 0.000000
# 5 0.000000 0.000000 0.000000 0.000000 0.096402 0.000000
# 6 0.000000 0.000000 0.000000 0.000000 0.000000 0.042695
#
#
# Mechanical properties :
#
#
# Convention : Reuss Voigt Hill
#
# Bulk Modulus (GPa) = 72.53697 73.26269 72.89983
# Shear Modulus (GPa) = 19.28917 21.96790 20.62854
#
# Velocity S-wave (km/s) = 3.40303 3.63165 3.51920
# Velocity P-wave (km/s) = 7.68048 7.84664 7.76401
#
# Compressibility (1/GPa) = 0.01378607
#
# Stress axis : x y z
#
# Youngs Moduli (GPa) = 67.00415 62.33492 62.77714
#
# Poissons Ratio (x) = 0.23925 0.38698
# Poissons Ratio (y) = 0.25717 0.41135
# Poissons Ratio (z) = 0.41304 0.40845
#
# Static dielectric constant tensor:
#      x y z
#    x 3.167610 0.000000 0.000000 
#    y 0.000000 3.169740 0.000000 
#    z 0.000000 0.000000 3.031160 
# 
# 
# High freq. dielectric constant tensor:
#      x y z
#    x 1.648820 0.000000 0.000000 
#    y 0.000000 1.634170 0.000000 
#    z 0.000000 0.000000 1.630680 
# 
# From -- ./inp_files/8116.got.cif
#   From: 2010.03.12/outbox.cif.g09.slc.cpg/sg38_5_cif.got.tgz:8116.got - 2010.04.14 02:38:36.
