data_PCOD8178541
_publ_section_title
;
Structure prediction by ZEFSAII (Michael W. Deem and Ramdas Pophale) SiO2 
 PCOD8178541
Probable space group: A M M 2
;
_chemical_formula_sum "Si O2"
_cell_formula_units_Z 48
_cell_length_a 8.718434
_cell_length_b 14.421508
_cell_length_c 20.178278
_cell_angle_alpha 90.000000
_cell_angle_beta 90.000000
_cell_angle_gamma 90.000000
_cell_volume 2537.074735
_symmetry_space_group_name_H-M "A M M 2"
_symmetry_group_IT_number 38
_symmetry_cell_setting 'orthorhombic'
loop_
_space_group_symop_operation_xyz
x,y,z
-x,-y,z
-x,y,z
x,-y,z
x,1/2+y,1/2+z
-x,1/2-y,1/2+z
-x,1/2+y,1/2+z
x,1/2-y,1/2+z
loop_
_atom_site_type_symbol
_atom_site_label
_atom_site_fract_x
_atom_site_fract_y
_atom_site_fract_z
Si Si1 0.821505 0.690906 0.935810
Si Si2 0.180698 0.500000 0.516900
Si Si3 0.322629 0.000000 0.874024
Si Si4 0.176086 0.303923 0.166142
Si Si5 0.680006 0.500000 0.964819
Si Si6 0.320412 0.690781 0.553665
Si Si7 0.824201 0.000000 0.605877
Si Si8 0.176268 0.676026 0.315900
O O1 0.789714 0.741378 0.866653
O O2 0.000000 0.683284 0.952557
O O3 0.750764 0.589366 0.929332
O O4 0.744616 0.746424 0.995207
O O5 0.220983 0.500000 0.439697
O O6 0.246515 0.589699 0.553194
O O7 0.000000 0.500000 0.524278
O O8 0.286067 0.090128 0.830921
O O9 0.500000 0.000000 0.894495
O O10 0.285001 0.237352 0.124030
O O11 0.212077 0.411015 0.150509
O O12 0.213127 0.285703 0.242965
O O13 0.000000 0.280259 0.149143
O O14 0.500000 0.500000 0.953893
O O15 0.714741 0.500000 0.042704
O O16 0.500000 0.680907 0.543273
O O17 0.000000 0.000000 0.580950
O O18 0.000000 0.642318 0.320801
#
# Coordination Sequence:
#
# PCOD8178541 Si02
#       8
#     8   4   4   8   4   8   4   8
#     4  11  22  39  63  88 119 160 203 247 297 362
#     4  12  24  41  64  89 119 161 209 252 297 361
#     4  12  23  35  59  93 129 160 195 253 314 361
#     4  10  21  39  62  90 122 163 206 247 297 362
#     4  12  24  37  58  89 123 154 200 255 298 348
#     4  12  24  39  61  92 125 157 198 253 307 359
#     4  10  19  33  59  87 121 157 194 242 299 360
#     4  10  22  40  63  89 121 162 207 248 296 364
#
# _framework density 18.919426000000001
#
# number of rings (size 3 to 8) (size 9 to 14) (size 15 to 20)
#    0.000    1.000    3.333    4.750    0.000    2.667 
#    0.000    1.667    0.000    2.000    0.000    0.000 
#    0.000    0.000    0.000    0.000    0.000    0.000 
#
# Total GULP energy -297764.754708 kJ/mol
# GULP energy per Si atom -12406.864779 kJ/mol
# Density = 1.887636 g / cm^3
# Si number density = 18.919426 Si / 1000 Ang^3
#
#
#
# Elastic Constant Matrix: (Units=GPa)
#
#
# Indices 1 2 3 4 5 6 
#
# 1 138.4209 70.3895 49.1665 0.0000 0.0000 0.0000
# 2 70.3895 152.6483 60.9935 0.0000 0.0000 0.0000
# 3 49.1665 60.9935 126.2382 0.0000 0.0000 0.0000
# 4 0.0000 0.0000 0.0000 8.5032 0.0000 0.0000
# 5 0.0000 0.0000 0.0000 0.0000 5.3450 0.0000
# 6 0.0000 0.0000 0.0000 0.0000 0.0000 320.8495
#
#
#
# Elastic Compliance Matrix: (Units=1/GPa)
#
#
# Indices 1 2 3 4 5 6 
#
# 1 0.009841 -0.003726 -0.002033 0.000000 0.000000 0.000000
# 2 -0.003726 0.009529 -0.003153 0.000000 0.000000 0.000000
# 3 -0.002033 -0.003153 0.010237 0.000000 0.000000 0.000000
# 4 0.000000 0.000000 0.000000 0.117603 0.000000 0.000000
# 5 0.000000 0.000000 0.000000 0.000000 0.187092 0.000000
# 6 0.000000 0.000000 0.000000 0.000000 0.000000 0.003117
#
#
# Mechanical properties :
#
#
# Convention : Reuss Voigt Hill
#
# Bulk Modulus (GPa) = 84.86240 86.48961 85.67600
# Shear Modulus (GPa) = 13.92107 82.72340 48.32224
#
# Velocity S-wave (km/s) = 2.71552 6.61959 5.05930
# Velocity P-wave (km/s) = 7.40163 10.20976 8.91693
#
# Compressibility (1/GPa) = 0.01178378
#
# Stress axis : x y z
#
# Youngs Moduli (GPa) = 101.61664 104.94505 97.68898
#
# Poissons Ratio (x) = 0.39099 0.19857
# Poissons Ratio (y) = 0.37859 0.30800
# Poissons Ratio (z) = 0.20655 0.33088
#
# Static dielectric constant tensor:
#      x y z
#    x 3.514750 0.000000 0.000000 
#    y 0.000000 3.637340 0.000000 
#    z 0.000000 0.000000 3.443380 
# 
# 
# High freq. dielectric constant tensor:
#      x y z
#    x 1.739880 0.000000 0.000000 
#    y 0.000000 1.741420 0.000000 
#    z 0.000000 0.000000 1.731720 
# 
# From -- ./inp_files/16772.got.cif
#   From: 2010.03.12/outbox.cif.g09.slc.cpg/sg38_9_cif.got.tgz:16772.got - 2010.04.14 02:38:36.
